158

Mg 43.92400 2.67200 47.88500
C  41.85400 5.32400 46.96800
C  41.11500 0.67800 47.91400
C  45.89300 -0.08600 47.97400
C  46.71000 4.54700 47.19000
N  41.69300 2.99600 47.34800
C  41.08100 4.16700 47.09600
C  39.57500 3.88700 46.80700
C  39.34900 2.48500 47.43200
C  40.82300 1.98500 47.53200
C  38.47800 2.47400 48.74100
C  39.17300 4.00300 45.30200
C  38.26100 5.27100 45.01700
H  38.76000 6.23500 43.89200
N  43.56100 0.61400 48.02200
C  42.33100 0.01900 48.07700
C  42.52900 -1.38400 48.33600
C  43.94400 -1.73300 48.19200
C  44.50800 -0.36400 47.99600
C  41.35000 -2.32200 48.55100
C  44.54500 -3.10600 48.35500
O  43.79500 -4.09000 48.63100
C  45.99100 -3.37000 48.20100
N  46.03900 2.16700 47.37400
C  46.61600 1.01200 47.75800
C  48.17900 1.17100 47.66400
C  48.37600 2.69300 47.40000
C  46.94300 3.16300 47.26400
C  49.02300 0.75700 48.85800
C  49.34500 3.03000 46.21400
C  50.32700 4.22900 46.51600
N  44.24000 4.51900 47.31000
C  45.39700 5.18900 47.11500
C  45.15200 6.55200 46.92600
C  43.75300 6.65800 46.83600
C  43.23000 5.43700 47.07500
C  46.15800 7.65400 46.64400
C  42.64900 7.60200 46.54900
O  42.64900 8.82000 46.32400
C  41.32800 6.73100 46.65300
C  40.39400 7.29000 47.53600
O  40.06900 6.79500 48.60200
O  39.92600 8.47200 47.06100
C  38.97100 9.24100 47.86200
H  40.24900 0.05300 48.14100
H  46.55900 -0.91400 48.22500
H  47.56800 5.20800 47.05500
H  38.94100 4.54600 47.39900
H  38.89800 1.77700 46.73600
H  37.67400 1.74100 48.81500
H  38.01800 3.44200 48.94100
H  39.13700 2.38300 49.60300
H  38.54700 3.17400 44.97200
H  40.12300 3.98600 44.76600
H  37.99000 5.81600 45.92200
H  37.33200 4.87900 44.60300
H  40.43800 -1.78000 48.29900
H  41.26700 -2.54400 49.61500
H  41.14500 -3.29100 48.09500
H  46.27400 -2.90300 47.25800
H  46.33900 -4.40000 48.27800
H  46.51500 -2.81300 48.97900
H  48.48300 0.71500 46.72200
H  48.70200 3.25600 48.27400
H  49.84400 1.45700 49.01300
H  49.45900 -0.22800 48.69000
H  48.49900 0.62100 49.80400
H  48.80900 3.29000 45.30100
H  49.76000 2.05300 45.97000
H  51.33700 3.95800 46.20800
H  50.29700 4.43300 47.58600
H  50.00000 5.15800 46.04800
H  46.84100 7.80500 47.47900
H  45.64600 8.61600 46.68200
H  46.72700 7.52500 45.72200
H  40.86400 6.70100 45.66700
H  38.33500 9.82800 47.19900
H  39.55900 9.87300 48.52800
H  38.32200 8.68600 48.53900
Mg 45.56400 24.71400 29.04400
C  46.24100 27.16600 31.36000
C  44.62700 22.51900 31.39900
C  45.34300 22.32500 26.62700
C  46.75300 26.89200 26.48700
N  45.30700 24.85400 31.15400
C  45.78700 25.91400 31.91000
C  45.50300 25.63300 33.36500
C  45.07800 24.12300 33.36500
C  44.92500 23.81000 31.90600
C  46.13500 23.24500 34.03600
C  44.36700 26.52900 33.94700
C  44.77700 27.32200 35.25300
H  43.73100 27.42700 36.36200
N  44.80700 22.70600 29.03000
C  44.47200 22.00300 30.14200
C  43.98900 20.78900 29.67800
C  44.33800 20.60900 28.28800
C  44.83200 21.91600 27.87900
C  43.30500 19.86000 30.64700
C  44.22700 19.32100 27.33800
O  44.64300 19.27600 26.17100
C  43.71600 18.04500 27.90100
N  46.17600 24.56200 26.88400
C  45.91100 23.42700 26.12600
C  46.36600 23.63800 24.66600
C  46.49700 25.16000 24.57100
C  46.50200 25.60100 26.04800
C  47.69800 22.89600 24.34000
C  45.30400 25.72900 23.83600
C  43.93500 25.88800 24.55600
N  46.27700 26.60000 28.95700
C  46.73900 27.35500 27.85100
C  47.16200 28.67900 28.31000
C  46.97100 28.66500 29.68800
C  46.49900 27.37400 29.99200
C  47.66200 29.75200 27.43500
C  47.07000 29.40700 30.91600
O  47.50700 30.56900 31.03300
C  46.80700 28.44000 32.08800
C  48.01300 28.14500 32.90200
O  48.96700 27.47200 32.52100
O  47.85500 28.62600 34.16200
C  48.78800 28.20900 35.20200
H  44.36400 21.89300 32.25500
H  45.36800 21.53300 25.87500
H  46.76100 27.80000 25.88000
H  46.43400 25.80500 33.90600
H  44.07600 23.93900 33.75300
H  45.83400 22.19800 34.08100
H  46.14700 23.65400 35.04600
H  47.13500 23.10700 33.62400
H  43.40500 26.05600 34.14300
H  44.12700 27.28100 33.19500
H  45.13100 28.33100 35.03900
H  45.66700 26.85400 35.67500
H  42.36600 19.47700 30.24700
H  43.37400 20.12700 31.70100
H  43.90200 18.94900 30.68300
H  42.63600 18.17000 27.97500
H  44.23500 18.07400 28.85900
H  44.02100 17.20300 27.28000
H  45.66200 23.26300 23.92200
H  47.43500 25.46800 24.10900
H  47.59600 22.35400 23.40000
H  47.97600 22.20900 25.13900
H  48.54200 23.55400 24.13200
H  45.10100 25.25900 22.87400
H  45.48100 26.76200 23.54000
H  44.01600 26.90100 24.95000
H  43.73200 25.07300 25.25200
H  43.17000 25.94400 23.78300
H  48.00100 29.33700 26.48500
H  48.51900 30.18600 27.95000
H  46.93300 30.54800 27.28700
H  46.00900 28.77500 32.75100
H  49.72800 27.83700 34.79400
H  48.52800 27.37400 35.85300
H  49.06400 29.11000 35.75000

