158

Mg 46.68900 25.40700 27.88000
C  47.80700 27.46700 30.54000
C  45.56500 23.14600 30.36300
C  46.22500 23.17600 25.51400
C  48.16900 27.61700 25.68700
N  46.60000 25.37000 30.16000
C  47.13100 26.31800 30.98000
C  46.92300 25.97500 32.46400
C  46.33200 24.52600 32.34300
C  46.18200 24.31200 30.87700
C  47.22000 23.48100 33.03100
C  45.90700 26.96200 33.10400
C  46.44000 27.62800 34.40100
H  45.30500 27.91400 35.42500
N  45.81800 23.47300 27.89400
C  45.37600 22.70600 29.00500
C  44.65000 21.52900 28.48400
C  44.91300 21.46700 27.04400
C  45.68600 22.72900 26.75400
C  43.82200 20.58300 29.29600
C  44.54900 20.41700 25.98400
O  44.91500 20.53300 24.81600
C  43.59300 19.26400 26.31100
N  47.16400 25.42600 25.93200
C  46.83400 24.39800 25.07700
C  47.09300 24.78400 23.57400
C  47.31500 26.36000 23.62200
C  47.58500 26.51700 25.17300
C  48.24100 24.01400 22.86500
C  46.14700 27.36100 23.22100
C  46.72300 28.54900 22.36200
N  47.84400 27.12900 28.04200
C  48.38000 27.92600 27.03500
C  49.18500 29.00800 27.61500
C  49.01500 28.80700 29.00300
C  48.10000 27.69800 29.18500
C  49.81800 30.12900 26.88600
C  49.22400 29.41700 30.25900
O  49.87700 30.40600 30.52300
C  48.51200 28.55400 31.30700
C  49.62400 28.08900 32.18100
O  50.26000 27.02700 32.01700
O  49.76600 28.93300 33.28500
C  50.82900 28.57200 34.21100
H  45.18300 22.46100 31.12300
H  46.27500 22.41000 24.73800
H  48.41600 28.26100 24.84100
H  47.80000 26.04400 33.10800
H  45.30000 24.38600 32.66400
H  47.90700 23.03200 32.31400
H  46.53500 22.66500 33.26300
H  47.56600 23.78300 34.02000
H  44.92200 26.52500 33.26600
H  45.72900 27.74500 32.36700
H  46.94400 28.56700 34.17300
H  47.16900 26.99100 34.90200
H  42.87800 20.42400 28.77400
H  43.67400 21.01900 30.28400
H  44.37300 19.64700 29.38800
H  43.81400 18.55300 25.51600
H  42.54100 19.54000 26.25100
H  43.74100 18.86400 27.31400
H  46.18900 24.47900 23.04700
H  48.23900 26.72500 23.17500
H  48.04000 23.47100 21.94200
H  48.62700 23.39100 23.67200
H  49.08500 24.65400 22.60500
H  45.57200 27.64800 24.10200
H  45.45200 26.75300 22.64200
H  46.24300 28.53600 21.38300
H  47.80400 28.44000 22.27600
H  46.47000 29.49200 22.84800
H  50.09800 29.79600 25.88600
H  50.65700 30.54900 27.44000
H  49.12900 30.97100 26.95500
H  47.81200 29.15200 31.89100
H  50.38100 27.85100 34.89400
H  51.00500 29.37200 34.93000
H  51.75300 28.14600 33.82200
Mg 42.74300 42.30200 27.42700
C  41.96200 44.61200 29.90000
C  43.52200 40.07100 29.74600
C  43.44400 40.29700 24.92700
C  42.42500 44.95300 24.98100
N  42.63900 42.27900 29.59300
C  42.23100 43.35400 30.43500
C  42.24400 42.90600 31.92800
C  42.93300 41.54300 31.83300
C  43.02300 41.22600 30.31500
C  44.29400 41.32200 32.50400
C  40.81400 42.92100 32.39800
C  40.59300 43.75700 33.70000
H  39.91100 42.96100 34.86900
N  43.44800 40.40000 27.32400
C  43.64000 39.64200 28.39500
C  43.99900 38.31400 27.91800
C  43.87800 38.35400 26.45900
C  43.58000 39.73900 26.17100
C  44.42400 37.26900 28.82700
C  44.07100 37.27000 25.41800
O  44.05800 37.42300 24.15100
C  44.50800 35.88100 25.92200
N  42.94300 42.63400 25.24700
C  43.16000 41.55200 24.47400
C  42.95900 41.86400 22.96000
C  42.46300 43.32300 23.09100
C  42.65200 43.71500 24.50900
C  44.23400 41.65100 21.96700
C  40.95800 43.63900 22.59100
C  39.87100 44.05700 23.60200
N  42.23900 44.32900 27.36600
C  42.18400 45.28400 26.32700
C  41.67900 46.55600 26.90800
C  41.60900 46.36300 28.29900
C  41.93400 45.00300 28.52800
C  41.36600 47.86000 26.18100
C  41.31800 46.97300 29.53400
O  40.88800 48.11700 29.77400
C  41.53200 45.90400 30.68200
C  42.48800 46.45100 31.70600
O  43.74100 46.43900 31.53300
O  41.76500 46.89900 32.80600
C  42.45400 47.13600 34.05600
H  43.92700 39.41100 30.51600
H  43.30500 39.60300 24.09500
H  42.26700 45.79100 24.29800
H  42.86800 43.60000 32.49100
H  42.21900 40.79600 32.18200
H  45.07000 41.00200 31.80800
H  44.27000 40.63400 33.34800
H  44.61800 42.28700 32.89500
H  40.43100 41.95200 32.71700
H  40.12200 43.19300 31.60000
H  40.03000 44.65700 33.45000
H  41.56300 44.14600 34.01000
H  43.55900 36.60800 28.88700
H  44.67700 37.65400 29.81500
H  45.29500 36.71200 28.48300
H  43.84800 35.46400 26.68300
H  45.51700 35.98400 26.32200
H  44.44600 35.18500 25.08600
H  42.12700 41.26600 22.58800
H  42.96200 43.85000 22.27700
H  43.93500 41.12200 21.06200
H  45.08100 41.24200 22.51800
H  44.50300 42.65000 21.62200
H  40.63700 42.88000 21.87700
H  41.19200 44.52100 21.99500
H  39.02400 43.69900 23.01600
H  39.70000 45.13200 23.65500
H  39.83400 43.60800 24.59400
H  40.44800 47.68200 25.62000
H  42.16000 48.11200 25.47800
H  41.27900 48.66400 26.91200
H  40.55200 45.77600 31.14200
H  42.51800 46.24300 34.67800
H  41.87200 47.87600 34.60500
H  43.45500 47.51100 33.84500

