158

Mg 48.49800 14.82900 28.39500
C  46.13800 14.90800 30.94500
C  50.67700 16.38100 30.43300
C  50.77600 14.71500 25.84000
C  46.15200 13.36800 26.29600
N  48.36700 15.61000 30.44900
C  47.33500 15.53800 31.34200
C  47.74900 16.10700 32.72100
C  49.15900 16.71700 32.40000
C  49.47700 16.21000 30.93800
C  49.30100 18.28400 32.52100
C  47.86500 14.84300 33.68800
C  47.18900 15.07400 35.08400
H  47.01700 16.44100 35.77000
N  50.42400 15.49600 28.20200
C  51.19700 16.09200 29.16100
C  52.49800 16.31300 28.63700
C  52.52200 15.72400 27.33000
C  51.24600 15.18100 27.07500
C  53.59300 17.02600 29.48700
C  53.65400 15.78800 26.25100
O  53.64600 15.17300 25.16600
C  54.88600 16.61400 26.57000
N  48.35200 14.37700 26.29800
C  49.50800 14.22000 25.55900
C  49.10300 13.61900 24.19100
C  47.70300 13.02400 24.43800
C  47.38600 13.62500 25.80500
C  49.22600 14.51000 22.91800
C  47.59900 11.49800 24.34600
C  46.38900 10.94700 23.60400
N  46.50700 14.38200 28.47300
C  45.71900 13.70900 27.56400
C  44.48600 13.36800 28.23400
C  44.62300 13.71000 29.61600
C  45.85400 14.40000 29.68400
C  43.34000 12.63100 27.66100
C  43.90500 13.76400 30.87200
O  42.79200 13.29500 31.29200
C  44.93400 14.49900 31.72800
C  44.14800 15.60400 32.40900
O  44.02800 16.78800 32.02200
O  43.55000 15.15100 33.53600
C  42.83600 16.10700 34.35400
H  51.47500 16.87900 30.98600
H  51.43000 14.55300 24.98100
H  45.43500 12.90600 25.61400
H  47.04600 16.86500 33.06700
H  49.90500 16.29900 33.07600
H  50.26800 18.48900 32.98000
H  48.49200 18.67400 33.14000
H  49.10500 18.73100 31.54700
H  48.92400 14.61200 33.80600
H  47.36700 13.99800 33.21300
H  47.83800 14.53500 35.77300
H  46.22600 14.56200 35.07600
H  54.01300 17.84200 28.90000
H  54.25100 16.21400 29.79600
H  53.38000 17.56000 30.41300
H  55.46500 16.51600 25.65100
H  55.45500 15.99800 27.26600
H  54.81900 17.67600 26.80700
H  49.84800 12.84000 24.02800
H  47.06200 13.47200 23.67900
H  49.63200 15.45900 23.26900
H  48.30900 14.65900 22.34900
H  50.01600 14.16300 22.25100
H  47.48600 11.15500 25.37400
H  48.53000 11.11500 23.92800
H  46.69700 10.87800 22.56100
H  45.55300 11.63700 23.72200
H  46.07100 9.98100 23.99600
H  43.37700 12.70000 26.57400
H  42.56000 13.18600 28.18300
H  43.39800 11.57500 27.92500
H  45.22600 13.78800 32.50100
H  41.77300 16.23900 34.15200
H  43.30700 17.08900 34.29800
H  42.97100 15.84100 35.40300
Mg -2.39200 34.55800 26.05300
C  -3.77100 32.36000 28.39800
C  -1.10500 36.47900 28.61300
C  -1.04900 36.46800 23.68800
C  -3.95400 32.52600 23.52800
N  -2.49900 34.42800 28.27000
C  -3.01000 33.37600 29.01300
C  -2.84200 33.63500 30.49000
C  -2.27000 35.14600 30.54200
C  -1.95500 35.40500 29.06200
C  -3.23800 36.23000 31.15600
C  -1.94600 32.55000 31.14100
C  -2.49300 31.90300 32.39600
H  -1.46900 32.06600 33.55200
N  -1.24700 36.28900 26.12300
C  -0.73100 36.82000 27.34400
C  0.01100 38.05900 26.92600
C  0.16300 38.04400 25.46700
C  -0.74000 36.88700 25.01200
C  0.69800 38.95100 27.89100
C  0.81600 39.09500 24.59200
O  0.82800 38.92800 23.36000
C  1.46200 40.35400 25.14400
N  -2.70000 34.71100 23.87900
C  -1.93200 35.51500 23.19400
C  -1.95600 35.17600 21.63600
C  -2.72800 33.86700 21.56400
C  -3.14900 33.65500 23.12100
C  -2.60200 36.34700 20.84300
C  -2.01800 32.57600 20.99100
C  -0.67900 32.74900 20.30600
N  -3.65500 32.88600 25.90900
C  -4.14000 32.12700 24.88200
C  -4.91100 31.02300 25.33400
C  -4.73300 31.05100 26.76600
C  -4.02800 32.22600 27.07000
C  -5.56000 30.00500 24.42700
C  -5.02800 30.35200 27.96000
O  -5.76800 29.38900 28.16800
C  -4.39600 31.15400 29.13700
C  -5.43800 31.58200 30.12400
O  -6.15500 32.54600 29.98500
O  -5.38200 30.70300 31.17900
C  -6.14200 30.97500 32.38100
H  -0.87800 37.12500 29.46400
H  -0.65200 37.01200 22.82900
H  -4.38900 31.89000 22.75500
H  -3.83100 33.59200 30.94700
H  -1.31500 35.23600 31.06000
H  -2.71000 36.78900 31.92800
H  -4.13400 35.80700 31.61100
H  -3.59800 36.94200 30.41400
H  -1.12800 33.14800 31.54300
H  -1.62600 31.73400 30.49300
H  -2.77400 30.86600 32.21300
H  -3.37400 32.39800 32.80400
H  1.76900 39.02000 27.69900
H  0.42700 38.56200 28.87200
H  0.24300 39.94100 27.86600
H  2.34600 40.15700 25.75100
H  0.76100 40.97300 25.70400
H  1.87900 41.03100 24.39900
H  -0.93000 35.12400 21.27100
H  -3.65700 34.06800 21.03100
H  -2.78500 37.31500 21.31100
H  -3.62800 36.07200 20.59800
H  -2.02000 36.57400 19.95000
H  -2.66200 32.01300 20.31500
H  -1.80100 31.88000 21.80200
H  -0.51500 33.68300 19.76700
H  -0.50800 31.91200 19.63000
H  0.02500 32.76700 21.13800
H  -6.24800 30.46000 23.71400
H  -6.10500 29.23300 24.97000
H  -4.77300 29.52200 23.84900
H  -3.70700 30.44500 29.59600
H  -5.66500 31.83600 32.85000
H  -6.09600 30.07500 32.99300
H  -7.18300 31.22000 32.17200

