158

Mg -1.71100 17.26400 25.89400
C  -2.23100 14.96600 28.46300
C  -2.95800 19.69700 28.08800
C  -1.55000 19.50300 23.40700
C  -1.25700 14.65900 23.68900
N  -2.53400 17.23100 28.06200
C  -2.52500 16.24100 28.89500
C  -3.07600 16.64400 30.29100
C  -3.76200 18.01200 29.96600
C  -3.03400 18.40200 28.61000
C  -5.30300 17.79900 29.69700
C  -1.95200 16.74900 31.37200
C  -2.17300 16.24700 32.78500
H  -0.97900 16.50200 33.74000
N  -2.14700 19.33200 25.75400
C  -2.57100 20.14300 26.79900
C  -2.68500 21.49600 26.34200
C  -2.24700 21.46800 24.98500
C  -2.01800 20.05000 24.63800
C  -3.14400 22.71800 27.21000
C  -2.00500 22.64000 24.12500
O  -1.74300 22.59200 22.90400
C  -1.77600 23.97600 24.76200
N  -1.39500 17.10100 23.83700
C  -1.41500 18.15200 23.02500
C  -1.10400 17.62200 21.62300
C  -0.67100 16.20900 21.78500
C  -1.13000 15.98100 23.17800
C  -2.19800 17.93700 20.53300
C  0.76200 15.69100 21.56700
C  1.89400 16.33900 22.32500
N  -1.72800 15.31000 26.02500
C  -1.56100 14.34000 25.01700
C  -1.67200 13.06100 25.59700
C  -2.02600 13.21200 26.94200
C  -1.93400 14.62200 27.18500
C  -1.46400 11.80800 24.81600
C  -2.34100 12.49900 28.14400
O  -2.37500 11.27900 28.41700
C  -2.47300 13.65300 29.20200
C  -1.55100 13.36000 30.31100
O  -0.46800 13.88500 30.40300
O  -2.03700 12.36600 31.05100
C  -1.26800 11.94500 32.24000
H  -3.28500 20.50900 28.74000
H  -1.33200 20.24700 22.63800
H  -0.94700 13.88600 22.98200
H  -3.71200 15.84900 30.67900
H  -3.62900 18.74000 30.76600
H  -5.64000 18.23900 28.75900
H  -5.81300 18.27000 30.53800
H  -5.44300 16.72300 29.79900
H  -1.60900 17.78300 31.40200
H  -1.04800 16.26900 30.99700
H  -2.44000 15.20000 32.93000
H  -2.98000 16.86500 33.17900
H  -3.92900 23.21700 26.64300
H  -2.34100 23.42000 27.43600
H  -3.60400 22.35200 28.12800
H  -2.62200 24.47900 25.22900
H  -1.34200 24.71200 24.08500
H  -1.06000 23.81800 25.56800
H  -0.21900 18.18400 21.32300
H  -1.30100 15.58500 21.15000
H  -3.08600 17.45000 20.93700
H  -1.93800 17.60800 19.52800
H  -2.29500 19.02200 20.49100
H  0.99400 15.67400 20.50200
H  0.87500 14.62500 21.76300
H  2.30100 15.70200 23.11100
H  1.58600 17.27400 22.79200
H  2.75300 16.49600 21.67300
H  -0.85400 11.87200 23.91500
H  -2.45500 11.63300 24.39800
H  -1.17100 10.94800 25.42000
H  -3.46700 13.68300 29.64800
H  -0.74800 12.80300 32.66700
H  -0.46900 11.24400 31.99800
H  -1.84800 11.54100 33.07000
Mg 29.59500 59.10800 38.43400
C  26.72300 56.99200 37.80000
C  31.57600 56.37100 37.43500
C  32.39000 61.12100 38.37500
C  27.56500 61.78000 38.72000
N  29.14200 56.98800 37.77100
C  27.94000 56.35200 37.59800
C  28.10600 54.82900 37.27400
C  29.67800 54.68900 37.42900
C  30.16700 56.16900 37.47800
C  30.28200 53.90300 38.57400
C  27.73900 54.51200 35.76100
C  26.33500 53.88400 35.53800
H  25.39100 54.59200 34.52000
N  31.77500 58.73000 37.99600
C  32.31100 57.56500 37.69400
C  33.77100 57.63600 37.78000
C  34.03500 58.99200 38.13700
C  32.76200 59.72400 38.21300
C  34.67900 56.48900 37.34000
C  35.42200 59.58300 38.47100
O  36.44400 58.86800 38.44600
C  35.73300 61.06400 38.79500
N  29.96600 61.14100 38.15900
C  31.14900 61.75700 38.32800
C  30.97300 63.26600 38.58000
C  29.40700 63.45700 38.48200
C  28.91100 62.06000 38.49300
C  31.59700 64.00600 39.78700
C  28.90500 64.21200 37.26300
C  27.97000 65.37700 37.65300
N  27.61700 59.37800 38.49800
C  26.88400 60.50900 38.67600
C  25.48200 60.33400 38.56500
C  25.41000 58.93600 38.31100
C  26.67600 58.45000 38.18900
C  24.47300 61.33300 38.55100
C  24.43600 57.87400 38.10100
O  23.20800 57.89500 37.94300
C  25.22700 56.61100 37.74600
C  24.92400 55.61100 38.78700
O  25.58400 55.48300 39.78300
O  23.71700 54.98100 38.48800
C  23.55100 53.83000 39.39900
H  32.12600 55.51800 37.03300
H  33.34400 61.63200 38.52100
H  27.00800 62.71800 38.77300
H  27.57600 54.23400 38.01800
H  30.13900 54.32900 36.51000
H  29.53300 53.25700 39.03400
H  30.68100 54.50500 39.39000
H  31.00400 53.16700 38.21800
H  28.51400 54.01100 35.18200
H  27.58700 55.50900 35.34700
H  25.78300 53.79500 36.47400
H  26.49300 52.87300 35.16100
H  35.08100 56.80000 36.37600
H  34.10200 55.57700 37.18500
H  35.42900 56.13400 38.04700
H  36.77400 61.15800 39.10600
H  35.06200 61.45700 39.55900
H  35.65000 61.60500 37.85300
H  31.45800 63.73900 37.72500
H  29.02000 63.93000 39.38500
H  32.47800 63.50100 40.18200
H  30.89400 63.95600 40.61900
H  31.83400 65.01800 39.46100
H  28.42400 63.55300 36.54000
H  29.80500 64.59600 36.78200
H  28.56800 66.23900 37.95100
H  27.26800 65.16500 38.46000
H  27.51100 65.78000 36.75000
H  24.22100 61.56800 37.51700
H  24.93300 62.22900 38.96700
H  23.60300 61.00000 39.11700
H  24.80300 56.45500 36.75500
H  22.63200 53.30800 39.13300
H  23.46800 54.14700 40.43900
H  24.43000 53.21400 39.20900

