158

Mg 44.69300 5.92400 47.74200
C  42.49000 8.66500 47.25000
C  41.94300 3.81800 46.92100
C  46.72100 3.38800 47.53700
C  47.30400 8.22000 47.98900
N  42.49600 6.21700 47.17500
C  41.84600 7.48200 47.05000
C  40.33400 7.30800 46.68800
C  40.14400 5.77200 46.71700
C  41.60600 5.19700 46.93900
C  39.06300 5.11200 47.59300
C  39.96200 8.02400 45.35900
C  41.13500 7.90000 44.24100
H  40.69100 7.56900 42.81200
N  44.36900 3.76600 47.45900
C  43.18200 3.14900 47.22400
C  43.44600 1.69700 47.17600
C  44.85300 1.51900 47.39400
C  45.39300 2.92900 47.51800
C  42.43000 0.66100 46.86200
C  45.59200 0.14800 47.23700
O  44.93900 -0.79300 46.88200
C  47.13100 0.04000 47.36800
N  46.69400 5.81300 47.92900
C  47.29800 4.68300 47.79600
C  48.84200 4.80100 47.84000
C  49.03400 6.34400 47.86500
C  47.64600 6.85200 48.03700
C  49.55400 3.96200 48.99600
C  49.87200 6.88600 46.63500
C  49.06700 6.83300 45.31600
N  44.88000 7.90500 47.73000
C  45.98100 8.75600 47.87100
C  45.63900 10.17700 47.70000
C  44.22600 10.17200 47.55200
C  43.85800 8.77200 47.45400
C  46.49000 11.34100 47.63500
C  43.01200 11.04400 47.43400
O  42.88800 12.25400 47.46500
C  41.87300 10.08400 47.27700
C  40.78300 10.36200 48.38000
O  40.71300 9.72100 49.40200
O  39.81600 11.27300 47.97400
C  38.57400 11.33500 48.76300
H  41.11800 3.14500 46.67700
H  47.44500 2.60300 47.31000
H  48.05200 9.01600 48.00700
H  39.60900 7.79300 47.34200
H  40.01900 5.45900 45.68100
H  38.18800 5.76000 47.65500
H  39.35400 4.73800 48.57400
H  38.82700 4.28800 46.92000
H  39.64400 9.03200 45.62700
H  39.04400 7.63800 44.91600
H  41.70500 7.00500 44.49100
H  41.76500 8.78600 44.16300
H  42.76500 0.27600 45.89900
H  41.54800 1.20000 46.51400
H  42.14900 -0.14200 47.54300
H  47.34900 -0.99400 47.09900
H  47.37500 0.23600 48.41300
H  47.63900 0.69600 46.66200
H  49.11800 4.30200 46.91100
H  49.62400 6.68700 48.71500
H  49.99000 3.06600 48.55400
H  48.86100 3.80000 49.82100
H  50.38200 4.57200 49.35700
H  50.71100 6.21000 46.46300
H  50.29000 7.88100 46.79100
H  48.95400 7.83500 44.90200
H  48.13000 6.29800 45.47200
H  49.52200 6.18100 44.56900
H  47.33700 11.36200 48.32200
H  45.86200 12.23200 47.63500
H  46.92100 11.28100 46.63600
H  41.32000 10.27200 46.35700
H  38.16200 12.33800 48.64900
H  38.85300 11.07100 49.78300
H  37.76000 10.68300 48.44600
Mg 47.53300 16.05900 28.76600
C  45.40400 15.89900 31.58700
C  49.60900 18.13800 30.61600
C  48.94600 16.94200 25.85700
C  45.04400 14.48500 27.00100
N  47.47500 17.05100 30.85900
C  46.57200 16.60400 31.91200
C  47.09800 17.14600 33.25400
C  48.44100 17.96900 32.82800
C  48.55100 17.65600 31.38200
C  48.31700 19.49100 33.16200
C  47.44600 16.14900 34.34300
C  46.87700 16.27100 35.83000
H  46.78600 17.74300 36.41600
N  49.11700 17.23700 28.31900
C  49.86400 17.98700 29.21700
C  51.02900 18.53800 28.51700
C  50.85600 18.21300 27.14400
C  49.58300 17.39900 27.01700
C  51.98800 19.40200 29.17300
C  51.67000 18.54900 25.95900
O  51.38100 18.43100 24.79800
C  53.01800 19.29500 26.12400
N  47.15800 15.67400 26.73300
C  47.81700 16.16600 25.71000
C  47.36700 15.71600 24.39700
C  46.14600 14.90300 24.73800
C  46.07500 15.00200 26.20800
C  47.11000 16.99900 23.34600
C  46.04100 13.47100 24.12300
C  45.15300 13.24800 22.96100
N  45.64200 15.31800 29.18300
C  44.79600 14.61400 28.35600
C  43.61100 14.24100 29.04200
C  43.81100 14.60100 30.37900
C  45.04400 15.32900 30.36800
C  42.38500 13.52900 28.41100
C  43.28300 14.59000 31.69500
O  42.28900 14.03100 32.12400
C  44.28500 15.48900 32.52000
C  43.51300 16.56400 33.20100
O  42.72600 17.34700 32.72500
O  43.82000 16.51200 34.57100
C  43.04100 17.46900 35.40800
H  50.19200 18.81700 31.24300
H  49.49300 17.09900 24.92400
H  44.19600 13.97600 26.53700
H  46.35100 17.88600 33.54200
H  49.29400 17.63700 33.41900
H  47.48700 19.70800 33.83400
H  48.07000 20.14200 32.32400
H  49.28100 19.82800 33.54200
H  48.51700 15.94900 34.36300
H  46.99800 15.19500 34.06500
H  47.48200 15.65300 36.49300
H  45.88600 15.84400 35.98300
H  52.96100 18.91100 29.19200
H  51.63000 19.90900 30.06800
H  52.02900 20.20600 28.43800
H  53.62100 19.20200 25.22000
H  53.49000 18.87100 27.01000
H  52.98500 20.36600 26.32200
H  48.12300 15.05500 23.97300
H  45.25800 15.42400 24.38200
H  46.07100 17.16500 23.06000
H  47.75200 16.81700 22.48400
H  47.51900 17.87700 23.84500
H  45.81200 12.75200 24.90900
H  47.06200 13.24600 23.81700
H  44.79200 14.19600 22.56100
H  44.25800 12.72300 23.29300
H  45.55500 12.58400 22.19500
H  42.44100 12.45900 28.60900
H  42.28900 13.75000 27.34800
H  41.56300 14.01400 28.93700
H  44.74500 14.86700 33.28700
H  41.98500 17.20000 35.40400
H  43.17300 18.51300 35.12400
H  43.29400 17.23100 36.44100

