158

Mg 35.52000 3.21200 30.62000
C  32.93900 4.14300 32.87700
C  37.79800 3.86700 33.16700
C  37.98100 3.04400 28.38400
C  33.19000 3.09700 28.11100
N  35.33500 3.88800 32.73700
C  34.23000 4.15800 33.47600
C  34.53300 4.24800 34.99600
C  36.12300 4.44900 34.92500
C  36.47900 4.03900 33.52500
C  36.87500 5.71300 35.45900
C  33.76400 3.10900 35.80600
C  34.51900 2.58800 37.02900
H  34.95100 3.55200 38.14900
N  37.62200 3.17300 30.78500
C  38.42200 3.30700 31.95800
C  39.80800 3.00300 31.59900
C  39.88700 2.82200 30.21000
C  38.45000 3.06200 29.71800
C  40.81500 2.82700 32.72300
C  41.08900 2.35300 29.34500
O  40.99600 2.18400 28.10500
C  42.35000 2.08400 29.95600
N  35.53800 3.14200 28.54800
C  36.67000 3.04400 27.83800
C  36.47200 2.73000 26.41100
C  34.84800 2.66700 26.30600
C  34.45400 2.95300 27.71000
C  37.20300 3.51500 25.23900
C  34.26900 1.28300 25.77600
C  33.10300 1.28700 24.82800
N  33.49500 3.58800 30.41600
C  32.64900 3.53800 29.36400
C  31.23700 3.85000 29.71900
C  31.31500 4.00100 31.08200
C  32.67200 3.90300 31.45100
C  30.01200 3.99600 28.83900
C  30.59300 4.34700 32.22200
O  29.41300 4.59300 32.29400
C  31.55500 4.27300 33.47000
C  31.41500 5.52700 34.30300
O  31.59600 6.66400 33.88100
O  31.13900 5.18400 35.63800
C  31.25400 6.30700 36.59200
H  38.56800 4.05800 33.91700
H  38.76900 3.06000 27.62800
H  32.54900 2.82000 27.27100
H  34.16100 5.22200 35.31500
H  36.50700 3.57200 35.44400
H  37.53700 5.31700 36.22900
H  36.11600 6.32900 35.94100
H  37.50800 6.27000 34.76800
H  33.59400 2.23800 35.17300
H  32.74900 3.44200 36.02100
H  35.39400 2.04100 36.67800
H  34.02700 1.76800 37.55100
H  41.53800 3.64300 32.69700
H  41.26600 1.85100 32.54300
H  40.36100 2.82400 33.71400
H  43.05100 1.93700 29.13400
H  42.24300 1.17100 30.54100
H  42.53800 2.96100 30.57500
H  36.79200 1.68900 26.36300
H  34.42100 3.45000 25.67800
H  37.01600 2.93900 24.33200
H  38.28100 3.43300 25.37000
H  36.87900 4.55100 25.13800
H  33.78000 0.89400 26.66900
H  35.05500 0.53800 25.65500
H  32.15800 0.86400 25.16700
H  33.31600 0.84400 23.85500
H  32.92700 2.32500 24.54600
H  30.33000 4.77000 28.14100
H  29.19900 4.35400 29.47000
H  29.60700 3.12500 28.32400
H  31.41100 3.48600 34.21000
H  30.85000 7.21800 36.15000
H  32.25800 6.39100 37.00800
H  30.62100 6.09600 37.45400
Mg -3.13500 35.31600 27.27100
C  -4.95700 33.50800 29.69700
C  -2.16400 37.38900 29.84400
C  -1.56300 37.07300 24.98300
C  -4.24400 33.11400 24.88400
N  -3.46100 35.40800 29.51000
C  -4.20900 34.53100 30.24500
C  -3.93600 34.72200 31.73700
C  -3.22700 36.12100 31.72600
C  -2.99700 36.38300 30.27100
C  -4.18400 37.21300 32.24800
C  -3.27100 33.54400 32.53600
C  -4.17600 32.98600 33.67800
H  -3.83100 33.58700 35.07000
N  -2.05700 36.98700 27.39700
C  -1.65400 37.63000 28.54500
C  -0.58700 38.60600 28.15400
C  -0.44300 38.52400 26.77200
C  -1.34600 37.45700 26.34300
C  0.06300 39.47600 29.16200
C  0.44200 39.35000 25.81700
O  0.55300 39.12500 24.63100
C  1.14800 40.55200 26.25800
N  -3.11500 35.19800 25.17400
C  -2.31800 36.04200 24.46100
C  -2.31000 35.62100 22.97400
C  -2.96200 34.25900 22.97600
C  -3.44400 34.15500 24.43200
C  -3.06200 36.70000 22.08500
C  -2.16600 33.02100 22.44900
C  -2.94000 31.87300 21.96000
N  -4.41300 33.66900 27.27000
C  -4.76300 32.85000 26.19500
C  -5.73000 31.91700 26.57800
C  -5.82800 32.11300 28.02000
C  -4.99400 33.20300 28.33000
C  -6.44000 30.85500 25.74500
C  -6.48500 31.61100 29.17000
O  -7.20500 30.64100 29.26200
C  -5.90900 32.47200 30.35400
C  -7.00700 33.08400 31.09700
O  -7.50300 34.15900 30.80600
O  -7.54400 32.10700 31.95000
C  -8.72200 32.58400 32.69100
H  -1.80900 38.11500 30.57900
H  -1.01500 37.42000 24.10400
H  -4.50700 32.31900 24.18200
H  -4.89700 34.95600 32.19600
H  -2.25700 36.07800 32.22100
H  -5.13400 37.13700 31.71800
H  -3.81100 38.19200 31.94600
H  -4.30700 37.18400 33.33100
H  -2.41000 33.95100 33.06500
H  -2.90000 32.74700 31.89200
H  -4.21200 31.89800 33.74300
H  -5.24700 33.04900 33.48700
H  1.14400 39.59600 29.22700
H  -0.31000 39.49400 30.18600
H  -0.39800 40.38100 28.76600
H  0.49300 41.27000 26.75100
H  1.69700 40.93500 25.39700
H  1.88900 40.34400 27.02900
H  -1.30000 35.46600 22.59400
H  -3.84100 34.39900 22.34600
H  -2.93200 37.67800 22.54700
H  -4.12300 36.55600 21.87600
H  -2.58500 36.63700 21.10700
H  -1.66800 32.73300 23.37500
H  -1.35000 33.36900 21.81500
H  -2.82700 30.96900 22.55900
H  -2.62400 31.55600 20.96600
H  -3.99500 32.13800 22.02700
H  -6.69400 29.94700 26.29100
H  -5.73300 30.70800 24.92800
H  -7.32900 31.25800 25.25900
H  -5.45000 31.78300 31.06300
H  -9.28000 31.70100 33.00300
H  -9.43200 33.17600 32.11500
H  -8.47100 33.20100 33.55400

