158

Mg 0.08600 7.35800 27.54100
C  1.15400 9.76900 29.93800
C  0.12500 5.06200 30.05100
C  -0.92000 5.18300 25.31200
C  0.43900 9.74200 25.10300
N  0.86000 7.42200 29.67900
C  1.04600 8.50500 30.47300
C  0.78700 8.04100 32.03800
C  0.98900 6.53000 31.96300
C  0.62100 6.31500 30.45800
C  2.27400 5.88600 32.58200
C  -0.65800 8.45500 32.62000
C  -0.79200 8.84800 34.12100
H  0.35300 8.32500 35.01000
N  -0.31200 5.38200 27.63000
C  -0.23600 4.58200 28.78100
C  -0.61900 3.27900 28.36100
C  -0.98500 3.29700 27.02600
C  -0.85600 4.67700 26.60400
C  -0.48700 2.11600 29.28700
C  -1.53900 2.10500 26.09800
O  -1.81100 2.15900 24.89700
C  -1.76100 0.79100 26.79600
N  -0.05200 7.42600 25.40100
C  -0.49800 6.39100 24.74300
C  -0.66000 6.63400 23.25800
C  -0.11300 8.05000 23.11100
C  0.13800 8.47600 24.63200
C  0.10100 5.53800 22.38300
C  -0.79400 9.17600 22.20900
C  -2.04800 9.70200 22.82900
N  0.80300 9.33100 27.43700
C  0.80400 10.16300 26.37900
C  1.36200 11.42600 26.79700
C  1.37000 11.36500 28.23600
C  1.08000 10.05400 28.59100
C  1.55700 12.61300 25.88900
C  1.66500 12.04800 29.50400
O  1.98600 13.24000 29.73600
C  1.33500 11.05300 30.65400
C  2.50400 10.98800 31.57700
O  3.68800 10.72500 31.24500
O  2.08000 11.42700 32.81000
C  3.05500 11.54000 33.89200
H  0.00400 4.44600 30.94500
H  -1.19400 4.40800 24.59300
H  0.40400 10.54100 24.35900
H  1.61700 8.45100 32.61300
H  0.13200 6.19200 32.54600
H  2.52200 6.62900 33.34000
H  3.12200 5.82900 31.90000
H  2.13200 5.00700 33.21200
H  -1.39700 7.72700 32.28400
H  -0.95500 9.31400 32.01900
H  -1.66200 8.31400 34.50200
H  -0.79000 9.93300 34.22900
H  -0.16600 1.16500 28.86300
H  -1.50200 1.86000 29.59200
H  -0.00000 2.24600 30.25400
H  -0.88500 0.27500 27.19000
H  -2.12700 0.04900 26.08700
H  -2.42300 0.86800 27.65800
H  -1.68800 6.60300 22.89800
H  0.88500 7.89400 22.70200
H  0.51800 6.00200 21.49000
H  -0.59500 4.79500 21.99300
H  0.89700 5.04300 22.93900
H  -0.94300 8.83500 21.18500
H  -0.17500 10.06600 22.09400
H  -1.92500 10.74700 23.11300
H  -2.39300 9.11700 23.68100
H  -2.86100 9.69400 22.10300
H  2.59000 12.96100 25.86600
H  0.91000 13.42000 26.23400
H  1.26000 12.37000 24.86900
H  0.46400 11.43500 31.18700
H  2.86100 10.91100 34.76100
H  3.06300 12.56900 34.25100
H  4.03700 11.27500 33.50100
Mg 45.51200 4.23600 47.66400
C  43.52000 6.97100 47.05800
C  42.90100 2.14400 47.01900
C  47.78500 1.69000 47.23800
C  48.25600 6.41900 47.74100
N  43.44700 4.55200 47.17200
C  42.83600 5.76900 46.92400
C  41.33200 5.62600 46.59900
C  41.05600 4.06400 46.88700
C  42.51900 3.51900 47.06200
C  40.09700 3.67800 48.00100
C  40.84400 6.38700 45.23400
C  40.71100 5.51300 43.97900
H  40.48100 6.24100 42.64800
N  45.35300 2.16700 47.26900
C  44.17000 1.50700 47.05500
C  44.47000 0.11100 46.93400
C  45.85400 -0.08300 46.97000
C  46.40400 1.27700 47.17800
C  43.37000 -0.96000 46.80700
C  46.57300 -1.35200 46.83000
O  45.84300 -2.37100 46.68400
C  48.04300 -1.53800 46.91200
N  47.69100 4.11800 47.80200
C  48.34000 2.98300 47.47100
C  49.89300 3.17500 47.65600
C  50.00800 4.64100 47.91500
C  48.58800 5.10300 47.88800
C  50.56300 2.20500 48.60700
C  51.02900 5.39900 46.94800
C  51.85800 6.56500 47.67700
N  45.87800 6.29800 47.64400
C  47.01700 7.07700 47.66400
C  46.70900 8.45800 47.54800
C  45.35200 8.50400 47.44200
C  44.88400 7.13700 47.47400
C  47.67900 9.55400 47.56900
C  44.16400 9.37800 47.32800
O  44.07100 10.60600 47.39000
C  42.96400 8.36100 47.10400
C  42.08800 8.55800 48.29500
O  42.28200 7.99400 49.41700
O  41.05700 9.50100 48.07700
C  40.20800 9.63600 49.26800
H  42.04900 1.46400 47.09400
H  48.40600 0.84000 46.95000
H  49.11600 7.08400 47.84800
H  40.80700 6.14800 47.39800
H  40.73500 3.67300 45.92100
H  40.13700 4.36100 48.84900
H  40.40500 2.73900 48.46200
H  39.09400 3.59200 47.58300
H  41.66000 7.03700 44.91900
H  39.83300 6.77000 45.37300
H  39.82600 4.88900 44.10000
H  41.50400 4.78300 43.81700
H  43.40100 -1.66300 47.64000
H  43.56900 -1.60900 45.95500
H  42.36100 -0.54900 46.76400
H  48.44300 -1.07400 47.81400
H  48.39500 -1.05900 45.99900
H  48.52100 -2.51800 46.92800
H  50.37900 3.06000 46.68700
H  50.33400 4.61000 48.95400
H  49.79600 1.70500 49.19900
H  51.28800 2.75400 49.20700
H  51.10000 1.40300 48.10100
H  50.49000 5.89100 46.13800
H  51.74300 4.81600 46.36500
H  52.52100 6.06900 48.38600
H  51.28200 7.26700 48.28000
H  52.33200 7.13100 46.87600
H  47.19500 10.50000 47.32700
H  48.57500 9.36400 46.97800
H  47.94600 9.67000 48.62000
H  42.50200 8.68800 46.17300
H  40.82300 9.69200 50.16600
H  39.40300 8.92100 49.43700
H  39.67700 10.58800 49.24200

