158

Mg 24.31300 -5.04000 46.45400
C  26.44400 -2.58000 45.24700
C  21.86300 -3.91500 44.27000
C  22.61300 -8.00700 46.88800
C  26.86900 -6.32900 48.45600
N  24.20800 -3.45700 44.85700
C  25.19400 -2.55100 44.55000
C  24.78200 -1.82800 43.26400
C  23.20200 -2.02100 43.12500
C  23.04000 -3.12800 44.23900
C  22.47300 -0.70800 43.49200
C  25.58400 -2.42700 42.04200
C  26.14100 -1.32300 41.15000
H  25.38400 -1.06800 39.87400
N  22.41300 -5.79100 45.81100
C  21.61000 -5.17900 44.91900
C  20.37300 -5.93100 44.78000
C  20.55500 -7.07700 45.52000
C  21.90900 -7.03400 46.03700
C  19.25200 -5.34800 43.98100
C  19.46300 -8.17000 45.82400
O  18.33300 -8.00600 45.34200
C  19.77300 -9.40600 46.62000
N  24.63300 -6.84500 47.62200
C  23.74600 -7.92700 47.66100
C  24.37400 -9.13000 48.42700
C  25.72700 -8.51300 48.93500
C  25.74200 -7.12400 48.35200
C  23.35000 -9.61700 49.47600
C  26.90800 -9.46100 48.35100
C  28.14100 -9.62000 49.24000
N  26.21900 -4.59800 46.87900
C  27.16800 -5.16600 47.72400
C  28.33500 -4.31600 47.73600
C  28.11800 -3.32900 46.77100
C  26.84000 -3.53100 46.25000
C  29.60700 -4.70600 48.45800
C  28.72900 -2.23900 46.08000
O  29.84800 -1.77700 46.34100
C  27.69100 -1.84100 44.94400
C  27.48600 -0.34700 45.05800
O  26.65900 0.19100 45.78100
O  28.23400 0.30100 44.15600
C  28.11800 1.80200 44.11400
H  20.98500 -3.52300 43.75200
H  22.19200 -8.98700 47.12400
H  27.63600 -6.54600 49.20300
H  25.05900 -0.77400 43.30200
H  22.91100 -2.33000 42.12100
H  21.48600 -0.96400 43.87500
H  22.28200 -0.10000 42.60700
H  23.00400 -0.05300 44.18300
H  24.91000 -2.97100 41.38000
H  26.32400 -3.12900 42.42600
H  27.14200 -1.65400 40.87400
H  26.41600 -0.45700 41.75200
H  19.60000 -4.88200 43.06000
H  18.53100 -4.73900 44.52700
H  18.68800 -6.14200 43.49100
H  19.83900 -9.00800 47.63200
H  20.72500 -9.87900 46.38100
H  19.00500 -10.16900 46.49500
H  24.43700 -9.92500 47.68400
H  25.93400 -8.40100 50.00000
H  22.50600 -8.95300 49.66200
H  23.88300 -9.68200 50.42500
H  22.98700 -10.56900 49.08800
H  27.20200 -9.02400 47.39700
H  26.50600 -10.40400 47.98100
H  28.01000 -9.03900 50.15300
H  29.00000 -9.30100 48.65100
H  28.24400 -10.68800 49.43500
H  30.29500 -5.24300 47.80500
H  29.46000 -5.36700 49.31200
H  30.19400 -3.87600 48.85000
H  28.05900 -2.12200 43.95700
H  27.12600 1.94500 43.68500
H  28.90000 2.29400 43.53500
H  28.13900 2.23200 45.11500
Mg 9.67400 47.60000 25.52100
C  7.39800 48.28000 28.08800
C  12.27100 48.69400 27.66400
C  11.90300 47.28200 23.04900
C  7.03000 47.46600 23.26500
N  9.79900 48.24900 27.60200
C  8.74300 48.44400 28.43100
C  9.20500 48.60500 29.91700
C  10.61300 49.24200 29.64900
C  10.96200 48.65800 28.18800
C  10.78200 50.81000 29.68100
C  9.17500 47.39700 30.79200
C  8.90600 47.63000 32.30200
H  9.11400 46.39400 33.16600
N  11.81000 47.78300 25.39000
C  12.66400 48.24100 26.37100
C  14.04800 48.17700 25.91800
C  14.00600 47.57500 24.56800
C  12.52500 47.50900 24.28600
C  15.16500 48.72800 26.60300
C  15.15600 47.12600 23.60200
O  14.94900 46.56800 22.55600
C  16.46600 47.42900 24.03900
N  9.42000 47.33400 23.46100
C  10.53300 47.22500 22.64900
C  10.07600 47.19500 21.17300
C  8.51800 47.20300 21.22900
C  8.30000 47.33300 22.73000
C  10.61800 48.39500 20.33000
C  7.75200 46.01000 20.56600
C  8.31800 44.62400 20.93400
N  7.64800 47.75700 25.63100
C  6.71300 47.56400 24.64700
C  5.36200 47.69500 25.22600
C  5.61300 47.85900 26.60600
C  7.01400 47.90000 26.80000
C  4.06400 47.71600 24.49900
C  4.92700 48.14300 27.75500
O  3.78400 48.24600 28.05500
C  6.07900 48.30200 28.87200
C  5.89600 47.12200 29.76200
O  6.04400 45.97200 29.53000
O  5.43200 47.65100 30.97900
C  5.13400 46.73100 32.04600
H  13.10800 49.06700 28.25700
H  12.62100 47.25000 22.22700
H  6.18900 47.57200 22.57600
H  8.50500 49.30000 30.38100
H  11.33500 48.92400 30.40100
H  11.52400 50.99300 30.45800
H  9.75100 51.06700 29.92500
H  10.99600 51.11600 28.65700
H  10.09600 46.82500 30.67400
H  8.37600 46.69700 30.54800
H  7.95200 48.12300 32.49100
H  9.67800 48.33000 32.62200
H  16.11000 48.23200 26.38600
H  15.08600 48.87000 27.68100
H  15.21000 49.68800 26.08800
H  17.10700 47.14600 23.20400
H  16.56100 46.69600 24.84000
H  16.69500 48.44800 24.35300
H  10.35800 46.22400 20.76500
H  8.12500 48.04700 20.66300
H  11.27100 48.99300 20.96500
H  9.83200 49.07500 20.00000
H  11.16100 47.94900 19.49600
H  7.90300 45.91600 19.49100
H  6.66800 46.12000 20.54900
H  8.83000 44.74100 21.88900
H  9.06500 44.46500 20.15600
H  7.63100 43.77800 20.94900
H  4.10600 48.21600 23.53200
H  3.23500 48.06000 25.11800
H  3.74100 46.68300 24.36800
H  5.93700 49.16800 29.51700
H  4.71500 45.75600 31.79700
H  4.48500 47.22700 32.76800
H  6.09200 46.44800 32.48100

