158

Mg 35.30800 48.41400 24.45800
C  35.67900 46.89200 27.68400
C  33.58000 50.96200 26.11400
C  34.67400 49.70400 21.41600
C  36.64700 45.54700 23.07600
N  34.89400 48.97600 26.65000
C  35.13400 48.20300 27.73400
C  34.87100 48.98400 29.02800
C  34.03900 50.23000 28.52000
C  34.12800 50.02900 27.00100
C  32.61600 50.47400 29.16600
C  36.25400 49.27900 29.78600
C  36.21000 49.03600 31.26700
H  34.90800 48.99300 32.01900
N  34.24500 50.06000 23.83400
C  33.61200 51.03100 24.65400
C  33.13900 52.12400 23.85600
C  33.38100 51.67900 22.51500
C  34.19600 50.45800 22.51500
C  32.60000 53.41100 24.40000
C  33.03600 52.46900 21.26500
O  33.29800 52.10800 20.10700
C  32.19100 53.75300 21.25900
N  35.55700 47.67100 22.55700
C  35.26500 48.39500 21.48000
C  35.73500 47.72300 20.19700
C  36.53600 46.54000 20.72700
C  36.19000 46.56800 22.24700
C  34.70500 47.41000 19.06800
C  38.03300 46.44900 20.35800
C  38.24500 45.72700 19.03000
N  36.08300 46.55000 25.23000
C  36.53000 45.46000 24.46300
C  36.89500 44.35200 25.36000
C  36.68300 44.89500 26.67800
C  36.09000 46.22100 26.51700
C  37.32400 42.92800 24.90500
C  36.79000 44.70800 28.16000
O  37.35800 43.83100 28.78100
C  36.13700 45.98400 28.85700
C  35.02200 45.59200 29.75400
O  33.82300 45.64800 29.50200
O  35.53600 45.23300 31.04300
C  34.43900 44.93000 32.02100
H  33.27400 51.83900 26.68900
H  34.50500 50.10500 20.41400
H  37.17700 44.71200 22.61200
H  34.24700 48.35600 29.66400
H  34.63700 51.14000 28.57000
H  32.42300 49.83300 30.02700
H  31.83300 50.46600 28.40800
H  32.64100 51.48500 29.57200
H  36.68100 50.25600 29.55600
H  37.03400 48.64700 29.36100
H  36.90200 49.75400 31.70700
H  36.75500 48.14000 31.56400
H  32.66000 54.30800 23.78300
H  33.06300 53.61100 25.36600
H  31.52900 53.22700 24.49200
H  31.33600 53.70300 21.93400
H  31.89700 53.98300 20.23500
H  32.86400 54.51300 21.65500
H  36.42900 48.37900 19.67100
H  36.03900 45.61800 20.42600
H  33.70200 47.73800 19.34200
H  34.66300 46.32500 18.98000
H  34.94000 47.79300 18.07500
H  38.63300 45.86400 21.05400
H  38.38300 47.48200 20.33100
H  38.84100 46.45900 18.48500
H  37.28400 45.47900 18.58000
H  38.81100 44.80600 19.16700
H  37.95100 43.02400 24.01900
H  36.47900 42.29700 24.62900
H  37.91100 42.51600 25.72600
H  36.88800 46.52000 29.43600
H  34.15600 43.87800 31.98600
H  33.55200 45.55500 31.90900
H  34.82600 44.96400 33.03900
Mg 26.51800 50.71000 25.91700
C  24.68700 51.92900 28.64200
C  28.59300 49.06400 28.14000
C  28.65700 50.10900 23.36500
C  24.44700 52.54800 23.79600
N  26.53800 50.36700 28.13600
C  25.71800 51.06700 29.04800
C  26.16700 50.75600 30.44700
C  27.52900 50.02000 30.24600
C  27.56400 49.76100 28.78100
C  28.89900 50.65200 30.86100
C  24.98100 49.86300 31.10900
C  24.40000 50.38300 32.44100
H  24.62700 49.46000 33.70500
N  28.31600 49.64600 25.70200
C  28.91700 49.01200 26.74300
C  30.15200 48.45600 26.25800
C  30.25500 48.83700 24.86500
C  29.08500 49.63000 24.54500
C  31.18100 47.68900 27.00000
C  31.34200 48.41400 23.77000
O  31.29800 48.75200 22.58900
C  32.34000 47.42200 24.13200
N  26.52800 51.19200 23.91200
C  27.53400 50.84700 23.04900
C  27.34100 51.36700 21.67400
C  25.91400 52.03500 21.65300
C  25.51800 51.89200 23.21200
C  28.41300 52.32000 21.21100
C  24.84700 51.39900 20.73900
C  23.75600 52.30300 20.08200
N  24.89400 51.91900 26.15700
C  24.09500 52.64600 25.20300
C  22.98000 53.39900 25.83800
C  23.21200 53.08400 27.18000
C  24.29600 52.18000 27.31400
C  21.98600 54.14100 25.07700
C  22.75100 53.38400 28.51300
O  21.81100 54.05500 28.92100
C  23.70800 52.76400 29.54600
C  24.36700 53.77400 30.37100
O  25.46000 54.26000 30.12800
O  23.61500 54.05100 31.45500
C  24.21500 54.99200 32.37400
H  29.23900 48.57000 28.86900
H  29.28900 49.97300 22.48400
H  23.75600 53.01900 23.09400
H  26.34400 51.64800 31.04700
H  27.42800 49.09900 30.81900
H  29.41900 49.93000 31.49100
H  28.57900 51.47400 31.50200
H  29.44900 51.04700 30.00700
H  25.30800 48.85600 31.36600
H  24.18500 49.71100 30.38000
H  23.31900 50.49300 32.35000
H  24.78600 51.34700 32.77200
H  30.82000 47.37300 27.97900
H  32.03800 48.34500 27.15400
H  31.41500 46.86400 26.32700
H  32.99700 47.35000 23.26600
H  31.92100 46.42900 24.29900
H  32.83000 47.79600 25.03100
H  27.33400 50.50400 21.00900
H  25.98000 53.09000 21.38800
H  28.20700 53.35500 20.93900
H  28.84400 51.90800 20.29800
H  29.24900 52.42400 21.90200
H  24.35700 50.54000 21.19700
H  25.44300 50.90200 19.97300
H  23.85800 53.31300 20.47900
H  22.77000 51.91600 20.33900
H  23.92400 52.26300 19.00600
H  21.64700 53.47900 24.28000
H  22.65700 54.88000 24.64000
H  21.18700 54.65800 25.61000
H  23.19300 52.00800 30.13800
H  25.17000 54.55000 32.65900
H  23.45600 54.99500 33.15500
H  24.31800 55.99200 31.95400

