158

Mg 47.08800 24.71100 28.63300
C  47.69700 27.08800 31.26000
C  45.87100 22.69500 30.93300
C  46.85500 22.53600 26.04900
C  48.36700 27.18700 26.38200
N  47.29900 24.74000 30.91800
C  47.28700 25.81300 31.73400
C  46.77500 25.50400 33.17100
C  46.36000 24.00800 33.08900
C  46.51100 23.78900 31.56600
C  47.11800 23.02000 33.87400
C  45.76300 26.47600 33.77500
C  46.07000 27.07400 35.22900
H  45.12900 26.75800 36.37100
N  46.50200 22.79600 28.54100
C  45.96300 22.12300 29.61300
C  45.36200 20.86500 29.08000
C  45.82200 20.74300 27.73200
C  46.47800 22.01600 27.34600
C  44.73500 19.78600 29.93600
C  45.72200 19.60700 26.75100
O  46.26400 19.60200 25.66500
C  44.92800 18.40400 27.15800
N  47.78000 24.80200 26.51300
C  47.42600 23.79500 25.70000
C  47.73900 24.17700 24.30000
C  47.75400 25.75300 24.34000
C  47.97800 25.98600 25.81700
C  49.09800 23.68300 23.80000
C  46.48400 26.45600 23.78800
C  45.43000 27.10200 24.78200
N  48.02000 26.64300 28.75200
C  48.44000 27.51500 27.75300
C  48.83000 28.81300 28.29800
C  48.54600 28.62500 29.63700
C  48.11300 27.33300 29.90100
C  49.22400 30.04400 27.60500
C  48.53000 29.35700 30.91800
O  48.97300 30.47800 31.23100
C  48.05700 28.29700 32.05700
C  49.07800 28.04300 33.09800
O  49.97500 27.23500 33.01900
O  48.99000 29.06000 34.07800
C  49.68300 28.89200 35.36500
H  45.30800 22.04200 31.60300
H  46.66000 21.83600 25.23400
H  48.54300 28.12100 25.84400
H  47.65700 25.53700 33.81000
H  45.27700 23.93200 33.19100
H  47.94600 23.46100 34.42900
H  47.49000 22.19100 33.27100
H  46.41700 22.55900 34.56900
H  44.77700 26.01100 33.78100
H  45.41900 27.18700 33.02400
H  46.15100 28.16100 35.23500
H  47.03400 26.73100 35.60300
H  43.78700 19.70400 29.40500
H  44.43900 20.13200 30.92600
H  45.03200 18.75000 29.77200
H  43.98000 18.65500 27.63300
H  45.54400 17.83100 27.85000
H  44.71800 17.71600 26.33900
H  46.86500 23.88500 23.71800
H  48.60600 26.17100 23.80300
H  49.72400 24.56200 23.64800
H  49.05600 23.05100 22.91200
H  49.67200 23.12500 24.53900
H  46.13100 25.63100 23.17000
H  46.92100 27.25600 23.18900
H  45.57000 26.87500 25.83900
H  44.50900 26.60400 24.47800
H  45.31400 28.16200 24.55800
H  50.11900 30.02600 26.98400
H  49.24100 30.93100 28.23900
H  48.42500 30.22300 26.88600
H  47.27700 28.71700 32.69100
H  50.70700 28.54700 35.22000
H  49.22800 28.15300 36.02400
H  49.54200 29.73700 36.03800
Mg 16.24400 51.50700 26.02800
C  18.34600 50.48400 28.62800
C  13.72200 52.06800 28.45300
C  14.18300 52.38300 23.47900
C  18.63000 50.61600 23.67700
N  16.03400 51.33900 28.25700
C  17.12500 51.10300 29.09100
C  16.72300 51.33200 30.59200
C  15.19000 51.47100 30.47100
C  14.96300 51.63000 28.97100
C  14.39300 50.23000 30.94100
C  17.47000 52.54300 31.15900
C  17.34400 52.82000 32.72000
H  16.37600 51.90400 33.54400
N  14.22900 52.02800 25.94100
C  13.40100 52.30100 27.04100
C  12.05900 52.52500 26.50000
C  12.10800 52.47900 25.03300
C  13.54700 52.23500 24.73800
C  10.79400 52.73300 27.26400
C  11.01100 52.56000 23.93900
O  11.32500 52.52800 22.75500
C  9.59600 52.71300 24.29400
N  16.37300 51.70400 23.97700
C  15.44700 52.19400 23.11600
C  16.00500 52.26600 21.69700
C  17.44900 51.84700 21.88800
C  17.48400 51.31700 23.33700
C  15.10300 51.60500 20.62100
C  18.58400 52.89900 21.56900
C  19.00300 53.00900 20.10500
N  18.10800 50.70300 26.10300
C  18.95100 50.27800 25.02100
C  20.11800 49.56600 25.61800
C  19.94100 49.57300 27.00600
C  18.68000 50.28200 27.23700
C  21.23600 49.02300 24.81000
C  20.44000 49.28300 28.33500
O  21.47000 48.63200 28.66200
C  19.40700 49.81700 29.46400
C  19.02700 48.62200 30.30600
O  18.71300 47.49900 29.92100
O  19.26200 48.96500 31.63500
C  18.96900 47.95400 32.67500
H  12.93400 52.20000 29.19600
H  13.58600 52.73300 22.63400
H  19.41400 50.44900 22.93600
H  17.17200 50.47800 31.09900
H  14.81100 52.30500 31.06100
H  14.00000 49.68100 30.08500
H  13.48100 50.48900 31.47900
H  14.92100 49.57800 31.63700
H  17.02100 53.36600 30.60300
H  18.48800 52.51800 30.76900
H  17.14400 53.88400 32.84400
H  18.35300 52.65800 33.10100
H  10.09200 51.97200 26.92300
H  10.35400 53.68000 26.95100
H  10.98800 52.57900 28.32600
H  9.01200 52.68600 23.37300
H  9.50100 53.71500 24.71200
H  9.19700 51.94900 24.96100
H  15.95700 53.31100 21.39000
H  17.50900 51.02900 21.17000
H  14.39800 50.88000 21.02800
H  15.76200 51.14800 19.88200
H  14.56000 52.45700 20.21200
H  19.37700 52.77900 22.30700
H  18.09100 53.86100 21.71000
H  18.31300 52.39800 19.52300
H  20.04100 52.67600 20.12700
H  18.94400 54.03900 19.75300
H  22.15900 49.59800 24.88100
H  21.06400 49.12000 23.73800
H  21.50500 48.02300 25.15100
H  19.80200 50.54200 30.17500
H  18.25500 47.18700 32.37200
H  18.44100 48.45600 33.48600
H  19.89000 47.45900 32.98100

