158

Mg 29.39200 57.48100 41.29500
C  26.74500 55.49700 40.29700
C  31.38100 55.51400 39.32500
C  31.74900 59.77100 41.42200
C  26.99700 59.80800 42.29200
N  29.12200 55.57600 40.11800
C  27.95700 54.94800 39.88800
C  28.16900 53.60800 39.05600
C  29.73200 53.52800 39.08600
C  30.10300 54.97600 39.47900
C  30.38200 52.37900 40.04200
C  27.49600 53.72300 37.64500
C  27.33200 55.06400 36.94400
H  27.59800 55.10100 35.46000
N  31.39600 57.47700 40.74300
C  32.03400 56.58400 39.99400
C  33.40000 56.96400 39.81800
C  33.51400 58.20100 40.39600
C  32.21900 58.57600 40.92800
C  34.43000 56.12300 39.12600
C  34.83200 58.94500 40.50100
O  35.87800 58.56700 39.94000
C  34.91200 60.26700 41.21900
N  29.37300 59.57000 41.70000
C  30.49100 60.32100 41.70300
C  30.28500 61.79100 42.07300
C  28.70500 61.69900 42.45700
C  28.29800 60.22400 42.16600
C  31.33600 62.46000 43.12100
C  27.86000 62.73400 41.62800
C  26.66600 63.44100 42.39600
N  27.25700 57.59700 41.51500
C  26.39800 58.62200 41.82100
C  25.04400 58.28200 41.70700
C  25.10000 57.00200 41.07900
C  26.50000 56.69600 40.95200
C  23.79400 59.04100 41.94800
C  24.33500 55.91900 40.58200
O  23.12300 55.68200 40.53200
C  25.35800 54.80200 40.14700
C  25.24400 53.37200 40.70500
O  25.48500 52.97800 41.80600
O  24.73900 52.57300 39.67700
C  24.47900 51.14300 40.05600
H  32.12700 54.94700 38.76400
H  32.51700 60.53800 41.54700
H  26.32700 60.63000 42.55200
H  27.81800 52.69900 39.54400
H  30.04800 53.33300 38.06100
H  29.63800 51.65900 40.38400
H  30.85600 52.74400 40.95300
H  31.15900 51.97900 39.39200
H  26.52000 53.23700 37.65700
H  28.02500 53.05900 36.96200
H  28.01000 55.77500 37.41700
H  26.26300 55.20400 37.10200
H  35.46300 56.21500 39.46100
H  34.38300 56.28900 38.05000
H  34.15100 55.08300 39.29800
H  34.24200 60.83300 40.57100
H  35.93800 60.61200 41.34300
H  34.35500 60.23800 42.15500
H  30.33400 62.36800 41.15100
H  28.66400 61.85600 43.53500
H  32.28600 61.94200 43.25200
H  30.87300 62.84200 44.03000
H  31.78300 63.30700 42.60100
H  27.35300 62.22400 40.80900
H  28.56800 63.45500 41.22000
H  25.80900 63.75100 41.79800
H  26.97000 64.34300 42.92800
H  26.21100 62.77200 43.12600
H  24.03300 60.02000 42.36300
H  23.28400 58.58000 42.79400
H  23.19100 59.24300 41.06300
H  25.13900 54.62700 39.09400
H  25.39300 50.59300 40.28300
H  24.11300 50.60300 39.18300
H  23.80800 51.08400 40.91300
Mg 36.63500 49.61400 24.59600
C  36.45300 47.74400 27.63000
C  35.30100 52.36700 26.28300
C  35.90900 51.13300 21.58700
C  37.51200 46.78000 22.93800
N  35.84700 49.90200 26.68200
C  35.91100 49.04900 27.72700
C  35.58600 49.89700 29.00600
C  35.01000 51.26000 28.47100
C  35.42600 51.17500 27.04900
C  33.48100 51.49500 28.66600
C  36.81900 50.13300 29.94000
C  36.54800 50.04000 31.45400
H  35.22700 49.68900 31.94300
N  35.75800 51.52500 24.00000
C  35.41700 52.56400 24.87600
C  34.94700 53.67100 24.05000
C  35.24700 53.32300 22.72100
C  35.63200 51.91200 22.72500
C  34.28000 54.80800 24.74600
C  35.28200 54.17900 21.49300
O  35.52400 53.79200 20.39400
C  34.95400 55.56400 21.61900
N  36.74600 49.03400 22.54400
C  36.49400 49.90900 21.49300
C  36.83500 49.18800 20.12400
C  37.63600 47.93100 20.61200
C  37.29100 47.86700 22.13200
C  35.57100 48.88300 19.31100
C  39.16000 48.04200 20.36900
C  39.88000 46.67000 20.43300
N  36.95600 47.60900 25.16100
C  37.34100 46.58500 24.35800
C  37.56400 45.36000 25.19900
C  37.30000 45.80000 26.50600
C  36.82300 47.12100 26.42300
C  38.19500 44.16200 24.74600
C  37.26500 45.39000 27.91000
O  37.54200 44.32300 28.36600
C  36.72700 46.67100 28.70800
C  35.49700 46.10600 29.32800
O  34.45800 45.86200 28.76400
O  35.78500 45.75300 30.62100
C  34.73900 45.05700 31.20200
H  35.17200 53.22900 26.94100
H  35.68800 51.51200 20.58700
H  37.89000 45.95600 22.32900
H  34.82200 49.35700 29.56600
H  35.57000 52.12500 28.82900
H  33.14000 50.99500 29.57300
H  32.88900 51.03400 27.87600
H  33.17400 52.53600 28.77100
H  37.27600 51.10400 29.74600
H  37.55300 49.36700 29.69000
H  36.98200 50.98100 31.79300
H  37.21400 49.27000 31.84400
H  35.02000 55.55400 25.03400
H  33.81200 54.51500 25.68600
H  33.45900 55.30500 24.23100
H  33.87500 55.65400 21.48700
H  35.41100 56.17900 20.84400
H  35.23900 55.95300 22.59700
H  37.38800 49.86200 19.46900
H  37.26100 46.97000 20.26100
H  34.69900 49.41500 19.69200
H  35.38200 47.81000 19.27700
H  35.69100 49.30100 18.31100
H  39.47900 48.68900 21.18600
H  39.32400 48.74400 19.55100
H  40.56100 46.47600 19.60400
H  39.18600 45.83300 20.50500
H  40.50200 46.59900 21.32500
H  39.01800 43.91300 25.41700
H  38.69800 44.20800 23.78000
H  37.48000 43.36400 24.54600
H  37.28500 47.04900 29.56500
H  34.88400 45.16500 32.27700
H  34.80000 43.99200 30.98200
H  33.69400 45.19800 30.92600

