158

Mg -1.59700 17.46200 27.63200
C  -1.93700 14.89600 29.95300
C  -2.43600 19.76000 30.17800
C  -1.42400 20.07400 25.41700
C  -1.80600 15.22200 25.07300
N  -2.03300 17.35600 29.83100
C  -2.04500 16.17200 30.63200
C  -2.08200 16.59700 32.13400
C  -2.41000 18.08800 32.06200
C  -2.35300 18.42900 30.58600
C  -3.64500 18.65300 32.91300
C  -0.78800 16.20500 32.80200
C  -0.16400 17.07700 33.94000
H  0.20700 16.33200 35.21200
N  -1.86800 19.59100 27.80400
C  -2.26600 20.31300 28.93400
C  -2.45600 21.69700 28.63900
C  -2.03700 21.80300 27.24900
C  -1.64900 20.48600 26.78100
C  -2.97900 22.62900 29.73800
C  -2.00500 23.09100 26.37900
O  -1.50600 23.20700 25.25600
C  -2.50600 24.36900 27.04300
N  -1.51600 17.55600 25.49000
C  -1.40500 18.73300 24.83000
C  -1.28300 18.45600 23.33300
C  -1.14600 16.88900 23.23400
C  -1.62800 16.50000 24.62800
C  -2.38400 19.04500 22.33700
C  0.23900 16.37200 22.89700
C  1.37700 16.75700 23.90100
N  -1.65800 15.39600 27.45500
C  -1.75500 14.66600 26.31800
C  -1.87700 13.32100 26.72900
C  -1.95000 13.32800 28.11500
C  -1.81000 14.66100 28.57700
C  -1.92100 12.07500 25.91800
C  -1.99000 12.50000 29.33200
O  -1.94500 11.27400 29.51200
C  -1.96100 13.51200 30.50500
C  -0.84100 13.09000 31.31200
O  0.28300 13.49500 31.11500
O  -1.28400 12.28900 32.35700
C  -0.24900 11.76400 33.16600
H  -2.46300 20.43700 31.03500
H  -1.18000 20.80400 24.64300
H  -1.69700 14.43700 24.32200
H  -2.96100 16.07500 32.51200
H  -1.67500 18.82100 32.39300
H  -4.45600 18.80100 32.20000
H  -3.53500 19.55600 33.51400
H  -3.95200 17.92200 33.66100
H  0.10300 16.19100 32.17400
H  -0.94400 15.18600 33.15600
H  -0.48200 18.07300 34.24900
H  0.83100 17.25000 33.53100
H  -2.86500 23.66300 29.41100
H  -2.48700 22.54300 30.70700
H  -4.01400 22.37600 29.96600
H  -3.44400 24.27200 27.59000
H  -2.64500 25.23800 26.40000
H  -1.84100 24.49600 27.89700
H  -0.29900 18.84700 23.07200
H  -1.78500 16.44400 22.47100
H  -3.30500 18.58800 22.69600
H  -2.02500 18.71900 21.36000
H  -2.51200 20.12700 22.37200
H  0.53600 16.65500 21.88700
H  -0.02300 15.32000 22.78500
H  1.00000 16.70600 24.92200
H  1.74500 17.75800 23.67900
H  2.26800 16.13200 23.84500
H  -1.50600 12.20100 24.91800
H  -2.96500 11.86800 25.68400
H  -1.40500 11.21700 26.34800
H  -2.88900 13.36100 31.05500
H  0.04600 10.83500 32.67700
H  -0.65100 11.68600 34.17600
H  0.61200 12.41800 33.30300
Mg 30.41200 58.28800 38.56600
C  27.66500 56.22700 37.29800
C  32.48100 55.38300 38.16200
C  33.04100 60.22800 38.76700
C  28.31400 60.98100 37.95600
N  30.06500 56.07100 37.77000
C  28.82600 55.50800 37.37400
C  29.09700 54.00700 37.12600
C  30.55300 53.71000 37.69100
C  31.05200 55.14900 37.91400
C  30.69400 52.82200 38.98600
C  28.93500 53.41200 35.66900
C  29.28100 54.41000 34.56600
H  28.32300 54.55600 33.30800
N  32.50300 57.82100 38.48900
C  33.14100 56.64100 38.27800
C  34.59700 56.81800 38.47600
C  34.79900 58.26100 38.55100
C  33.43400 58.85200 38.65900
C  35.63000 55.68100 38.36800
C  36.08500 58.91300 38.47600
O  37.14500 58.24300 38.42300
C  36.25000 60.41600 38.52400
N  30.61200 60.30800 38.45200
C  31.84300 60.95100 38.65100
C  31.75400 62.44800 38.30100
C  30.25800 62.65800 38.08700
C  29.69700 61.26100 38.01600
C  32.28800 63.32900 39.47400
C  29.95100 63.66600 36.87900
C  28.95600 64.83000 37.15600
N  28.32300 58.60100 38.04500
C  27.60800 59.69300 37.92600
C  26.19500 59.38000 37.57100
C  26.21400 58.00400 37.40200
C  27.54200 57.58800 37.58300
C  25.15300 60.36500 37.42000
C  25.35800 56.88800 37.09400
O  24.13400 56.80300 36.83000
C  26.27700 55.66000 37.01400
C  25.80200 54.62800 37.89900
O  25.91200 54.62900 39.11300
O  25.12500 53.67700 37.17000
C  24.49600 52.56500 37.89300
H  33.04900 54.45100 38.17700
H  33.82900 60.94500 39.00600
H  27.70800 61.85900 37.72300
H  28.47800 53.48100 37.85400
H  31.13000 53.31800 36.85300
H  31.50300 52.10300 38.85600
H  29.85000 52.16800 39.20600
H  30.94800 53.31400 39.92400
H  27.88300 53.13400 35.59800
H  29.55600 52.52600 35.53800
H  30.22100 54.07000 34.13200
H  29.46200 55.43600 34.88400
H  35.93300 55.69900 37.32100
H  35.16700 54.70700 38.53100
H  36.46100 55.86500 39.04800
H  35.89700 60.75500 39.49800
H  35.64300 60.75200 37.68200
H  37.26200 60.78800 38.36700
H  32.21800 62.67800 37.34300
H  29.83600 63.08000 38.99900
H  33.12300 63.96300 39.17700
H  32.65900 62.74000 40.31300
H  31.52500 63.98800 39.88900
H  29.67200 63.04800 36.02500
H  30.87100 64.16400 36.57100
H  27.97700 64.56400 36.75500
H  29.14000 65.76000 36.61800
H  28.84500 65.02300 38.22300
H  25.03900 60.59400 36.36000
H  25.41400 61.32400 37.86800
H  24.18500 60.10300 37.84600
H  26.30800 55.14900 36.05200
H  24.03100 51.97900 37.10000
H  23.63400 52.88300 38.48000
H  25.21500 51.94800 38.43200

