158

Mg 46.90500 44.50600 42.41100
C  43.41500 44.06700 42.28200
C  47.14500 41.01100 42.31100
C  50.07900 44.81100 41.79800
C  46.32900 47.99000 41.74800
N  45.35400 42.76200 42.20000
C  44.03200 42.80100 42.21700
C  43.45200 41.38300 42.03500
C  44.63900 40.54700 42.59900
C  45.80700 41.48700 42.33400
C  44.60300 40.06500 44.06600
C  42.88300 41.09100 40.60800
C  43.57700 41.81900 39.37200
H  44.41100 41.03700 38.39000
N  48.40000 43.15400 42.17100
C  48.32400 41.75900 42.17500
C  49.68500 41.14300 42.09300
C  50.58300 42.22800 41.80900
C  49.70800 43.49900 42.02000
C  49.96100 39.59800 42.05100
C  52.07200 42.13000 41.53500
O  52.62300 41.01600 41.36700
C  52.96800 43.34300 41.60500
N  48.05700 46.21400 41.84700
C  49.39900 46.01200 41.80700
C  50.03500 47.38500 41.57900
C  48.86700 48.43500 41.53600
C  47.66400 47.51900 41.64100
C  51.16800 47.64300 42.59600
C  48.76900 49.26700 40.28900
C  49.41500 50.65300 40.28700
N  45.21900 45.87300 42.17900
C  45.15900 47.21600 41.93500
C  43.75200 47.58700 41.80500
C  43.01700 46.33200 41.91000
C  43.96400 45.34100 42.16200
C  43.22100 48.98700 41.59400
C  41.72800 45.77800 41.93500
O  40.59400 46.27900 41.99000
C  41.94900 44.19700 42.06600
C  41.21100 43.90000 43.33500
O  40.11600 43.30100 43.39900
O  41.95300 44.13500 44.46400
C  41.42800 43.65400 45.75600
H  47.22000 39.96300 42.60700
H  51.11100 44.97300 41.48000
H  46.15700 49.04700 41.53300
H  42.62300 41.16900 42.71000
H  44.82200 39.70600 41.92900
H  45.18300 40.67800 44.75600
H  45.09400 39.09200 44.04500
H  43.55000 39.89900 44.29200
H  41.80100 41.19200 40.68700
H  43.04600 40.01800 40.50100
H  44.22300 42.64900 39.65600
H  42.81200 42.37000 38.82600
H  49.62800 39.25700 41.07000
H  49.48600 39.00800 42.83400
H  51.04000 39.46700 42.14400
H  52.79200 43.98400 40.74100
H  54.01400 43.05800 41.72300
H  52.66700 43.82900 42.53400
H  50.49000 47.33500 40.58900
H  48.90400 49.10700 42.39400
H  52.11600 47.55800 42.06500
H  51.15100 46.97300 43.45500
H  51.13100 48.63100 43.05600
H  47.80200 49.27700 39.78500
H  49.35200 48.81300 39.48800
H  48.79200 51.40200 39.79700
H  50.39000 50.68500 39.80200
H  49.76400 50.90000 41.28900
H  44.01200 49.72700 41.47000
H  42.54100 49.13100 42.43300
H  42.72100 48.87600 40.63200
H  41.58600 43.67500 41.18100
H  40.92900 42.70600 45.55400
H  40.70800 44.38600 46.12300
H  42.28200 43.60700 46.43100
Mg 35.52100 49.12900 24.91800
C  35.69300 47.46100 27.98100
C  34.21700 51.85500 26.51500
C  35.19700 50.61000 21.91000
C  36.84600 46.16100 23.38300
N  35.03000 49.56600 27.05500
C  35.30500 48.81300 28.19400
C  35.12400 49.66600 29.40600
C  34.35500 50.93700 28.93700
C  34.53800 50.78900 27.45200
C  32.82900 51.07500 29.37000
C  36.51700 49.92700 30.09900
C  36.56800 49.52900 31.55900
H  35.24400 49.61800 32.26200
N  34.95200 51.03100 24.31500
C  34.40900 52.00900 25.14000
C  34.06300 53.11500 24.27700
C  34.35800 52.73200 22.94800
C  34.89100 51.38500 23.01100
C  33.43600 54.37600 24.86600
C  34.07100 53.50000 21.69300
O  34.30600 53.25200 20.49300
C  33.37900 54.89700 21.76800
N  35.97200 48.39300 22.90300
C  35.75500 49.27200 21.85700
C  36.38400 48.71700 20.62300
C  37.09700 47.37400 21.07400
C  36.51400 47.24900 22.52000
C  35.29800 48.44500 19.57500
C  38.70100 47.32500 21.07500
C  39.29600 46.01000 20.51700
N  35.95500 47.14100 25.46600
C  36.54000 46.11800 24.79800
C  36.90500 45.01600 25.66800
C  36.36000 45.42900 26.89400
C  35.94400 46.76100 26.78800
C  37.55200 43.72900 25.28700
C  36.28200 45.07800 28.30200
O  36.50800 44.00000 28.85900
C  35.86100 46.34700 29.02500
C  34.59000 45.92700 29.84100
O  33.41400 45.88600 29.50600
O  35.01400 45.55200 31.11800
C  34.00600 45.23000 32.17100
H  33.80000 52.65200 27.13500
H  35.02500 51.13600 20.96800
H  37.36600 45.26600 23.03400
H  34.49000 48.99300 29.98400
H  34.93600 51.83600 29.14200
H  32.27400 51.08600 28.43200
H  32.68000 51.98900 29.94600
H  32.48400 50.19500 29.91400
H  36.79000 50.97800 29.99800
H  37.24900 49.46500 29.43600
H  37.24800 50.05400 32.23000
H  37.00900 48.53900 31.45000
H  34.11000 55.23200 24.86000
H  33.25700 54.18300 25.92400
H  32.50300 54.54600 24.32800
H  34.02000 55.68600 22.16100
H  32.38100 54.83400 22.20000
H  33.17500 55.20700 20.74300
H  37.12400 49.42800 20.25600
H  36.70500 46.47500 20.60000
H  35.32600 47.38700 19.31100
H  35.43600 49.02700 18.66400
H  34.30900 48.70800 19.95100
H  39.01300 47.61100 22.08000
H  39.10800 48.13000 20.46300
H  40.20700 45.84800 21.09200
H  39.75200 46.08200 19.52900
H  38.47600 45.29700 20.43500
H  38.25700 43.86100 24.46600
H  36.80700 43.01200 24.94000
H  38.01600 43.20600 26.12300
H  36.55600 46.74600 29.76400
H  33.01900 45.23300 31.70900
H  34.01300 45.99600 32.94700
H  34.18500 44.22300 32.54800

