158

Mg -1.06400 17.73700 26.49500
C  -1.42600 15.70200 29.38100
C  -1.93700 20.49600 28.45100
C  -1.39800 19.55200 23.70700
C  -0.64400 14.84800 24.64100
N  -1.56200 18.02500 28.69400
C  -1.69100 17.06900 29.69700
C  -1.98800 17.67400 31.03900
C  -2.21000 19.24700 30.73700
C  -1.87900 19.30100 29.19100
C  -3.53600 19.83800 31.14600
C  -0.94300 17.37500 32.19600
C  -1.05700 18.23200 33.54600
H  -0.79600 17.44100 34.85400
N  -1.48500 19.75500 26.15200
C  -1.67100 20.78200 27.06900
C  -1.77000 22.08000 26.40700
C  -1.68400 21.81300 25.03500
C  -1.48000 20.34300 24.89300
C  -2.00700 23.37400 27.24100
C  -1.86200 22.81400 23.95900
O  -1.96900 22.49600 22.80900
C  -1.90100 24.25500 24.24500
N  -1.23600 17.21000 24.45400
C  -1.29000 18.18500 23.44500
C  -0.98400 17.56600 22.11300
C  -0.47400 16.07400 22.50200
C  -0.76100 16.02700 23.97700
C  -2.16300 17.55800 21.07600
C  0.96000 15.67400 22.13300
C  2.10100 16.57200 22.56100
N  -0.97500 15.72100 26.87300
C  -0.84500 14.66200 25.99400
C  -0.86600 13.40300 26.69900
C  -0.99400 13.79500 28.01800
C  -1.14900 15.17700 28.09800
C  -0.63600 11.92600 26.12500
C  -0.91600 13.27500 29.35600
O  -0.60100 12.14900 29.79800
C  -1.21300 14.51000 30.34700
C  -0.03200 14.40300 31.33300
O  1.14400 14.65100 31.08300
O  -0.49700 13.75500 32.44800
C  0.58800 13.50500 33.41400
H  -2.23600 21.36500 29.04100
H  -1.37700 20.11400 22.77100
H  -0.32800 13.95200 24.10100
H  -2.85300 17.15600 31.45600
H  -1.38900 19.71000 31.28500
H  -4.00700 20.65800 30.60400
H  -3.29500 20.28100 32.11200
H  -4.30700 19.06800 31.14400
H  0.03600 17.38800 31.71700
H  -1.25300 16.37600 32.50000
H  -2.01800 18.74300 33.59900
H  -0.19800 18.89100 33.41700
H  -1.26000 24.13000 27.00000
H  -1.94400 23.24800 28.32200
H  -3.01000 23.69900 26.96700
H  -2.85300 24.51400 24.70900
H  -1.87400 24.78700 23.29400
H  -0.95700 24.46000 24.75100
H  -0.15700 18.09900 21.64300
H  -1.11500 15.39300 21.94200
H  -2.97000 18.05600 21.61500
H  -2.42800 16.54300 20.78000
H  -1.90500 17.98100 20.10500
H  0.89100 15.54300 21.05300
H  1.10900 14.69600 22.59100
H  1.83500 17.32400 23.30400
H  2.49100 17.11900 21.70200
H  2.94600 16.07400 23.03500
H  0.21300 11.97400 25.44300
H  -1.53200 11.43000 25.75000
H  -0.33900 11.41900 27.04300
H  -2.17000 14.39600 30.85500
H  1.21400 12.65900 33.13000
H  0.12800 13.33600 34.38800
H  1.13100 14.42100 33.64400
Mg 45.62700 44.49700 43.17000
C  42.19600 44.14800 42.95800
C  46.00700 41.23200 42.48200
C  48.84600 45.12000 42.81700
C  45.05400 48.00600 43.42500
N  44.22300 42.92700 42.83300
C  42.90400 42.93500 42.95800
C  42.33600 41.48800 42.79000
C  43.59500 40.59200 42.89600
C  44.69100 41.66600 42.83200
C  43.65000 39.81200 44.23700
C  41.47800 41.33900 41.58700
C  41.86700 42.07800 40.28500
H  41.75300 41.36200 38.97300
N  47.24300 43.30000 42.69000
C  47.18000 41.96800 42.52000
C  48.52300 41.46100 42.32200
C  49.43400 42.55100 42.39000
C  48.51900 43.73300 42.62600
C  48.89600 40.04400 42.04500
C  50.87600 42.51100 42.18000
O  51.52200 41.45900 42.11400
C  51.69300 43.75200 42.22500
N  46.82700 46.33100 43.19300
C  48.13400 46.31600 43.02300
C  48.68800 47.78700 42.95100
C  47.43700 48.58700 43.36800
C  46.37000 47.58000 43.37300
C  49.97700 47.99000 43.84000
C  47.28300 49.69200 42.30000
C  46.73900 50.97700 42.74400
N  43.99900 45.89600 43.23400
C  43.90400 47.24500 43.33500
C  42.52200 47.68600 43.35400
C  41.80300 46.46900 43.27500
C  42.70700 45.42400 43.20200
C  42.03700 49.10400 43.56100
C  40.39400 45.92500 43.18100
O  39.31500 46.47200 43.27400
C  40.65400 44.35300 42.90100
C  39.82100 43.56600 43.82800
O  38.92800 42.80100 43.53800
O  40.26300 43.83900 45.11600
C  39.90300 42.74200 45.95400
H  46.02600 40.16200 42.26300
H  49.87300 45.46800 42.69300
H  44.80700 49.04100 43.67000
H  41.69000 41.25400 43.63600
H  43.71400 39.88900 42.07200
H  42.89600 39.91700 45.01700
H  44.40100 40.29900 44.85800
H  43.90500 38.77900 44.00100
H  40.48200 41.70300 41.84000
H  41.44900 40.25600 41.47100
H  42.89900 42.40000 40.42200
H  41.26500 42.96900 40.10400
H  48.03400 39.43100 42.30600
H  49.70700 39.62500 42.64100
H  49.09400 39.98100 40.97500
H  51.69100 44.15100 43.23900
H  51.22700 44.46000 41.53900
H  52.72300 43.46600 42.01300
H  48.99000 47.81400 41.90400
H  47.63900 49.00800 44.35300
H  49.85900 48.85500 44.49100
H  50.80400 48.19000 43.15800
H  50.21300 47.13700 44.47700
H  46.65800 49.29500 41.50000
H  48.27000 49.93000 41.90300
H  47.56200 51.51300 43.21800
H  45.88900 50.87100 43.41700
H  46.43300 51.63300 41.92800
H  42.75900 49.82100 43.95000
H  41.22100 49.00900 44.27800
H  41.77900 49.48000 42.57100
H  40.29600 44.21500 41.88100
H  40.39600 42.70100 46.92600
H  40.24700 41.81500 45.49500
H  38.83100 42.79100 46.14400

