158

Mg 42.92300 3.86100 47.97800
C  41.02200 6.58800 47.04500
C  40.25000 1.84900 47.45800
C  45.02000 1.02500 48.08400
C  45.80800 5.83500 47.84400
N  40.89300 4.24500 47.15000
C  40.27300 5.44800 46.96900
C  38.76800 5.25200 46.64500
C  38.49300 3.71700 47.06400
C  39.95600 3.20600 47.21100
C  37.56900 3.52500 48.37500
C  38.51000 5.51900 45.12000
C  37.27000 6.48300 44.75600
H  37.44300 7.35600 43.44800
N  42.59200 1.69800 47.89600
C  41.44500 1.09300 47.71500
C  41.64400 -0.38100 47.62000
C  43.03700 -0.62400 47.81600
C  43.64400 0.75700 47.91900
C  40.51400 -1.36800 47.45900
C  43.76900 -1.96500 47.87400
O  43.16600 -3.01800 47.93100
C  45.28200 -2.10800 47.85000
N  45.08400 3.49300 48.10300
C  45.65800 2.27000 48.17700
C  47.13600 2.37100 48.37800
C  47.48600 3.87200 48.14200
C  46.02500 4.45700 48.02700
C  47.61400 1.69300 49.69900
C  48.48900 4.10600 46.95300
C  49.91100 4.37300 47.37900
N  43.38100 5.85400 47.67000
C  44.60100 6.42800 47.64100
C  44.30500 7.85900 47.34300
C  42.93100 7.98700 47.19700
C  42.41200 6.69000 47.27600
C  45.40700 8.88000 47.10600
C  41.90800 8.98100 46.89200
O  41.93100 10.15500 46.65800
C  40.60500 8.10600 46.84100
C  39.76800 8.63800 47.93500
O  39.86200 8.35600 49.11900
O  38.79000 9.42200 47.40500
C  37.87600 10.08800 48.28800
H  39.39800 1.17300 47.36300
H  45.71800 0.19700 48.22300
H  46.61600 6.56900 47.83600
H  38.13200 5.95200 47.18700
H  38.19000 3.01900 46.28300
H  37.43700 4.49700 48.85000
H  38.19800 2.84300 48.94700
H  36.57400 3.09200 48.27300
H  38.34800 4.57600 44.59800
H  39.44400 5.85300 44.67000
H  37.07300 7.19900 45.55400
H  36.31500 5.95900 44.72400
H  40.57600 -1.92800 46.52600
H  39.56700 -0.84400 47.59000
H  40.57100 -2.15800 48.20900
H  45.78500 -1.53700 47.07000
H  45.44300 -3.10200 47.43200
H  45.75400 -1.93000 48.81600
H  47.81000 2.00700 47.60200
H  48.05400 4.29600 48.96900
H  47.52900 0.61800 49.54200
H  46.96800 1.99000 50.52500
H  48.64400 1.93900 49.95700
H  48.08800 4.99200 46.46100
H  48.52400 3.24000 46.29200
H  50.55700 4.04000 46.56500
H  50.17700 3.90400 48.32600
H  49.98100 5.45800 47.45700
H  46.38200 8.42800 46.92300
H  45.41400 9.48900 48.01000
H  45.14800 9.60500 46.33400
H  40.00200 8.37100 45.97300
H  36.88800 9.63900 48.18600
H  37.74100 11.08400 47.86400
H  38.16100 10.12900 49.33900
Mg -11.49200 16.52200 42.58300
C  -8.10600 17.48800 42.89500
C  -12.24900 19.74000 41.84800
C  -14.58000 15.52900 41.74000
C  -10.50800 13.14200 42.78500
N  -10.23600 18.30400 42.14600
C  -8.90200 18.51300 42.38200
C  -8.46600 19.97500 42.13800
C  -9.83200 20.69300 42.25500
C  -10.88900 19.57200 42.07300
C  -10.05700 21.58100 43.47400
C  -7.73000 20.18900 40.79100
C  -6.24300 20.48700 40.81600
H  -5.36200 19.55300 39.95000
N  -13.26000 17.54300 41.99700
C  -13.33100 18.89500 41.75700
C  -14.70100 19.15200 41.29400
C  -15.39900 17.94500 41.12000
C  -14.42600 16.92400 41.58900
C  -15.14000 20.57600 41.30900
C  -16.93400 17.67400 40.79500
O  -17.62000 18.56900 40.39400
C  -17.69800 16.30100 40.65600
N  -12.37700 14.63400 42.28900
C  -13.73400 14.53500 42.18200
C  -14.28500 13.15400 42.37500
C  -13.01500 12.36900 42.62500
C  -11.84100 13.45300 42.56500
C  -15.35900 13.16200 43.54800
C  -12.76900 11.13600 41.73800
C  -13.83400 10.49800 40.90500
N  -9.63300 15.47000 42.73900
C  -9.45200 14.08400 42.88400
C  -8.03800 13.90900 43.26000
C  -7.48900 15.20600 43.31600
C  -8.51100 16.14100 42.98100
C  -7.47800 12.63400 43.51300
C  -6.24800 16.01400 43.54800
O  -5.10000 15.65100 43.89800
C  -6.66000 17.51900 43.27900
C  -6.69700 18.19400 44.61000
O  -7.29300 17.89700 45.63600
O  -5.78000 19.16600 44.49300
C  -5.48900 19.92900 45.77200
H  -12.49400 20.76400 41.55900
H  -15.59100 15.19700 41.49500
H  -10.19700 12.10200 42.90300
H  -7.95100 20.36800 43.01500
H  -9.94600 21.21000 41.30300
H  -9.23900 21.56600 44.19400
H  -10.93200 21.20700 44.00500
H  -10.30300 22.58500 43.13000
H  -8.29100 20.92800 40.21800
H  -7.89700 19.32200 40.15200
H  -5.87600 20.35100 41.83300
H  -6.08900 21.48400 40.40400
H  -15.04300 20.79000 40.24500
H  -14.43300 21.23200 41.81900
H  -16.11100 20.65500 41.79900
H  -18.66800 16.42700 40.17600
H  -18.01100 15.95300 41.64100
H  -17.11000 15.48500 40.23700
H  -14.80600 12.92500 41.44500
H  -13.19800 11.97400 43.62400
H  -16.03400 13.99900 43.36500
H  -14.87700 13.17600 44.52500
H  -15.89500 12.21300 43.53900
H  -12.54400 10.33200 42.43900
H  -11.93100 11.36600 41.07900
H  -13.82900 10.96100 39.91800
H  -14.77500 10.47000 41.45300
H  -13.69400 9.43000 40.73600
H  -6.46200 12.80400 43.86800
H  -7.46400 11.85800 42.74800
H  -8.00500 12.32500 44.41500
H  -5.87900 17.94500 42.65000
H  -6.41200 20.03200 46.34200
H  -4.93600 20.85600 45.62300
H  -4.76900 19.25100 46.23000

