158

Mg -2.31200 16.91400 26.33500
C  -2.76700 14.56800 29.02800
C  -2.58000 19.45800 28.62200
C  -2.42300 19.17400 23.88000
C  -2.77100 14.30100 24.11000
N  -2.59100 16.92700 28.50300
C  -2.77600 15.90800 29.43500
C  -2.84400 16.46000 30.87800
C  -2.89000 17.98400 30.63000
C  -2.70100 18.13000 29.14000
C  -4.11700 18.74200 31.06100
C  -1.76000 15.94100 31.78300
C  -1.28800 16.75500 32.99800
H  -0.69600 15.88400 34.12300
N  -2.28400 19.04300 26.28700
C  -2.31400 19.92100 27.34200
C  -2.26700 21.27100 26.84900
C  -2.19800 21.21800 25.43100
C  -2.34600 19.78200 25.13300
C  -2.36100 22.53400 27.69700
C  -1.91200 22.28900 24.34000
O  -1.78200 22.02300 23.14900
C  -1.74100 23.65500 24.76000
N  -2.56800 16.72800 24.34100
C  -2.40000 17.80100 23.48400
C  -2.51200 17.35800 21.98700
C  -2.39600 15.81300 22.14100
C  -2.61900 15.58300 23.61700
C  -3.91100 17.84800 21.37800
C  -0.94800 15.17900 21.83900
C  -0.90600 13.93400 20.94500
N  -2.49000 14.81700 26.46000
C  -2.78600 13.88900 25.47900
C  -2.89700 12.58700 26.08100
C  -2.85000 12.82800 27.44300
C  -2.61800 14.21300 27.65700
C  -2.99200 11.30100 25.43400
C  -3.13100 12.22000 28.67500
O  -3.41400 11.10000 29.01000
C  -2.89100 13.28100 29.79200
C  -1.59200 12.93500 30.52400
O  -0.48100 13.34300 30.37100
O  -1.91200 11.99800 31.39500
C  -0.96200 11.52300 32.36300
H  -2.64800 20.20300 29.41800
H  -2.41200 19.81500 22.99700
H  -3.02700 13.54500 23.36500
H  -3.77500 16.19100 31.37700
H  -1.94400 18.37900 31.00000
H  -3.80600 19.74400 31.35800
H  -4.61800 18.32900 31.93600
H  -4.79900 18.84800 30.21700
H  -0.88100 15.68800 31.18900
H  -2.21300 15.02100 32.15100
H  -2.08100 17.34900 33.45300
H  -0.41500 17.34900 32.72900
H  -1.42100 23.06900 27.56500
H  -2.47300 22.23200 28.73900
H  -3.28800 23.06300 27.48100
H  -1.89100 24.24300 23.85400
H  -0.78000 23.80900 25.25000
H  -2.50600 23.97300 25.46900
H  -1.62100 17.84100 21.58600
H  -3.04100 15.25800 21.46000
H  -4.57400 16.99300 21.24400
H  -3.80500 18.55100 20.55100
H  -4.38800 18.52100 22.09100
H  -0.38000 14.94200 22.73800
H  -0.32600 15.90400 21.31500
H  -0.24000 14.28500 20.15700
H  -1.90200 13.81500 20.51800
H  -0.58600 13.03700 21.47700
H  -1.97100 10.92600 25.50900
H  -3.30000 11.29200 24.38800
H  -3.69900 10.71600 26.02300
H  -3.72400 13.30800 30.49400
H  -0.59000 12.35900 32.95600
H  -0.12500 11.03700 31.86400
H  -1.34200 10.77000 33.05400
Mg -0.28700 7.32000 25.23200
C  0.56800 9.47700 27.91200
C  0.21100 4.69600 27.48400
C  -0.80900 5.36200 22.63200
C  0.51600 9.92900 23.03900
N  0.15400 7.16000 27.45700
C  0.26400 8.16200 28.33300
C  0.48900 7.63800 29.81000
C  0.64800 6.09100 29.59900
C  0.31300 5.98900 28.07200
C  2.07100 5.52900 29.79200
C  -0.70300 8.00600 30.64200
C  -0.61500 7.64500 32.10900
H  0.77600 7.86200 32.69100
N  -0.32500 5.30900 25.06400
C  -0.07900 4.38800 26.07700
C  -0.23300 3.07100 25.42500
C  -0.57300 3.22600 24.06200
C  -0.60400 4.65800 23.90900
C  0.07700 1.86700 26.22400
C  -0.98000 2.21000 23.03300
O  -1.26200 2.50100 21.83900
C  -0.93300 0.80800 23.31900
N  -0.19700 7.62900 23.07100
C  -0.53400 6.66700 22.21900
C  -0.78800 7.19000 20.82500
C  -0.39200 8.74800 20.91100
C  0.06200 8.78500 22.39300
C  0.03600 6.45400 19.67200
C  -1.47400 9.83700 20.53200
C  -2.65700 9.82800 21.43800
N  0.28700 9.29700 25.38500
C  0.52700 10.24800 24.38100
C  0.91000 11.58700 24.99800
C  0.91200 11.26900 26.37400
C  0.54900 9.95100 26.54000
C  1.14700 12.95500 24.33900
C  1.10500 11.83600 27.66100
O  1.40900 12.97500 28.00700
C  0.88200 10.69200 28.75000
C  2.10400 10.54400 29.49000
O  3.20200 10.26100 28.99200
O  1.83900 10.77100 30.80800
C  2.98400 11.03600 31.67200
H  0.26200 3.85600 28.18000
H  -0.92000 4.84500 21.67700
H  0.62800 10.81500 22.41000
H  1.38400 8.11900 30.20400
H  0.04700 5.52100 30.30800
H  2.64500 6.16400 30.46700
H  2.60600 5.48700 28.84400
H  2.02000 4.54900 30.26700
H  -1.58300 7.52200 30.21800
H  -0.90900 9.07500 30.57700
H  -0.90900 6.62000 32.33500
H  -1.11800 8.35300 32.76600
H  0.96700 2.08500 26.81500
H  0.38300 1.08500 25.53100
H  -0.63300 1.48900 26.96000
H  -1.55700 0.47700 24.15000
H  0.11100 0.54400 23.48500
H  -1.28000 0.18600 22.49400
H  -1.85700 7.07600 20.64400
H  0.46800 8.82800 20.24700
H  0.39200 7.17700 18.93800
H  -0.62200 5.75400 19.15700
H  0.88700 5.90800 20.07800
H  -1.76300 9.79400 19.48200
H  -1.15000 10.87800 20.53800
H  -2.43300 9.38700 22.41000
H  -3.54900 9.39500 20.98500
H  -2.84300 10.88600 21.62100
H  0.34300 13.68100 24.46300
H  1.26100 12.84700 23.26100
H  2.07300 13.39200 24.71500
H  0.03900 10.87200 29.41700
H  3.77300 11.63400 31.21600
H  3.30700 10.12300 32.17200
H  2.61000 11.63000 32.50500

