158

Mg 30.12400 59.32200 39.31400
C  27.39800 57.38200 38.36500
C  32.17600 56.83800 38.46900
C  32.71700 61.49700 39.55200
C  27.87800 61.98100 39.38200
N  29.75000 57.40800 38.48200
C  28.61800 56.75300 38.18200
C  28.93500 55.32700 37.55200
C  30.27200 55.09000 38.31100
C  30.79500 56.57100 38.44700
C  29.96300 54.36700 39.67600
C  28.85000 55.33500 35.96000
C  27.78200 54.34700 35.48100
H  26.72400 54.81600 34.49500
N  32.26100 59.15900 39.11600
C  32.87000 58.00500 38.81000
C  34.32100 58.27200 38.89200
C  34.52400 59.65800 39.17200
C  33.13100 60.14800 39.30200
C  35.31200 57.19900 38.68600
C  35.87300 60.28300 39.29700
O  36.92100 59.66500 39.28900
C  35.94600 61.74300 39.38900
N  30.30900 61.46400 39.46800
C  31.45800 62.08800 39.70400
C  31.18700 63.57900 39.78600
C  29.63200 63.70400 39.61900
C  29.23100 62.29600 39.42400
C  31.84300 64.40500 40.95300
C  29.21600 64.60000 38.38300
C  28.14000 65.62400 38.63000
N  28.00300 59.68800 39.05800
C  27.26400 60.81900 39.14100
C  25.88300 60.56500 38.83900
C  25.87400 59.14900 38.59900
C  27.19500 58.70700 38.62100
C  24.71800 61.53900 38.91700
C  25.07100 57.94100 38.34200
O  23.84000 57.81600 38.34200
C  26.00700 56.77800 38.22800
C  25.78300 55.72600 39.25800
O  25.85600 55.95200 40.48600
O  25.60600 54.48300 38.64100
C  25.49400 53.35500 39.52900
H  32.82500 55.98100 38.27900
H  33.56300 62.18500 39.62100
H  27.23800 62.86500 39.33700
H  28.22100 54.64200 38.00800
H  31.00800 54.50600 37.76000
H  30.52400 54.69100 40.55200
H  29.99800 53.28200 39.57700
H  28.98400 54.71900 40.00300
H  29.81200 55.02900 35.55000
H  28.66300 56.35000 35.60800
H  27.27200 54.02500 36.39000
H  28.21400 53.40200 35.15000
H  35.72600 57.25200 37.67900
H  34.79300 56.25900 38.87600
H  36.17000 57.33400 39.34500
H  37.02100 61.91800 39.35700
H  35.55200 61.96800 40.38100
H  35.45600 62.19500 38.52700
H  31.66500 63.94600 38.87800
H  29.30200 63.85700 40.64700
H  31.49900 64.20400 41.96700
H  31.70000 65.46600 40.74700
H  32.91300 64.22500 40.84700
H  28.84300 64.00500 37.54900
H  30.12000 65.15400 38.12900
H  28.41800 66.67400 38.54600
H  27.66100 65.41300 39.58600
H  27.31600 65.30200 37.99300
H  25.04300 62.52300 38.57800
H  24.31000 61.59100 39.92600
H  23.87600 61.21200 38.30600
H  25.76500 56.30400 37.27700
H  24.47600 53.24500 39.90100
H  26.31200 53.37600 40.25000
H  25.53700 52.46500 38.90200
Mg 0.14300 43.40200 26.00900
C  2.28400 43.11200 28.79700
C  -2.41300 42.51700 28.15500
C  -1.84300 43.20100 23.37500
C  2.83100 44.27000 24.03400
N  -0.06000 42.73700 28.25100
C  0.93500 42.84400 29.17500
C  0.47100 42.66700 30.64500
C  -1.01900 42.12400 30.34200
C  -1.24100 42.55700 28.85300
C  -1.27700 40.58900 30.56600
C  0.61000 44.02600 31.46200
C  1.26700 43.89800 32.81000
H  0.87600 42.64700 33.65200
N  -1.90700 42.93400 25.80200
C  -2.82100 42.65500 26.77200
C  -4.10700 42.47500 26.22000
C  -3.91000 42.58300 24.77100
C  -2.46400 42.92300 24.56200
C  -5.27100 42.31400 27.16400
C  -4.92800 42.48900 23.60800
O  -4.70900 42.62400 22.45800
C  -6.34500 42.05800 23.96700
N  0.49500 43.63700 24.01200
C  -0.54700 43.57000 23.08600
C  -0.12800 44.05000 21.68100
C  1.34100 44.56600 21.99200
C  1.57000 44.20700 23.39900
C  -0.20600 42.89300 20.62200
C  1.53000 46.06700 21.76600
C  1.40200 46.61300 20.37500
N  2.11500 43.63800 26.28900
C  3.12300 43.96000 25.41600
C  4.44000 43.93900 26.08800
C  4.05500 43.66900 27.42500
C  2.68100 43.41800 27.48500
C  5.77100 44.03300 25.43300
C  4.66700 43.41600 28.70500
O  5.89100 43.38700 28.96600
C  3.53000 43.09600 29.71100
C  3.81100 41.68300 30.19500
O  3.87100 40.65700 29.50500
O  4.09400 41.69000 31.49900
C  4.85800 40.62800 32.12800
H  -3.24600 42.23700 28.80500
H  -2.50600 43.30200 22.51300
H  3.61700 44.77600 23.47100
H  0.97200 41.84900 31.16200
H  -1.74900 42.66300 30.94700
H  -1.79600 40.54700 31.52400
H  -0.32800 40.07900 30.39800
H  -1.83500 40.28400 29.68100
H  -0.34300 44.50500 31.68600
H  1.23500 44.71400 30.89400
H  1.05900 44.82400 33.34600
H  2.34700 44.02200 32.73600
H  -5.19400 41.25100 27.39300
H  -6.23000 42.45400 26.66600
H  -5.09100 42.88800 28.07300
H  -7.07800 42.85100 23.82100
H  -6.28700 41.55600 24.93200
H  -6.64800 41.22300 23.33600
H  -0.74900 44.90300 21.40700
H  2.08000 44.00900 21.41600
H  0.76400 42.72100 20.15600
H  -0.78700 43.28900 19.78900
H  -0.67800 41.94600 20.88300
H  2.47800 46.43200 22.16200
H  0.90200 46.55900 22.50800
H  0.99200 47.60000 20.59100
H  0.64000 46.18400 19.72600
H  2.37300 46.76600 19.90400
H  5.77900 44.08300 24.34400
H  6.49500 43.34700 25.87200
H  6.11800 45.05000 25.61800
H  3.41300 43.79900 30.53600
H  4.19700 39.92400 32.63300
H  5.52900 41.05500 32.87300
H  5.36600 39.98600 31.40800

