158

Mg 45.48700 5.26300 47.87000
C  43.07700 7.87200 47.10200
C  42.95100 3.03700 47.13800
C  47.75300 2.82700 48.07100
C  47.95000 7.68400 47.95200
N  43.29900 5.45500 47.22200
C  42.47600 6.57900 47.00500
C  41.08600 6.26200 46.56300
C  41.04000 4.74100 46.92100
C  42.55600 4.32800 47.11100
C  40.24200 4.29900 48.17600
C  40.79700 6.45700 45.02800
C  39.29900 6.29200 44.74600
H  38.66500 7.41200 43.93800
N  45.36500 3.15000 47.73400
C  44.25100 2.44300 47.36500
C  44.66100 0.99200 47.38400
C  46.05100 0.93700 47.84200
C  46.46100 2.36100 47.89900
C  43.68700 -0.19500 47.21500
C  46.83600 -0.36900 48.12300
O  46.21600 -1.42500 48.17500
C  48.25600 -0.34700 48.36200
N  47.53000 5.24200 47.97400
C  48.23200 4.09200 48.19500
C  49.73700 4.39700 48.33400
C  49.81400 5.96500 48.23400
C  48.32300 6.33700 48.04300
C  50.44600 3.69400 49.56200
C  50.75800 6.50500 47.05700
C  50.46300 6.15900 45.57500
N  45.61800 7.27800 47.59600
C  46.65800 8.20400 47.66600
C  46.16200 9.54100 47.38300
C  44.77100 9.44700 47.25600
C  44.48500 8.04900 47.34000
C  47.07400 10.75400 47.38700
C  43.57000 10.18700 47.04700
O  43.47700 11.37000 46.87600
C  42.38700 9.18300 46.82000
C  41.16500 9.39400 47.65500
O  40.97900 9.00800 48.82600
O  40.17500 10.11900 46.95200
C  39.07700 10.59500 47.76600
H  42.21200 2.24000 47.03700
H  48.53700 2.06800 48.03300
H  48.69400 8.46900 48.10400
H  40.33700 6.69300 47.22800
H  40.67300 4.22500 46.03300
H  39.74000 5.12800 48.67400
H  40.86300 3.76500 48.89500
H  39.45900 3.61200 47.85400
H  41.35600 5.66400 44.53300
H  41.16600 7.42000 44.67500
H  38.75300 6.20200 45.68500
H  39.17700 5.30600 44.29800
H  43.41400 -0.73300 48.12300
H  44.23400 -0.99300 46.71300
H  42.81600 0.07700 46.61900
H  48.68800 -1.32100 48.58800
H  48.56300 0.36400 49.12900
H  48.46500 0.02100 47.35800
H  50.19900 3.92600 47.46600
H  50.14700 6.41800 49.16800
H  49.77300 3.20600 50.26800
H  50.94200 4.48600 50.12300
H  51.09900 2.91300 49.17100
H  51.73100 6.10100 47.33700
H  50.84800 7.57800 47.23100
H  49.51600 5.61900 45.56300
H  51.20400 5.47400 45.16200
H  50.28100 7.07100 45.00600
H  46.69500 11.47400 46.66200
H  47.97800 10.43900 46.86600
H  47.45700 11.09100 48.35000
H  41.99200 9.12500 45.80600
H  38.29600 9.83500 47.80500
H  38.61400 11.44800 47.26900
H  39.45700 10.85300 48.75400
Mg 48.32500 35.38300 27.16400
C  46.34900 33.73200 29.72100
C  48.70800 37.86800 29.60300
C  49.98600 37.07200 24.82700
C  47.75000 32.74200 25.03700
N  47.61800 35.71400 29.42300
C  46.97100 34.85600 30.22600
C  47.04200 35.36100 31.69900
C  47.35100 36.83400 31.55900
C  47.99100 36.82200 30.13400
C  46.27700 37.88300 31.70900
C  48.21700 34.60700 32.47300
C  48.14200 34.61000 33.96900
H  47.22000 35.61900 34.73900
N  49.32200 37.17900 27.18400
C  49.36600 38.04000 28.34100
C  50.26400 39.19400 27.98400
C  50.60200 39.01800 26.58600
C  49.92800 37.75200 26.10500
C  50.57000 40.28900 28.96400
C  51.48700 39.83200 25.62400
O  51.72500 39.67200 24.44100
C  52.07600 41.13600 26.24000
N  48.70100 35.01900 25.22700
C  49.47900 35.85700 24.47100
C  49.74100 35.23600 23.06700
C  49.15100 33.82700 23.13000
C  48.48800 33.84200 24.57900
C  49.30300 36.15300 21.92100
C  50.19900 32.57500 22.91200
C  50.05200 31.93600 21.54200
N  47.31400 33.59500 27.33000
C  47.23400 32.59500 26.36100
C  46.45000 31.51200 26.89100
C  46.02600 31.89700 28.24300
C  46.58300 33.20700 28.45700
C  46.22700 30.18400 26.20400
C  45.22900 31.58400 29.39000
O  44.56600 30.55400 29.70300
C  45.34400 32.81000 30.37000
C  45.53700 32.48900 31.78700
O  46.53200 32.00000 32.26500
O  44.36500 32.66500 32.52100
C  44.40900 32.01600 33.83100
H  48.76000 38.74500 30.25200
H  50.48800 37.56800 23.99400
H  47.56600 31.87300 24.40200
H  46.12800 35.09200 32.22800
H  48.07100 37.25500 32.26100
H  45.33500 37.37800 31.92400
H  46.07800 38.54700 30.86700
H  46.42300 38.50800 32.59100
H  49.18600 35.06800 32.28100
H  48.37000 33.58700 32.12000
H  49.15900 34.65800 34.35600
H  47.75100 33.61300 34.17200
H  51.62700 40.54900 28.90900
H  50.28500 39.95000 29.96000
H  50.08400 41.25800 28.84800
H  52.52200 41.85000 25.54900
H  52.91100 40.80400 26.85700
H  51.26800 41.75400 26.63300
H  50.81400 35.16500 22.89000
H  48.29400 33.79400 22.45700
H  48.65300 35.68700 21.18000
H  50.14600 36.39400 21.27300
H  48.83300 37.02900 22.36800
H  50.01100 31.88600 23.73500
H  51.18700 33.02800 22.99300
H  49.80500 32.73200 20.84000
H  49.22200 31.23000 21.53500
H  50.91000 31.36300 21.18900
H  47.17200 29.82100 25.80100
H  45.56700 30.47200 25.38600
H  45.66300 29.42300 26.74500
H  44.38500 33.32900 30.36900
H  44.99900 31.10800 33.95400
H  43.45400 31.58200 34.12900
H  44.86300 32.73700 34.51000

