158

Mg 35.48600 47.99500 25.99500
C  35.86200 46.05200 28.84600
C  34.26300 50.46200 27.83700
C  34.91600 49.73400 23.10500
C  36.59700 45.35000 24.07300
N  35.01200 48.15000 28.14300
C  35.24300 47.30300 29.10100
C  34.93800 47.91200 30.48800
C  34.18600 49.21600 30.07900
C  34.39500 49.29200 28.60000
C  32.67600 49.24400 30.46900
C  36.18500 48.09600 31.45400
C  36.02500 47.81400 32.89600
H  35.94800 49.03700 33.90000
N  34.70200 49.83600 25.53400
C  34.34400 50.76800 26.44400
C  33.84000 51.99500 25.73300
C  34.10000 51.81300 24.35300
C  34.60600 50.39900 24.28500
C  33.24700 53.17000 26.49600
C  33.83200 52.71400 23.16700
O  34.02900 52.38400 21.96800
C  33.31400 54.08100 23.58700
N  35.35600 47.47400 23.84700
C  35.12500 48.37600 22.86300
C  35.38100 47.78300 21.48000
C  36.09000 46.35500 21.76300
C  36.01600 46.41600 23.30500
C  34.05900 47.60400 20.74100
C  37.56800 46.24000 21.22400
C  37.95700 44.99900 20.47700
N  36.11200 46.06200 26.33300
C  36.56300 45.12100 25.43700
C  37.01100 43.90100 26.24300
C  36.79700 44.30100 27.57400
C  36.20500 45.53600 27.54700
C  37.60500 42.53100 25.78400
C  36.87700 43.86100 28.98200
O  37.26200 42.77400 29.43200
C  36.41800 44.99400 29.77900
C  35.36100 44.60800 30.68800
O  34.36000 44.04000 30.38300
O  35.73300 44.76800 32.00200
C  34.86800 44.31800 33.09500
H  33.85700 51.23800 28.48900
H  34.97300 50.30500 22.17600
H  37.13800 44.59200 23.50300
H  34.27200 47.23400 31.02100
H  34.64100 50.11300 30.49900
H  32.60200 49.34500 31.55200
H  32.15300 48.37000 30.08200
H  32.25400 50.09500 29.93500
H  36.36900 49.17000 31.46500
H  36.95800 47.49800 30.97100
H  36.73100 47.09200 33.30600
H  35.02000 47.39000 32.89100
H  33.80000 54.10400 26.59600
H  33.07500 52.93000 27.54500
H  32.22600 53.37700 26.17400
H  32.39100 54.05000 24.16600
H  33.16400 54.52200 22.60200
H  34.06800 54.59900 24.18000
H  35.97100 48.43700 20.83900
H  35.50200 45.49100 21.45500
H  33.84900 48.38900 20.01500
H  33.13400 47.43800 21.29300
H  34.16400 46.75200 20.07000
H  38.17900 46.44800 22.10200
H  37.78400 47.16800 20.69400
H  37.13100 44.29100 20.53500
H  38.82000 44.53100 20.95100
H  38.21900 45.21400 19.44100
H  38.13500 42.82100 24.87700
H  36.78800 41.84500 25.55600
H  38.29600 42.09900 26.50800
H  37.23700 45.37800 30.38800
H  33.82900 44.50300 32.82100
H  35.05000 44.78200 34.06500
H  35.17700 43.29300 33.30200
Mg 26.70000 49.61900 25.50200
C  24.67000 50.94400 28.22900
C  29.17600 48.92100 27.80800
C  28.41800 48.45300 23.08300
C  24.35000 51.01700 23.30400
N  26.89900 49.88400 27.71300
C  25.93200 50.35300 28.64800
C  26.40500 50.16600 30.13600
C  27.95300 49.82100 29.89900
C  28.03700 49.44000 28.40700
C  28.87600 51.03000 30.23600
C  25.60800 49.13100 31.09000
C  25.27400 49.64400 32.47100
H  26.26100 50.30700 33.37100
N  28.53500 48.72400 25.50000
C  29.42100 48.54600 26.50900
C  30.57800 47.82300 26.03600
C  30.27200 47.44600 24.66300
C  28.99100 48.16700 24.33400
C  31.81900 47.44700 27.03900
C  30.86900 46.42700 23.75400
O  30.37000 46.33800 22.62700
C  31.92300 45.53900 24.11400
N  26.42400 49.78600 23.47000
C  27.31100 49.21600 22.67500
C  27.12600 49.65000 21.17000
C  25.74100 50.41100 21.21300
C  25.41700 50.39900 22.73200
C  28.25400 50.41200 20.37300
C  24.61200 49.74300 20.28900
C  23.85000 48.48000 20.75500
N  25.00400 50.78600 25.68600
C  24.07800 51.21700 24.68300
C  23.00700 51.97300 25.26600
C  23.25900 51.90400 26.63400
C  24.42500 51.17600 26.85400
C  21.81000 52.47800 24.61500
C  22.59000 52.20900 27.88500
O  21.50800 52.68600 28.10100
C  23.60900 51.75000 28.96600
C  24.19700 52.90300 29.75100
O  25.14800 53.55800 29.40300
O  23.59900 53.15100 30.88000
C  24.12900 54.21500 31.73300
H  29.93300 48.62500 28.53800
H  28.94900 48.23600 22.15500
H  23.64700 51.41600 22.57000
H  26.19900 51.11400 30.63300
H  28.18000 49.12300 30.70400
H  29.76000 51.16800 29.61400
H  29.08200 50.78400 31.27800
H  28.30700 51.95900 30.20600
H  26.25100 48.26400 31.24200
H  24.85300 48.65100 30.46700
H  24.97600 48.69300 32.91200
H  24.38000 50.26800 32.48900
H  31.91200 48.19600 27.82500
H  32.74700 47.45100 26.46700
H  31.86600 46.46100 27.50200
H  31.69300 44.62900 23.55900
H  31.85700 45.33800 25.18300
H  32.85600 45.98900 23.77600
H  27.20600 48.69300 20.65600
H  25.84500 51.42800 20.83400
H  27.93400 50.69000 19.36800
H  29.20800 49.88800 20.33700
H  28.52700 51.32100 20.90900
H  25.19100 49.46700 19.40700
H  23.97600 50.59100 20.03300
H  23.99300 47.75300 19.95600
H  22.81100 48.76300 20.92100
H  24.18400 47.95400 21.65000
H  21.88100 53.44000 24.10700
H  20.95700 52.54200 25.29000
H  21.33000 51.80900 23.90100
H  23.12600 51.16800 29.75200
H  24.04200 55.15000 31.18000
H  25.12200 53.89300 32.04900
H  23.53800 54.15700 32.64700

