158

Mg 2.34600 -2.34300 45.16700
C  5.65900 -1.62000 44.57900
C  1.43900 -0.21200 42.65300
C  -0.86800 -3.68800 45.37500
C  3.49000 -5.22000 47.04400
N  3.47400 -1.12900 43.71200
C  4.81100 -0.83700 43.77500
C  5.24400 0.19300 42.74800
C  3.84200 0.80400 42.31900
C  2.83600 -0.29700 42.83300
C  3.47400 2.13200 43.08400
C  6.07400 -0.41300 41.59800
C  7.29000 0.39800 41.09200
H  7.48000 0.56500 39.58900
N  0.50500 -1.87700 44.23200
C  0.35400 -1.01400 43.18700
C  -1.11300 -0.85600 42.91700
C  -1.76800 -1.76000 43.83100
C  -0.69700 -2.51600 44.54400
C  -1.59100 0.01700 41.78300
C  -3.21900 -1.87700 43.93000
O  -3.97100 -1.20000 43.26400
C  -3.88100 -2.65700 45.04000
N  1.42800 -4.10700 46.16500
C  0.12900 -4.42200 46.04600
C  -0.19100 -5.77400 46.79200
C  1.15500 -6.19800 47.33600
C  2.08900 -5.10300 46.88900
C  -1.36600 -5.72300 47.87500
C  1.50700 -7.64900 46.90000
C  2.62800 -8.44400 47.66900
N  4.20400 -3.20200 45.83600
C  4.52600 -4.35600 46.61800
C  5.95700 -4.41400 46.75600
C  6.40500 -3.28000 46.08700
C  5.29300 -2.64000 45.45500
C  6.68700 -5.49300 47.61600
C  7.58700 -2.54100 45.71000
O  8.76300 -2.75600 46.03100
C  7.13200 -1.42600 44.73200
C  7.44600 -0.14900 45.41300
O  6.88400 0.32700 46.35700
O  8.45300 0.47800 44.71400
C  8.56600 1.91200 45.21100
H  1.27800 0.47400 41.81900
H  -1.82000 -4.21400 45.28200
H  3.78100 -6.16500 47.50700
H  5.81700 0.96700 43.26000
H  3.70400 0.86000 41.23900
H  2.52100 2.09700 43.61300
H  3.37800 2.86800 42.28500
H  4.19800 2.36000 43.86600
H  5.37700 -0.50900 40.76600
H  6.41400 -1.41600 41.85800
H  8.20800 -0.03500 41.49100
H  7.25300 1.35900 41.60400
H  -1.91800 -0.59700 40.94400
H  -0.75400 0.64800 41.48400
H  -2.41200 0.63200 42.15200
H  -3.82400 -3.69700 44.72100
H  -4.92100 -2.33500 45.10900
H  -3.31700 -2.47200 45.95400
H  -0.50800 -6.53700 46.08200
H  1.01000 -6.23000 48.41500
H  -1.83000 -4.74900 47.71900
H  -0.92000 -5.79000 48.86700
H  -2.13900 -6.46800 47.69100
H  1.82200 -7.65500 45.85700
H  0.66000 -8.33300 46.95900
H  2.93900 -7.85800 48.53300
H  3.50000 -8.61300 47.03800
H  2.17300 -9.40100 47.92800
H  7.74700 -5.47400 47.36000
H  6.22900 -6.43200 47.30400
H  6.50700 -5.14900 48.63400
H  7.62000 -1.48700 43.76000
H  9.20900 2.43100 44.50000
H  9.06300 1.93400 46.18100
H  7.64400 2.49200 45.21900
Mg 26.95800 49.99100 27.11100
C  25.04100 51.22400 29.69600
C  29.42500 49.41900 29.44800
C  29.06700 49.35500 24.58000
C  24.71200 51.26800 24.79100
N  27.14000 50.24700 29.38700
C  26.10100 50.60800 30.24600
C  26.46500 50.26900 31.67500
C  27.97400 49.90200 31.48900
C  28.21200 49.84300 30.02900
C  28.94800 51.01600 32.10900
C  25.56400 49.17200 32.42600
C  24.91100 49.47000 33.79300
H  25.70500 50.12000 34.80500
N  28.92900 49.36100 27.04700
C  29.76300 49.11200 28.11100
C  30.99500 48.53000 27.63600
C  30.96200 48.66700 26.26700
C  29.64700 49.18200 25.90800
C  32.06100 47.97500 28.47800
C  31.95700 48.29400 25.21200
O  31.91800 48.67500 24.08600
C  33.13700 47.36500 25.52900
N  26.89300 50.37100 24.99100
C  27.81300 49.79100 24.21700
C  27.37700 49.73400 22.67700
C  25.88400 50.19600 22.85600
C  25.77700 50.58400 24.28500
C  28.17800 50.68100 21.79500
C  24.89500 49.12800 22.33900
C  24.31200 48.14300 23.35300
N  25.32100 51.13500 27.15000
C  24.48300 51.58600 26.16800
C  23.34400 52.18500 26.72000
C  23.49300 52.07800 28.07600
C  24.76100 51.52600 28.30000
C  22.20600 52.80800 25.91000
C  22.99800 52.41400 29.36300
O  21.97900 53.02900 29.67600
C  23.96200 51.81100 30.51600
C  24.46300 52.90400 31.43900
O  25.32300 53.72400 31.13000
O  23.78800 52.88100 32.64500
C  24.22900 53.84700 33.64200
H  30.09600 48.94300 30.16500
H  29.68100 49.03400 23.73600
H  23.94300 51.56200 24.07300
H  26.45800 51.24000 32.17100
H  28.13100 48.97900 32.04800
H  28.32800 51.78800 32.56500
H  29.60700 51.46000 31.36300
H  29.62200 50.50500 32.79700
H  26.10100 48.26300 32.69500
H  24.80000 48.82900 31.72800
H  24.35500 48.58400 34.09800
H  24.13000 50.17400 33.50500
H  32.31800 47.03500 27.98900
H  31.85400 47.82800 29.53800
H  32.93300 48.61600 28.34400
H  32.89900 46.38200 25.93600
H  33.80900 47.69100 26.32200
H  33.80200 47.20800 24.67900
H  27.52100 48.69300 22.38700
H  25.65800 51.08700 22.27000
H  29.10300 50.88900 22.33300
H  27.74200 51.65800 21.58600
H  28.27700 50.22000 20.81200
H  25.23700 48.52000 21.50200
H  24.03900 49.71100 21.99900
H  24.79600 48.31300 24.31400
H  24.45600 47.14700 22.93600
H  23.27600 48.41400 23.55700
H  21.93500 52.17600 25.06400
H  22.53900 53.81100 25.64400
H  21.37200 52.95500 26.59600
H  23.39700 51.09800 31.11700
H  23.81500 53.54800 34.60400
H  23.76900 54.80200 33.38600
H  25.31600 53.82300 33.72200

