158

Mg 30.39500 59.85200 39.22800
C  27.35900 58.40200 38.40600
C  32.05100 57.10100 37.98700
C  33.34200 61.55500 39.38800
C  28.70200 62.89900 39.70000
N  29.67900 57.96800 38.29500
C  28.43800 57.55200 38.10800
C  28.46400 56.13400 37.43900
C  29.91400 55.70600 37.66800
C  30.64700 57.03700 37.98300
C  30.29300 54.62800 38.74000
C  28.24900 56.26100 35.83200
C  27.00700 55.45900 35.32600
H  26.05600 56.12200 34.35300
N  32.41900 59.39000 38.82700
C  32.87700 58.15900 38.30100
C  34.34200 58.26800 38.22000
C  34.75500 59.51500 38.76400
C  33.45000 60.21500 39.00500
C  35.08600 57.02600 37.92100
C  36.16000 59.95300 38.90200
O  37.07700 59.20600 38.50200
C  36.68900 61.20700 39.71200
N  30.92800 61.86100 39.55000
C  32.21600 62.34200 39.60800
C  32.31300 63.81700 39.98000
C  30.85300 64.23400 40.15800
C  30.11000 62.98100 39.66900
C  33.24600 64.21300 41.12100
C  30.49300 65.57800 39.38000
C  29.97200 66.70800 40.27700
N  28.42200 60.56600 39.16600
C  27.90500 61.79200 39.38500
C  26.40600 61.69800 39.32900
C  26.23300 60.42700 38.82500
C  27.40700 59.70200 38.86600
C  25.43100 62.81800 39.45200
C  25.17700 59.42400 38.52300
O  23.94300 59.44100 38.56400
C  25.98400 58.19700 38.09900
C  25.43200 57.06400 38.81400
O  25.35200 56.94600 40.04300
O  24.91700 56.11900 37.99900
C  24.31200 54.98300 38.67100
H  32.50700 56.11700 37.86200
H  34.26000 62.14100 39.46400
H  28.11300 63.80800 39.84100
H  27.84200 55.40200 37.95400
H  30.40600 55.38900 36.74800
H  31.15900 53.99700 38.53700
H  29.44700 53.96700 38.93100
H  30.67100 55.15400 39.61700
H  29.10000 55.92200 35.24100
H  28.17000 57.31200 35.55200
H  26.41500 55.19000 36.20000
H  27.44300 54.55700 34.89600
H  34.56600 56.45000 37.15600
H  35.13800 56.43500 38.83500
H  36.07800 57.26300 37.53400
H  37.77000 61.23000 39.57000
H  36.38600 61.16500 40.75900
H  36.25800 62.05200 39.17500
H  32.66500 64.37100 39.10900
H  30.60700 64.31700 41.21700
H  33.93500 64.97000 40.74600
H  33.85700 63.38100 41.47000
H  32.73300 64.63900 41.98200
H  29.72100 65.41600 38.62800
H  31.34000 66.02200 38.85700
H  30.43200 67.66900 40.04800
H  30.14400 66.55300 41.34200
H  28.90600 66.65100 40.05500
H  24.73600 62.75200 38.61500
H  25.85000 63.82300 39.40700
H  24.79800 62.78800 40.33900
H  25.91100 58.07000 37.01900
H  23.27800 55.28000 38.84700
H  24.80000 54.72000 39.60900
H  24.44800 54.10600 38.03900
Mg -11.36600 16.38700 42.74400
C  -7.97100 17.16500 43.15800
C  -12.09600 19.64300 42.39000
C  -14.51900 15.45400 42.58900
C  -10.44300 12.95500 43.07300
N  -10.11100 18.20900 42.50100
C  -8.77200 18.28200 42.80500
C  -8.30000 19.69600 42.62500
C  -9.68700 20.50800 42.61300
C  -10.71600 19.41000 42.50600
C  -9.82000 21.66400 43.76300
C  -7.48400 19.87700 41.31700
C  -5.98000 20.22700 41.38400
H  -5.12900 19.73400 40.17900
N  -13.05200 17.39300 42.41800
C  -13.16600 18.75900 42.26600
C  -14.62200 19.14700 42.07600
C  -15.34600 17.85100 42.07100
C  -14.31900 16.80000 42.35500
C  -15.12000 20.64100 41.87500
C  -16.80600 17.72500 41.65100
O  -17.40200 18.74200 41.47000
C  -17.56400 16.51100 41.41000
N  -12.37100 14.41500 42.67400
C  -13.69400 14.32100 42.73700
C  -14.12600 12.90200 42.79900
C  -12.82600 12.03300 42.80600
C  -11.82500 13.19400 42.82200
C  -15.08100 12.53100 44.02600
C  -12.61300 11.11900 41.57400
C  -12.87100 9.64400 41.85700
N  -9.52600 15.26500 42.91600
C  -9.34200 13.91200 43.14300
C  -7.92100 13.70200 43.34000
C  -7.31800 14.93200 43.41600
C  -8.38400 15.81700 43.10900
C  -7.21900 12.38300 43.58400
C  -6.12000 15.64100 43.58100
O  -4.94600 15.27700 43.81900
C  -6.48500 17.17700 43.47800
C  -6.13900 17.78500 44.78800
O  -6.87200 17.78700 45.77900
O  -4.80200 18.26700 44.71700
C  -4.18700 18.53900 46.03600
H  -12.26300 20.70700 42.21000
H  -15.54600 15.08500 42.62400
H  -10.10700 11.93800 43.28400
H  -7.64100 19.97100 43.44800
H  -9.84000 21.02100 41.66400
H  -8.82800 21.81100 44.19200
H  -10.50900 21.38600 44.56000
H  -10.07000 22.61700 43.29700
H  -7.90200 20.73700 40.79400
H  -7.65100 19.01900 40.66600
H  -5.69800 19.92500 42.39200
H  -5.98800 21.31500 41.44000
H  -15.42100 20.68300 40.82800
H  -14.32700 21.38200 41.97900
H  -16.01300 20.81800 42.47300
H  -17.00000 15.68200 40.98300
H  -18.34400 16.84000 40.72300
H  -17.97600 16.16100 42.35700
H  -14.67800 12.55100 41.92700
H  -12.81600 11.45300 43.72900
H  -15.58600 13.42700 44.38700
H  -14.50800 12.12100 44.85800
H  -15.89100 11.86000 43.73800
H  -11.64400 11.23500 41.09000
H  -13.39200 11.29900 40.83300
H  -12.10200 9.04000 41.37400
H  -13.84400 9.32700 41.48200
H  -12.87600 9.40000 42.91900
H  -7.54900 11.72300 42.78200
H  -7.59700 11.98700 44.52700
H  -6.14200 12.54400 43.63500
H  -5.88300 17.55300 42.65000
H  -3.10900 18.58600 45.87800
H  -4.34300 17.80100 46.82300
H  -4.48500 19.50300 46.44800

