158

Mg 2.81400 -0.35500 43.74900
C  6.27100 -0.17400 43.13000
C  2.43400 2.71200 42.09700
C  -0.45000 -1.08200 43.32600
C  3.31100 -3.58800 44.83900
N  4.23000 0.98700 42.73300
C  5.54900 0.90100 42.66000
C  6.13300 2.27000 42.13100
C  4.93900 3.18700 42.07000
C  3.76800 2.17400 42.23700
C  4.86100 4.26800 43.20300
C  6.85000 2.07700 40.74000
C  6.03800 1.32500 39.63800
H  5.97000 1.99700 38.26400
N  1.17100 0.83400 42.96300
C  1.21700 2.05800 42.39400
C  -0.17800 2.42700 42.05300
C  -0.99100 1.26500 42.35100
C  -0.07200 0.24100 42.87600
C  -0.59300 3.73900 41.42600
C  -2.44700 1.13100 42.00600
O  -2.99300 2.19000 41.72800
C  -3.26300 -0.15000 42.11200
N  1.66500 -2.02400 43.93200
C  0.32800 -2.13600 43.85000
C  -0.25500 -3.53400 44.09400
C  0.99100 -4.29800 44.61900
C  2.07100 -3.22800 44.45500
C  -1.53500 -3.51500 44.99100
C  1.33100 -5.74900 44.11800
C  1.46100 -6.88300 45.24100
N  4.43000 -1.64000 44.08500
C  4.44200 -2.86900 44.62700
C  5.84500 -3.31700 44.80700
C  6.62000 -2.29200 44.28600
C  5.71700 -1.28800 43.82700
C  6.35100 -4.60900 45.23100
C  7.99800 -1.76700 43.92100
O  9.09200 -2.24900 44.19200
C  7.82800 -0.44300 43.10800
C  8.66500 0.73900 43.69000
O  9.77800 1.07200 43.26800
O  8.05900 1.26200 44.70100
C  8.74800 2.34800 45.41800
H  2.15300 3.68200 41.68100
H  -1.49400 -1.36800 43.18200
H  3.48700 -4.53500 45.35300
H  6.88200 2.56800 42.86500
H  4.84500 3.59900 41.06500
H  4.49100 3.92500 44.16900
H  4.44900 5.14300 42.70100
H  5.89800 4.53400 43.40900
H  7.81700 1.63000 40.97200
H  7.06300 3.06700 40.33600
H  5.00900 1.16500 39.95800
H  6.40000 0.31600 39.44100
H  -0.66100 3.65700 40.34100
H  0.09900 4.53900 41.68900
H  -1.49900 4.05200 41.94500
H  -3.32000 -0.34700 43.18200
H  -2.67200 -0.86800 41.54300
H  -4.27600 -0.12500 41.70900
H  -0.58300 -3.98700 43.15800
H  1.11400 -4.28300 45.70200
H  -1.58600 -2.65100 45.65400
H  -1.51600 -4.41200 45.61000
H  -2.43600 -3.51000 44.37600
H  2.28300 -5.70000 43.59000
H  0.59800 -6.02900 43.36100
H  0.49800 -7.38700 45.32700
H  1.57000 -6.30200 46.15700
H  2.29800 -7.55900 45.07200
H  5.70600 -5.12700 45.94000
H  7.36300 -4.55200 45.63100
H  6.39200 -5.30100 44.39000
H  8.20000 -0.42200 42.08300
H  8.89900 3.18800 44.74000
H  9.76500 2.11100 45.73100
H  8.04100 2.80100 46.11300
Mg 29.64300 58.40600 41.79700
C  26.91400 56.60500 40.57400
C  31.67700 56.22700 40.00800
C  32.30600 60.47700 42.15400
C  27.51300 61.08300 42.62400
N  29.30000 56.60500 40.44400
C  28.09000 56.04100 40.11700
C  28.15900 54.87400 39.15200
C  29.71900 54.56100 39.31800
C  30.29000 55.87000 39.91900
C  30.09400 53.30100 40.18200
C  27.71400 55.25500 37.72400
C  26.56300 54.44400 37.12800
H  26.68600 53.75500 35.83100
N  31.72100 58.31300 41.33200
C  32.31700 57.31100 40.60000
C  33.73400 57.44700 40.73500
C  34.02600 58.72100 41.30800
C  32.67300 59.26100 41.63000
C  34.75200 56.42000 40.30600
C  35.37200 59.33200 41.66000
O  36.34900 58.64200 41.49900
C  35.62300 60.68300 42.21300
N  29.85800 60.42100 42.43800
C  31.10000 61.08000 42.52600
C  30.95900 62.56400 43.07900
C  29.40200 62.70300 43.26900
C  28.90200 61.34100 42.71900
C  31.80500 63.10500 44.31400
C  28.67800 63.90900 42.53000
C  27.86600 64.87200 43.40500
N  27.59100 58.82900 41.70100
C  26.88200 59.91400 42.03900
C  25.49200 59.65100 41.86700
C  25.41400 58.36300 41.26900
C  26.77000 57.93200 41.20600
C  24.36600 60.58200 42.24800
C  24.49500 57.35000 40.72200
O  23.27900 57.29300 40.72100
C  25.49800 56.12600 40.18000
C  25.05700 54.91600 40.94700
O  25.36600 54.71300 42.11200
O  24.18000 54.20100 40.22500
C  23.91700 52.83600 40.84800
H  32.19800 55.47000 39.41800
H  33.11700 61.20400 42.22500
H  26.81600 61.90700 42.78900
H  27.59100 54.02900 39.54400
H  30.13800 54.43700 38.32000
H  30.13700 52.41600 39.54700
H  29.25600 53.12700 40.85600
H  30.92600 53.50700 40.85500
H  28.45500 55.14400 36.93200
H  27.46000 56.31400 37.68500
H  25.66700 55.04400 36.97500
H  26.29300 53.59400 37.75400
H  35.57200 56.74800 39.66600
H  34.19000 55.54100 39.99000
H  35.27700 56.12100 41.21300
H  35.19600 61.43700 41.55200
H  36.68400 60.93300 42.21600
H  35.06300 60.74000 43.14700
H  31.18700 63.19700 42.22200
H  29.17200 62.84400 44.32500
H  32.28600 64.05000 44.06300
H  32.49200 62.34300 44.68100
H  31.20000 63.42000 45.16500
H  28.17100 63.44900 41.68200
H  29.46300 64.45100 42.00300
H  28.36600 65.10900 44.34400
H  26.91800 64.35900 43.56700
H  27.64700 65.76800 42.82400
H  24.12600 61.40300 41.57200
H  24.48800 61.00800 43.24400
H  23.48500 59.94200 42.26500
H  25.43500 55.92000 39.11200
H  23.13000 52.45300 40.19700
H  23.39400 52.88200 41.80400
H  24.79100 52.18600 40.86900

