158

Mg 42.35300 41.06300 26.18400
C  41.48600 43.37300 28.69100
C  43.62200 39.04600 28.71600
C  43.46200 38.95800 23.91500
C  41.30600 43.27100 23.85200
N  42.55100 41.34000 28.50900
C  42.10100 42.27700 29.31900
C  42.31700 41.94800 30.87200
C  43.05500 40.57300 30.75500
C  43.02700 40.23100 29.28400
C  44.54000 40.51000 31.31900
C  40.88500 41.82400 31.64200
C  40.59300 42.71900 32.85100
H  39.95800 41.98900 34.06200
N  43.51500 39.28400 26.26900
C  43.89200 38.62500 27.39600
C  44.54900 37.40800 27.02000
C  44.52600 37.34100 25.59900
C  43.86100 38.58100 25.19800
C  44.97800 36.44600 28.15700
C  45.09800 36.20600 24.71900
O  44.86800 36.11900 23.52100
C  45.74500 34.92900 25.29600
N  42.49100 41.16700 24.10300
C  42.84500 40.10500 23.35300
C  42.35700 40.28600 21.88100
C  41.82400 41.78500 21.84200
C  41.83500 42.05700 23.36000
C  43.42500 39.97200 20.75300
C  40.43000 41.81800 21.21300
C  40.17500 43.10200 20.38700
N  41.58000 43.01700 26.17700
C  41.19400 43.81800 25.10100
C  40.69400 45.04800 25.59600
C  40.83900 44.96100 26.92400
C  41.36100 43.63000 27.30700
C  40.14700 46.11800 24.66000
C  40.59200 45.62000 28.17900
O  40.10200 46.71600 28.36800
C  41.01700 44.64200 29.35500
C  42.06400 45.40100 30.14200
O  43.23500 45.55800 29.84200
O  41.46900 45.80100 31.23700
C  42.45600 46.34800 32.21800
H  44.00100 38.46200 29.55800
H  43.47700 38.22900 23.10200
H  40.85700 43.78100 22.99700
H  42.83600 42.82900 31.25000
H  42.47700 39.80300 31.26600
H  44.66200 41.41900 31.91000
H  45.28000 40.60100 30.52400
H  44.89300 39.66200 31.90600
H  40.79000 40.80400 32.01300
H  40.10500 41.98800 30.89800
H  39.91200 43.51100 32.53800
H  41.54300 43.15900 33.15400
H  45.58500 37.14800 28.72800
H  45.56200 35.56000 27.90500
H  44.05100 36.17200 28.66000
H  46.05800 34.27500 24.48200
H  44.94300 34.55800 25.93500
H  46.58800 35.32600 25.86100
H  41.54400 39.56800 21.76500
H  42.49600 42.53700 21.42900
H  44.40300 39.95900 21.23400
H  43.47200 40.65700 19.90600
H  43.18200 39.02200 20.27600
H  39.70500 41.68700 22.01700
H  40.31700 40.98000 20.52600
H  39.16100 43.47400 20.53100
H  40.30900 42.82500 19.34100
H  40.88700 43.88800 20.64000
H  39.39000 45.68700 24.00400
H  40.99300 46.44100 24.05300
H  39.73000 46.92100 25.26800
H  40.10300 44.56500 29.94300
H  42.86100 45.64700 32.94800
H  41.91700 47.10500 32.78800
H  43.26500 46.88800 31.72600
Mg -9.85200 39.88400 39.86500
C  -8.90200 36.51700 39.13600
C  -6.57000 40.86400 39.32200
C  -10.78800 43.08200 39.65700
C  -13.17000 38.73600 39.95900
N  -8.08400 38.77800 39.23400
C  -7.83100 37.42800 39.02300
C  -6.40200 37.11700 38.53800
C  -5.65200 38.45100 38.96600
C  -6.83400 39.50100 39.14800
C  -4.69900 38.39100 40.20800
C  -6.27400 36.84400 36.89000
C  -7.39300 37.39300 35.96600
H  -8.08000 36.57100 34.87900
N  -8.82500 41.74400 39.56700
C  -7.48700 41.87100 39.40900
C  -7.17100 43.35000 39.36800
C  -8.35300 43.99000 39.35200
C  -9.38200 42.96600 39.53700
C  -5.74100 43.84000 39.33500
C  -8.56100 45.43900 39.07600
O  -7.61100 46.21100 39.06200
C  -9.96400 46.03300 38.78200
N  -11.71500 40.74100 39.75600
C  -11.83900 42.11500 39.65900
C  -13.27400 42.51300 39.43300
C  -14.05100 41.09900 39.54800
C  -12.95000 40.13900 39.76000
C  -13.94300 43.62100 40.28800
C  -14.95500 40.85400 38.32200
C  -16.42000 40.37600 38.45800
N  -10.87900 38.00200 39.77100
C  -12.21200 37.67700 39.86200
C  -12.42200 36.26300 39.85300
C  -11.14400 35.74500 39.51600
C  -10.23900 36.86600 39.53400
C  -13.61700 35.38600 40.16100
C  -10.40700 34.55100 39.21800
O  -10.73600 33.39000 39.14700
C  -8.91100 35.06800 38.96300
C  -8.02400 34.34900 39.88500
O  -8.23800 34.07500 41.07500
O  -6.89200 33.93200 39.25200
C  -5.88200 33.16200 40.04300
H  -5.49400 41.04700 39.27300
H  -11.22100 44.08300 39.59900
H  -14.20000 38.37900 39.88500
H  -5.96900 36.29600 39.10900
H  -5.08100 38.75800 38.09100
H  -3.69400 38.74600 39.98000
H  -4.70900 37.38700 40.63000
H  -5.13700 38.98900 41.00700
H  -6.39500 35.76600 36.78800
H  -5.27400 36.97800 36.47800
H  -6.95300 38.29200 35.53400
H  -8.23900 37.85100 36.47800
H  -5.40000 44.03300 38.31800
H  -5.06400 43.15900 39.85100
H  -5.53000 44.79900 39.80800
H  -10.58900 46.09100 39.67300
H  -10.59900 45.62500 37.99500
H  -9.74700 47.04500 38.44100
H  -13.10200 42.91600 38.43500
H  -14.68500 41.04400 40.43300
H  -14.72300 43.27700 40.96800
H  -14.43400 44.34100 39.63300
H  -13.23100 44.10900 40.95300
H  -14.46200 39.95700 37.94900
H  -14.70700 41.62200 37.58900
H  -17.08700 40.95600 37.82100
H  -16.84900 40.31300 39.45800
H  -16.56000 39.42100 37.95100
H  -14.16000 36.00000 40.87900
H  -13.29100 34.44700 40.60800
H  -14.15100 35.11200 39.25100
H  -8.71800 34.79800 37.92500
H  -5.49700 32.26600 39.55700
H  -6.35100 32.68300 40.90300
H  -5.03900 33.83200 40.21500

