158

Mg 41.07400 41.78500 27.50000
C  40.54300 44.14300 30.04000
C  41.92100 39.59700 29.92700
C  42.00900 39.58400 25.10500
C  40.73200 44.17400 25.14300
N  41.11900 41.88300 29.70700
C  40.79500 42.89300 30.57300
C  40.83900 42.46800 32.05300
C  41.48700 41.07400 31.90900
C  41.57400 40.84100 30.36800
C  42.94500 40.84500 32.61600
C  39.38800 42.41600 32.72000
C  39.31400 41.45000 33.95500
H  38.61700 42.03800 35.14900
N  41.71900 39.82200 27.47700
C  41.99200 39.07500 28.55800
C  42.27500 37.70800 28.17800
C  42.30300 37.67000 26.76300
C  42.02600 39.06200 26.39400
C  42.43200 36.65000 29.16800
C  42.52100 36.51600 25.83300
O  42.52300 36.64800 24.63100
C  42.75800 35.08400 26.28600
N  41.51700 41.84000 25.44900
C  41.77700 40.86600 24.65400
C  41.59000 41.15300 23.17800
C  40.98500 42.59500 23.17900
C  41.04600 42.88800 24.66800
C  42.94700 41.06600 22.41800
C  39.58800 42.58600 22.45200
C  38.43400 41.77000 23.09400
N  40.84100 43.73900 27.53900
C  40.72500 44.61600 26.46000
C  40.59800 46.03400 26.96100
C  40.46600 45.87500 28.40200
C  40.61800 44.46800 28.67700
C  40.56800 47.23700 26.07700
C  40.23300 46.59400 29.58900
O  40.03500 47.73400 29.84700
C  40.23600 45.48100 30.73700
C  41.27900 45.82600 31.65700
O  42.48800 45.82800 31.49000
O  40.72200 46.27600 32.78600
C  41.61600 46.84800 33.81900
H  42.19900 38.88700 30.70900
H  42.10800 38.82200 24.33000
H  40.62300 44.85900 24.30000
H  41.46900 43.18100 32.58400
H  40.82700 40.30100 32.30300
H  43.07400 41.74500 33.21700
H  43.66000 40.69400 31.80700
H  42.81600 39.97900 33.26600
H  38.60700 42.35300 31.96300
H  39.41600 43.43200 33.11400
H  40.27700 41.01500 34.22200
H  38.69300 40.60600 33.65500
H  41.83700 36.92900 30.03800
H  43.45700 36.48100 29.49900
H  42.20500 35.63800 28.83300
H  41.73900 34.85000 26.59500
H  43.47400 35.13400 27.10700
H  43.08900 34.33300 25.56800
H  40.86200 40.47400 22.73500
H  41.63000 43.34600 22.72300
H  43.48000 40.20900 22.82900
H  43.53200 41.98600 22.44100
H  42.66300 40.87300 21.38300
H  39.79100 42.04100 21.53000
H  39.26000 43.59800 22.21200
H  37.58600 42.45200 23.04000
H  38.73200 41.33600 24.04800
H  38.19400 40.95000 22.41600
H  41.40000 47.91300 26.27400
H  39.72500 47.82400 26.44000
H  40.51700 47.05900 25.00300
H  39.32600 45.30200 31.31000
H  42.39100 47.39500 33.28200
H  41.99400 46.07100 34.48400
H  41.14700 47.69800 34.31500
Mg 29.68400 60.10000 40.13100
C  26.64700 58.60800 39.01900
C  31.25900 57.23000 38.85800
C  32.66500 61.69400 40.08800
C  27.99000 62.85400 40.88800
N  29.02500 58.19800 39.01800
C  27.75000 57.79500 38.64100
C  27.67000 56.41200 37.92600
C  29.09900 55.85700 38.40700
C  29.84900 57.18700 38.71400
C  29.05700 54.88200 39.60700
C  27.47800 56.46500 36.35900
C  26.21600 55.69400 35.92500
H  25.68400 55.98300 34.54200
N  31.75100 59.47800 39.64800
C  32.11100 58.27300 39.20400
C  33.54600 58.15500 39.22900
C  34.03100 59.49600 39.63600
C  32.86800 60.28800 39.83300
C  34.30700 56.93700 38.95400
C  35.49700 59.90000 39.87200
O  36.42300 59.12700 39.49900
C  35.83200 61.16500 40.41500
N  30.25300 62.10900 40.25400
C  31.53500 62.51300 40.27800
C  31.54100 64.04500 40.62900
C  30.03400 64.40000 40.90700
C  29.38200 63.03800 40.68300
C  32.48900 64.37900 41.85700
C  29.40100 65.57400 40.10500
C  28.98800 66.75900 40.97400
N  27.78600 60.57300 40.06800
C  27.16400 61.74100 40.56500
C  25.77900 61.59300 40.59400
C  25.54300 60.34600 40.04700
C  26.73800 59.78100 39.73400
C  24.70500 62.54600 41.00800
C  24.46700 59.45600 39.60500
O  23.28900 59.56200 39.76700
C  25.13000 58.30100 38.81700
C  24.64900 57.12800 39.50700
O  25.09100 56.67400 40.56800
O  23.70200 56.53400 38.80100
C  23.06900 55.33300 39.39300
H  31.65600 56.25100 38.58300
H  33.60300 62.23800 40.21700
H  27.33800 63.66400 41.22200
H  26.89000 55.71300 38.22600
H  29.72500 55.31300 37.69900
H  28.04600 54.71400 39.97600
H  29.57500 55.30400 40.46800
H  29.46900 53.91300 39.32600
H  28.33300 56.06700 35.81300
H  27.27400 57.49100 36.05600
H  25.45300 56.11600 36.58000
H  26.29300 54.61500 36.06300
H  34.76900 56.77300 37.98100
H  33.87700 55.99200 39.28700
H  35.06500 56.99400 39.73600
H  36.89900 61.03500 40.59700
H  35.18900 61.17800 41.29400
H  35.58500 61.92600 39.67500
H  31.80400 64.54300 39.69600
H  29.82600 64.56200 41.96500
H  31.87600 64.84100 42.63100
H  33.15400 65.15100 41.46800
H  33.01800 63.48700 42.19400
H  28.60400 65.21800 39.45100
H  30.14800 66.07100 39.48600
H  28.03800 66.61100 41.48800
H  28.88200 67.67700 40.39700
H  29.66300 66.81000 41.82800
H  24.48200 63.29600 40.24900
H  25.07300 63.05900 41.89600
H  23.74800 62.12700 41.32000
H  24.86000 58.23200 37.76300
H  22.09900 55.67400 39.75500
H  23.47500 54.96900 40.33800
H  22.99800 54.53500 38.65400

