158

Mg 35.45900 2.83300 30.43900
C  33.04500 3.96900 32.81400
C  37.57800 2.47700 33.09400
C  37.60300 1.71300 28.25300
C  32.93800 3.25600 27.95900
N  35.33300 3.28800 32.69700
C  34.25600 3.72300 33.44600
C  34.57400 3.80500 34.94600
C  36.12100 3.62500 34.94700
C  36.40000 3.05900 33.47900
C  37.02700 4.85700 35.10000
C  33.72800 2.56000 35.46700
C  33.27000 2.49900 36.95700
H  33.83600 3.71000 37.82300
N  37.46700 2.20900 30.68600
C  38.21900 2.24500 31.87600
C  39.54800 1.79400 31.41900
C  39.53200 1.47400 29.98700
C  38.20800 1.76000 29.60200
C  40.65500 1.70500 32.43100
C  40.51000 0.76400 29.05900
O  40.23900 0.20900 28.00100
C  41.97000 0.58100 29.56600
N  35.27600 2.52400 28.42500
C  36.30600 2.02100 27.70900
C  36.03200 1.91700 26.21900
C  34.48000 1.93600 26.29700
C  34.16800 2.63300 27.61700
C  36.76900 3.08700 25.38500
C  33.74200 0.56900 26.19200
C  32.57900 0.20200 27.22900
N  33.40400 3.57700 30.32500
C  32.53600 3.65800 29.22100
C  31.19500 4.10000 29.73100
C  31.43600 4.30100 31.13300
C  32.76300 3.90800 31.45000
C  29.83900 4.25200 28.99900
C  30.73300 4.65600 32.41200
O  29.50700 4.91500 32.65700
C  31.77200 4.54300 33.49100
C  31.96600 5.85600 34.09900
O  32.34400 6.91000 33.64000
O  31.41100 5.82000 35.35900
C  31.46600 6.84800 36.43300
H  38.26600 2.33900 33.93000
H  38.34500 1.46900 27.49000
H  32.15400 3.36600 27.20800
H  34.18700 4.71400 35.40600
H  36.38000 2.79100 35.59900
H  37.78400 4.64700 35.85600
H  36.59500 5.85400 35.18300
H  37.59600 4.90000 34.17200
H  34.36300 1.67800 35.39100
H  32.98600 2.27700 34.72100
H  33.64600 1.63000 37.49700
H  32.18300 2.44700 37.00700
H  40.26500 2.09200 33.37200
H  41.45300 2.31800 32.01200
H  40.90700 0.64700 32.50900
H  42.22500 1.40300 30.23500
H  42.64000 0.52900 28.70800
H  42.00300 -0.40200 30.03600
H  36.41700 0.91100 26.05400
H  34.23600 2.66100 25.52000
H  37.35100 3.71700 26.05800
H  36.06000 3.71500 24.84600
H  37.48700 2.70400 24.66000
H  34.49500 -0.21900 26.20800
H  33.38000 0.40700 25.17600
H  33.02300 0.08300 28.21700
H  32.07500 -0.75000 27.05900
H  31.84600 1.00900 27.22800
H  29.87700 4.98700 28.19500
H  29.08300 4.36400 29.77600
H  29.49900 3.30500 28.58100
H  31.38400 3.85400 34.24200
H  30.49900 7.28700 36.67800
H  32.21000 7.58800 36.13600
H  31.75500 6.29900 37.32900
Mg 47.65700 25.81700 29.91500
C  48.73500 28.19100 32.12100
C  46.42400 23.86400 32.39600
C  47.05900 23.34200 27.70600
C  49.27900 27.56100 27.32800
N  47.56300 26.08900 31.95200
C  47.98100 27.16200 32.67500
C  47.46000 27.16300 34.13100
C  46.94200 25.65400 34.24200
C  46.95700 25.15800 32.76200
C  47.82800 24.71200 35.17700
C  46.26500 28.08300 34.48100
C  45.77700 28.18300 35.94400
H  46.70500 27.66100 37.06800
N  46.78900 23.83800 30.03100
C  46.32200 23.22700 31.17700
C  45.90200 21.86900 30.86600
C  45.80300 21.83100 29.49200
C  46.52000 23.06200 28.95100
C  45.21200 21.05100 31.91200
C  45.23600 20.75100 28.62100
O  45.31100 20.71900 27.35800
C  44.58100 19.58800 29.26700
N  48.06500 25.54000 27.80700
C  47.71100 24.45000 27.14900
C  47.94700 24.55000 25.66500
C  48.59700 25.93700 25.46900
C  48.59100 26.39800 26.94700
C  48.81000 23.35400 25.10500
C  47.85600 26.86900 24.43200
C  48.71900 27.34500 23.29900
N  48.77400 27.56100 29.71100
C  49.39900 28.13600 28.59600
C  50.01300 29.40500 29.07600
C  49.69200 29.49900 30.40100
C  49.06100 28.30900 30.74600
C  50.68500 30.45100 28.20900
C  49.78700 30.37800 31.58500
O  50.24200 31.52900 31.79700
C  49.26000 29.50600 32.81600
C  50.34500 29.31300 33.82900
O  51.24000 28.54000 33.68000
O  50.01400 30.01200 34.93700
C  50.74600 29.66400 36.20700
H  46.03000 23.20100 33.16900
H  46.93900 22.52000 26.99700
H  49.66000 28.11900 26.47000
H  48.23300 27.30900 34.88500
H  45.94600 25.68000 34.68300
H  48.26300 23.86400 34.64900
H  47.06300 24.17000 35.73400
H  48.61600 25.15200 35.78800
H  45.41300 27.76800 33.87800
H  46.56500 29.11900 34.32500
H  44.86700 27.59300 36.06100
H  45.53700 29.24500 35.97600
H  44.13700 20.97500 31.74700
H  45.21400 21.39400 32.94700
H  45.70700 20.08400 31.99400
H  45.18600 19.10000 30.03200
H  44.18800 18.88800 28.52900
H  43.73900 19.98700 29.83300
H  46.92300 24.54300 25.29100
H  49.65300 25.78300 25.24500
H  48.35100 22.39600 25.34800
H  49.78400 23.38800 25.59200
H  48.93600 23.57000 24.04400
H  47.50300 27.80100 24.87300
H  46.94800 26.31200 24.20000
H  48.19400 27.08200 22.38100
H  49.70800 26.89500 23.38900
H  48.75600 28.43400 23.30500
H  51.03900 29.98300 27.29000
H  51.55900 30.88400 28.69500
H  50.07400 31.26800 27.82600
H  48.38100 29.97100 33.26200
H  51.38800 30.47900 36.54100
H  51.46400 28.85000 36.10200
H  50.00900 29.37100 36.95500

