158

Mg 17.30600 -1.43900 27.90900
C  16.40700 0.57000 30.55800
C  19.14500 -3.41900 30.20900
C  18.65700 -3.09700 25.36500
C  16.07800 0.92100 25.80900
N  17.80300 -1.35200 30.10800
C  17.26100 -0.47900 31.01000
C  17.63800 -0.80100 32.40800
C  18.65900 -1.96400 32.20600
C  18.52400 -2.27700 30.74000
C  20.09900 -1.60500 32.57700
C  16.58000 -1.05300 33.53500
C  16.80200 -0.37800 34.90200
H  18.12600 0.02200 35.38000
N  18.48100 -3.09200 27.82900
C  19.18800 -3.74500 28.81300
C  19.81800 -4.88700 28.28400
C  19.59300 -4.86500 26.91200
C  18.90000 -3.59700 26.65200
C  20.71100 -5.82100 29.09800
C  20.00200 -5.95900 25.85100
O  19.77900 -5.86200 24.66300
C  20.69500 -7.27100 26.37700
N  17.23000 -1.19900 25.82400
C  17.96500 -1.97200 25.00800
C  17.98200 -1.28500 23.58700
C  16.84900 -0.19800 23.61000
C  16.70300 -0.12200 25.13400
C  19.38000 -0.85000 23.07000
C  15.47600 -0.52800 22.91300
C  15.41000 -0.19300 21.38200
N  16.43800 0.34400 28.09700
C  15.94000 1.16800 27.18100
C  15.38100 2.42700 27.76300
C  15.55000 2.16700 29.11500
C  16.16500 0.90600 29.30500
C  14.61500 3.58000 27.10700
C  15.21900 2.72300 30.42000
O  14.55500 3.71000 30.73300
C  15.78300 1.70300 31.39000
C  16.77500 2.52100 32.23100
O  17.73500 3.07500 31.78400
O  16.33400 2.70100 33.56900
C  17.07200 3.65500 34.41600
H  19.74800 -4.02500 30.88900
H  19.13200 -3.63600 24.54200
H  15.67200 1.63600 25.09000
H  18.18300 0.10900 32.65700
H  18.42900 -2.87700 32.75600
H  20.56000 -2.41300 33.14500
H  20.13400 -0.70200 33.18600
H  20.76800 -1.47300 31.72600
H  16.33400 -2.10900 33.64500
H  15.67700 -0.60500 33.12000
H  16.32500 -1.03800 35.62700
H  16.34000 0.60700 34.96500
H  20.11600 -6.52300 29.68100
H  21.15000 -5.19300 29.87300
H  21.54400 -6.40900 28.71000
H  21.70600 -7.01400 26.69400
H  20.78100 -8.08100 25.65200
H  20.03400 -7.65500 27.15400
H  17.61800 -2.00400 22.85300
H  17.16300 0.77400 23.22900
H  19.38700 0.20200 22.78500
H  19.78300 -1.44200 22.24800
H  20.11200 -0.95000 23.87200
H  14.57700 -0.16400 23.40900
H  15.52000 -1.60800 23.05100
H  16.39400 0.15900 21.07100
H  14.58600 0.49200 21.18500
H  15.23100 -1.08500 20.78100
H  13.60100 3.27800 26.84800
H  15.06700 3.84400 26.15100
H  14.64600 4.47300 27.73200
H  15.03300 1.39900 32.12000
H  16.90200 4.67200 34.06100
H  18.12400 3.37700 34.35100
H  16.80900 3.51300 35.46400
Mg 16.32100 50.34100 25.58100
C  18.26400 49.68400 28.58100
C  13.68100 50.82900 27.72300
C  14.63100 50.94200 22.91600
C  19.07000 49.16900 23.78900
N  16.09900 50.56200 27.86100
C  16.95200 50.25400 28.89400
C  16.39800 50.57200 30.27800
C  14.88800 50.59500 29.98600
C  14.83700 50.67300 28.37900
C  14.24300 49.28200 30.53700
C  17.01400 51.85100 30.79900
C  16.89900 52.08500 32.36200
H  15.90800 51.15300 33.12400
N  14.40900 50.85400 25.32600
C  13.42500 50.90500 26.31900
C  12.17700 50.96900 25.65800
C  12.36400 51.28600 24.26300
C  13.88900 51.03100 24.10000
C  10.92400 51.00100 26.49000
C  11.41600 51.64300 23.15600
O  11.76700 51.78200 21.97200
C  10.02200 52.00200 23.49100
N  16.84900 50.33600 23.68700
C  15.94600 50.67300 22.72000
C  16.58700 50.53400 21.26200
C  18.05100 50.00500 21.59500
C  18.06100 49.84500 23.09200
C  15.76800 49.65700 20.20600
C  19.21700 50.84700 20.97400
C  20.23800 50.19100 20.05200
N  18.35100 49.59300 26.06000
C  19.26600 49.10900 25.13600
C  20.38900 48.54300 25.92800
C  20.03100 48.71000 27.31900
C  18.79300 49.43500 27.26200
C  21.57200 47.89400 25.32500
C  20.42800 48.49600 28.64900
O  21.42800 48.01800 29.11700
C  19.32400 49.14400 29.49500
C  18.78100 48.14200 30.47200
O  18.10800 47.15300 30.16600
O  19.04200 48.52100 31.77100
C  18.36100 47.66600 32.78000
H  12.77400 50.90000 28.32600
H  14.08000 51.06400 21.98100
H  19.84200 48.90000 23.06500
H  16.72100 49.81500 30.99300
H  14.35700 51.37300 30.53500
H  14.92400 48.54800 30.96900
H  13.85900 48.67500 29.71700
H  13.42000 49.43500 31.23400
H  16.48200 52.61700 30.23400
H  18.06700 51.76000 30.53300
H  16.64000 53.13000 32.53500
H  17.87000 51.95100 32.84000
H  10.77000 52.04200 26.77500
H  10.97200 50.49700 27.45500
H  10.14200 50.59600 25.84800
H  9.61300 52.62000 22.69200
H  10.06600 52.71400 24.31400
H  9.35600 51.19300 23.79000
H  16.59200 51.56900 20.91900
H  18.06500 48.99800 21.17900
H  14.96000 49.16900 20.75300
H  16.42500 48.90600 19.76700
H  15.52700 50.33000 19.38300
H  19.73700 51.32900 21.80100
H  18.76200 51.64900 20.39300
H  19.69000 49.27400 19.83700
H  21.11600 49.84300 20.59500
H  20.42100 50.76400 19.14300
H  22.44800 48.51600 25.51000
H  21.37600 47.95800 24.25500
H  21.63400 46.90800 25.78700
H  19.72900 49.94000 30.12000
H  17.35700 47.32100 32.53000
H  18.32700 48.31000 33.65900
H  18.99400 46.79300 32.94100

