158

Mg 49.33300 45.20300 43.17300
C  46.01800 45.83100 42.13700
C  49.18300 42.23800 41.53500
C  52.69500 45.12700 43.22800
C  49.48900 48.69200 43.97200
N  47.80200 44.19000 41.96400
C  46.55200 44.65900 41.61200
C  45.83900 43.78200 40.66800
C  46.69400 42.47200 40.74100
C  47.98000 42.98700 41.48100
C  46.02800 41.31300 41.56800
C  45.68200 44.46100 39.22800
C  44.24500 44.45300 38.62200
H  44.03400 43.45700 37.49400
N  50.73300 43.65400 42.82400
C  50.43600 42.48200 42.14000
C  51.66400 41.68300 42.17000
C  52.73700 42.54400 42.69000
C  52.07500 43.85500 42.95700
C  51.74300 40.29200 41.66800
C  54.14200 42.13300 42.87900
O  54.51100 40.97900 42.61200
C  55.11900 43.06700 43.68500
N  50.92300 46.71700 43.50400
C  52.19400 46.43700 43.45900
C  53.06600 47.69400 43.61900
C  52.03600 48.75600 44.10600
C  50.70700 48.08800 43.81100
C  54.40600 47.53900 44.49900
C  52.18700 50.16100 43.35400
C  52.07700 51.50300 44.07100
N  47.98400 46.84800 43.30400
C  48.19600 48.11600 43.73900
C  46.88100 48.78900 43.92400
C  46.02800 47.87900 43.29600
C  46.74800 46.73900 42.87200
C  46.56700 50.21000 44.17700
C  44.69300 47.75200 42.85900
O  43.73000 48.47600 43.11800
C  44.64700 46.47900 41.96000
C  43.47600 45.68100 42.44700
O  42.38300 45.58800 41.89800
O  43.87700 45.10500 43.63400
C  42.79800 44.33700 44.26300
H  48.91200 41.28300 41.08000
H  53.78500 45.08200 43.17400
H  49.38200 49.75500 44.19500
H  44.88300 43.43300 41.05700
H  46.93600 42.03700 39.77200
H  44.97500 41.50600 41.77200
H  46.48500 41.05700 42.52400
H  46.08300 40.45400 40.89900
H  46.33800 43.90300 38.56000
H  46.06700 45.47200 39.35500
H  44.13800 45.49900 38.33300
H  43.48900 44.21600 39.37100
H  52.71300 40.05000 41.23300
H  50.89300 40.13000 41.00600
H  51.65700 39.58100 42.49000
H  54.63000 43.32200 44.62500
H  55.44000 43.89800 43.05700
H  55.98100 42.46200 43.96500
H  53.27900 47.97700 42.58800
H  52.06900 48.90900 45.18500
H  54.39000 46.62000 45.08500
H  54.64600 48.39800 45.12500
H  55.26200 47.38900 43.84100
H  51.39200 50.17800 42.60900
H  53.01700 50.09000 42.65000
H  52.60300 52.33400 43.60200
H  52.44200 51.39100 45.09300
H  51.03800 51.83300 44.08900
H  46.58500 50.47600 45.23400
H  45.54100 50.33600 43.83100
H  47.34200 50.88600 43.81500
H  44.48600 46.78800 40.92800
H  42.72700 43.37200 43.76100
H  41.81700 44.81100 44.28800
H  43.07800 44.15800 45.30100
Mg -5.62500 25.69700 25.94500
C  -4.36300 27.26400 28.90800
C  -7.38900 23.50100 27.88500
C  -6.29500 23.93900 23.26200
C  -3.30400 27.63300 24.26300
N  -5.75200 25.33700 28.09900
C  -5.22800 26.18300 29.18000
C  -5.81900 25.70000 30.48600
C  -6.44700 24.31000 30.10100
C  -6.60300 24.37700 28.61700
C  -5.48800 23.09000 30.45500
C  -6.77600 26.73900 31.03000
C  -6.86100 27.02800 32.55300
H  -6.27200 26.02900 33.57900
N  -6.78300 24.08700 25.55600
C  -7.48500 23.28200 26.48300
C  -8.12700 22.23200 25.80200
C  -7.85400 22.35800 24.39300
C  -6.96200 23.52800 24.32600
C  -8.86300 21.06200 26.46300
C  -8.21600 21.50300 23.13800
O  -7.80600 21.63300 22.02200
C  -9.29200 20.47000 23.29800
N  -4.87400 25.70700 24.11100
C  -5.24600 24.84600 23.11800
C  -4.54100 25.12800 21.80300
C  -3.57900 26.31100 22.09400
C  -3.94600 26.62400 23.57100
C  -3.84800 23.78500 21.21200
C  -3.58600 27.44000 20.97500
C  -4.64800 28.55400 21.08400
N  -4.19100 27.27200 26.43200
C  -3.40300 27.98500 25.57500
C  -2.77300 29.05100 26.29900
C  -3.07200 28.77900 27.66300
C  -3.93300 27.66800 27.66000
C  -1.96200 30.16500 25.78400
C  -2.84400 29.11000 29.04400
O  -2.19100 30.02200 29.47500
C  -3.63500 28.14200 29.94000
C  -2.66800 27.44200 30.79600
O  -1.50200 27.25000 30.47600
O  -3.16000 27.36600 32.11700
C  -2.11900 27.31000 33.18500
H  -7.78800 22.72500 28.54100
H  -6.62100 23.58400 22.28200
H  -2.50800 28.12900 23.70400
H  -5.07000 25.60400 31.27200
H  -7.41300 24.06600 30.54300
H  -4.65600 23.46900 31.04800
H  -5.05100 22.72700 29.52500
H  -5.96800 22.30700 31.04200
H  -7.77400 26.34900 30.83000
H  -6.71300 27.69300 30.50600
H  -7.89600 27.10700 32.88300
H  -6.31500 27.95800 32.70900
H  -9.84600 21.53100 26.46500
H  -8.57600 20.89500 27.50200
H  -9.01800 20.08500 26.00400
H  -9.92700 20.43400 22.41200
H  -9.99900 20.77600 24.06900
H  -8.84800 19.48300 23.42200
H  -5.31900 25.50100 21.13700
H  -2.56500 25.92600 22.19700
H  -4.21600 23.70100 20.18900
H  -4.25700 22.90200 21.70400
H  -2.77000 23.92800 21.27900
H  -3.75300 27.01500 19.98500
H  -2.57500 27.84600 20.95700
H  -4.93600 28.86100 22.09000
H  -5.46700 28.22400 20.44500
H  -4.19100 29.40100 20.57300
H  -1.63100 30.88300 26.53400
H  -2.72800 30.68200 25.20500
H  -1.13900 29.96600 25.09700
H  -4.36800 28.73500 30.48800
H  -2.10400 26.36500 33.72800
H  -2.36700 28.11200 33.88000
H  -1.18900 27.59000 32.69100

