158

Mg 42.70600 4.83400 47.71800
C  41.00000 7.94000 47.29900
C  39.78900 3.19200 47.43900
C  44.51000 2.02700 47.16400
C  45.79800 6.76200 47.37600
N  40.59000 5.49000 47.39000
C  40.12600 6.73500 47.30700
C  38.54000 6.80400 47.52600
C  38.18100 5.29700 47.75200
C  39.59200 4.59500 47.50500
C  37.52000 4.84600 49.07300
C  37.74700 7.55800 46.39000
C  38.09200 7.05100 44.91800
H  38.50400 8.08900 43.92400
N  42.25200 2.83500 47.52300
C  40.96200 2.33300 47.46700
C  40.98400 0.91200 47.47500
C  42.35600 0.54200 47.22000
C  43.15500 1.78200 47.28800
C  39.66700 0.12300 47.60500
C  42.73000 -0.83600 47.01900
O  41.95300 -1.78600 46.96200
C  44.11600 -1.12000 46.84700
N  44.81700 4.48100 47.17100
C  45.25500 3.17400 47.15100
C  46.79400 3.13400 47.13100
C  47.18500 4.65800 47.08300
C  45.85500 5.41200 47.16600
C  47.42400 2.34900 48.33700
C  48.06900 5.05400 45.82300
C  49.51300 5.11200 45.97600
N  43.34500 6.92100 47.46900
C  44.63600 7.53300 47.34500
C  44.41300 9.02700 47.26800
C  43.02200 9.20000 47.34400
C  42.45700 7.89400 47.33100
C  45.44400 9.93500 47.11500
C  41.97200 10.21100 47.24300
O  41.98700 11.40700 47.12100
C  40.63300 9.37800 47.31700
C  39.91800 9.84800 48.55700
O  40.16300 9.47000 49.67300
O  38.95800 10.78800 48.17600
C  38.10700 11.42300 49.18300
H  38.86200 2.62000 47.35300
H  45.25700 1.23200 47.20400
H  46.71200 7.35300 47.29500
H  38.43200 7.37600 48.44800
H  37.56500 4.92300 46.93500
H  37.10400 5.60700 49.73300
H  38.27800 4.27200 49.60500
H  36.74500 4.10300 48.88600
H  38.05000 8.60400 46.44200
H  36.68200 7.39200 46.55000
H  37.22200 6.56800 44.47300
H  38.86500 6.28800 45.00500
H  39.14400 0.21300 46.65300
H  39.00700 0.47800 48.39800
H  39.57100 -0.95500 47.73400
H  44.66600 -0.66800 47.67200
H  44.54500 -0.74800 45.91700
H  44.26400 -2.19100 46.98200
H  47.13600 2.65700 46.21300
H  47.77700 4.82600 47.98200
H  46.71300 2.15600 49.14000
H  48.27600 2.91700 48.71200
H  47.72800 1.35600 48.00300
H  47.69200 6.03900 45.55000
H  47.81300 4.33600 45.04400
H  49.80700 4.97300 47.01700
H  49.99500 6.05700 45.72600
H  50.10000 4.44600 45.34300
H  46.03000 9.97100 48.03400
H  45.09100 10.91600 46.79700
H  46.07000 9.61300 46.28200
H  39.93200 9.66500 46.53400
H  37.83600 12.46000 48.98100
H  38.56500 11.33300 50.16800
H  37.20300 10.87100 49.43800
Mg 10.75000 47.80900 25.82200
C  8.92900 47.66900 28.79800
C  13.30600 49.21300 27.45300
C  12.46700 47.91800 22.80700
C  7.81100 47.02600 24.01600
N  10.99800 48.34700 27.83300
C  10.19100 48.27400 28.91500
C  10.74400 48.90900 30.22000
C  11.90600 49.70900 29.57300
C  12.17500 48.97000 28.25900
C  11.76100 51.18100 29.45000
C  11.12200 47.82000 31.30900
C  10.22500 47.81300 32.51900
H  10.27300 46.59900 33.48700
N  12.64200 48.41100 25.24700
C  13.58700 48.93300 26.06500
C  14.85500 49.07400 25.36100
C  14.60700 48.57100 24.06200
C  13.18900 48.33000 23.94800
C  16.13500 49.59700 26.08000
C  15.61000 48.18300 22.93500
O  15.36000 47.77100 21.84500
C  17.07900 48.33300 23.27800
N  10.22000 47.44300 23.72600
C  11.12100 47.48400 22.64400
C  10.47800 47.16100 21.27000
C  9.14800 46.63400 21.82900
C  8.99000 47.11200 23.28900
C  10.40000 48.26800 20.26700
C  8.80700 45.09100 21.63400
C  9.90900 44.15200 22.28700
N  8.81200 47.43700 26.21800
C  7.69700 47.12700 25.41800
C  6.55100 46.86300 26.25700
C  6.99100 47.06500 27.54400
C  8.35900 47.44300 27.47000
C  5.22200 46.47300 25.64000
C  6.50100 47.00800 28.94100
O  5.40400 46.60800 29.39500
C  7.85600 47.38700 29.77500
C  8.16800 46.08200 30.56600
O  9.02000 45.23400 30.29300
O  7.38200 46.07800 31.67600
C  7.24700 44.91200 32.57300
H  14.11200 49.60500 28.07600
H  13.04600 47.88200 21.88100
H  6.99300 46.67800 23.38200
H  10.04800 49.64300 30.62500
H  12.78700 49.63100 30.21000
H  10.78100 51.55000 29.75200
H  11.93100 51.30900 28.38100
H  12.51600 51.76800 29.97300
H  12.13000 48.02800 31.66800
H  11.26700 46.82600 30.88500
H  9.20300 47.98500 32.18100
H  10.50500 48.63800 33.17400
H  15.98100 49.52100 27.15600
H  16.42500 50.63700 25.93200
H  17.00200 48.96900 25.87300
H  17.34200 49.36400 23.51300
H  17.62200 47.89700 22.44000
H  17.35500 47.66600 24.09500
H  11.01600 46.31700 20.83700
H  8.28700 47.05000 21.30500
H  10.93400 47.98200 19.36200
H  10.91800 49.19000 20.52900
H  9.35900 48.57700 20.16500
H  8.47800 44.88400 20.61600
H  7.93600 44.86400 22.24900
H  9.52300 43.55700 23.11500
H  10.73400 44.73200 22.70200
H  10.47900 43.67300 21.49100
H  5.08500 46.79500 24.60700
H  4.46600 47.04300 26.18000
H  5.06100 45.39600 25.68200
H  7.82800 48.19900 30.50100
H  7.94100 44.11700 32.29700
H  6.20700 44.64900 32.76200
H  7.72500 45.26200 33.48800

