158

Mg 40.80700 9.54600 29.83100
C  42.37500 10.19100 32.95000
C  38.23800 7.81700 31.76100
C  39.38900 8.62800 27.06700
C  43.48200 10.92600 28.19200
N  40.37900 9.18800 32.09400
C  41.09500 9.69000 33.13300
C  40.35400 9.60700 34.46600
C  39.23700 8.55800 34.07300
C  39.25400 8.49700 32.49700
C  39.52300 7.17600 34.57000
C  39.80400 10.99000 34.89700
C  39.48700 11.00400 36.35300
H  40.43500 11.77800 37.26600
N  38.98200 8.47600 29.43900
C  38.09500 7.81200 30.30500
C  36.97400 7.35700 29.57100
C  37.15000 7.67300 28.17600
C  38.57000 8.27000 28.14600
C  35.79000 6.58000 30.16000
C  36.24200 7.43500 26.87500
O  36.64800 7.74000 25.76700
C  34.83000 6.85400 27.03700
N  41.31700 9.74300 27.99500
C  40.58900 9.27500 26.96300
C  41.30000 9.25400 25.60100
C  42.48900 10.21000 25.93200
C  42.46900 10.35200 27.48700
C  41.78900 7.85100 25.11500
C  42.37200 11.62600 25.26800
C  40.96800 12.30500 25.27700
N  42.69000 10.28700 30.42600
C  43.69000 10.79900 29.59600
C  44.73900 11.38700 30.41800
C  44.20000 11.20600 31.79500
C  42.94800 10.55500 31.72400
C  45.97300 12.18800 30.05000
C  44.46600 11.57800 33.14300
O  45.39700 12.22400 33.59400
C  43.35000 10.91200 33.99600
C  44.09800 9.91500 34.84500
O  44.39300 8.81500 34.54100
O  44.52100 10.50500 36.03200
C  45.10300 9.58400 37.02300
H  37.45200 7.31000 32.32500
H  38.95700 8.25800 26.13500
H  44.38000 11.32900 27.72000
H  41.06200 9.24500 35.21300
H  38.22800 8.86900 34.34400
H  40.26100 6.72400 33.90800
H  38.60400 6.58900 34.56600
H  39.89800 7.30100 35.58600
H  38.92000 11.22300 34.30300
H  40.58100 11.73700 34.73000
H  39.44200 9.99500 36.76300
H  38.48400 11.38000 36.55600
H  36.03800 5.55400 29.88800
H  34.83000 6.90100 29.75600
H  35.72800 6.70100 31.24100
H  34.21400 6.90100 26.13900
H  34.39800 7.46100 27.83300
H  35.02700 5.83200 27.36200
H  40.68300 9.72400 24.83600
H  43.39100 9.65900 25.66600
H  42.82300 7.61800 25.37100
H  41.59600 7.78400 24.04400
H  41.11100 7.10300 25.52500
H  42.78700 11.66400 24.26100
H  43.07100 12.27400 25.79500
H  40.54100 12.29000 24.27400
H  41.16400 13.34900 25.52200
H  40.23100 11.98600 26.01400
H  46.67700 11.57800 29.48400
H  46.36900 12.36000 31.05100
H  45.60600 13.03400 29.47000
H  42.88500 11.70300 34.58500
H  44.66100 8.58800 36.99000
H  44.94600 10.03700 38.00200
H  46.18000 9.43000 36.96300
Mg 36.62400 49.67700 25.43400
C  36.80300 47.68300 28.40800
C  35.06800 52.07000 27.29600
C  36.12000 51.29700 22.59100
C  38.24200 47.12800 23.71000
N  36.00200 49.85500 27.61400
C  36.23900 48.96200 28.62100
C  35.95100 49.61100 29.98800
C  35.17900 50.90800 29.64200
C  35.46300 50.98600 28.12300
C  33.66600 50.89100 30.01000
C  37.22100 49.88500 30.85500
C  37.10100 49.84200 32.43100
H  35.68600 49.88400 33.08900
N  35.80100 51.45600 24.96200
C  35.22300 52.27100 25.89600
C  34.76300 53.46400 25.17000
C  34.96200 53.29900 23.73300
C  35.64700 51.98600 23.69900
C  34.22700 54.68600 25.88000
C  34.64400 54.21900 22.60500
O  34.85400 53.96400 21.43800
C  33.97600 55.54100 22.78100
N  37.08600 49.23300 23.42400
C  36.75600 50.05100 22.38600
C  37.16300 49.42100 20.98300
C  38.12000 48.25200 21.43800
C  37.85400 48.18600 22.93400
C  36.00500 49.03900 20.03900
C  39.52800 48.40600 20.91300
C  40.54100 48.92400 21.86400
N  37.30800 47.78800 25.86500
C  37.93600 46.93500 25.11900
C  38.24900 45.69300 25.86900
C  37.86000 46.01600 27.12400
C  37.24800 47.25700 27.11600
C  38.77600 44.43000 25.22800
C  37.77300 45.48600 28.42400
O  38.25700 44.41800 28.86400
C  37.19900 46.58100 29.29800
C  36.22700 45.96400 30.23500
O  35.05600 45.79800 30.06100
O  36.86400 45.55500 31.40200
C  36.01800 44.98900 32.45300
H  34.45900 52.78300 27.85700
H  35.97500 51.84300 21.65600
H  38.76700 46.34500 23.15900
H  35.32300 48.89000 30.51200
H  35.59500 51.78300 30.14200
H  33.14100 50.97100 29.05800
H  33.35000 51.76000 30.58800
H  33.34400 49.93800 30.43000
H  37.59100 50.88200 30.61500
H  38.02600 49.17900 30.65400
H  37.74400 50.61800 32.84700
H  37.69800 49.00000 32.78200
H  33.34500 55.07000 25.36800
H  34.97900 55.44600 26.09400
H  33.75200 54.37500 26.81000
H  33.74600 55.92800 21.78900
H  34.55200 56.28600 23.33000
H  32.98300 55.32900 23.17800
H  37.70500 50.23900 20.50900
H  37.65100 47.36200 21.01700
H  35.40900 48.26800 20.52700
H  36.43500 48.55800 19.16100
H  35.31700 49.83800 19.76600
H  39.58100 49.00500 20.00400
H  39.88100 47.40100 20.68200
H  40.15100 49.74300 22.46700
H  41.41300 49.32800 21.34900
H  40.80000 48.06600 22.48400
H  38.17700 44.17300 24.35400
H  38.58400 43.68200 25.99700
H  39.82700 44.63700 25.02100
H  38.03900 46.91000 29.91000
H  35.47200 44.08000 32.20000
H  35.21400 45.68100 32.70300
H  36.61200 44.85000 33.35700

