158

Mg 26.21100 0.76000 29.05200
C  28.20400 0.44100 31.74900
C  23.49600 1.26900 31.17700
C  24.22000 0.64100 26.34200
C  28.91600 -0.33800 26.95900
N  25.92600 0.70100 31.30000
C  26.92800 0.81300 32.08800
C  26.50600 1.02300 33.53800
C  24.91300 1.20100 33.39500
C  24.75500 1.13500 31.86300
C  24.05200 0.25900 34.26800
C  27.23800 2.20700 34.19200
C  26.67100 2.92500 35.45000
H  27.46500 2.78400 36.72900
N  24.13800 0.95300 28.77200
C  23.20100 1.01000 29.82600
C  21.95200 0.81100 29.23600
C  22.06200 0.73000 27.82300
C  23.50500 0.87200 27.57100
C  20.64000 0.98000 29.96000
C  21.00600 0.60800 26.80200
O  21.27400 0.67100 25.62000
C  19.62700 0.29000 27.16300
N  26.51700 0.12900 26.90600
C  25.55700 0.39300 26.02200
C  25.99500 0.13500 24.58400
C  27.53200 -0.07200 24.73000
C  27.69800 -0.12800 26.29700
C  25.35300 -1.10300 23.91100
C  28.42100 1.02700 23.92200
C  28.33300 0.84700 22.43800
N  28.10000 0.21100 29.28300
C  29.09500 -0.22500 28.38200
C  30.32400 -0.49600 29.09700
C  30.03200 -0.21500 30.40200
C  28.66600 0.16200 30.50300
C  31.64900 -1.04200 28.49200
C  30.59700 -0.10300 31.74100
O  31.71700 -0.46800 32.19600
C  29.44200 0.33700 32.68500
C  29.25900 -0.64200 33.80300
O  28.82300 -1.76800 33.64700
O  29.70300 -0.23800 35.02700
C  29.76700 -1.25300 36.08600
H  22.61600 1.45300 31.79700
H  23.55900 0.51200 25.48200
H  29.72700 -0.69600 26.32200
H  26.74800 0.13900 34.12700
H  24.48400 2.19000 33.55200
H  23.70600 -0.64600 33.76700
H  23.17100 0.87100 34.46100
H  24.53300 0.07100 35.22800
H  27.58700 2.92900 33.45400
H  28.10200 1.71000 34.63500
H  25.62300 2.66500 35.60300
H  26.67000 3.96800 35.13200
H  20.07500 1.76200 29.45300
H  20.74200 1.20400 31.02200
H  19.98500 0.11400 29.87200
H  19.07300 1.19100 27.42800
H  19.71600 -0.43300 27.97400
H  19.12000 -0.17400 26.31700
H  25.76100 1.08900 24.11100
H  27.77800 -1.08700 24.41800
H  24.66700 -1.61400 24.58700
H  26.01500 -1.81900 23.42400
H  24.71000 -0.72200 23.11800
H  29.45000 0.78900 24.19200
H  28.18100 2.04600 24.22300
H  28.35500 1.74600 21.82200
H  27.48500 0.24900 22.10300
H  29.23400 0.32200 22.12300
H  31.55100 -2.12600 28.42100
H  32.45600 -0.87100 29.20500
H  31.85800 -0.72600 27.47000
H  29.62200 1.27400 33.21300
H  30.80400 -1.27600 36.42100
H  29.39900 -2.23200 35.77900
H  29.02100 -0.99300 36.83600
Mg -11.53300 16.40700 42.40500
C  -8.14400 16.57400 41.63200
C  -11.90200 19.68000 41.50700
C  -14.90900 15.88900 42.67400
C  -10.99100 12.84500 43.10800
N  -10.17000 17.91000 41.36700
C  -8.83600 17.78500 41.41200
C  -8.21300 19.26100 41.21300
C  -9.35700 20.19600 41.56300
C  -10.58200 19.18800 41.60600
C  -9.05800 21.20600 42.81000
C  -7.62100 19.50500 39.74700
C  -6.08500 19.84600 39.61300
H  -5.27400 19.00800 38.54100
N  -13.18500 17.59900 42.09000
C  -13.13500 18.90300 41.76900
C  -14.45900 19.42200 41.70700
C  -15.37900 18.33700 41.96200
C  -14.51900 17.21600 42.27200
C  -14.77600 20.88900 41.33900
C  -16.85200 18.42900 42.02000
O  -17.30800 19.50700 41.67100
C  -17.76600 17.33800 42.41600
N  -12.79500 14.63500 42.90800
C  -14.13900 14.72000 43.03300
C  -14.74300 13.40500 43.49300
C  -13.48900 12.46200 43.53600
C  -12.36800 13.35700 43.11900
C  -15.29300 13.52000 44.96700
C  -13.59600 11.17200 42.64000
C  -13.66600 11.37800 41.16400
N  -9.94800 14.93200 42.31400
C  -9.89600 13.62100 42.70400
C  -8.47800 13.22100 42.72500
C  -7.78300 14.32900 42.26300
C  -8.72900 15.35100 42.01900
C  -7.84200 11.83900 42.98200
C  -6.47300 14.82000 41.92900
O  -5.42300 14.22100 41.87900
C  -6.68100 16.27800 41.50300
C  -5.81300 17.08600 42.33600
O  -6.02000 17.40900 43.45100
O  -4.78200 17.53600 41.61600
C  -3.86400 18.48500 42.42400
H  -12.01600 20.76500 41.55400
H  -15.99100 15.74100 42.70000
H  -10.81100 11.78800 43.31300
H  -7.43000 19.37100 41.96300
H  -9.60500 20.90000 40.76800
H  -8.00800 21.09800 43.08100
H  -9.59400 20.74500 43.64000
H  -9.47100 22.19700 42.62500
H  -8.25700 20.16100 39.15200
H  -7.75800 18.59800 39.15900
H  -5.51300 19.76500 40.53800
H  -6.10000 20.92100 39.43200
H  -15.11500 21.39400 42.24400
H  -15.49100 20.71000 40.53600
H  -13.92700 21.38400 40.87000
H  -18.74800 17.76800 42.61600
H  -17.36300 17.02400 43.37900
H  -17.79100 16.57900 41.63400
H  -15.50500 13.13500 42.76100
H  -13.24300 12.10900 44.53700
H  -15.19800 12.57200 45.49600
H  -16.30400 13.90500 44.83800
H  -14.75300 14.33000 45.45800
H  -14.45700 10.57900 42.94800
H  -12.67900 10.65300 42.92100
H  -12.84200 10.96500 40.58300
H  -13.74900 12.43900 40.92700
H  -14.63200 10.98900 40.84500
H  -6.80000 11.96600 43.27400
H  -7.87900 11.39100 41.98900
H  -8.46300 11.29400 43.69200
H  -6.43000 16.33000 40.44400
H  -4.36000 19.23400 43.04100
H  -3.30500 19.04800 41.67800
H  -3.20100 17.98100 43.12800

