158

Mg 25.77500 0.76100 28.83300
C  27.23300 0.34400 31.93600
C  22.74100 0.91000 30.36000
C  24.43400 0.86700 25.72600
C  28.89300 -0.25200 27.31500
N  25.11600 0.47900 30.99100
C  25.86600 0.47000 32.06500
C  25.01200 0.42800 33.39400
C  23.54000 0.70400 32.82200
C  23.76300 0.69400 31.28200
C  22.48000 -0.31100 33.26600
C  25.53300 1.53900 34.45800
C  25.24700 1.13300 35.91400
H  26.09300 1.86100 36.92600
N  23.84800 0.82200 28.12600
C  22.74400 0.87600 28.92300
C  21.59000 0.89100 28.11500
C  22.08200 0.89900 26.73500
C  23.48700 0.85400 26.85400
C  20.18800 0.89200 28.77000
C  21.30500 0.86100 25.44400
O  21.83500 0.60200 24.37400
C  19.86300 1.26500 25.48200
N  26.56000 0.32000 26.71700
C  25.79100 0.55400 25.63200
C  26.65200 0.45400 24.33300
C  28.08500 -0.07400 24.93200
C  27.83600 -0.01700 26.42200
C  25.98300 -0.27900 23.13300
C  29.30200 0.83000 24.48100
C  30.59800 0.03600 24.31000
N  27.75500 0.30200 29.45100
C  28.88100 -0.13500 28.71600
C  29.96800 -0.30900 29.63200
C  29.39400 -0.07000 30.95800
C  27.98000 0.23500 30.72500
C  31.41800 -0.71000 29.32600
C  29.69800 -0.10200 32.34100
O  30.72300 -0.33700 32.97400
C  28.32100 0.14000 33.01200
C  28.02100 -0.94900 34.02300
O  27.52100 -2.00200 33.71500
O  28.64900 -0.65500 35.23700
C  28.55000 -1.82300 36.21500
H  21.81800 1.02400 30.93200
H  24.20000 0.92800 24.66100
H  29.83400 -0.61700 26.89800
H  25.05700 -0.59200 33.77800
H  23.19600 1.66200 33.21200
H  22.88600 -0.89500 34.09200
H  22.27400 -1.14900 32.59900
H  21.50400 0.02800 33.61300
H  24.99800 2.46600 34.25400
H  26.57500 1.80300 34.27800
H  25.35800 0.06300 36.08500
H  24.22200 1.38500 36.18300
H  20.26700 0.80600 29.85400
H  19.54000 0.19200 28.24300
H  19.80300 1.88500 28.53700
H  19.59400 1.51700 24.45600
H  19.78400 2.13300 26.13600
H  19.20700 0.45800 25.80900
H  26.78400 1.50700 24.08600
H  28.23000 -1.13600 24.73600
H  26.79700 -0.82100 22.65200
H  25.63900 0.44900 22.39800
H  25.16800 -0.93800 23.42900
H  29.53400 1.53500 25.28000
H  29.17400 1.41300 23.56900
H  30.79500 -0.25800 23.28000
H  30.48000 -0.84300 24.94400
H  31.42700 0.64700 24.66700
H  31.80700 -1.32100 30.14000
H  32.02000 0.19800 29.30400
H  31.48600 -1.23400 28.37200
H  28.53600 1.05000 33.57200
H  29.44500 -2.41100 36.41700
H  27.76100 -2.50400 35.89700
H  28.34900 -1.38600 37.19400
Mg -0.22800 43.41000 26.24300
C  2.08100 42.83100 28.73800
C  -2.70000 42.29600 28.33400
C  -2.44300 43.65500 23.62600
C  2.37200 43.96300 23.99500
N  -0.22900 42.49800 28.26900
C  0.78400 42.58100 29.11800
C  0.26100 42.39800 30.58600
C  -1.15900 41.81600 30.36000
C  -1.41700 42.18300 28.89300
C  -1.41300 40.34400 30.59700
C  0.44700 43.71900 31.39900
C  1.07500 43.62200 32.76500
H  0.69500 42.34000 33.54400
N  -2.28400 43.07900 26.01900
C  -3.09400 42.62900 27.00000
C  -4.44800 42.69300 26.45200
C  -4.41200 43.16600 25.17700
C  -3.02800 43.27300 24.85700
C  -5.60800 42.19500 27.33500
C  -5.60000 43.50900 24.25300
O  -5.40200 43.81400 23.08900
C  -6.98000 43.50800 24.70400
N  -0.01700 43.53900 24.03200
C  -1.10500 43.83000 23.28800
C  -0.73600 44.33200 21.87300
C  0.76500 44.60800 22.00300
C  1.10400 44.00600 23.38800
C  -1.12700 43.34900 20.81800
C  1.20500 46.10500 22.00700
C  0.62900 47.06000 23.11000
N  1.87100 43.40400 26.28800
C  2.80300 43.63800 25.31600
C  4.10600 43.65400 25.93800
C  3.89800 43.34300 27.28400
C  2.54100 43.20200 27.40100
C  5.51600 43.81100 25.24500
C  4.52000 43.02500 28.55300
O  5.66300 42.77200 28.82800
C  3.31700 42.96700 29.58200
C  3.54200 41.76200 30.42400
O  3.57800 40.64300 29.95600
O  3.89100 42.17400 31.66200
C  4.45700 41.14600 32.60300
H  -3.54200 42.03600 28.97900
H  -3.12200 43.96900 22.83000
H  3.20700 44.19300 23.32900
H  0.82000 41.57500 31.03200
H  -1.75200 42.42300 31.04400
H  -2.02200 40.18700 31.48700
H  -0.42700 39.88100 30.63200
H  -1.82200 39.72500 29.79800
H  -0.54500 44.10500 31.63600
H  0.92100 44.48600 30.78700
H  0.61200 44.45500 33.29400
H  2.13800 43.77100 32.57800
H  -6.52700 41.96300 26.79700
H  -5.64800 42.87800 28.18300
H  -5.24800 41.26900 27.78300
H  -7.46600 42.53400 24.76400
H  -7.65000 44.10900 24.09000
H  -6.96400 43.98600 25.68400
H  -1.24800 45.24700 21.57600
H  1.40700 44.13000 21.26300
H  -0.38900 43.20200 20.03000
H  -2.01600 43.70500 20.29600
H  -1.37600 42.35300 21.18200
H  0.94700 46.60400 21.07300
H  2.29400 46.07400 22.03400
H  1.29500 47.36800 23.91600
H  -0.21300 46.59500 23.62000
H  0.31400 47.98300 22.62300
H  5.35000 44.73300 24.68800
H  5.97000 43.01500 24.65600
H  6.14700 44.11800 26.08000
H  3.48800 43.77600 30.29200
H  5.19300 40.53500 32.07900
H  3.69900 40.49900 33.04500
H  4.93100 41.79200 33.34200

