158

Mg 35.24800 48.62300 25.49800
C  35.40900 46.96000 28.54700
C  34.22800 51.44700 27.20500
C  34.53300 49.98600 22.47700
C  36.21900 45.64300 23.86600
N  34.77000 49.08300 27.72100
C  35.01800 48.29200 28.72800
C  34.90900 49.03500 30.05400
C  34.38700 50.39900 29.61500
C  34.44600 50.33000 28.09800
C  32.91200 50.79200 29.98600
C  36.23300 49.03200 30.81300
C  36.10200 48.66200 32.28100
H  34.77700 49.10700 32.95000
N  34.53500 50.50600 24.84300
C  34.19100 51.57700 25.68200
C  33.89100 52.73600 24.90500
C  34.01500 52.32400 23.53200
C  34.34600 50.90900 23.53700
C  33.48800 54.05600 25.60600
C  33.76800 53.19200 22.29100
O  33.83200 52.74600 21.19400
C  33.44900 54.66600 22.53700
N  35.24900 47.90200 23.46500
C  34.98300 48.69300 22.39800
C  35.36000 48.07200 21.07600
C  36.23200 46.87800 21.60600
C  35.89200 46.77500 23.10000
C  34.17700 47.60400 20.23700
C  37.76000 47.13400 21.17400
C  38.72600 47.90300 22.14400
N  35.70400 46.67800 26.01100
C  36.10200 45.50800 25.29600
C  36.48300 44.40900 26.17900
C  36.18500 44.98600 27.42700
C  35.59100 46.31000 27.31500
C  37.16500 43.18200 25.78800
C  36.44100 44.67300 28.85800
O  37.05900 43.71100 29.33700
C  35.82300 45.93000 29.59400
C  34.62500 45.40400 30.18000
O  33.57600 45.16200 29.64200
O  34.91900 45.10600 31.47800
C  33.74800 44.61900 32.26400
H  33.92100 52.29900 27.81600
H  34.47100 50.58600 21.56700
H  36.53100 44.78200 23.27100
H  34.16400 48.49600 30.63900
H  35.00700 51.25500 29.88200
H  32.22200 50.79800 29.14200
H  32.84700 51.75000 30.50000
H  32.50200 50.00200 30.61400
H  36.77000 49.95400 30.58900
H  36.96700 48.37700 30.34200
H  36.89600 49.07000 32.90600
H  36.28900 47.58900 32.32100
H  32.50800 54.34600 25.22900
H  34.06800 54.95200 25.38700
H  33.42000 53.99400 26.69200
H  32.50400 54.83900 23.05200
H  33.31500 55.20000 21.59600
H  34.22800 55.15300 23.12300
H  35.96200 48.68400 20.40500
H  35.83800 45.94100 21.21200
H  34.29600 46.61600 19.79400
H  34.07400 48.27200 19.38200
H  33.29700 47.64000 20.88000
H  37.70000 47.65700 20.21900
H  38.18100 46.18100 20.85100
H  38.31700 48.02900 23.14600
H  38.98100 48.87700 21.72700
H  39.57800 47.24200 22.30400
H  37.84100 42.90400 26.59600
H  37.61100 43.07400 24.79900
H  36.44900 42.36300 25.72100
H  36.58400 46.25800 30.30200
H  33.00700 45.41400 32.18300
H  33.92400 44.31900 33.29700
H  33.26700 43.77900 31.76300
Mg 6.49000 53.92000 41.40100
C  6.09700 50.31800 41.17200
C  9.80500 53.43700 40.25200
C  6.65700 57.23800 40.89100
C  2.97600 54.08100 41.65100
N  7.75700 52.02300 40.52700
C  7.42400 50.75600 40.79500
C  8.64500 49.88500 40.47700
C  9.80300 50.90600 40.54900
C  9.08900 52.24500 40.45600
C  10.91100 50.63100 41.63200
C  8.59400 49.00700 39.20500
C  7.84700 49.75700 37.95400
H  7.20000 48.97600 36.82100
N  8.00000 55.13800 40.69600
C  9.28900 54.79200 40.31500
C  9.95800 55.91600 39.86000
C  9.18300 57.03600 40.14400
C  7.85900 56.52300 40.59200
C  11.33100 55.97300 39.17800
C  9.58800 58.49300 39.82300
O  10.72100 58.76000 39.49700
C  8.74100 59.68000 40.14600
N  4.96900 55.40500 41.17300
C  5.38500 56.75900 41.24200
C  4.18800 57.66700 41.54100
C  3.02100 56.60900 41.87400
C  3.63500 55.30400 41.53300
C  4.38700 58.73300 42.60600
C  1.74000 56.94700 41.22000
C  0.47900 57.07400 42.15600
N  4.76900 52.54000 41.52400
C  3.44100 52.77500 41.69100
C  2.73500 51.49300 41.80500
C  3.75500 50.55000 41.73200
C  4.92900 51.20500 41.46400
C  1.21300 51.21500 42.01600
C  4.07500 49.17500 41.74400
O  3.33900 48.20400 41.90400
C  5.59900 48.89500 41.44200
C  5.49600 48.03100 40.17500
O  5.06900 48.47200 39.10600
O  5.66900 46.69600 40.33600
C  5.22600 45.87700 39.20500
H  10.86800 53.28500 40.05600
H  6.60800 58.32200 40.77100
H  1.91600 54.15800 41.90300
H  8.65900 49.14900 41.28100
H  10.47900 50.84800 39.69700
H  11.01000 51.47500 42.31600
H  11.84800 50.60700 41.07600
H  10.66700 49.75500 42.23200
H  8.03800 48.12100 39.51300
H  9.56900 48.66400 38.86000
H  8.62400 50.24200 37.36300
H  7.20600 50.58700 38.24800
H  11.32400 56.10800 38.09600
H  11.65000 54.93200 39.22600
H  12.00600 56.65000 39.70200
H  7.99900 59.81200 39.35900
H  9.51200 60.44700 40.22100
H  8.29600 59.47600 41.12000
H  3.97000 58.24900 40.64600
H  2.93400 56.53800 42.95800
H  4.32200 59.73600 42.18400
H  5.37000 58.54500 43.03500
H  3.69500 58.75200 43.44800
H  1.47700 56.26300 40.41300
H  1.87000 57.88000 40.67100
H  -0.29900 57.63100 41.63400
H  0.82200 57.53700 43.08200
H  0.05600 56.10100 42.40500
H  1.06500 50.33600 42.64400
H  0.58400 51.10200 41.13400
H  0.65400 52.00700 42.51500
H  6.21300 48.37500 42.17700
H  5.42900 44.84300 39.48700
H  5.73500 46.04700 38.25600
H  4.15000 46.04000 39.16200

