158

Mg 2.05100 -2.05900 44.81300
C  5.23100 -1.04700 43.99300
C  0.75600 0.46300 42.72200
C  -1.08900 -3.24900 45.18900
C  3.39100 -4.84000 46.36500
N  2.86700 -0.54100 43.45200
C  4.25500 -0.28600 43.27900
C  4.57700 0.90200 42.32600
C  3.10000 1.37000 41.98700
C  2.17100 0.33800 42.71700
C  2.84100 2.82500 42.41600
C  5.47200 0.32500 41.19100
C  6.75100 1.14700 40.93100
H  7.31500 1.09100 39.50400
N  0.11200 -1.41600 44.06300
C  -0.21000 -0.38300 43.28000
C  -1.68600 -0.26400 43.17400
C  -2.24500 -1.23300 43.99700
C  -1.03900 -2.04800 44.43900
C  -2.46200 0.82600 42.39900
C  -3.81000 -1.34200 44.42600
O  -4.68700 -0.60100 43.99400
C  -4.30000 -2.33600 45.36200
N  1.32800 -3.81900 45.50500
C  -0.07500 -4.03100 45.68500
C  -0.34400 -5.39200 46.28000
C  1.07600 -5.69900 46.87900
C  2.01200 -4.77000 46.14600
C  -1.54900 -5.66100 47.11400
C  1.25800 -7.25100 46.79300
C  0.97100 -8.07900 48.09000
N  3.94800 -2.86400 45.17700
C  4.39200 -3.94300 45.86800
C  5.90300 -3.88700 46.00600
C  6.16100 -2.74600 45.30500
C  5.03800 -2.20500 44.75300
C  6.79400 -4.76400 46.82500
C  7.29200 -1.90500 44.96200
O  8.46900 -1.99300 45.20600
C  6.74000 -0.70300 44.19100
C  6.92000 0.60200 44.94600
O  6.29400 0.95300 45.93300
O  7.89500 1.39700 44.42200
C  8.19500 2.69100 45.05900
H  0.43500 1.31100 42.11400
H  -2.14700 -3.51600 45.22500
H  3.86600 -5.72600 46.79200
H  5.00000 1.77600 42.82200
H  2.88100 1.22700 40.92900
H  3.52800 3.40100 41.79700
H  3.15200 3.00800 43.44400
H  1.81500 3.18600 42.34700
H  4.86500 0.49500 40.30200
H  5.67900 -0.74000 41.30000
H  7.49600 0.66600 41.56400
H  6.63000 2.17300 41.27800
H  -1.90500 1.50000 41.74800
H  -3.01200 1.57400 42.97100
H  -3.20000 0.31100 41.78400
H  -4.27900 -3.31700 44.88700
H  -5.30200 -2.06900 45.69900
H  -3.76500 -2.48500 46.30000
H  -0.57300 -6.06900 45.45600
H  1.06800 -5.48600 47.94800
H  -2.12600 -6.43200 46.60300
H  -2.14900 -4.77500 47.31900
H  -1.33700 -6.06200 48.10500
H  2.29400 -7.41200 46.49500
H  0.59900 -7.74900 46.08200
H  0.13800 -8.75000 47.87700
H  0.76600 -7.45400 48.95900
H  1.87000 -8.61500 48.39300
H  7.15200 -5.67100 46.33600
H  6.20200 -5.08800 47.68100
H  7.62600 -4.15800 47.18200
H  7.20900 -0.72400 43.20800
H  7.42900 3.34700 44.64700
H  9.18500 2.96900 44.69900
H  8.20100 2.72200 46.14900
Mg 49.89300 35.30100 28.52500
C  47.91000 34.06600 31.10100
C  50.03200 38.41200 30.35100
C  51.55400 36.79900 26.00100
C  49.19800 32.57600 26.63200
N  49.02400 36.17300 30.47000
C  48.46400 35.35400 31.37700
C  48.61600 35.92100 32.81900
C  49.01300 37.37400 32.59200
C  49.39700 37.32200 31.01700
C  48.06400 38.55200 32.95900
C  49.76800 35.12200 33.57600
C  49.79500 35.48300 35.09100
H  48.84400 36.39300 35.87400
N  50.64600 37.34600 28.29800
C  50.57300 38.42900 29.08300
C  51.17900 39.53900 28.42800
C  51.76400 39.07900 27.25100
C  51.37900 37.68200 27.15400
C  51.07000 40.95700 28.96600
C  52.63400 39.81100 26.23200
O  52.83500 39.33900 25.11300
C  53.20400 41.10900 26.67800
N  50.30300 34.84600 26.56800
C  51.04300 35.54100 25.68600
C  51.39200 34.68600 24.43700
C  50.81200 33.30100 24.81700
C  49.99200 33.58900 26.05600
C  50.98600 35.22600 23.08000
C  51.88200 32.12000 25.05400
C  51.57400 30.88100 24.22700
N  48.84000 33.62400 28.73800
C  48.62600 32.60100 27.94400
C  47.95700 31.52600 28.60500
C  47.61100 32.02800 29.83500
C  48.14700 33.34500 29.86200
C  47.63700 30.19100 27.99100
C  46.96400 31.80800 31.11300
O  46.28800 30.85000 31.41300
C  47.03900 33.07100 31.94800
C  47.17600 32.84800 33.46300
O  47.89600 32.09400 34.12300
O  46.11100 33.52500 34.06200
C  45.74200 33.12300 35.38600
H  50.21400 39.35300 30.87500
H  52.13900 37.02800 25.10800
H  49.09400 31.67500 26.02300
H  47.62600 35.91000 33.27400
H  49.97600 37.64400 33.02400
H  47.57300 38.15900 33.84900
H  47.33400 38.86100 32.21100
H  48.67900 39.40100 33.25800
H  50.70200 35.45800 33.12600
H  49.68900 34.03800 33.65500
H  50.77800 35.88100 35.34300
H  49.70000 34.55500 35.65500
H  50.51400 41.08100 29.89500
H  50.64700 41.62300 28.21300
H  52.08200 41.26200 29.23100
H  52.52900 41.91000 26.38000
H  54.12200 41.26300 26.11000
H  53.53000 41.05400 27.71700
H  52.46700 34.52100 24.50900
H  50.04200 33.08000 24.07900
H  51.93400 35.53100 22.63700
H  50.32900 36.09100 23.17200
H  50.51100 34.42800 22.51000
H  51.91600 31.99300 26.13600
H  52.87600 32.50900 24.83300
H  50.91100 30.22400 24.79100
H  52.49500 30.39800 23.90000
H  51.06200 30.92900 23.26600
H  47.06900 30.29300 27.06600
H  46.98700 29.65000 28.67800
H  48.57800 29.68500 27.77600
H  46.02800 33.45600 31.81700
H  44.86100 33.70400 35.65700
H  46.44900 33.45200 36.14800
H  45.53300 32.05400 35.34900

