158

Mg 0.68000 7.43600 26.84500
C  0.84400 9.75600 29.33300
C  0.57500 4.95800 29.22600
C  -0.12800 5.20600 24.39400
C  1.03200 9.83600 24.45200
N  0.73100 7.36200 29.01700
C  0.72800 8.46900 29.83500
C  0.57900 8.05600 31.30400
C  0.80600 6.44500 31.31100
C  0.74900 6.24800 29.73800
C  2.11900 5.96400 31.92600
C  -0.83400 8.39200 31.83900
C  -0.96700 8.48200 33.37500
H  0.29300 7.99500 34.22700
N  0.27300 5.36800 26.82300
C  0.37300 4.49200 27.92200
C  0.04500 3.17700 27.50300
C  -0.32500 3.24400 26.07900
C  -0.12600 4.64700 25.70500
C  0.06900 1.99100 28.46700
C  -0.89500 2.18300 25.11800
O  -1.20700 2.40300 23.97500
C  -1.07200 0.80500 25.59500
N  0.34600 7.62400 24.64900
C  0.02500 6.54600 23.92500
C  0.16000 6.88200 22.46100
C  0.64300 8.40000 22.40400
C  0.73500 8.64200 23.89800
C  0.91800 5.90900 21.57400
C  -0.34200 9.31500 21.64300
C  -1.56500 10.05000 22.30600
N  1.09900 9.31700 26.85500
C  1.17800 10.22100 25.81200
C  1.32700 11.50000 26.30100
C  1.29200 11.42200 27.70200
C  1.09900 10.08600 27.97600
C  1.41300 12.86600 25.48400
C  1.41700 12.12500 28.92700
O  1.59100 13.31400 29.14700
C  1.12900 11.11600 30.07700
C  2.31000 10.98500 30.91400
O  3.28900 10.27100 30.57100
O  2.12500 11.61900 32.16600
C  3.35600 11.54300 33.03000
H  0.53800 4.08300 29.87700
H  -0.45600 4.65200 23.51200
H  1.24900 10.62900 23.73300
H  1.44100 8.45900 31.83600
H  -0.03300 5.99400 31.84200
H  2.34700 6.34700 32.92100
H  2.90500 6.22200 31.21600
H  2.06100 4.87500 31.94800
H  -1.44800 7.59300 31.42300
H  -1.14000 9.31500 31.34600
H  -1.80600 7.86100 33.68700
H  -1.21000 9.50500 33.66500
H  -0.65100 2.16700 29.26600
H  1.05500 1.95400 28.92900
H  -0.16100 1.13100 27.83700
H  -1.78500 0.87600 26.41700
H  -0.09400 0.38100 25.82100
H  -1.40200 0.05600 24.87600
H  -0.83000 6.79000 22.01500
H  1.68100 8.47700 22.08200
H  1.71300 5.39700 22.11700
H  1.37200 6.24100 20.64100
H  0.22900 5.10800 21.30500
H  -0.71300 8.79300 20.76100
H  0.25900 10.09300 21.17200
H  -1.64600 9.57900 23.28500
H  -2.46200 9.84200 21.72400
H  -1.48600 11.13400 22.38500
H  1.20400 13.70600 26.14600
H  0.75400 12.73300 24.62500
H  2.41900 13.02400 25.09400
H  0.22400 11.50500 30.54300
H  3.87700 12.47500 32.81000
H  4.03800 10.74000 32.75200
H  3.27200 11.49100 34.11600
Mg 53.58400 25.51300 44.03800
C  50.74800 27.46500 43.93800
C  51.72200 22.87000 42.80200
C  56.42700 23.76100 43.84000
C  55.44800 28.42000 45.08300
N  51.56300 25.25700 43.43600
C  50.59800 26.21800 43.35100
C  49.23200 25.72100 42.78500
C  49.43600 24.19800 42.94600
C  51.02000 24.05000 43.14200
C  48.51500 23.44700 43.99700
C  48.97200 26.22700 41.26200
C  50.15600 26.29600 40.30000
H  50.10100 25.51500 38.93600
N  53.99500 23.58400 43.40500
C  53.13700 22.67400 42.86900
C  53.84400 21.49600 42.47900
C  55.21700 21.74900 42.86600
C  55.29900 23.07700 43.37000
C  53.16400 20.31300 41.96700
C  56.16000 20.62600 42.81700
O  55.81400 19.47500 42.52500
C  57.52600 20.74900 43.48800
N  55.70600 26.09900 44.13700
C  56.65600 25.12500 44.24300
C  57.97100 25.67000 44.87000
C  57.68000 27.20300 45.08200
C  56.20100 27.25200 44.73500
C  58.35800 25.00200 46.25000
C  58.45100 28.15300 44.15700
C  58.33100 27.89800 42.61200
N  53.18800 27.48400 44.50500
C  54.00800 28.56400 45.00000
C  53.20400 29.62300 45.42800
C  51.95900 29.28400 44.92200
C  51.95000 27.98300 44.42000
C  53.59700 30.90100 46.17900
C  50.58800 29.78400 44.82300
O  50.07300 30.81800 45.18900
C  49.77300 28.66200 44.08500
C  49.50700 29.12800 42.69200
O  50.33400 29.32500 41.79800
O  48.21700 29.39900 42.56400
C  47.67800 29.95300 41.36000
H  51.14700 22.02000 42.42800
H  57.34100 23.18200 43.98800
H  55.98800 29.26200 45.52200
H  48.35400 26.06800 43.33000
H  49.17800 23.70300 42.01000
H  49.03300 22.76000 44.66600
H  47.79100 22.89600 43.39700
H  48.01600 24.26000 44.52400
H  48.51900 27.21900 41.27900
H  48.19700 25.64100 40.76900
H  51.04100 25.84700 40.75100
H  50.46700 27.30800 40.03900
H  53.61700 19.89900 41.06700
H  52.10400 20.47400 41.77600
H  53.25700 19.49500 42.68100
H  57.91100 19.73500 43.38400
H  57.55800 21.02800 44.54100
H  58.10300 21.42900 42.86100
H  58.82500 25.62300 44.19400
H  57.68300 27.56300 46.11000
H  59.01900 24.16600 46.02300
H  57.44500 24.56300 46.65400
H  58.81200 25.65000 46.99900
H  59.49800 28.04800 44.44300
H  58.00300 29.14100 44.26900
H  59.28400 27.58700 42.18300
H  58.05500 28.84800 42.15400
H  57.59700 27.17200 42.26100
H  54.46500 30.86100 46.83600
H  52.79300 31.34400 46.76800
H  53.90500 31.66800 45.46800
H  48.80800 28.40700 44.52500
H  46.59800 30.05900 41.46900
H  47.85200 29.44500 40.41100
H  47.99900 30.99100 41.27900

