158

Mg 47.74900 24.55400 29.34900
C  48.54100 27.01600 31.72800
C  46.52100 22.60700 31.87300
C  47.28100 22.03800 27.03600
C  49.63000 26.36000 26.97100
N  47.48400 24.85100 31.48200
C  47.84100 25.98300 32.29700
C  47.28500 25.79300 33.71400
C  46.94800 24.28200 33.77500
C  46.97400 23.87400 32.27900
C  47.72900 23.39400 34.72300
C  46.18100 26.80800 34.13600
C  46.00300 27.17500 35.59200
H  46.82800 26.61400 36.74700
N  46.91800 22.64000 29.46900
C  46.45700 22.05900 30.63400
C  45.84300 20.79000 30.25500
C  46.10600 20.59200 28.83400
C  46.85200 21.78200 28.38600
C  45.25700 19.95600 31.28800
C  45.82400 19.36100 28.03900
O  46.23500 19.17300 26.91300
C  44.96700 18.28500 28.53500
N  48.60400 24.11600 27.31300
C  48.10000 23.09600 26.59000
C  48.60100 23.17800 25.12300
C  49.26700 24.61300 25.08700
C  49.16800 25.06400 26.51700
C  49.58000 21.95900 24.80400
C  48.54100 25.62100 24.04500
C  47.30600 26.25900 24.58600
N  48.85100 26.27400 29.31600
C  49.55100 26.88500 28.26700
C  50.08900 28.23200 28.74100
C  49.66700 28.29600 30.09100
C  48.90200 27.08700 30.36900
C  50.85100 29.23400 27.87100
C  49.65000 29.19700 31.21600
O  49.96100 30.36600 31.32400
C  48.98300 28.33700 32.43000
C  49.97200 28.14600 33.54800
O  51.09300 27.71100 33.26600
O  49.58200 28.80300 34.69000
C  50.62100 29.02900 35.69600
H  45.98100 22.06400 32.65100
H  47.05000 21.21500 26.35700
H  50.00600 27.00400 26.17300
H  48.17100 25.89900 34.34000
H  45.89000 24.17100 34.01000
H  48.19500 22.67100 34.05400
H  47.00600 22.87500 35.35100
H  48.48100 23.87400 35.34900
H  45.26100 26.24800 33.96900
H  46.22200 27.68400 33.48800
H  44.97200 26.91300 35.82600
H  46.05800 28.25500 35.46000
H  44.36000 19.42500 30.96900
H  45.02500 20.41400 32.25000
H  45.97200 19.15600 31.47700
H  44.08600 18.65900 29.05600
H  45.64200 17.65600 29.11600
H  44.71500 17.58800 27.73600
H  47.65000 23.01600 24.61700
H  50.31000 24.57500 24.77300
H  50.56100 22.34100 25.09000
H  49.58200 21.69700 23.74600
H  49.38200 21.08500 25.42400
H  48.32300 25.03600 23.15100
H  49.28700 26.39200 23.85500
H  47.62400 27.22900 24.96700
H  46.91100 25.87600 25.52700
H  46.54100 26.28900 23.81100
H  51.71300 29.40500 28.51600
H  50.21500 30.11900 27.90600
H  51.24900 29.03100 26.87700
H  48.15500 28.90300 32.85600
H  51.61500 28.85700 35.28300
H  50.42400 28.48600 36.62000
H  50.56400 30.06600 36.02700
Mg -6.43900 26.04700 25.68700
C  -4.80700 27.33000 28.44600
C  -8.00600 23.80600 27.84300
C  -7.19100 24.08800 23.00300
C  -4.54900 28.18800 23.55600
N  -6.24400 25.48100 27.87100
C  -5.58700 26.28800 28.76600
C  -6.12800 25.91800 30.21500
C  -6.91800 24.64200 29.94700
C  -7.11500 24.64400 28.47900
C  -6.41000 23.30900 30.59000
C  -6.99100 27.00100 30.95900
C  -7.08300 27.07800 32.52900
H  -6.34400 26.07300 33.43200
N  -7.62700 24.30900 25.35400
C  -8.23100 23.61100 26.38600
C  -9.01600 22.57800 25.84900
C  -8.73400 22.56200 24.42800
C  -7.81000 23.68300 24.16500
C  -9.89900 21.72700 26.70300
C  -9.16300 21.53500 23.35700
O  -8.66900 21.54600 22.22200
C  -10.20300 20.57400 23.68500
N  -5.83500 26.03800 23.62100
C  -6.32500 25.15200 22.72600
C  -6.07900 25.64200 21.27800
C  -5.33000 27.03200 21.40300
C  -5.25000 27.13300 22.96500
C  -5.30800 24.64800 20.41500
C  -6.06100 28.31600 20.70000
C  -7.00200 29.16100 21.59000
N  -5.05400 27.57900 25.94800
C  -4.38600 28.37600 24.97800
C  -3.48200 29.22700 25.68100
C  -3.58200 28.87300 27.03300
C  -4.54300 27.83600 27.12900
C  -2.61700 30.30800 25.14300
C  -3.09400 29.13200 28.41700
O  -2.33300 30.05600 28.82500
C  -3.92700 28.18500 29.35700
C  -2.92700 27.46500 30.24800
O  -2.44900 26.37800 29.99000
O  -2.85900 28.16900 31.34500
C  -2.49300 27.35000 32.51400
H  -8.48800 23.08500 28.50800
H  -7.54000 23.59400 22.09400
H  -4.05500 28.89100 22.88100
H  -5.29800 25.68700 30.88200
H  -7.87400 24.65100 30.47100
H  -6.34400 22.59900 29.76600
H  -7.10500 23.02900 31.38200
H  -5.43300 23.53000 31.02000
H  -8.04000 26.87300 30.69400
H  -6.83400 27.96700 30.47800
H  -8.12200 26.87500 32.79200
H  -6.94100 28.08300 32.92800
H  -9.58200 20.68600 26.63600
H  -10.93000 21.92300 26.40800
H  -10.04200 21.98700 27.75100
H  -10.55000 19.90800 22.89600
H  -11.10600 21.05100 24.06700
H  -9.73800 19.81000 24.30900
H  -7.09100 25.82100 20.91300
H  -4.34000 26.94400 20.95500
H  -5.79000 24.68500 19.43800
H  -5.46500 23.67300 20.87600
H  -4.22800 24.78500 20.47000
H  -6.69000 27.94000 19.89200
H  -5.32000 28.97500 20.24800
H  -6.58900 30.16600 21.67500
H  -7.28700 28.69100 22.53100
H  -7.93400 29.24200 21.03100
H  -1.64400 30.45000 25.61400
H  -3.18200 31.23500 25.23900
H  -2.53700 30.25600 24.05700
H  -4.59000 28.87300 29.88100
H  -2.79400 27.86600 33.42600
H  -1.40300 27.36700 32.53800
H  -3.00700 26.38800 32.50500

