158

Mg 0.19200 7.98600 26.65800
C  0.74000 10.17900 29.32400
C  0.28600 5.31700 28.96800
C  -0.20200 5.83000 24.10800
C  0.45200 10.61400 24.41300
N  0.53000 7.81300 28.89600
C  0.62800 8.85200 29.78000
C  0.78800 8.35700 31.21500
C  0.67300 6.79300 30.99000
C  0.48900 6.61800 29.51900
C  1.79800 5.86100 31.62000
C  -0.34400 8.90400 32.09500
C  0.01400 9.26200 33.54700
H  -0.69900 8.45300 34.61800
N  0.16900 5.83300 26.52000
C  0.14700 4.93300 27.58500
C  -0.01600 3.56300 27.09000
C  -0.25300 3.67900 25.70900
C  -0.13500 5.13900 25.33900
C  -0.15400 2.36900 27.89900
C  -0.68900 2.58800 24.66800
O  -1.24700 2.90000 23.59800
C  -0.58800 1.09200 25.04400
N  0.13000 8.17700 24.60900
C  -0.00300 7.18700 23.76700
C  -0.12700 7.71000 22.27000
C  -0.17700 9.22500 22.43800
C  0.04400 9.39100 23.93700
C  0.96300 7.22600 21.27800
C  -1.59300 9.87300 22.02400
C  -1.56400 11.17100 21.14300
N  0.52400 9.96800 26.80200
C  0.73200 10.89800 25.79900
C  1.18900 12.19100 26.41600
C  1.11100 11.89800 27.75200
C  0.71900 10.56500 27.98400
C  1.60600 13.44300 25.77000
C  1.29800 12.57600 29.01900
O  1.63100 13.74800 29.30800
C  1.11500 11.43600 30.14000
C  2.37100 11.25300 30.96400
O  3.50700 10.96400 30.54300
O  2.12800 11.56100 32.23000
C  3.27000 11.44200 33.21600
H  0.31800 4.51400 29.70800
H  -0.40200 5.13700 23.28700
H  0.58800 11.45500 23.72900
H  1.78000 8.66400 31.54900
H  -0.30100 6.47000 31.36000
H  1.28300 5.09700 32.20300
H  2.50500 6.32900 32.30400
H  2.31300 5.44600 30.75400
H  -1.21200 8.24500 32.11500
H  -0.69700 9.85000 31.68400
H  -0.19300 10.31800 33.72100
H  1.07800 9.09400 33.71500
H  -1.20200 2.22000 28.15800
H  0.37700 2.59800 28.82300
H  0.35500 1.47700 27.53300
H  0.28800 0.78700 25.61600
H  -0.66000 0.53900 24.10700
H  -1.51900 0.89400 25.57500
H  -1.10800 7.39000 21.91800
H  0.61400 9.72100 21.87600
H  1.25800 8.00700 20.57700
H  0.49600 6.39600 20.74800
H  1.79800 6.84900 21.86800
H  -2.13800 10.10000 22.94100
H  -2.22200 9.17900 21.46700
H  -0.57400 11.58700 20.95600
H  -2.05500 12.01800 21.62400
H  -2.09200 10.98300 20.20800
H  2.22700 13.11000 24.93900
H  2.19600 14.10900 26.39900
H  0.72600 14.00500 25.45500
H  0.31600 11.81800 30.77500
H  2.94800 11.46600 34.25700
H  3.95600 12.28300 33.11800
H  3.82100 10.51100 33.07800
Mg 6.61800 53.26000 41.21900
C  5.81800 49.75200 40.69300
C  9.57300 52.66800 39.72900
C  6.97800 56.68600 41.13200
C  3.36200 53.65700 42.38000
N  7.42600 51.48400 40.01900
C  7.04100 50.16200 40.09000
C  8.16000 49.19100 39.50800
C  9.37200 50.18300 39.37900
C  8.71700 51.53400 39.61200
C  10.44100 49.77500 40.38600
C  7.73100 48.56400 38.09700
C  6.85600 49.42200 37.14600
H  6.48900 48.73000 35.78400
N  8.08700 54.53600 40.52100
C  9.29400 54.03600 39.96200
C  10.10900 55.21100 39.76600
C  9.34600 56.41800 40.04200
C  8.02400 55.96000 40.53500
C  11.49800 55.15400 39.21900
C  9.86100 57.82900 40.00200
O  10.97700 58.03500 39.57700
C  9.09800 59.03400 40.41100
N  5.35300 54.92500 41.56900
C  5.68700 56.23300 41.55800
C  4.58000 57.19000 41.99300
C  3.46100 56.22500 42.39000
C  4.07700 54.83200 42.07900
C  5.05100 58.15800 43.09600
C  2.12100 56.38400 41.59900
C  0.82900 56.44800 42.41800
N  4.87500 51.94400 41.59200
C  3.66300 52.28200 42.17200
C  2.88000 51.08000 42.32300
C  3.72800 49.99800 41.81100
C  4.87100 50.63100 41.32600
C  1.44900 50.86600 42.72300
C  3.83400 48.51200 41.65500
O  3.06300 47.57200 41.94400
C  5.19500 48.29600 40.90200
C  5.03700 47.62100 39.61800
O  4.24900 47.94300 38.77900
O  5.67800 46.31100 39.65200
C  5.28600 45.31500 38.64900
H  10.57900 52.54000 39.32400
H  6.96700 57.76400 40.95800
H  2.35800 53.83700 42.76800
H  8.20700 48.34300 40.19100
H  9.86300 50.09800 38.40900
H  10.23400 48.97800 41.10000
H  10.77600 50.65700 40.93200
H  11.29800 49.47200 39.78300
H  7.27300 47.58800 38.25800
H  8.53800 48.46900 37.37000
H  7.45100 50.30900 36.93000
H  5.92500 49.64700 37.66500
H  11.90000 54.14100 39.22700
H  12.18300 55.70700 39.86200
H  11.57600 55.54200 38.20400
H  9.76400 59.89700 40.42500
H  8.85100 58.82300 41.45200
H  8.28600 59.22000 39.70900
H  4.39500 57.75100 41.07700
H  3.27800 56.34700 43.45800
H  5.21400 59.09700 42.56700
H  5.97000 57.69500 43.45700
H  4.34000 58.33100 43.90400
H  2.01700 55.61600 40.83200
H  2.18300 57.31200 41.03000
H  0.05900 55.83800 41.94600
H  0.33700 57.41900 42.37400
H  0.98600 55.98500 43.39200
H  1.31100 51.49500 43.60200
H  1.23000 49.83700 43.00900
H  0.75500 51.23400 41.96700
H  5.76000 47.64900 41.57300
H  5.65400 45.72700 37.70900
H  4.20400 45.21900 38.74300
H  5.88800 44.42500 38.83100

