158

Mg 42.10800 41.29000 26.58700
C  41.54800 43.51700 29.12400
C  42.98600 38.99600 29.09500
C  42.35800 38.99100 24.27600
C  41.28200 43.68800 24.25500
N  42.37200 41.35300 28.90100
C  41.91900 42.31700 29.69500
C  42.02300 41.88900 31.12500
C  42.91600 40.59400 31.09900
C  42.73300 40.23500 29.58000
C  44.41300 40.76400 31.47700
C  40.57000 41.70100 31.81900
C  40.20500 42.64000 32.98300
H  39.82100 41.99800 34.28400
N  42.77100 39.32400 26.67800
C  43.07100 38.55300 27.77300
C  43.51900 37.26000 27.34800
C  43.22000 37.22100 25.90000
C  42.73900 38.54600 25.57600
C  44.03700 36.16200 28.29500
C  43.41400 36.07300 24.93400
O  43.30900 36.13900 23.72500
C  43.81700 34.74400 25.32800
N  42.07900 41.34800 24.45500
C  42.00900 40.26700 23.75100
C  41.67300 40.51900 22.35300
C  41.22500 41.98800 22.38900
C  41.50600 42.36700 23.79600
C  42.91600 40.19800 21.35300
C  39.73100 42.30400 21.88400
C  39.60600 43.07500 20.54400
N  41.72100 43.26800 26.60800
C  41.34500 44.16300 25.62500
C  40.74800 45.29600 26.21600
C  40.90100 45.13600 27.54300
C  41.48200 43.92700 27.77000
C  40.32100 46.54900 25.46200
C  40.65300 45.85100 28.77600
O  40.35600 47.00400 29.01600
C  41.11500 44.80400 29.86200
C  42.19300 45.30700 30.79200
O  43.36800 45.28600 30.56900
O  41.64400 45.70000 31.95100
C  42.47900 46.51900 32.80200
H  43.06900 38.21100 29.84900
H  42.41100 38.26400 23.46200
H  40.83900 44.43600 23.59500
H  42.56300 42.72800 31.56400
H  42.53100 39.85900 31.80500
H  44.76200 41.79600 31.42700
H  44.99600 40.15600 30.78600
H  44.43500 40.43700 32.51700
H  40.44200 40.69400 32.21800
H  39.78900 41.80400 31.06600
H  39.31100 43.19300 32.69600
H  40.99400 43.32200 33.29900
H  45.01500 35.78200 28.00000
H  43.36400 35.30600 28.33000
H  44.07100 36.52800 29.32200
H  44.64600 34.73000 26.03500
H  44.02500 33.94300 24.61900
H  42.91700 34.44200 25.86300
H  40.80500 39.92300 22.07100
H  42.00400 42.59000 21.92100
H  43.81500 40.15600 21.96900
H  43.04200 41.05800 20.69600
H  42.89500 39.26900 20.78300
H  39.21300 42.71200 22.75200
H  39.27100 41.36000 21.59400
H  38.93000 43.90300 20.75700
H  39.08400 42.51000 19.77100
H  40.61300 43.37100 20.25300
H  40.74100 46.60700 24.45800
H  40.65600 47.45900 25.96000
H  39.24200 46.57400 25.30800
H  40.32300 44.44000 30.51700
H  42.86900 47.30600 32.15700
H  43.23100 45.94600 33.34400
H  41.76700 47.00200 33.47200
Mg -4.85300 25.54600 26.57800
C  -3.75300 26.96200 29.57400
C  -6.64700 23.20600 28.45300
C  -5.26600 23.74100 23.84700
C  -2.72600 27.72900 24.78800
N  -4.99500 24.98600 28.73200
C  -4.55900 25.82800 29.84200
C  -5.13200 25.32000 31.13800
C  -5.72800 23.92900 30.76600
C  -5.83200 24.03000 29.22600
C  -4.89400 22.80800 31.30100
C  -6.16400 26.34200 31.80800
C  -6.50000 26.15500 33.31300
H  -5.96900 25.04400 34.29100
N  -5.97000 23.87800 26.17000
C  -6.66200 23.11300 27.07100
C  -7.53100 22.23200 26.32600
C  -7.11800 22.24700 24.96200
C  -6.06800 23.28500 24.94100
C  -8.69400 21.51500 26.89500
C  -7.70400 21.56900 23.75200
O  -7.11800 21.58200 22.67900
C  -9.01700 20.85600 23.80800
N  -4.24000 25.76900 24.55900
C  -4.49000 24.83500 23.60800
C  -3.84400 25.17800 22.25000
C  -3.22600 26.56100 22.59200
C  -3.47900 26.74700 24.07100
C  -2.86500 24.04800 21.86300
C  -3.68400 27.71700 21.69100
C  -3.04000 28.07400 20.35400
N  -3.49000 27.07400 27.01200
C  -2.62500 27.81400 26.17800
C  -1.91700 28.69300 27.04000
C  -2.32800 28.42600 28.36400
C  -3.30400 27.38500 28.28800
C  -0.81200 29.65100 26.57300
C  -2.19900 28.77800 29.78300
O  -1.55900 29.66300 30.30700
C  -3.11900 27.91900 30.60900
C  -2.37000 27.17400 31.64400
O  -1.63100 26.22700 31.44100
O  -2.74700 27.52500 32.86700
C  -2.27100 26.77600 33.98000
H  -7.18000 22.48000 29.07000
H  -5.46400 23.25400 22.89000
H  -2.03700 28.33800 24.20000
H  -4.33800 25.19000 31.87300
H  -6.71800 23.89900 31.22000
H  -4.05200 23.20800 31.86500
H  -4.46000 22.18800 30.51700
H  -5.48200 22.20300 31.99200
H  -7.08900 26.48600 31.25100
H  -5.65700 27.30100 31.70300
H  -7.58600 26.09800 33.38800
H  -6.23100 27.10800 33.76700
H  -9.46000 21.71600 26.14600
H  -8.98600 21.98600 27.83300
H  -8.58000 20.44100 27.04300
H  -9.78700 21.59200 24.04000
H  -8.91300 20.00200 24.47600
H  -9.35900 20.43900 22.86100
H  -4.54500 25.34300 21.43100
H  -2.14400 26.43900 22.54200
H  -3.00700 23.95100 20.78700
H  -3.12100 23.09700 22.32900
H  -1.80800 24.29500 21.96500
H  -3.52300 28.65000 22.23200
H  -4.75700 27.66200 21.50900
H  -2.26100 27.35200 20.10900
H  -2.85500 29.14300 20.24900
H  -3.72200 27.89100 19.52400
H  -0.65500 29.51400 25.50300
H  0.01800 29.39800 27.23300
H  -1.23800 30.62100 26.82800
H  -3.88600 28.57700 31.01600
H  -1.89100 27.41300 34.77900
H  -1.48200 26.10800 33.63300
H  -3.10500 26.21800 34.40500

