158

Mg 36.46400 48.83300 24.41600
C  36.38400 47.00900 27.36100
C  35.44600 51.54500 26.32000
C  35.82400 50.37200 21.46300
C  37.76100 46.12400 22.72800
N  35.82300 49.19200 26.63500
C  36.02100 48.31300 27.65600
C  36.02100 48.96800 29.03200
C  35.51400 50.41300 28.64900
C  35.65600 50.39800 27.11700
C  34.10600 50.69900 29.14500
C  37.45900 49.07800 29.76300
C  37.50700 48.83900 31.31800
H  36.07700 48.78000 32.00400
N  35.80900 50.68000 23.97200
C  35.37200 51.62700 24.87000
C  35.01300 52.81900 24.05400
C  34.96600 52.48600 22.65700
C  35.51800 51.10300 22.65600
C  34.70500 54.16600 24.65800
C  34.71100 53.34600 21.36200
O  34.69100 52.89600 20.20200
C  34.36500 54.83200 21.49100
N  36.74100 48.35100 22.34100
C  36.41200 49.13700 21.26500
C  36.86200 48.48100 19.89900
C  37.72000 47.19800 20.35600
C  37.42900 47.20600 21.90100
C  35.63500 48.16000 18.99100
C  39.31200 47.54000 20.20800
C  40.25800 46.39700 19.77600
N  36.90600 46.93300 24.88200
C  37.40800 45.86800 24.04900
C  37.51100 44.71300 24.82500
C  37.14800 45.08100 26.15300
C  36.80800 46.45700 26.12200
C  38.19700 43.34700 24.37300
C  37.03100 44.61300 27.50200
O  37.24500 43.51500 28.03600
C  36.58300 45.95200 28.33800
C  35.34200 45.61700 29.03700
O  34.19900 45.76200 28.57000
O  35.55700 45.07800 30.27200
C  34.34300 44.76600 31.06300
H  35.25900 52.40300 26.96900
H  35.54000 50.75500 20.48100
H  38.20800 45.25800 22.23500
H  35.39900 48.22000 29.52500
H  36.22200 51.14100 29.04400
H  33.83500 49.89600 29.83100
H  33.28900 50.68400 28.42300
H  34.02200 51.69300 29.58400
H  37.91200 50.05400 29.58800
H  38.11400 48.38200 29.24000
H  38.07300 49.65300 31.77100
H  38.03900 47.90000 31.47100
H  33.79700 54.56800 24.20800
H  35.58500 54.79100 24.50900
H  34.46100 54.08000 25.71700
H  33.38300 54.84100 21.96300
H  34.29300 55.28700 20.50300
H  35.07200 55.41600 22.08200
H  37.41700 49.20300 19.30000
H  37.46500 46.27300 19.83900
H  35.94800 47.29200 18.41000
H  35.49900 48.95400 18.25700
H  34.70000 48.06200 19.54200
H  39.70000 47.81200 21.18900
H  39.47500 48.36900 19.51900
H  39.63800 45.53300 19.53500
H  40.89800 46.02600 20.57600
H  40.88000 46.64100 18.91600
H  38.98900 43.07300 25.07100
H  38.60500 43.58500 23.39100
H  37.58600 42.44400 24.36800
H  37.42700 46.21400 28.97500
H  34.53100 43.78000 31.48800
H  33.43100 44.61600 30.48500
H  34.14100 45.50600 31.83700
Mg 16.63500 51.96100 26.31100
C  18.80700 50.62200 28.70100
C  14.56400 52.89700 28.84600
C  14.52100 53.14800 23.90600
C  18.72900 50.87000 23.84400
N  16.68000 51.69100 28.49600
C  17.66900 51.08900 29.27300
C  17.36500 51.17000 30.82000
C  15.86400 51.72100 30.74000
C  15.63600 52.08500 29.26300
C  14.77900 50.74100 31.25200
C  18.32200 52.14000 31.65500
C  18.85100 51.74600 33.05300
H  17.96000 52.20900 34.25900
N  14.76600 52.80000 26.33800
C  14.06900 53.11100 27.52000
C  12.94000 53.96000 27.10300
C  12.85300 53.93100 25.69400
C  14.10500 53.28700 25.22800
C  11.96400 54.70500 28.20600
C  11.79000 54.53800 24.86300
O  11.73000 54.23900 23.66800
C  10.56400 55.26400 25.45100
N  16.63600 52.06500 24.21600
C  15.69500 52.58300 23.39500
C  15.95900 52.49100 21.89400
C  17.40000 51.90900 21.99500
C  17.63000 51.63700 23.46300
C  14.91700 51.52800 21.19900
C  18.50400 52.84900 21.33900
C  18.87800 54.19100 22.11700
N  18.39500 50.87800 26.23400
C  19.15100 50.50300 25.14300
C  20.29700 49.84000 25.58400
C  20.15600 49.74500 26.97800
C  19.03200 50.48200 27.37800
C  21.37500 49.21800 24.83300
C  20.83600 49.29200 28.21400
O  21.81000 48.72900 28.52300
C  19.91400 49.84200 29.39800
C  19.40600 48.59500 30.07800
O  18.56700 47.83400 29.59700
O  19.78600 48.61600 31.35600
C  19.15500 47.65100 32.20100
H  13.92800 53.21200 29.67600
H  13.92900 53.66400 23.14700
H  19.30800 50.56900 22.96900
H  17.27400 50.17900 31.26500
H  15.74400 52.64600 31.30400
H  13.81400 51.24700 31.28000
H  15.10800 50.45700 32.25200
H  14.60500 49.88000 30.60600
H  17.78300 53.07900 31.78000
H  19.19600 52.45300 31.08400
H  19.90000 52.04000 33.06700
H  18.68700 50.67000 33.00100
H  12.27900 55.74800 28.18700
H  12.31600 54.45100 29.20500
H  10.89500 54.50100 28.14300
H  10.95500 56.17500 25.90400
H  9.93200 54.63800 26.08100
H  9.89400 55.62700 24.67100
H  15.86300 53.49000 21.46700
H  17.42100 50.90900 21.56100
H  15.47600 50.62700 20.94500
H  14.54300 51.93600 20.26000
H  14.17900 51.38100 21.98700
H  18.03100 53.13100 20.39800
H  19.43800 52.29200 21.26500
H  18.37000 54.27000 23.07800
H  18.66400 55.02300 21.44700
H  19.93600 53.97700 22.26600
H  21.89500 50.00400 24.28600
H  20.89000 48.55000 24.12100
H  22.09200 48.67600 25.45000
H  20.44200 50.49400 30.09400
H  19.31800 46.63200 31.85000
H  18.11100 47.95700 32.26200
H  19.38100 47.83600 33.25100

