158

Mg 23.90800 -4.46900 46.21600
C  26.25600 -2.24900 44.65200
C  21.62500 -3.38400 43.97900
C  22.17900 -7.17800 46.84500
C  26.60800 -5.84500 48.01400
N  24.06000 -3.11700 44.38400
C  24.99700 -2.23800 44.03600
C  24.58800 -1.21000 43.05800
C  23.00600 -1.40900 42.98100
C  22.84800 -2.69400 43.91300
C  22.11500 -0.18100 43.39300
C  25.18500 -1.40000 41.56600
C  25.64900 -0.12900 40.80800
H  25.10200 0.08600 39.38300
N  22.12900 -5.17200 45.50100
C  21.30500 -4.57400 44.60300
C  20.07800 -5.33800 44.37900
C  20.20100 -6.41500 45.29700
C  21.55500 -6.34200 45.88100
C  19.01700 -4.97800 43.42800
C  19.05300 -7.38900 45.54100
O  17.93200 -7.21300 45.07900
C  19.26000 -8.63200 46.37500
N  24.30000 -6.31600 47.27200
C  23.45300 -7.23600 47.41100
C  23.86400 -8.29700 48.41300
C  25.27100 -7.84300 48.81500
C  25.43400 -6.56700 48.02100
C  22.84300 -8.54000 49.58700
C  26.45000 -8.93400 48.83900
C  27.07000 -9.38800 50.14200
N  25.95000 -4.08000 46.44200
C  26.84700 -4.71100 47.23100
C  28.09800 -3.94000 47.11700
C  27.93200 -2.94800 46.11500
C  26.64100 -3.19600 45.68500
C  29.33900 -4.22500 47.82600
C  28.60400 -1.87600 45.43800
O  29.77400 -1.50000 45.60900
C  27.57000 -1.42000 44.38300
C  27.47000 0.04100 44.46500
O  26.80000 0.68500 45.21700
O  28.16100 0.61400 43.41900
C  28.08000 2.11300 43.30600
H  20.80300 -2.91200 43.43600
H  21.52100 -7.96600 47.21700
H  27.37100 -6.19000 48.71400
H  24.84900 -0.22700 43.45000
H  22.67600 -1.74600 41.99800
H  21.26800 -0.24100 42.70900
H  22.70800 0.72000 43.24100
H  21.85300 -0.27700 44.44700
H  24.51700 -1.84300 40.82700
H  25.96300 -2.16400 41.57300
H  26.73600 -0.09600 40.87000
H  25.31300 0.68800 41.44700
H  18.45900 -5.84100 43.06500
H  19.47100 -4.49800 42.56100
H  18.39400 -4.25300 43.95200
H  18.96500 -8.44600 47.40800
H  20.23100 -9.12500 46.32000
H  18.57000 -9.40300 46.03300
H  23.88200 -9.26600 47.91400
H  25.11500 -7.46400 49.82500
H  22.35400 -9.50600 49.46200
H  22.14800 -7.71900 49.41500
H  23.28400 -8.38300 50.57200
H  27.29500 -8.50600 48.29800
H  26.03300 -9.82100 48.36200
H  27.44300 -10.40200 49.99500
H  26.44200 -9.16900 51.00600
H  28.00900 -8.91000 50.41900
H  29.34900 -5.30300 47.98700
H  29.40500 -3.62500 48.73300
H  30.27600 -4.03400 47.30100
H  28.02100 -1.76200 43.45100
H  27.03500 2.36800 43.13400
H  28.70300 2.51300 42.50600
H  28.31200 2.59400 44.25600
Mg 26.82000 50.48200 26.43200
C  24.76800 51.87200 28.87000
C  28.83800 49.37400 28.99700
C  28.72100 49.22600 24.08900
C  24.77300 52.17100 24.00000
N  26.84700 50.72600 28.67400
C  25.83500 51.24300 29.45300
C  26.01900 50.87400 30.96200
C  27.52300 50.26200 30.97800
C  27.74800 50.05900 29.44500
C  28.74500 50.95700 31.63500
C  24.95400 49.81200 31.53300
C  24.12900 50.26400 32.73900
H  23.99100 49.24000 33.87300
N  28.59700 49.50900 26.55000
C  29.26000 49.11500 27.65600
C  30.44900 48.40500 27.30100
C  30.50200 48.43800 25.89100
C  29.25200 49.09800 25.43500
C  31.43700 47.83800 28.38100
C  31.63200 48.01600 25.02100
O  31.69500 48.11200 23.79200
C  32.81500 47.20300 25.68300
N  26.71800 50.65200 24.33400
C  27.59700 49.96400 23.57500
C  27.34400 50.09100 22.06800
C  25.97800 50.92500 22.08300
C  25.83400 51.25300 23.54000
C  28.52500 50.70100 21.38500
C  24.77300 50.18200 21.40500
C  24.17000 48.86700 22.12500
N  25.08300 51.69200 26.42000
C  24.49600 52.32000 25.38300
C  23.30000 53.05600 25.88600
C  23.39200 52.82800 27.22900
C  24.52600 52.14100 27.53400
C  22.23000 53.75800 25.07000
C  22.62900 53.09200 28.44300
O  21.64700 53.80200 28.71100
C  23.42800 52.41800 29.56500
C  23.64900 53.30500 30.73400
O  24.45000 54.20800 30.79000
O  22.76000 53.05600 31.70600
C  22.75100 53.79800 32.95300
H  29.36900 48.86300 29.80300
H  29.31000 48.73700 23.31000
H  24.22400 52.57400 23.14600
H  25.86600 51.74500 31.59800
H  27.39000 49.24800 31.35700
H  29.47300 51.09400 30.83500
H  29.03400 50.26800 32.42800
H  28.54300 51.90000 32.14300
H  25.38700 48.82600 31.70000
H  24.16400 49.76300 30.78400
H  23.09200 50.54600 32.55500
H  24.54200 51.21500 33.07600
H  31.57100 46.76100 28.28000
H  31.16500 47.94800 29.43100
H  32.42500 48.28000 28.25500
H  33.42100 47.65800 26.46700
H  33.54400 46.89400 24.93300
H  32.48100 46.25700 26.10900
H  27.21600 49.09600 21.64100
H  26.11300 51.84200 21.50800
H  29.29300 50.97600 22.10700
H  28.34600 51.53300 20.70400
H  28.93600 49.94000 20.72100
H  25.12800 49.96700 20.39800
H  23.90900 50.79000 21.13700
H  23.13700 49.15600 22.32000
H  24.65300 48.67400 23.08300
H  24.11600 47.92200 21.58500
H  22.25700 53.36500 24.05400
H  22.33200 54.84400 25.07100
H  21.24400 53.55100 25.48400
H  22.89200 51.52700 29.89300
H  21.87100 53.52800 33.53800
H  22.67700 54.88400 32.89400
H  23.62500 53.63400 33.58400

