158

Mg 1.53700 -2.04800 44.31000
C  4.85300 -1.30700 43.88100
C  0.77100 0.83800 42.76400
C  -1.73200 -3.11600 44.30100
C  2.62600 -5.16900 45.60100
N  2.70000 -0.55000 43.44300
C  4.00000 -0.36400 43.41800
C  4.43400 0.91300 42.62100
C  3.06000 1.68600 42.58700
C  2.13600 0.58500 42.91900
C  2.87600 2.92500 43.49500
C  5.07900 0.55700 41.30500
C  6.31900 1.30000 40.89700
H  6.23200 2.18700 39.71100
N  -0.21200 -1.23700 43.75600
C  -0.28700 0.01800 43.12200
C  -1.68200 0.33400 42.89000
C  -2.43900 -0.82000 43.20100
C  -1.44000 -1.77800 43.78300
C  -2.10700 1.69100 42.42400
C  -3.99900 -1.04700 43.02000
O  -4.71100 -0.18000 42.55300
C  -4.80100 -2.30600 43.30900
N  0.60500 -3.90300 44.73800
C  -0.82600 -4.04200 44.69800
C  -1.21300 -5.46600 45.19100
C  0.18600 -6.09500 45.56900
C  1.19900 -4.92800 45.32300
C  -2.32900 -5.43600 46.27900
C  0.61600 -7.34800 44.64600
C  0.72700 -8.72600 45.32100
N  3.38300 -3.05800 44.73900
C  3.65700 -4.27700 45.27100
C  5.06600 -4.40100 45.58000
C  5.62800 -3.22500 45.03300
C  4.52900 -2.50900 44.50900
C  5.69700 -5.52200 46.40300
C  6.87900 -2.57500 44.73400
O  8.09800 -2.84800 44.99600
C  6.40300 -1.29600 43.94400
C  6.78400 -0.07700 44.74300
O  6.46400 0.18900 45.89700
O  7.57300 0.73600 43.99800
C  7.86900 2.03100 44.50600
H  0.49300 1.74200 42.21900
H  -2.74400 -3.48800 44.47000
H  2.79800 -6.03900 46.23800
H  5.08000 1.53600 43.24000
H  2.91200 2.01100 41.55700
H  2.16200 2.74400 44.29900
H  2.60100 3.71600 42.79700
H  3.86200 3.16300 43.89400
H  4.37700 0.51800 40.47200
H  5.40000 -0.46400 41.51100
H  7.12800 0.57500 40.98900
H  6.45400 2.03700 41.68700
H  -2.32400 1.60700 41.35900
H  -1.35700 2.44600 42.66100
H  -3.10500 1.97300 42.75900
H  -4.23600 -3.11600 42.84600
H  -5.76400 -2.21500 42.80800
H  -4.84300 -2.27900 44.39800
H  -1.57600 -5.97400 44.29800
H  0.25200 -6.40000 46.61400
H  -2.01300 -5.95800 47.18200
H  -3.17100 -5.98000 45.85000
H  -2.69700 -4.44000 46.52500
H  1.63300 -7.27500 44.26100
H  0.02100 -7.62800 43.77600
H  1.23800 -9.40700 44.64000
H  -0.29600 -9.05900 45.49500
H  1.30800 -8.61000 46.23600
H  5.22500 -6.35300 45.88000
H  5.31100 -5.56800 47.42100
H  6.76300 -5.51200 46.17700
H  6.75500 -1.25700 42.91300
H  8.18000 2.66600 43.67600
H  8.69100 2.05100 45.22200
H  7.00400 2.59600 44.85200
Mg 42.53700 41.79100 26.26200
C  41.35200 43.94400 28.70200
C  43.66000 39.81000 28.71500
C  43.63100 39.58600 23.81700
C  41.72200 44.07900 23.79000
N  42.27500 41.77400 28.50200
C  41.83300 42.79800 29.22700
C  41.88800 42.39300 30.68600
C  42.67600 41.03800 30.74200
C  42.90900 40.87600 29.25700
C  44.01300 41.04700 31.62900
C  40.45000 42.30200 31.21800
C  40.24000 41.59200 32.53600
H  39.69900 42.48000 33.71800
N  43.48200 40.00200 26.27300
C  43.93400 39.40800 27.42300
C  44.59400 38.12400 27.00300
C  44.50200 38.02700 25.60200
C  43.88100 39.25400 25.15700
C  45.12900 37.17400 28.08200
C  44.80600 36.84900 24.67500
O  44.94800 36.91500 23.46900
C  45.10600 35.54200 25.32800
N  42.68200 41.85300 24.06600
C  43.19700 40.81300 23.32500
C  42.96700 41.11500 21.83700
C  42.16800 42.47600 21.81100
C  42.13600 42.84200 23.28800
C  44.25000 41.12300 20.95200
C  40.75400 42.31100 21.17400
C  39.83500 41.13300 21.71400
N  41.75600 43.65800 26.17400
C  41.47400 44.44600 25.11100
C  41.04800 45.81800 25.56600
C  40.94200 45.57800 26.96200
C  41.36600 44.27400 27.30400
C  40.62700 46.92300 24.78800
C  40.57900 46.20400 28.26100
O  40.26300 47.36800 28.47300
C  40.87500 45.17500 29.41100
C  41.86000 45.80200 30.37700
O  42.99700 46.18100 30.10200
O  41.27100 45.96600 31.64700
C  42.00700 46.75400 32.61700
H  44.01100 39.17600 29.53100
H  43.85500 38.97900 22.93700
H  41.27600 44.83000 23.13400
H  42.40900 43.12800 31.30000
H  42.01700 40.21800 31.02600
H  43.97900 41.96100 32.22300
H  44.91600 40.94500 31.02600
H  44.10600 40.21900 32.33100
H  39.73200 41.92200 30.49200
H  40.14800 43.31400 31.48700
H  41.20900 41.21600 32.86300
H  39.47600 40.84800 32.31100
H  46.11400 36.80700 27.79600
H  44.44300 36.35200 28.28900
H  45.21400 37.71700 29.02400
H  45.02300 34.83400 24.50400
H  44.21500 35.29500 25.90500
H  46.02800 35.54700 25.90900
H  42.34300 40.27600 21.52700
H  42.73000 43.24400 21.28000
H  44.49000 42.05900 20.44800
H  44.27800 40.36100 20.17300
H  45.11800 40.89600 21.57200
H  40.99800 42.08000 20.13800
H  40.23500 43.26800 21.12700
H  39.67900 40.35000 20.97300
H  38.88800 41.62400 21.93900
H  40.19900 40.63600 22.61300
H  39.54300 46.85300 24.69600
H  41.13100 46.84100 23.82500
H  40.95400 47.87500 25.20500
H  39.92600 45.17000 29.94700
H  41.31300 47.10100 33.38200
H  42.52100 47.66700 32.31600
H  42.74500 46.08900 33.06600

