158

Mg 48.44400 34.58400 27.27800
C  46.19200 33.48800 29.79800
C  49.29100 37.28400 29.22500
C  49.76300 36.03400 24.57600
C  46.93000 32.12200 25.13600
N  47.79200 35.26300 29.30400
C  46.92500 34.67100 30.14500
C  46.97500 35.41000 31.49600
C  47.62900 36.79900 31.11100
C  48.35000 36.45300 29.86600
C  46.61400 37.95400 30.87300
C  47.83700 34.54000 32.52000
C  47.28700 34.37800 33.92600
H  48.22500 34.87900 35.04300
N  49.46100 36.31300 26.97900
C  49.74600 37.28400 27.86800
C  50.55900 38.22700 27.20900
C  50.75300 37.92500 25.85900
C  49.94700 36.71900 25.74500
C  51.07500 39.46600 27.91000
C  51.45400 38.65700 24.77400
O  51.54400 38.14500 23.66200
C  52.17800 40.01800 25.09900
N  48.30000 34.14300 25.24700
C  49.05600 34.87800 24.32900
C  48.76000 34.37700 22.87400
C  48.16300 33.00900 23.18600
C  47.76400 33.08000 24.60300
C  47.84200 35.38400 22.13800
C  49.06900 31.76500 22.86200
C  50.15700 31.35100 23.83500
N  47.08200 32.96000 27.46500
C  46.62200 32.02000 26.50400
C  45.74600 31.00400 27.15900
C  45.50600 31.62100 28.42400
C  46.35500 32.75900 28.51400
C  45.20400 29.75100 26.52100
C  44.70800 31.48200 29.54700
O  43.89300 30.59100 29.80000
C  45.12100 32.67300 30.52400
C  45.55300 32.01600 31.80900
O  46.50200 31.26600 32.06600
O  44.55100 32.21200 32.74600
C  44.75000 31.77400 34.17900
H  49.48500 38.18600 29.80900
H  50.17400 36.40200 23.63400
H  46.66100 31.27100 24.50700
H  45.99900 35.55600 31.95800
H  48.37500 37.21800 31.78700
H  46.76100 38.80600 31.53600
H  45.57300 37.65900 31.00100
H  46.59400 38.31700 29.84500
H  48.87600 34.86600 32.55800
H  48.04200 33.59100 32.02400
H  47.18100 33.33700 34.23300
H  46.28800 34.81200 33.98600
H  50.34500 40.21500 27.59900
H  52.10000 39.60900 27.56800
H  51.12700 39.27900 28.98200
H  51.41300 40.61900 25.58900
H  52.60000 40.45500 24.19400
H  53.01100 39.77400 25.75800
H  49.65300 34.21000 22.27100
H  47.29700 32.90200 22.53300
H  47.74900 36.36400 22.60600
H  46.87900 34.91000 21.95000
H  48.27700 35.51700 21.14700
H  49.50700 32.10600 21.92500
H  48.44800 30.90000 22.62600
H  49.78200 30.42700 24.27600
H  50.40200 32.00900 24.66800
H  51.14200 31.20100 23.39300
H  45.87600 28.94500 26.81600
H  45.19800 29.85900 25.43600
H  44.20200 29.68500 26.94600
H  44.30500 33.36600 30.72700
H  45.35900 30.87000 34.20600
H  43.70100 31.58800 34.40700
H  45.13500 32.60900 34.76400
Mg -11.87600 16.80000 42.99300
C  -8.32900 17.15900 42.79400
C  -11.99300 20.27600 42.19400
C  -15.13500 16.67000 42.56200
C  -11.54200 13.38100 42.87000
N  -10.34000 18.44800 42.31800
C  -8.90000 18.37200 42.39500
C  -8.22000 19.72900 42.21000
C  -9.45400 20.66700 42.45700
C  -10.68200 19.76700 42.32000
C  -9.45900 21.18100 43.94700
C  -7.48300 19.65400 40.83400
C  -5.92600 19.89900 40.94100
H  -5.13100 18.98600 39.95400
N  -13.38800 18.26900 42.51800
C  -13.22200 19.60200 42.32200
C  -14.47900 20.27100 42.06400
C  -15.46400 19.22100 42.21600
C  -14.73600 17.94900 42.45600
C  -14.74700 21.70900 41.55200
C  -17.04600 19.37400 42.00500
O  -17.56400 20.45000 41.84800
C  -17.98100 18.19600 41.98800
N  -13.13600 15.27700 42.67500
C  -14.47300 15.43900 42.62700
C  -15.23400 14.04700 42.62800
C  -14.06900 13.01600 42.67100
C  -12.85700 13.93200 42.76200
C  -16.27100 13.88100 43.78000
C  -14.09400 12.05600 41.50500
C  -14.74100 10.72000 41.74800
N  -10.29900 15.50400 43.00800
C  -10.30900 14.12300 42.91000
C  -8.93200 13.64100 42.95500
C  -8.14700 14.79900 42.99400
C  -9.05200 15.91700 42.95400
C  -8.47700 12.19300 42.98200
C  -6.74300 15.31200 42.98300
O  -5.67600 14.76000 43.08600
C  -6.85400 16.86100 43.05900
C  -6.36500 17.16000 44.39400
O  -6.94300 16.95900 45.47600
O  -5.14300 17.91900 44.22100
C  -4.39400 18.40800 45.42400
H  -12.10500 21.36200 42.18500
H  -16.22700 16.66500 42.55100
H  -11.41900 12.30000 42.97100
H  -7.47500 19.92300 42.98200
H  -9.47900 21.46200 41.71200
H  -8.47000 21.20400 44.40400
H  -10.01600 20.50400 44.59400
H  -10.03900 22.10300 43.88600
H  -7.96900 20.41500 40.22300
H  -7.60600 18.67100 40.37900
H  -5.60500 19.80200 41.97800
H  -5.86900 20.91500 40.55100
H  -15.52800 22.14200 42.17600
H  -15.18600 21.49800 40.57700
H  -13.83900 22.31100 41.51200
H  -19.03300 18.48100 41.97100
H  -17.98300 17.74100 42.97900
H  -17.92100 17.32900 41.33000
H  -15.83700 14.05600 41.72000
H  -14.12100 12.42700 43.58600
H  -16.19000 14.66000 44.53800
H  -16.27500 12.87000 44.18900
H  -17.19300 14.10800 43.24500
H  -13.12100 11.88500 41.04400
H  -14.63500 12.55500 40.70200
H  -15.59500 10.89200 42.40400
H  -13.99900 10.07500 42.21900
H  -15.13200 10.27700 40.83200
H  -9.29100 11.66500 42.48500
H  -8.22400 11.77400 43.95600
H  -7.50700 12.03600 42.51100
H  -6.21500 17.39500 42.35500
H  -4.41500 19.49700 45.47000
H  -3.36000 18.06700 45.37600
H  -4.73200 18.02700 46.38800

