158

Mg 16.45100 -1.84900 27.85600
C  15.28700 0.50900 30.28000
C  18.46000 -3.22900 30.19300
C  17.76300 -3.58100 25.30700
C  14.26900 -0.18200 25.49500
N  16.97400 -1.31000 30.00700
C  16.20800 -0.45500 30.80500
C  16.52400 -0.63100 32.34100
C  17.52900 -1.85000 32.25900
C  17.58100 -2.26600 30.75500
C  18.93100 -1.52800 32.88600
C  15.39900 -0.98400 33.33000
C  15.46600 -0.46700 34.80900
H  16.85000 -0.02200 35.46500
N  17.88500 -3.33400 27.76800
C  18.64500 -3.72500 28.86700
C  19.52900 -4.80400 28.40300
C  19.28700 -4.89300 26.93700
C  18.30900 -3.88600 26.60300
C  20.42100 -5.53000 29.28100
C  19.99000 -5.77000 25.89500
O  19.83200 -5.61100 24.72400
C  21.18400 -6.68000 26.43500
N  15.96600 -1.95600 25.77300
C  16.66900 -2.70900 24.85300
C  16.43100 -2.33600 23.42600
C  15.14400 -1.55600 23.56600
C  15.15000 -1.12100 25.05000
C  17.47900 -1.44100 22.82800
C  13.76400 -2.31400 23.17100
C  12.88200 -3.06900 24.15800
N  14.83000 -0.37600 27.84500
C  14.14000 0.22300 26.80400
C  13.33300 1.34400 27.37900
C  13.72700 1.38900 28.71800
C  14.68900 0.41600 28.95700
C  12.29600 2.26400 26.61400
C  13.50900 2.13200 29.89800
O  12.89200 3.15200 30.11600
C  14.46700 1.58300 30.98900
C  15.25200 2.73200 31.50800
O  16.13400 3.36900 30.94700
O  14.91500 2.97900 32.80000
C  15.79700 3.87700 33.55500
H  19.09700 -3.79900 30.87200
H  18.14300 -4.16900 24.46900
H  13.53700 0.15200 24.75600
H  17.10600 0.25100 32.60900
H  17.22200 -2.74600 32.79900
H  19.66600 -1.85800 32.15200
H  19.15800 -2.21000 33.70500
H  19.00000 -0.48700 33.20100
H  15.25800 -2.05400 33.48700
H  14.50500 -0.63900 32.81200
H  14.95700 -1.10500 35.53200
H  14.84500 0.42800 34.80100
H  20.51100 -6.59600 29.07100
H  20.28600 -5.43100 30.35800
H  21.39200 -5.07300 29.09000
H  21.84900 -6.01700 26.98900
H  21.70200 -7.08400 25.56500
H  20.88800 -7.54200 27.03300
H  16.26700 -3.25400 22.86100
H  15.33200 -0.60700 23.06400
H  18.37400 -1.98100 22.52000
H  17.86000 -0.88100 23.68200
H  17.19600 -0.69500 22.08600
H  14.09600 -3.02500 22.41400
H  13.18600 -1.56600 22.63000
H  13.03700 -2.78700 25.20000
H  13.09100 -4.12400 23.98100
H  11.82100 -2.92300 23.95700
H  11.42900 2.34000 27.26900
H  12.03000 1.92700 25.61200
H  12.72600 3.25200 26.44900
H  13.80100 1.18100 31.75200
H  15.91600 4.83400 33.04700
H  16.73500 3.35700 33.75100
H  15.31200 4.10500 34.50400
Mg 26.80700 49.94400 26.43600
C  24.51000 50.95200 28.81200
C  28.92300 48.96100 28.96500
C  29.12700 49.34800 24.14700
C  24.48600 50.81000 23.99800
N  26.70100 49.99900 28.57100
C  25.65800 50.41000 29.36800
C  25.94400 50.24700 30.91000
C  27.36600 49.69100 30.92500
C  27.74400 49.58700 29.39900
C  28.24800 50.64200 31.70000
C  24.88300 49.24300 31.57300
C  23.96600 49.89400 32.66600
H  23.82800 49.04200 33.96400
N  28.80600 49.22600 26.57000
C  29.47800 48.84700 27.66000
C  30.82000 48.41400 27.31700
C  30.91400 48.58700 25.84100
C  29.62200 49.11500 25.47300
C  31.86200 48.08100 28.36900
C  32.09000 48.36200 25.01700
O  32.14700 48.62300 23.82900
C  33.37800 47.92800 25.63100
N  26.82600 50.26000 24.37100
C  27.87900 49.81600 23.63500
C  27.44200 49.76900 22.11300
C  25.94800 50.17100 22.05300
C  25.74200 50.37000 23.59600
C  28.44000 50.43400 21.23400
C  25.00900 49.21700 21.29500
C  24.23100 49.76600 20.07900
N  24.95600 50.81400 26.36500
C  24.18300 51.17900 25.30100
C  22.98600 51.81700 25.78100
C  23.06400 51.80400 27.19100
C  24.25800 51.11900 27.46900
C  21.89500 52.39300 24.93600
C  22.39100 52.18000 28.36600
O  21.30500 52.70500 28.60800
C  23.28400 51.58000 29.48900
C  23.46700 52.65700 30.49000
O  24.35900 53.49200 30.37700
O  22.63400 52.50200 31.60200
C  22.96400 53.37400 32.78300
H  29.48300 48.39500 29.71300
H  29.76700 49.09000 23.30100
H  23.83500 51.06100 23.15900
H  25.80700 51.26400 31.27800
H  27.47200 48.72200 31.41400
H  29.26100 50.56700 31.30400
H  28.27600 50.34800 32.75000
H  27.95900 51.68900 31.62200
H  25.36000 48.46400 32.16600
H  24.18700 48.88400 30.81500
H  22.97200 49.91900 32.21800
H  24.45000 50.83500 32.92800
H  32.58800 48.87600 28.54500
H  32.28800 47.12000 28.08400
H  31.41700 47.86600 29.34100
H  34.09000 47.66100 24.85000
H  33.20300 46.95700 26.09400
H  33.84800 48.61300 26.33600
H  27.48100 48.75800 21.70800
H  25.79700 51.09600 21.49700
H  29.28900 50.79000 21.81700
H  27.99300 51.32200 20.78600
H  28.75400 49.76300 20.43400
H  24.28400 48.68000 21.90700
H  25.65900 48.43200 20.90800
H  24.51400 49.13700 19.23400
H  24.48600 50.80500 19.87100
H  23.16200 49.68000 20.27500
H  21.03700 51.76100 25.16500
H  22.05000 52.24200 23.86800
H  21.69000 53.46000 25.03000
H  22.73800 50.77900 29.98800
H  23.74400 53.01100 33.45300
H  21.96900 53.42900 33.22400
H  23.16800 54.40700 32.50200

