158

Mg 7.03700 2.83300 27.37500
C  8.44000 1.65500 30.43400
C  4.91000 4.82000 29.06700
C  5.78500 3.83700 24.47500
C  8.94800 0.38000 25.66000
N  6.82200 3.24500 29.43100
C  7.43600 2.67000 30.53700
C  6.92600 3.21300 31.81500
C  5.67400 4.01400 31.44700
C  5.74700 3.99900 29.86000
C  4.29700 3.48100 32.02300
C  8.02500 3.99200 32.68100
C  8.11500 3.78700 34.14500
H  9.41900 3.63400 34.89700
N  5.54500 4.09500 26.83600
C  4.79400 4.79400 27.70300
C  3.90800 5.65600 26.94400
C  4.26100 5.52000 25.53600
C  5.19700 4.41700 25.57000
C  2.90000 6.55900 27.62800
C  3.66300 6.22700 24.28100
O  3.95600 5.94500 23.11700
C  2.67500 7.29200 24.54800
N  7.29400 2.13100 25.28800
C  6.67600 2.79700 24.29600
C  6.89400 2.15800 22.91800
C  7.99400 1.04700 23.27700
C  8.09900 1.12700 24.80900
C  5.59900 1.56600 22.23900
C  9.44700 1.25900 22.70700
C  10.53000 2.21900 23.38000
N  8.42500 1.25900 27.89500
C  9.14700 0.43400 27.06900
C  10.08400 -0.28000 27.86800
C  9.83300 0.12600 29.22700
C  8.80600 1.03900 29.17600
C  10.97000 -1.36500 27.44300
C  10.16300 -0.07900 30.62000
O  10.78100 -1.02900 31.07100
C  9.27800 0.96100 31.49700
C  8.49500 0.31000 32.57600
O  7.48300 -0.27800 32.46300
O  9.11900 0.40900 33.75700
C  8.50400 -0.19500 34.98600
H  4.34900 5.57200 29.62700
H  5.50300 4.18300 23.47800
H  9.62900 -0.34300 25.20600
H  6.59500 2.29700 32.30400
H  5.69100 5.07600 31.69000
H  4.35500 2.46700 32.41800
H  3.61900 3.35500 31.18000
H  3.88000 4.20100 32.72700
H  7.86600 5.05800 32.51900
H  9.01700 3.66600 32.36900
H  7.51300 2.92900 34.44200
H  7.63000 4.62400 34.64800
H  2.51200 6.10100 28.53800
H  2.00800 6.76200 27.03600
H  3.39500 7.47200 27.95800
H  1.67900 7.02900 24.90400
H  2.40200 7.70400 23.57600
H  3.16000 8.09700 25.09900
H  7.43300 2.84600 22.26700
H  7.72800 0.02300 23.01500
H  4.73900 1.47600 22.90300
H  5.60200 0.53400 21.88900
H  5.37400 2.17000 21.36000
H  9.25100 1.58400 21.68500
H  9.93000 0.29100 22.57200
H  10.07500 2.57600 24.30400
H  10.75100 2.95200 22.60500
H  11.44600 1.65100 23.54300
H  11.86300 -1.39000 28.06700
H  11.15800 -1.27600 26.37300
H  10.38300 -2.28000 27.52400
H  9.97900 1.65800 31.95500
H  9.03400 0.27000 35.81700
H  8.64100 -1.27600 35.02700
H  7.44100 0.03800 35.05800
Mg -6.31300 24.61200 26.53700
C  -4.68500 25.90200 29.41000
C  -7.97000 22.42500 28.48900
C  -7.37400 22.97600 23.73600
C  -3.75300 26.20200 24.53900
N  -6.21800 24.12000 28.68300
C  -5.71500 24.93800 29.69400
C  -6.35700 24.70600 31.08500
C  -7.07100 23.38200 30.80300
C  -7.01800 23.21700 29.20100
C  -6.58900 22.10400 31.57900
C  -7.32400 25.96100 31.43000
C  -7.76800 25.98800 32.89900
H  -7.38900 24.78400 33.84800
N  -7.78500 23.10200 26.13900
C  -8.31500 22.32100 27.10800
C  -9.27900 21.45000 26.51100
C  -9.14200 21.67900 25.11800
C  -8.09400 22.63700 24.90700
C  -10.24100 20.54900 27.24500
C  -9.99700 21.11700 23.97200
O  -9.85000 21.36500 22.78000
C  -10.97700 20.08300 24.19500
N  -5.57400 24.44700 24.51900
C  -6.27500 23.79900 23.56300
C  -5.74600 24.07200 22.09800
C  -4.63500 25.14800 22.37600
C  -4.63900 25.26600 23.91400
C  -5.29600 22.80500 21.28600
C  -4.80100 26.53700 21.60700
C  -3.50900 27.26800 21.13100
N  -4.51100 25.74000 26.88300
C  -3.65600 26.42900 25.94800
C  -2.80600 27.30300 26.78900
C  -3.14900 27.04800 28.06700
C  -4.15300 26.15600 28.15300
C  -1.76300 28.30400 26.42300
C  -2.97300 27.57200 29.44700
O  -2.11600 28.36900 29.90800
C  -3.89000 26.80600 30.40400
C  -3.01100 26.07800 31.37800
O  -2.57700 24.97700 31.17900
O  -2.57400 27.00800 32.36600
C  -1.66200 26.42900 33.37200
H  -8.51900 21.74300 29.14100
H  -7.64000 22.48800 22.79600
H  -3.02500 26.69400 23.89000
H  -5.60300 24.64600 31.87000
H  -8.12100 23.46200 31.08200
H  -6.27100 21.34300 30.86700
H  -7.41800 21.78200 32.20900
H  -5.67600 22.29900 32.14100
H  -8.17900 25.83800 30.76500
H  -6.79200 26.89100 31.22900
H  -8.85800 25.96800 32.92400
H  -7.46100 26.92800 33.35700
H  -9.78300 19.57300 27.40800
H  -11.26200 20.61700 26.87200
H  -10.32500 21.00900 28.23000
H  -10.54900 19.36700 24.89700
H  -11.24300 19.50400 23.31000
H  -11.89300 20.39300 24.69700
H  -6.63300 24.41900 21.56700
H  -3.67000 24.70300 22.13400
H  -5.57300 21.91000 21.84300
H  -4.23100 22.82700 21.05200
H  -5.85600 22.60400 20.37300
H  -5.31400 27.21400 22.29000
H  -5.51900 26.40200 20.79800
H  -3.52200 27.37600 20.04600
H  -2.55600 26.75100 21.24900
H  -3.39500 28.27800 21.52300
H  -1.80400 28.60800 25.37700
H  -0.80400 27.88300 26.72600
H  -1.97000 29.21900 26.97900
H  -4.55900 27.43300 30.99300
H  -1.74700 25.36000 33.57100
H  -1.90300 26.84500 34.35000
H  -0.59800 26.55600 33.17300

