158

Mg -11.90100 37.60800 42.21800
C  -9.76500 35.20000 40.92000
C  -9.96900 40.08600 40.82000
C  -14.45300 39.84400 42.64200
C  -14.12900 34.91100 43.10400
N  -10.07200 37.59800 40.94800
C  -9.43100 36.47100 40.55800
C  -8.15400 36.91100 39.77200
C  -8.19600 38.50800 39.75200
C  -9.45200 38.78000 40.58500
C  -6.92100 39.21600 40.36300
C  -7.98100 36.24400 38.34500
C  -6.67500 35.42400 38.11300
H  -5.81000 35.74400 36.90100
N  -12.10600 39.70700 41.91500
C  -11.19000 40.55400 41.36600
C  -11.64200 41.86200 41.33800
C  -12.96600 41.84200 41.92700
C  -13.24700 40.39100 42.20700
C  -10.84100 43.04400 40.83100
C  -13.79100 43.04500 42.16900
O  -13.32100 44.17100 42.01100
C  -15.13900 42.93000 42.69400
N  -13.91100 37.46400 42.72000
C  -14.75700 38.52300 42.92500
C  -16.10400 38.04600 43.49900
C  -15.95700 36.56000 43.71300
C  -14.59700 36.23200 43.10500
C  -16.76000 38.82100 44.71100
C  -17.12200 35.61200 43.10300
C  -17.47000 34.45000 44.05600
N  -11.91600 35.45700 42.18700
C  -12.83900 34.58600 42.67400
C  -12.30500 33.25100 42.53500
C  -11.09900 33.42400 41.79400
C  -10.93400 34.81600 41.62400
C  -13.00000 32.04100 42.92600
C  -9.93200 32.74700 41.15000
O  -9.63200 31.59100 41.03600
C  -8.99200 33.95000 40.60100
C  -7.70100 33.86500 41.24500
O  -6.59900 33.67100 40.63800
O  -7.88800 33.85800 42.61800
C  -6.66000 34.07800 43.35500
H  -9.31400 40.87300 40.44100
H  -15.36100 40.44300 42.73400
H  -14.74700 34.13000 43.55000
H  -7.22100 36.65300 40.27300
H  -8.22900 38.93800 38.75100
H  -6.69800 40.05400 39.70200
H  -6.10800 38.49000 40.37600
H  -7.12300 39.57800 41.37100
H  -8.01800 36.91000 37.48300
H  -8.84000 35.59000 38.19700
H  -6.92000 34.37900 37.92300
H  -5.96300 35.41100 38.93800
H  -10.13200 43.37700 41.58900
H  -11.42500 43.91300 40.53000
H  -10.24200 42.87100 39.93600
H  -15.50600 43.95600 42.71600
H  -15.15600 42.49800 43.69500
H  -15.75000 42.28600 42.06100
H  -16.80600 38.12800 42.66900
H  -15.80800 36.27400 44.75500
H  -16.16000 39.65300 45.08100
H  -17.23900 38.25400 45.51000
H  -17.55500 39.36200 44.19800
H  -16.78600 35.23000 42.13900
H  -17.96100 36.29700 42.98700
H  -16.67600 34.17600 44.75100
H  -17.67200 33.50600 43.55000
H  -18.40500 34.60400 44.59400
H  -13.25100 31.47500 42.02900
H  -13.82000 32.29900 43.59600
H  -12.29400 31.49900 43.55500
H  -8.86200 33.72800 39.54200
H  -6.83700 34.98300 43.93600
H  -5.74200 34.13200 42.77000
H  -6.55600 33.23000 44.03200
Mg 1.64300 41.94300 26.05800
C  3.53900 42.06100 28.97300
C  -1.09200 41.12300 27.89400
C  0.26200 41.12200 23.28400
C  4.73500 42.59400 24.25300
N  1.27300 41.60900 28.25100
C  2.17000 41.95900 29.21200
C  1.37100 41.92400 30.56700
C  -0.09800 41.49700 30.25100
C  -0.02400 41.46600 28.70200
C  -0.41100 40.06400 30.78600
C  1.49400 43.24800 31.37600
C  1.60500 43.16300 32.89300
H  1.23000 41.89600 33.63600
N  -0.24100 41.21600 25.64200
C  -1.23400 40.84500 26.51400
C  -2.30700 40.31500 25.71200
C  -1.90900 40.26100 24.36900
C  -0.59500 40.90200 24.36800
C  -3.66400 39.88900 26.29100
C  -2.65500 39.75800 23.15900
O  -2.15300 39.66800 22.04600
C  -4.08000 39.30200 23.19700
N  2.39200 41.89000 23.98900
C  1.53500 41.55400 23.06700
C  2.14700 41.79800 21.67100
C  3.44700 42.55200 21.99700
C  3.57800 42.37000 23.48800
C  2.36600 40.47800 20.80800
C  3.39600 44.05600 21.62300
C  4.23800 44.47900 20.44900
N  3.69000 42.28900 26.45900
C  4.77600 42.57600 25.68600
C  5.93200 42.66300 26.50600
C  5.53000 42.46800 27.79500
C  4.15700 42.19900 27.73700
C  7.40000 42.91900 26.00900
C  5.91700 42.37500 29.21000
O  6.97100 42.44100 29.81500
C  4.57700 42.20900 30.02900
C  4.73400 41.04100 30.91700
O  4.49100 39.90900 30.54600
O  5.00200 41.42200 32.24000
C  5.19700 40.39200 33.18800
H  -2.00800 41.16100 28.48600
H  -0.29200 40.88700 22.37300
H  5.62000 42.91700 23.70100
H  1.92800 41.12200 31.04900
H  -0.86300 42.19500 30.59000
H  0.25600 39.81400 31.61200
H  -0.18900 39.36900 29.97700
H  -1.43800 39.85400 31.08900
H  0.62000 43.83900 31.10100
H  2.32600 43.83500 30.98800
H  1.03700 43.95700 33.37900
H  2.68100 43.26600 33.03600
H  -3.70700 40.17600 27.34100
H  -3.79200 38.80600 26.26300
H  -4.42300 40.43400 25.73000
H  -4.76600 40.14700 23.26300
H  -4.25700 38.69800 24.08600
H  -4.24700 38.80100 22.24300
H  1.46200 42.44000 21.11700
H  4.35800 42.13300 21.57000
H  1.50700 39.84300 21.02500
H  3.28700 39.96300 21.08100
H  2.42300 40.82800 19.77700
H  3.68200 44.72300 22.43600
H  2.35900 44.37300 21.51000
H  4.98400 45.21300 20.75300
H  3.55000 44.90700 19.72000
H  4.76500 43.61800 20.03800
H  7.74200 43.87300 26.41100
H  7.42400 42.97800 24.92100
H  7.99300 42.15500 26.51100
H  4.49800 43.11800 30.62500
H  6.22700 40.03800 33.14200
H  4.58200 39.49700 33.09100
H  4.82000 40.74900 34.14600

