158

Mg 0.91700 -1.52200 42.37000
C  4.55100 -1.17300 41.47600
C  0.48100 1.50900 40.93400
C  -2.18300 -2.29400 42.17500
C  1.80000 -4.97800 42.93000
N  2.29800 -0.11000 41.28500
C  3.75100 -0.06600 41.16300
C  4.24300 1.32500 40.82500
C  2.92500 2.19800 41.03200
C  1.78900 1.10000 41.03700
C  2.95400 3.05900 42.31000
C  4.95300 1.52000 39.44700
C  4.39400 0.78800 38.19800
H  5.40100 -0.14400 37.49900
N  -0.72400 -0.37400 41.98200
C  -0.69000 0.86100 41.30300
C  -2.00200 1.32100 41.16400
C  -2.85500 0.14700 41.47100
C  -1.94400 -0.90300 41.93700
C  -2.33300 2.69900 40.63400
C  -4.36800 0.07100 41.25500
O  -5.04500 1.01500 40.84100
C  -5.16400 -1.11800 41.57600
N  -0.02200 -3.35800 42.54300
C  -1.35000 -3.34600 42.55100
C  -1.92200 -4.70500 42.73400
C  -0.65300 -5.54200 43.06200
C  0.48000 -4.53900 42.87800
C  -3.08600 -4.86400 43.74400
C  -0.56000 -6.93000 42.20000
C  -0.36600 -8.26000 43.02600
N  2.82100 -2.86800 42.38200
C  2.94300 -4.21700 42.62900
C  4.31900 -4.56700 42.59100
C  5.01800 -3.40700 42.17400
C  4.01800 -2.40000 42.04900
C  4.84200 -5.92700 42.74000
C  6.32600 -2.80300 41.75800
O  7.40100 -3.29000 41.67700
C  6.03000 -1.37100 41.34700
C  6.89800 -0.48100 42.18900
O  7.76600 0.28300 41.71700
O  6.72500 -0.58700 43.58500
C  7.58300 0.21300 44.40300
H  0.42000 2.51600 40.51600
H  -3.21200 -2.65900 42.16400
H  2.01900 -6.04400 43.02700
H  4.99600 1.50600 41.59200
H  2.66600 2.91300 40.25200
H  2.06900 2.78900 42.88600
H  2.95400 4.12200 42.07100
H  3.88900 2.89600 42.84600
H  5.97800 1.26500 39.71700
H  4.93100 2.56900 39.15200
H  4.16500 1.62100 37.53400
H  3.43900 0.27700 38.31600
H  -3.09800 3.07900 41.31200
H  -2.59600 2.76200 39.57800
H  -1.46500 3.35400 40.70500
H  -6.23600 -0.97100 41.44600
H  -5.00900 -1.55100 42.56400
H  -5.03600 -1.90800 40.83600
H  -2.32400 -5.02200 41.77200
H  -0.75500 -5.80000 44.11600
H  -3.99200 -5.03800 43.16400
H  -3.15500 -3.82500 44.06500
H  -2.92200 -5.59900 44.53100
H  0.36600 -6.85600 41.63000
H  -1.39700 -7.09400 41.52200
H  -1.37000 -8.68500 43.00800
H  -0.10100 -8.06000 44.06400
H  0.38700 -8.90900 42.57900
H  4.37300 -6.29000 43.65400
H  5.92200 -5.98600 42.86700
H  4.66600 -6.45700 41.80300
H  6.39500 -1.34300 40.32000
H  8.06300 -0.37200 45.18900
H  7.00100 1.05600 44.77500
H  8.42400 0.67600 43.88600
Mg 34.25200 3.60400 30.08300
C  31.92200 4.56300 32.54900
C  36.64100 3.63400 32.46000
C  36.38700 2.69000 27.74300
C  31.52800 3.53400 27.64600
N  34.29100 4.12700 32.17300
C  33.19900 4.43700 33.02600
C  33.58300 4.39300 34.50600
C  35.11600 4.69700 34.35400
C  35.39800 4.06300 32.92400
C  35.51800 6.11300 34.28800
C  33.26500 2.99300 35.12000
C  32.94600 3.00300 36.65500
H  33.53300 4.14800 37.50100
N  36.24000 3.09700 30.15100
C  37.05200 3.20500 31.22900
C  38.34700 2.81500 30.86000
C  38.27100 2.41700 29.47600
C  36.92400 2.76900 29.01800
C  39.47300 2.62000 31.90100
C  39.39300 1.75600 28.63500
O  39.29800 1.62500 27.39900
C  40.75400 1.51300 29.23700
N  34.03300 3.31700 27.93700
C  35.09000 2.91800 27.21000
C  34.67500 2.55500 25.75400
C  33.15300 2.53000 25.83700
C  32.83500 3.17100 27.20400
C  35.17100 3.69500 24.77700
C  32.56600 1.07300 25.76600
C  31.86000 0.86700 24.41500
N  32.23100 3.95700 29.99200
C  31.23800 3.90700 28.97200
C  29.91500 4.22300 29.56700
C  30.15500 4.56600 30.84000
C  31.56000 4.30700 31.14600
C  28.57600 4.23400 28.88600
C  29.51000 4.95600 32.07000
O  28.31500 5.28100 32.18000
C  30.58900 5.06100 33.20500
C  30.64000 6.36800 33.86200
O  31.16700 7.36000 33.37000
O  30.19600 6.19700 35.13100
C  30.49400 7.22700 36.09800
H  37.35400 3.74300 33.28100
H  37.07400 2.43700 26.93300
H  30.70500 3.48500 26.92900
H  33.07500 5.10500 35.15700
H  35.63400 4.18400 35.16400
H  35.93800 6.39700 35.25400
H  34.67100 6.79800 34.26300
H  36.17000 6.38700 33.45900
H  34.06000 2.25600 35.00300
H  32.30100 2.60800 34.78600
H  33.38500 2.11100 37.10200
H  31.88900 2.93400 36.91200
H  40.51800 2.60000 31.59100
H  39.37100 1.72000 32.50700
H  39.46800 3.58700 32.40500
H  40.78600 0.80100 30.06100
H  41.31700 2.36700 29.61300
H  41.40700 1.05300 28.49500
H  35.16300 1.64400 25.40900
H  32.71200 3.19200 25.09200
H  35.47600 4.58400 25.33000
H  34.45400 3.99000 24.01100
H  36.03500 3.30200 24.24100
H  31.87600 0.80600 26.56600
H  33.45100 0.44400 25.85200
H  30.93500 0.34200 24.65200
H  32.50300 0.23400 23.80400
H  31.62500 1.74200 23.80900
H  28.59600 3.91600 27.84400
H  28.15100 5.23800 28.91100
H  27.92200 3.61800 29.50400
H  30.18600 4.40100 33.97300
H  30.81300 6.87700 37.08000
H  29.57400 7.74700 36.36500
H  31.19800 7.97200 35.72600

