158

Mg 56.22200 22.32400 43.48100
C  53.98400 24.47200 42.15600
C  53.85500 19.74100 43.26300
C  58.50600 20.06800 44.32300
C  58.63100 24.83900 43.33800
N  54.14600 22.13900 42.71100
C  53.44600 23.18600 42.27400
C  52.01100 22.73800 42.02300
C  51.86200 21.50500 42.93100
C  53.34800 21.03700 43.01100
C  51.13700 21.68800 44.28900
C  51.72200 22.52900 40.51200
C  50.57600 23.28900 39.93700
H  49.95400 23.02800 38.58100
N  56.19000 20.21700 43.72600
C  55.17100 19.34800 43.53600
C  55.64400 18.01400 43.68200
C  56.95800 18.00500 44.17100
C  57.27400 19.47800 44.10400
C  54.64600 16.87600 43.52300
C  57.85900 16.80500 44.41200
O  57.52800 15.66500 44.06000
C  59.09000 16.93500 45.20500
N  58.32200 22.39300 43.53700
C  59.00800 21.29000 44.00900
C  60.47300 21.66300 44.39600
C  60.54200 23.20400 44.03600
C  59.07300 23.55100 43.55500
C  61.01900 21.39000 45.87500
C  61.72100 23.65100 43.04600
C  63.17900 23.73500 43.63000
N  56.33700 24.37700 42.92300
C  57.37500 25.27300 42.99300
C  56.87800 26.57800 42.67200
C  55.58300 26.34000 42.32000
C  55.28900 24.96200 42.48100
C  57.66300 27.87000 42.77000
C  54.31000 26.98600 41.98100
O  54.05400 28.15300 41.80500
C  53.31600 25.73100 41.63200
C  53.27400 25.69600 40.18300
O  53.90800 25.02100 39.38600
O  52.26600 26.54800 39.70600
C  51.96200 26.49700 38.28800
H  53.10900 18.95500 43.12800
H  59.13900 19.34900 44.84700
H  59.46100 25.54800 43.39000
H  51.23400 23.44800 42.30500
H  51.20500 20.77900 42.45200
H  50.65000 22.65800 44.39200
H  51.83100 21.74200 45.12800
H  50.61200 20.80000 44.64000
H  51.55200 21.52000 40.13500
H  52.64800 22.73500 39.97700
H  50.83700 24.33800 40.07700
H  49.63600 23.05900 40.44000
H  54.94600 15.97500 44.05900
H  54.66600 16.56000 42.48000
H  53.59000 17.04500 43.73100
H  59.90500 17.30300 44.58000
H  59.38100 15.91100 45.43900
H  58.90100 17.60900 46.04100
H  61.14700 21.12100 43.73300
H  60.72100 23.71500 44.98100
H  60.24600 20.91600 46.48000
H  61.32400 22.29500 46.39900
H  61.90500 20.76200 45.78300
H  61.45800 24.62500 42.63400
H  61.84400 22.99500 42.18500
H  63.63600 24.62300 43.19400
H  63.87200 22.98100 43.25300
H  63.14800 23.71600 44.71900
H  56.94000 28.68100 42.86000
H  58.46300 27.94300 42.03300
H  58.12200 27.81500 43.75700
H  52.26800 25.88900 41.88800
H  52.54900 27.26700 37.78800
H  50.89600 26.63500 38.10600
H  52.24700 25.54700 37.83700
Mg 16.77500 51.84300 25.77800
C  18.72600 50.55600 28.36000
C  14.36500 52.47000 28.04600
C  14.97300 53.00800 23.14900
C  19.23400 50.64300 23.45300
N  16.47200 51.42200 27.93300
C  17.50600 51.11900 28.75300
C  17.07000 51.29400 30.21000
C  15.54100 51.56100 30.13200
C  15.42200 51.78700 28.63500
C  14.53200 50.50400 30.53200
C  17.94600 52.35600 30.92300
C  18.27500 52.22900 32.37500
H  17.24800 51.43600 33.22400
N  14.99800 52.76000 25.64400
C  14.09800 52.86700 26.67700
C  12.87500 53.60000 26.13100
C  13.04900 53.79200 24.66700
C  14.40600 53.20200 24.41700
C  11.70500 53.95700 26.96400
C  12.17900 54.45900 23.68700
O  12.50100 54.68500 22.52000
C  10.86900 55.11600 24.10000
N  17.05100 51.76900 23.65500
C  16.15100 52.36100 22.75500
C  16.61400 52.30200 21.31000
C  18.02900 51.69100 21.49800
C  18.15000 51.36300 22.94500
C  15.75300 51.28200 20.41300
C  19.12100 52.51900 20.79500
C  19.86800 51.90000 19.57600
N  18.61100 50.72300 25.86800
C  19.42600 50.29500 24.86900
C  20.57800 49.67300 25.49300
C  20.32400 49.61000 26.86100
C  19.10500 50.40400 27.01600
C  21.94500 49.31000 24.78100
C  20.78500 49.17600 28.19000
O  21.74000 48.51700 28.51600
C  19.81200 49.78700 29.18500
C  19.26300 48.75800 30.02900
O  18.34200 48.02100 29.76600
O  19.96800 48.71800 31.20700
C  19.31800 47.85800 32.18000
H  13.61600 52.88800 28.72200
H  14.49300 53.42600 22.26100
H  19.88500 50.32500 22.63700
H  17.33200 50.35600 30.69800
H  15.35100 52.53400 30.58400
H  13.82200 51.06200 31.14300
H  14.97300 49.79300 31.23100
H  14.06400 50.01500 29.67700
H  17.59400 53.38800 30.91600
H  18.89200 52.34500 30.38200
H  18.40600 53.19800 32.85700
H  19.20500 51.66100 32.40200
H  10.89200 53.27100 26.72600
H  11.48100 55.00300 26.75800
H  11.94300 53.95200 28.02800
H  10.98000 56.05000 24.65000
H  10.12800 54.43800 24.52200
H  10.37800 55.33800 23.15300
H  16.59900 53.34400 20.99000
H  18.15800 50.76100 20.94400
H  14.84800 50.87200 20.86300
H  16.35000 50.40300 20.17200
H  15.54500 51.86200 19.51400
H  19.66000 52.95800 21.63400
H  18.68600 53.40600 20.33500
H  19.24000 51.14700 19.10000
H  20.81500 51.43300 19.84600
H  20.15200 52.67400 18.86300
H  22.12700 49.72200 23.78800
H  22.11200 48.24200 24.91700
H  22.66700 49.88600 25.36000
H  20.38300 50.50000 29.78000
H  19.28200 46.79700 31.92900
H  18.28900 48.11700 32.43000
H  19.90400 47.80900 33.09800

