158

Mg 55.17200 23.15800 44.63100
C  52.77700 25.43100 43.81300
C  53.20300 20.57500 43.52500
C  57.86700 21.09800 44.65300
C  57.27000 25.91400 45.65500
N  53.31200 22.97500 43.66200
C  52.46600 24.10300 43.45100
C  51.02600 23.67400 42.97900
C  51.04800 22.13500 43.34700
C  52.57800 21.81000 43.55000
C  50.19500 21.58400 44.50300
C  50.83600 23.87800 41.46600
C  49.50500 24.14100 40.91900
H  49.30800 23.82700 39.39100
N  55.46700 21.09600 44.18400
C  54.58200 20.20100 43.65000
C  55.12000 18.94400 43.53100
C  56.39900 19.03200 44.11000
C  56.65500 20.48500 44.37000
C  54.33000 17.78200 42.92000
C  57.26200 17.80500 44.48300
O  56.91100 16.67800 44.15200
C  58.56400 17.95600 45.24000
N  57.25500 23.44500 45.16700
C  58.13900 22.41200 45.03800
C  59.58600 22.83000 45.41500
C  59.35900 24.35700 45.95100
C  57.89800 24.66200 45.52800
C  60.38000 22.01900 46.43600
C  60.39700 25.30200 45.36000
C  61.35000 25.84200 46.46400
N  54.99300 25.23400 44.86100
C  55.86600 26.25800 45.27100
C  55.16200 27.54000 45.34200
C  53.91200 27.24700 44.80400
C  53.91600 25.87100 44.46300
C  55.80000 28.81900 45.92800
C  52.69200 27.81600 44.30700
O  52.41400 28.99200 44.31400
C  51.85800 26.66400 43.68900
C  51.67000 27.08600 42.33200
O  52.53900 27.00200 41.45200
O  50.35500 27.39600 42.12400
C  49.98600 28.04500 40.85200
H  52.49000 19.79700 43.24600
H  58.74700 20.45200 44.60100
H  57.81300 26.79600 46.00300
H  50.22900 24.09600 43.59200
H  50.78300 21.61800 42.42400
H  49.93400 22.37800 45.20300
H  50.67500 20.82400 45.12100
H  49.27400 21.23600 44.03600
H  51.41800 23.12000 40.94200
H  51.42200 24.79200 41.37700
H  49.26500 25.18700 41.10900
H  48.86300 23.50500 41.52800
H  53.63100 18.20600 42.19800
H  53.78800 17.24800 43.70100
H  55.06500 17.11100 42.47600
H  59.36700 18.28800 44.58300
H  58.98100 17.04500 45.67000
H  58.36400 18.50400 46.16100
H  60.19400 22.93700 44.51600
H  59.43500 24.35500 47.03900
H  61.26600 21.61200 45.94700
H  59.81900 21.17500 46.83800
H  60.55000 22.59800 47.34300
H  59.85600 26.04000 44.76900
H  61.03000 24.79100 44.63500
H  62.31000 25.33200 46.37600
H  61.02300 25.66600 47.48900
H  61.40900 26.93000 46.48900
H  56.39400 29.28100 45.14000
H  56.49800 28.58300 46.73200
H  54.96500 29.46500 46.19700
H  50.97400 26.51300 44.30900
H  50.80500 28.49300 40.28900
H  49.18600 28.77500 40.97800
H  49.62400 27.15900 40.33100
Mg 4.65700 54.86200 39.82700
C  4.57400 51.31400 40.26200
C  7.59100 54.41100 38.24800
C  4.28200 57.87800 38.74700
C  1.51700 54.81300 41.52400
N  5.87000 53.05400 39.31600
C  5.66900 51.71700 39.56100
C  6.81100 50.86700 39.12600
C  7.95200 52.01500 38.90700
C  7.08000 53.27200 38.79100
C  9.11200 52.21700 39.98900
C  6.58700 50.00500 37.83200
C  5.89400 50.70900 36.65100
H  6.75300 51.04100 35.44500
N  5.88700 56.07900 38.79300
C  7.06200 55.78800 38.17000
C  7.56700 56.93900 37.45200
C  6.62000 57.96400 37.61600
C  5.52900 57.39400 38.40800
C  8.86400 56.94300 36.69700
C  6.70000 59.38800 36.97000
O  7.55900 59.64100 36.12200
C  5.85100 60.50100 37.40100
N  3.10300 56.11100 40.08800
C  3.32200 57.40700 39.67200
C  2.15400 58.30100 40.22100
C  1.18400 57.30600 40.90600
C  1.97500 56.02000 40.86500
C  2.65400 59.53600 41.07100
C  -0.26700 57.23000 40.48000
C  -1.38200 57.45700 41.52400
N  3.33700 53.41000 40.79600
C  2.15200 53.55900 41.45900
C  1.73200 52.29500 42.03200
C  2.60100 51.34200 41.59000
C  3.59300 52.11700 40.87800
C  0.53500 52.13200 42.88500
C  2.89000 49.93300 41.51700
O  2.28200 49.01700 41.98500
C  4.19900 49.85700 40.76500
C  4.04200 48.89000 39.71900
O  3.42000 49.01900 38.67900
O  4.61900 47.68600 40.09400
C  4.42400 46.54600 39.20400
H  8.46400 54.21700 37.62200
H  4.10300 58.88100 38.35200
H  0.70500 54.79400 42.25500
H  7.09600 50.19600 39.93500
H  8.51600 51.77900 38.00400
H  9.19300 51.33500 40.62400
H  8.82900 53.05200 40.62900
H  10.02700 52.42800 39.43600
H  5.97700 49.12800 38.04800
H  7.54800 49.58800 37.53200
H  5.59900 51.71300 36.95500
H  5.07000 50.07200 36.32700
H  8.76300 57.02300 35.61500
H  9.36100 56.02600 37.01300
H  9.35200 57.76000 37.22800
H  4.94100 60.53200 36.80300
H  6.32200 61.43100 37.08100
H  5.71000 60.59200 38.47800
H  1.70700 58.76300 39.34000
H  1.18500 57.56900 41.96400
H  2.50400 60.47600 40.54000
H  3.71600 59.33400 41.20600
H  2.27200 59.59300 42.09000
H  -0.30900 56.23400 40.04000
H  -0.51900 57.93600 39.68800
H  -1.89100 58.38000 41.24700
H  -1.03500 57.60000 42.54700
H  -2.06300 56.60800 41.59300
H  0.85000 52.44500 43.88000
H  0.16700 51.11700 43.03100
H  -0.32800 52.71500 42.56200
H  4.99200 49.47800 41.40900
H  5.05900 46.41100 38.32900
H  3.45500 46.47300 38.71100
H  4.65300 45.62900 39.74800

