158

Mg 47.57900 24.57000 29.09400
C  48.45400 26.96400 31.53200
C  46.35500 22.60900 31.64100
C  46.77800 22.39800 26.78600
C  48.96000 26.58200 26.71000
N  47.42500 24.84400 31.32300
C  47.74800 25.88400 32.09400
C  47.30900 25.75100 33.59000
C  46.82000 24.20400 33.65500
C  46.89900 23.85000 32.14200
C  47.70100 23.31700 34.62500
C  46.15800 26.73700 33.96700
C  46.66200 27.71300 35.07900
H  47.08000 26.98100 36.41700
N  46.72300 22.69700 29.15200
C  46.25700 22.09700 30.35200
C  45.65100 20.85300 29.93600
C  45.59000 20.90200 28.47600
C  46.34300 22.05500 28.09100
C  45.06900 19.77600 30.91300
C  44.90900 19.89100 27.46300
O  45.10600 19.96000 26.23500
C  43.91600 18.84500 27.88700
N  48.09400 24.38000 27.10800
C  47.62100 23.39300 26.34300
C  48.09500 23.52300 24.87300
C  48.65500 24.98400 24.83500
C  48.57100 25.34600 26.31000
C  49.25800 22.50800 24.63400
C  47.89400 25.93000 23.97500
C  48.79500 27.01500 23.35200
N  48.53500 26.36500 29.03700
C  49.04300 27.11700 27.99600
C  49.48700 28.40700 28.39000
C  49.29800 28.33400 29.76900
C  48.72800 27.08000 30.13400
C  50.23700 29.39800 27.56900
C  49.63500 29.04400 30.97900
O  50.12000 30.15700 31.08700
C  49.04000 28.27700 32.14500
C  50.03000 27.98900 33.19800
O  50.81300 27.08800 33.31700
O  49.86300 28.98900 34.13500
C  50.62200 28.73800 35.42100
H  45.97800 21.92300 32.40200
H  46.39500 21.93600 25.87400
H  49.20600 27.27700 25.90400
H  48.26400 25.89900 34.09400
H  45.75100 24.23900 33.86800
H  48.57700 22.88700 34.13900
H  46.99100 22.58900 35.01700
H  47.98800 23.89500 35.50300
H  45.28000 26.18100 34.29600
H  45.91400 27.34200 33.09300
H  45.89600 28.48300 35.16600
H  47.53900 28.16800 34.61900
H  45.18800 18.77300 30.50200
H  44.01400 19.95600 31.12000
H  45.47200 19.92500 31.91500
H  43.11300 19.28300 28.48000
H  44.50500 18.16900 28.50700
H  43.51600 18.22000 27.08900
H  47.21700 23.20400 24.31100
H  49.72500 25.06600 24.64600
H  50.11000 23.11800 24.33500
H  48.90900 21.87600 23.81700
H  49.41500 21.98600 25.57800
H  47.03900 26.41600 24.44500
H  47.47000 25.36800 23.14300
H  48.37200 28.01900 23.40500
H  48.94700 26.76800 22.30100
H  49.83400 27.05900 23.67600
H  50.34400 30.29000 28.18600
H  49.76100 29.64000 26.61800
H  51.22000 28.99700 27.32300
H  48.11900 28.75000 32.48600
H  50.13100 27.95100 35.99300
H  50.72900 29.58700 36.09600
H  51.65800 28.44600 35.25500
Mg 0.86000 41.66300 26.65100
C  3.09800 42.27100 29.33500
C  -1.21500 40.27400 28.98100
C  -1.06500 40.75600 24.09700
C  3.52000 42.38100 24.44900
N  0.83100 41.51900 28.91500
C  1.80700 41.88300 29.76400
C  1.27000 41.89200 31.16500
C  0.03200 40.96600 31.06500
C  -0.18300 40.96900 29.58700
C  0.34000 39.59200 31.67300
C  1.10900 43.39500 31.60500
C  1.48500 43.71500 33.07700
H  1.36000 42.61300 34.15700
N  -0.93700 40.66600 26.51300
C  -1.56300 40.05000 27.59500
C  -2.73100 39.30700 27.07700
C  -2.74600 39.49600 25.69000
C  -1.56400 40.30800 25.35200
C  -3.58500 38.52600 28.03300
C  -3.65400 38.87100 24.62600
O  -3.46300 38.88500 23.41000
C  -4.74800 37.98900 25.07100
N  1.09300 41.82100 24.62300
C  0.13200 41.48200 23.72500
C  0.56900 41.72000 22.22600
C  1.95900 42.26600 22.41000
C  2.20000 42.26600 23.90000
C  0.26700 40.50700 21.34300
C  2.14800 43.59300 21.70000
C  1.78300 44.99800 22.38300
N  2.87400 42.29400 26.77800
C  3.79700 42.48200 25.82800
C  5.08300 42.71500 26.42600
C  4.82700 42.63500 27.82400
C  3.47400 42.40500 27.98500
C  6.43900 42.87900 25.77600
C  5.50100 42.64600 29.10600
O  6.66100 42.69900 29.49000
C  4.32800 42.56300 30.11000
C  4.60000 41.44400 31.04300
O  4.72200 40.25000 30.77800
O  4.87600 41.89900 32.26200
C  5.29400 40.92800 33.26300
H  -1.76900 39.77300 29.77700
H  -1.74400 40.72800 23.24200
H  4.41500 42.48000 23.83200
H  2.07200 41.41600 31.72700
H  -0.78200 41.48900 31.56700
H  0.96000 39.72400 32.56000
H  0.96200 39.17400 30.88200
H  -0.60000 39.05900 31.81600
H  0.08500 43.64600 31.33000
H  1.59300 44.06600 30.89500
H  0.85600 44.53400 33.42800
H  2.54200 43.94100 33.21400
H  -3.39000 37.46600 27.86900
H  -4.63600 38.74300 27.84100
H  -3.44600 38.80400 29.07800
H  -5.60700 38.56700 25.41200
H  -4.39900 37.23200 25.77400
H  -5.12200 37.41000 24.22600
H  -0.02700 42.51500 21.77800
H  2.64000 41.59200 21.89000
H  -0.28300 40.87800 20.47800
H  -0.40100 39.78800 21.81800
H  1.11200 40.02900 20.84700
H  1.48200 43.55600 20.83800
H  3.07000 43.66200 21.12200
H  1.50300 45.67000 21.57200
H  2.58900 45.48500 22.93100
H  0.86100 44.69300 22.87800
H  6.85900 41.99200 25.30100
H  7.25800 43.38800 26.28300
H  6.24200 43.60900 24.99000
H  4.15200 43.53300 30.57700
H  4.53100 40.15900 33.38300
H  5.51300 41.37400 34.23300
H  6.26800 40.49100 33.04200

