158

Mg 46.99400 14.82300 27.15400
C  45.17300 15.04800 30.14300
C  49.26800 17.03900 28.39500
C  48.35000 15.07200 23.99900
C  44.41300 12.85400 25.76200
N  47.17400 15.90300 29.01500
C  46.30200 15.90500 30.08400
C  46.91300 16.59900 31.35000
C  48.11000 17.37100 30.65800
C  48.19500 16.72600 29.25500
C  47.91100 18.87900 30.66000
C  47.38400 15.63500 32.49600
C  47.02000 16.10900 33.95500
H  48.06400 15.77700 35.01800
N  48.68300 15.70100 26.39900
C  49.54200 16.48400 27.09700
C  50.62600 16.94500 26.24400
C  50.40500 16.36800 24.96100
C  49.06600 15.69400 25.08100
C  51.78100 17.94700 26.69500
C  51.05100 16.75200 23.62100
O  50.63100 16.50800 22.52000
C  52.32400 17.51400 23.70700
N  46.44700 14.08000 25.17100
C  47.19400 14.29800 24.09600
C  46.66000 13.55300 22.84500
C  45.41500 12.80300 23.40600
C  45.42000 13.17900 24.90000
C  46.36100 14.42000 21.65300
C  45.42100 11.24300 23.22500
C  46.46800 10.48700 24.11000
N  45.10900 14.07500 27.73800
C  44.29000 13.26600 27.11000
C  43.17400 12.98500 28.09300
C  43.52700 13.61800 29.25700
C  44.67000 14.32100 29.02100
C  41.95500 12.10800 27.83000
C  43.17500 13.78100 30.61300
O  42.13300 13.40100 31.23700
C  44.22200 14.67600 31.29800
C  43.44700 15.84000 31.92200
O  43.20200 16.84300 31.29600
O  43.14900 15.57900 33.22400
C  42.72100 16.76600 34.04200
H  50.07500 17.66000 28.79100
H  48.84900 15.02500 23.02900
H  43.70700 12.06500 25.49500
H  46.26600 17.33400 31.82900
H  49.09000 17.15100 31.08200
H  47.85900 19.14900 29.60500
H  48.66400 19.33100 31.30500
H  46.95400 19.19200 31.07900
H  48.44900 15.40600 32.47900
H  46.93800 14.64300 32.44200
H  46.11500 15.56600 34.22800
H  46.74800 17.16500 33.94700
H  52.70800 17.37400 26.71100
H  51.64600 18.24700 27.73400
H  51.83500 18.85700 26.09800
H  52.21700 18.58900 23.84800
H  52.73000 17.36000 22.70800
H  53.10100 17.03600 24.30500
H  47.37800 12.79700 22.52900
H  44.49000 13.10600 22.91700
H  47.08000 14.07700 20.90900
H  46.37400 15.45700 21.99000
H  45.37900 14.24900 21.21400
H  45.81000 10.98100 22.24200
H  44.48800 10.73700 23.47700
H  46.10900 9.68800 24.75900
H  46.99700 11.15300 24.79200
H  47.27000 10.00500 23.55200
H  42.42300 11.35600 27.19500
H  41.30600 12.72100 27.20500
H  41.62300 11.64800 28.76100
H  44.67000 14.04500 32.06600
H  42.34300 16.52900 35.03600
H  41.97600 17.36900 33.52300
H  43.52500 17.46700 34.26700
Mg 6.49400 54.36100 41.35400
C  6.19800 50.93100 41.20600
C  10.00900 53.90400 40.53800
C  6.86400 57.71800 41.00600
C  3.16500 54.69700 41.74700
N  7.85400 52.60300 40.72900
C  7.47100 51.24900 40.83700
C  8.72300 50.33900 40.63900
C  9.93200 51.34100 40.69500
C  9.22200 52.68700 40.74500
C  10.91900 51.07500 41.88600
C  8.66400 49.61200 39.27800
C  8.45700 50.49500 38.10700
H  7.49200 49.96900 37.04400
N  8.15400 55.61900 40.83900
C  9.46900 55.24500 40.59200
C  10.27900 56.46100 40.32000
C  9.39800 57.53800 40.46800
C  8.04700 56.93900 40.77800
C  11.70100 56.39100 39.86400
C  9.76400 59.03300 40.20300
O  10.90700 59.34400 39.88300
C  8.79300 60.09500 40.17100
N  5.19500 56.00100 41.14700
C  5.53400 57.27600 41.14800
C  4.42700 58.22600 41.56600
C  3.24700 57.24400 41.55200
C  3.89300 55.85900 41.42700
C  4.63100 58.78500 42.99800
C  2.18800 57.51300 40.40500
C  0.78700 57.82500 40.85700
N  4.92600 53.11700 41.49300
C  3.60800 53.34600 41.80000
C  2.98100 52.12700 42.17900
C  3.98100 51.17300 41.99300
C  5.16700 51.80100 41.47300
C  1.63200 51.95300 42.73400
C  4.20700 49.79300 42.02800
O  3.44600 48.87600 42.36100
C  5.62900 49.58300 41.49500
C  5.43200 48.70500 40.35200
O  4.86500 49.04000 39.36400
O  5.78300 47.40100 40.60700
C  5.19800 46.33300 39.75400
H  11.09600 53.84600 40.44700
H  7.04200 58.79400 41.06300
H  2.12300 54.95400 41.94800
H  8.69800 49.59300 41.43400
H  10.47100 51.36100 39.74700
H  11.18200 51.94200 42.49200
H  11.84800 50.67900 41.47500
H  10.58600 50.21900 42.47300
H  8.01700 48.73900 39.20000
H  9.64600 49.17600 39.09000
H  9.41900 50.49700 37.59600
H  8.20400 51.54700 38.23100
H  11.82800 57.01400 38.97900
H  11.88100 55.39000 39.47200
H  12.44900 56.74400 40.57400
H  7.87200 59.76800 39.68900
H  9.22800 60.89400 39.57000
H  8.67400 60.52500 41.16600
H  4.36400 59.07600 40.88700
H  2.68200 57.18100 42.48200
H  3.92300 58.28900 43.66200
H  4.41400 59.85300 43.00400
H  5.63700 58.61600 43.38100
H  2.24200 56.81700 39.56700
H  2.61600 58.40000 39.93900
H  0.63100 58.86300 40.56400
H  0.55300 57.83600 41.92100
H  0.07700 57.31300 40.20700
H  1.04300 51.52100 41.92400
H  1.13300 52.77700 43.24300
H  1.86300 51.14600 43.42900
H  6.34100 49.27200 42.26000
H  4.21000 46.24900 40.20600
H  5.72200 45.37800 39.71400
H  5.10600 46.71800 38.73900

