158

Mg 30.75900 58.71700 38.91000
C  27.62400 57.12300 38.33300
C  32.40000 55.90800 37.78400
C  33.59200 60.61600 38.55700
C  28.98500 61.72600 39.41300
N  30.05100 56.81200 38.02300
C  28.72500 56.32000 38.00400
C  28.73000 54.90800 37.47100
C  30.19700 54.46800 37.58000
C  31.00500 55.81600 37.81500
C  30.42400 53.44700 38.71100
C  28.26200 54.89600 35.99800
C  26.83300 54.35600 35.58900
H  25.95700 55.30200 34.75300
N  32.72600 58.30000 38.45000
C  33.19200 57.07700 38.12800
C  34.64200 57.15400 38.16200
C  35.08200 58.43200 38.34300
C  33.81700 59.25200 38.44800
C  35.57700 55.99000 37.98900
C  36.49300 58.96800 38.42600
O  37.41900 58.25400 38.04600
C  36.74400 60.27800 38.98300
N  31.14000 60.95500 38.84200
C  32.41000 61.44300 38.78500
C  32.40200 62.98800 38.93300
C  30.86600 63.33100 39.22900
C  30.31100 61.93800 39.18200
C  33.38000 63.68400 39.92600
C  30.20500 64.26700 38.21700
C  29.47100 65.53200 38.66600
N  28.67100 59.29200 38.89100
C  28.14200 60.58100 39.15900
C  26.67200 60.42800 39.20500
C  26.41200 59.07300 38.88800
C  27.65800 58.46700 38.77700
C  25.77400 61.54100 39.55200
C  25.39600 58.05200 38.75600
O  24.20900 58.19200 38.80500
C  26.15500 56.74600 38.26900
C  25.76800 55.59800 39.11800
O  26.06700 55.53300 40.28900
O  24.93400 54.72800 38.45400
C  24.30700 53.67800 39.27900
H  33.00000 55.01800 37.58200
H  34.41400 61.33200 38.49100
H  28.40700 62.57700 39.78100
H  28.03200 54.23700 37.97200
H  30.61100 54.07400 36.65100
H  31.13700 52.66800 38.44300
H  29.51000 53.04000 39.14200
H  30.83200 53.94200 39.59300
H  28.94100 54.27100 35.41700
H  28.32000 55.92600 35.64700
H  26.32600 54.05700 36.50600
H  26.76700 53.43300 35.01400
H  35.12600 55.05700 37.65200
H  36.06100 55.76700 38.94000
H  36.38600 56.20700 37.29100
H  37.77200 60.50600 39.26500
H  36.10800 60.40600 39.85900
H  36.52600 61.05400 38.24900
H  32.59600 63.36100 37.92700
H  30.72700 63.56600 40.28400
H  34.06500 62.99100 40.41300
H  32.81400 64.25500 40.66100
H  33.99200 64.37900 39.35000
H  29.59100 63.62800 37.58200
H  31.03200 64.61900 37.60000
H  29.79700 66.41800 38.12000
H  29.64600 65.59400 39.74000
H  28.38500 65.47900 38.59100
H  26.37300 62.19400 40.18800
H  24.84000 61.23300 40.02300
H  25.44500 62.04300 38.64300
H  25.80300 56.64400 37.24300
H  23.91100 54.10700 40.19900
H  25.19500 53.19400 39.68700
H  23.73600 53.02200 38.62200
Mg 36.01100 49.29700 25.52300
C  36.01800 47.31200 28.43400
C  34.96800 51.92700 27.33900
C  35.59000 50.93300 22.62200
C  36.77800 46.45100 23.71900
N  35.31300 49.47700 27.68200
C  35.58600 48.64000 28.69900
C  35.50100 49.34500 30.02800
C  34.92500 50.79000 29.69800
C  35.04300 50.73400 28.13100
C  33.48400 51.18300 30.26600
C  36.80700 49.36500 30.84700
C  36.67000 48.92600 32.36300
H  36.76000 50.07500 33.35000
N  35.47600 51.20200 25.05100
C  34.98300 52.17700 25.93200
C  34.95100 53.46200 25.28500
C  35.08300 53.17500 23.89100
C  35.35000 51.70600 23.78500
C  34.74800 54.68000 26.08500
C  35.06700 54.09600 22.69100
O  35.00800 53.85100 21.47100
C  34.92300 55.59500 22.98900
N  36.03400 48.72500 23.44300
C  35.90900 49.60500 22.47900
C  35.98400 49.02400 21.10900
C  36.42500 47.57500 21.40400
C  36.40900 47.56500 22.95600
C  34.69900 49.00400 20.14400
C  37.76200 47.31600 20.69500
C  39.11100 47.40200 21.51700
N  36.26300 47.32400 25.90700
C  36.60300 46.28700 25.05300
C  36.85300 45.04900 25.87200
C  36.60000 45.42700 27.19100
C  36.25500 46.82200 27.13300
C  37.37700 43.84000 25.40100
C  36.67000 44.97600 28.50600
O  36.80100 43.83800 28.94600
C  36.42600 46.25700 29.37400
C  35.23400 46.05700 30.22400
O  34.04000 46.02700 29.86100
O  35.71900 45.70700 31.51400
C  34.69400 45.41400 32.50500
H  34.84700 52.75500 28.04100
H  35.47000 51.53500 21.71900
H  37.16100 45.60800 23.14000
H  34.76500 48.92700 30.71500
H  35.57200 51.61000 30.01300
H  33.07900 50.27000 30.70100
H  32.91700 51.51800 29.39700
H  33.51500 52.09500 30.86300
H  37.26300 50.35300 30.78100
H  37.57500 48.70400 30.44400
H  37.53400 48.29300 32.56200
H  35.76300 48.32900 32.45900
H  35.39100 55.55500 25.99300
H  34.62800 54.51500 27.15500
H  33.80500 55.04000 25.67400
H  35.80400 55.98900 23.49500
H  34.03400 55.84400 23.56800
H  34.65700 56.06000 22.04000
H  36.81100 49.57800 20.66500
H  35.72900 46.74800 21.26000
H  33.88900 49.63700 20.50800
H  34.31700 47.99600 19.98600
H  35.01200 49.30200 19.14300
H  37.87400 48.00500 19.85800
H  37.74800 46.30200 20.29700
H  39.82600 46.67800 21.12400
H  38.93900 47.27100 22.58500
H  39.56900 48.37500 21.33800
H  37.95900 43.40900 26.21600
H  37.92300 43.79700 24.45900
H  36.55500 43.15200 25.20500
H  37.29900 46.33400 30.02200
H  34.03100 44.57400 32.29500
H  33.99700 46.25200 32.52800
H  35.21500 45.29600 33.45500

