158

Mg 7.97100 2.42500 27.99500
C  9.73100 1.07700 30.90400
C  6.05100 4.00200 30.27400
C  6.24800 3.44300 25.39600
C  9.69700 0.03400 26.13000
N  7.88400 2.47900 30.25800
C  8.77000 2.03300 31.23000
C  8.55200 2.67400 32.62500
C  7.26400 3.46800 32.40800
C  7.01300 3.28900 30.85600
C  6.09300 2.96800 33.28300
C  9.83600 3.47200 33.19100
C  10.36700 2.93700 34.55600
H  10.33800 3.98000 35.72200
N  6.42000 3.50200 27.82800
C  5.73200 4.12700 28.92400
C  4.59800 4.86800 28.34400
C  4.70200 4.78700 26.89700
C  5.85500 3.89700 26.62900
C  3.57800 5.58400 29.20300
C  3.91600 5.39300 25.76500
O  4.09800 5.13600 24.58400
C  2.88800 6.34700 26.08100
N  8.04400 1.90600 26.01600
C  7.16700 2.45900 25.10500
C  7.38100 1.79600 23.69400
C  8.55200 0.84400 23.93800
C  8.78000 0.88100 25.45600
C  6.07500 1.19500 23.09900
C  9.88200 1.22300 23.18700
C  10.80000 0.11000 22.77100
N  9.50200 0.80800 28.34500
C  10.01600 -0.03800 27.46000
C  10.96600 -0.87800 28.17400
C  10.88400 -0.44700 29.54100
C  9.95400 0.49200 29.59300
C  11.85800 -1.88300 27.52200
C  11.45000 -0.65800 30.88800
O  12.32800 -1.45300 31.20500
C  10.62200 0.33000 31.81700
C  9.71400 -0.53800 32.66100
O  8.75300 -1.19500 32.26300
O  10.05800 -0.41900 33.95700
C  9.40100 -1.23400 35.00200
H  5.52800 4.61400 31.01100
H  5.70700 3.59200 24.45800
H  10.25400 -0.67000 25.50800
H  8.42400 1.80200 33.26700
H  7.51300 4.48000 32.72800
H  6.49600 2.36100 34.09300
H  5.19500 2.56900 32.81000
H  5.71000 3.83200 33.82700
H  9.64800 4.52600 33.39700
H  10.68100 3.40300 32.50600
H  11.37100 2.51700 34.50700
H  9.76900 2.16300 35.03800
H  2.69300 4.95400 29.29300
H  3.08600 6.42900 28.72100
H  3.90100 5.76900 30.22700
H  2.12500 5.92800 26.73600
H  2.46200 6.64300 25.12300
H  3.34400 7.18800 26.60500
H  7.76900 2.45300 22.91500
H  8.16900 -0.09700 23.54200
H  6.11100 0.14100 22.82500
H  5.73300 1.84200 22.29200
H  5.28600 1.17300 23.85000
H  10.40500 1.91500 23.84700
H  9.72100 1.76700 22.25600
H  10.94700 0.09000 21.69100
H  10.40000 -0.83100 23.14800
H  11.78800 0.26200 23.20800
H  12.06800 -1.71400 26.46600
H  11.26200 -2.79500 27.55600
H  12.80700 -1.97500 28.05000
H  11.42300 0.93700 32.23900
H  10.13200 -1.94500 35.38400
H  8.55700 -1.82200 34.64100
H  8.97400 -0.61500 35.79200
Mg 2.35800 41.67300 25.42400
C  4.59300 41.75400 28.12000
C  -0.07000 40.74100 27.68000
C  0.31500 41.13500 22.78700
C  4.92700 42.35400 23.21500
N  2.23600 41.38500 27.72600
C  3.26100 41.56700 28.61900
C  2.79700 41.53500 30.08800
C  1.28300 40.99200 29.96200
C  1.11400 40.97700 28.33600
C  1.17900 39.55000 30.64500
C  2.79900 42.95500 30.68400
C  2.31300 43.25900 32.17700
H  2.26500 42.15500 33.22500
N  0.42900 41.07500 25.28900
C  -0.39200 40.74500 26.36300
C  -1.63600 40.34400 25.80000
C  -1.55500 40.35600 24.38800
C  -0.22400 40.93100 24.08800
C  -2.70800 39.78700 26.71600
C  -2.58200 40.01400 23.34900
O  -2.41700 40.32300 22.14600
C  -3.93300 39.34500 23.69200
N  2.51100 41.82400 23.29200
C  1.55300 41.71700 22.46900
C  2.01500 42.03700 21.03200
C  3.47600 42.55500 21.21500
C  3.67700 42.30500 22.66700
C  1.82700 40.91100 19.97300
C  3.76200 44.09100 20.80500
C  4.04100 44.37100 19.32800
N  4.32800 41.97800 25.54300
C  5.24600 42.30500 24.61100
C  6.55300 42.40000 25.18600
C  6.35100 42.09400 26.50500
C  4.95500 41.86100 26.72600
C  7.76400 42.93500 24.48100
C  7.00300 42.00100 27.79700
O  8.22500 41.97100 28.07700
C  5.86400 41.91200 28.94800
C  6.10000 40.83900 29.94000
O  5.79900 39.66200 29.80500
O  6.43600 41.31000 31.16600
C  6.34700 40.56400 32.42900
H  -0.85900 40.53300 28.40500
H  -0.30500 40.92600 21.91300
H  5.72400 42.72200 22.56500
H  3.45600 40.86600 30.64200
H  0.55700 41.69200 30.37800
H  0.81000 38.83600 29.91000
H  0.40900 39.57400 31.41700
H  2.11200 39.17200 31.06300
H  2.15400 43.60700 30.09600
H  3.78600 43.39700 30.55100
H  1.36800 43.80100 32.13100
H  3.04500 44.00900 32.47900
H  -2.23500 39.17500 27.48500
H  -3.50500 39.20900 26.24800
H  -3.11700 40.70400 27.14000
H  -4.38600 39.20100 22.71100
H  -4.43900 40.02000 24.38300
H  -3.57100 38.42200 24.14400
H  1.45000 42.91600 20.72400
H  4.18900 41.94100 20.66400
H  2.79400 40.74700 19.49800
H  1.06500 41.13100 19.22500
H  1.43900 40.01300 20.45500
H  4.66800 44.42300 21.31300
H  3.01400 44.71600 21.29200
H  4.03800 43.44200 18.75800
H  5.08500 44.67000 19.24400
H  3.37700 45.13000 18.91200
H  8.60100 42.29500 24.75900
H  7.95700 43.90900 24.93200
H  7.85700 42.96200 23.39500
H  5.92200 42.84500 29.50900
H  5.63800 39.74200 32.32400
H  5.95400 41.14600 33.26300
H  7.33900 40.18600 32.67200

