158

Mg 43.81100 3.66900 46.77500
C  41.86900 6.62300 46.31100
C  40.83600 1.88400 46.87100
C  45.68700 0.91200 46.22600
C  46.63300 5.66700 46.01200
N  41.59300 4.21900 46.49400
C  41.05100 5.48100 46.41800
C  39.55400 5.46000 46.88900
C  39.37100 3.93700 47.29400
C  40.61100 3.28700 46.86900
C  39.08400 3.72200 48.79700
C  38.52000 5.90400 45.76500
C  38.72900 5.60600 44.25500
H  38.97400 6.81900 43.35400
N  43.36900 1.68900 46.64900
C  42.05000 1.13700 46.70300
C  42.25700 -0.30800 46.69700
C  43.60400 -0.63700 46.66200
C  44.30200 0.67600 46.55000
C  41.04200 -1.20800 46.84700
C  44.20600 -1.97200 46.89200
O  43.52200 -2.99800 47.03500
C  45.68800 -2.20900 47.09300
N  45.81000 3.30500 46.11000
C  46.35400 2.07900 46.12200
C  47.87200 2.15400 45.66800
C  48.17300 3.65900 45.66900
C  46.78700 4.29400 45.92900
C  48.75900 1.40600 46.69200
C  48.81700 4.07800 44.31600
C  50.30000 3.80600 44.16400
N  44.24100 5.72600 46.19900
C  45.41500 6.37100 46.06300
C  45.20000 7.77800 45.98900
C  43.83000 7.96800 46.09200
C  43.26500 6.67800 46.25500
C  46.27700 8.84400 45.69800
C  42.79300 8.98000 46.06400
O  42.92400 10.19300 46.04300
C  41.40300 8.11400 46.17900
C  40.60600 8.59800 47.34600
O  40.68400 8.24300 48.51300
O  39.58900 9.41500 46.85800
C  38.73400 9.95300 47.92100
H  39.96100 1.30000 47.16400
H  46.24100 -0.02400 46.12600
H  47.47400 6.35700 45.92400
H  39.37600 6.06900 47.77600
H  38.57600 3.39800 46.77800
H  40.04400 3.87500 49.28900
H  38.83800 2.68000 49.00400
H  38.32100 4.43100 49.11800
H  38.41700 6.98900 45.73200
H  37.53200 5.54200 46.04900
H  37.82300 5.14300 43.86200
H  39.57800 4.92400 44.22500
H  40.25200 -0.77100 47.45800
H  41.24400 -2.20400 47.24200
H  40.56800 -1.30000 45.87000
H  46.26200 -1.41000 47.56400
H  46.14100 -2.27000 46.10400
H  45.89000 -3.06300 47.74000
H  47.83500 1.78600 44.64200
H  48.87300 4.02900 46.41700
H  49.08900 0.50400 46.17800
H  48.14300 1.11400 47.54200
H  49.68700 1.94200 46.89300
H  48.66900 5.14900 44.17700
H  48.28500 3.61900 43.48200
H  50.80200 4.76000 44.00300
H  50.46800 3.21500 43.26400
H  50.74300 3.24500 44.98800
H  46.61600 8.57700 44.69700
H  47.08700 8.78500 46.42500
H  46.01900 9.87700 45.92900
H  40.87600 8.12800 45.22500
H  39.20900 10.89300 48.20000
H  38.61600 9.37500 48.83700
H  37.72500 10.17600 47.57200
Mg 26.67000 50.45600 27.04300
C  24.52900 51.22600 29.73400
C  28.95600 49.57800 29.34300
C  28.73000 49.89200 24.53900
C  24.20000 51.68900 24.87800
N  26.67300 50.30700 29.35300
C  25.67200 50.62900 30.19400
C  26.05000 50.17800 31.62600
C  27.51100 49.76400 31.48500
C  27.77300 49.96900 29.99100
C  28.64200 50.48500 32.27900
C  25.03200 49.19500 32.34400
C  24.17200 49.74100 33.44400
H  24.36300 49.19300 34.85300
N  28.59900 49.94300 26.95200
C  29.35600 49.53000 28.00800
C  30.67800 49.06500 27.50700
C  30.67300 49.33800 26.10600
C  29.33200 49.79900 25.79400
C  31.66100 48.43700 28.39300
C  31.80700 48.97300 25.20200
O  31.69600 49.05300 23.94100
C  33.01300 48.40800 25.68500
N  26.39700 50.62400 25.05700
C  27.41600 50.22400 24.14800
C  26.84200 50.25900 22.69600
C  25.41000 50.81300 22.86000
C  25.30700 51.06700 24.32800
C  27.59000 50.95400 21.57100
C  24.26600 49.89900 22.26300
C  23.84100 50.47300 20.88000
N  24.79300 51.40600 27.25900
C  23.92000 51.90800 26.26400
C  22.68000 52.24900 26.85900
C  22.89500 52.06100 28.26000
C  24.18900 51.57500 28.41200
C  21.45500 52.61700 26.15800
C  22.24900 52.18500 29.51800
O  21.11700 52.60800 29.84100
C  23.32100 51.65500 30.55500
C  23.66900 52.79900 31.43400
O  24.30800 53.78200 31.07100
O  23.08500 52.68300 32.59900
C  23.26000 53.77300 33.60200
H  29.63500 49.34300 30.16500
H  29.33200 49.65600 23.65900
H  23.43900 52.03400 24.17600
H  26.10700 51.17800 32.05700
H  27.52900 48.68600 31.64700
H  29.25600 49.68400 32.69100
H  28.22000 51.12700 33.05100
H  29.23700 51.11500 31.61700
H  25.67100 48.40500 32.74000
H  24.39700 48.81700 31.54300
H  23.11100 49.57100 33.26100
H  24.40400 50.80600 33.46300
H  32.49900 49.11300 28.56300
H  32.03800 47.48000 28.03000
H  31.25600 48.04700 29.32700
H  33.74300 48.39600 24.87600
H  32.71900 47.43200 26.07000
H  33.31600 49.11700 26.45700
H  26.90400 49.17700 22.57800
H  25.36500 51.79700 22.39400
H  28.56000 51.40000 21.79300
H  26.95900 51.64800 21.01500
H  27.72600 50.05900 20.96400
H  23.47700 49.89200 23.01600
H  24.55500 48.86200 22.09400
H  24.23400 51.48300 20.76200
H  22.75300 50.53500 20.85000
H  24.18400 49.78200 20.11000
H  21.46500 52.20900 25.14700
H  21.36200 53.69700 26.05200
H  20.69900 52.17800 26.81000
H  22.83900 50.80600 31.03900
H  23.97300 54.55900 33.35300
H  23.72000 53.09500 34.32100
H  22.38300 54.34300 33.91000

