158

Mg 26.52500 -0.05500 28.29700
C  28.23600 -0.29500 31.31700
C  23.57500 0.20600 30.09100
C  25.03200 -0.53300 25.48300
C  29.66500 -0.72100 26.59500
N  25.98900 -0.20100 30.50100
C  26.82500 -0.17000 31.46100
C  26.10100 -0.01000 32.82700
C  24.61200 0.19300 32.42100
C  24.72800 0.03500 30.90400
C  23.63900 -0.83600 33.15700
C  26.63300 1.14500 33.78300
C  25.68400 1.75200 34.87400
H  26.22900 2.31800 36.23200
N  24.58000 -0.09300 27.83100
C  23.51100 0.12100 28.66900
C  22.32300 0.01600 27.90600
C  22.66200 -0.17700 26.52200
C  24.17300 -0.41800 26.55200
C  20.86700 0.04600 28.50200
C  21.95900 -0.14300 25.14900
O  22.42000 -0.52600 24.10000
C  20.60800 0.38800 25.26100
N  27.30700 -0.32100 26.32300
C  26.44800 -0.50600 25.32300
C  27.09600 -0.58600 23.88800
C  28.55800 -0.31300 24.30500
C  28.57200 -0.48700 25.81200
C  26.94000 -1.98800 23.31200
C  29.03300 1.11100 23.85000
C  29.71300 1.22600 22.47900
N  28.48600 -0.40400 28.80100
C  29.63800 -0.72200 28.03000
C  30.78900 -0.84900 28.87600
C  30.32900 -0.65700 30.17500
C  28.94100 -0.45800 30.07500
C  32.22300 -1.07700 28.49000
C  30.69200 -0.48800 31.52200
O  31.80200 -0.51900 32.04000
C  29.34200 -0.08900 32.33100
C  29.35900 -0.88800 33.57400
O  29.14500 -2.10400 33.67400
O  29.65300 -0.03600 34.63900
C  29.53000 -0.53800 36.02100
H  22.61900 0.26400 30.61500
H  24.72500 -0.56500 24.43500
H  30.52700 -0.89400 25.94600
H  26.31000 -0.92600 33.38000
H  24.40400 1.24600 32.61300
H  23.08900 -0.28600 33.92100
H  24.24500 -1.63100 33.59300
H  22.93200 -1.24700 32.43700
H  26.85600 2.02300 33.17700
H  27.48100 0.80000 34.37400
H  24.78500 1.13800 34.92600
H  25.29700 2.62400 34.34700
H  20.21500 0.90600 28.35100
H  20.84400 -0.28800 29.53900
H  20.29300 -0.74200 28.01400
H  20.06300 -0.41400 25.75900
H  20.14300 0.60400 24.30000
H  20.48700 1.24600 25.92200
H  26.60100 0.05100 23.15600
H  29.25700 -1.04800 23.90600
H  26.57100 -1.99300 22.28700
H  26.37500 -2.68700 23.93000
H  27.88300 -2.51400 23.16400
H  29.68600 1.60200 24.57100
H  28.18600 1.79200 23.76800
H  29.09100 0.96700 21.62300
H  30.49600 0.47300 22.56500
H  30.02500 2.24400 22.24300
H  32.86700 -0.20600 28.61100
H  32.32200 -1.35000 27.43900
H  32.54000 -1.90100 29.12900
H  29.39600 0.98400 32.51000
H  28.90100 0.19500 36.52600
H  30.53200 -0.40200 36.42700
H  29.10000 -1.53400 36.13700
Mg 35.99700 48.92600 25.62200
C  36.41400 47.06000 28.44600
C  34.97000 51.61200 27.24100
C  35.67100 50.35100 22.66900
C  36.81000 45.93500 23.76200
N  35.72200 49.25700 27.63900
C  36.05400 48.45300 28.64900
C  35.90600 49.21100 29.99000
C  35.36200 50.63600 29.59600
C  35.27700 50.50400 28.08600
C  33.93900 50.84400 30.25100
C  37.33800 49.20400 30.68800
C  37.31400 49.09700 32.18100
H  36.00800 49.19700 32.96700
N  35.28800 50.70500 25.05500
C  35.00200 51.70100 25.90200
C  34.66000 52.86100 25.14800
C  34.74400 52.52200 23.79800
C  35.28700 51.13700 23.81100
C  34.16100 54.23200 25.71700
C  34.45800 53.33300 22.54700
O  34.38800 52.87000 21.39600
C  34.24300 54.81700 22.69100
N  36.18700 48.19600 23.44800
C  36.05700 49.06200 22.44800
C  36.38700 48.51400 21.06400
C  36.99300 47.12800 21.47400
C  36.64300 47.05500 22.97900
C  35.17500 48.53500 20.10700
C  38.51100 46.93100 21.28400
C  39.01100 45.59500 20.63200
N  36.49800 46.86700 26.00100
C  36.77500 45.74100 25.16200
C  37.00800 44.52400 25.96900
C  36.88100 45.03800 27.29100
C  36.61000 46.44100 27.20900
C  37.18200 43.13300 25.38300
C  37.01400 44.62500 28.66900
O  37.36600 43.58800 29.21100
C  36.66300 45.97400 29.49700
C  35.47600 45.68600 30.30200
O  34.34900 45.73600 29.96300
O  35.86100 45.23900 31.53700
C  34.66700 44.99600 32.40100
H  34.68700 52.51000 27.79400
H  35.66500 50.84200 21.69300
H  37.02600 45.09800 23.09600
H  35.18700 48.71900 30.64500
H  36.02300 51.46100 29.86100
H  33.13100 50.75600 29.52500
H  33.84000 51.89900 30.50700
H  33.64600 50.27300 31.13200
H  37.75300 50.15100 30.34400
H  38.01100 48.45400 30.27300
H  37.93800 49.87900 32.61500
H  37.76500 48.14900 32.47400
H  34.79600 55.02900 25.32800
H  34.24200 54.45400 26.78200
H  33.26200 54.57500 25.20600
H  33.30200 55.14100 23.13400
H  34.14700 55.11700 21.64800
H  35.07500 55.28900 23.21500
H  37.00700 49.28000 20.59800
H  36.36300 46.48500 20.86000
H  34.30700 48.87900 20.67000
H  34.96200 47.55600 19.67800
H  35.25800 49.38100 19.42400
H  38.96100 47.05300 22.26900
H  38.98400 47.73000 20.71400
H  39.62800 45.05800 21.35200
H  39.63800 45.84500 19.77600
H  38.14300 45.02300 20.30300
H  37.90700 43.15300 24.56900
H  36.24900 42.74100 24.97800
H  37.42100 42.47800 26.22000
H  37.50100 46.30800 30.11000
H  33.81500 45.66200 32.26300
H  35.13700 45.14400 33.37300
H  34.36500 43.96100 32.24000

