158

Mg 24.26100 -5.99900 46.29300
C  26.38100 -3.63700 44.58800
C  21.66600 -4.75900 44.40400
C  22.60400 -8.62900 47.23300
C  27.14700 -7.04000 47.98800
N  24.12700 -4.55300 44.36200
C  25.07400 -3.59000 44.03600
C  24.53400 -2.60400 43.02700
C  22.98100 -2.92200 43.23200
C  22.87600 -4.14600 44.05300
C  22.28000 -1.72700 44.04700
C  25.06200 -2.73200 41.56500
C  25.48900 -1.39400 40.87500
H  25.53200 -1.34900 39.32300
N  22.38500 -6.69000 45.84300
C  21.42800 -6.02800 45.10600
C  20.23000 -6.85000 45.14900
C  20.41700 -8.02900 45.93600
C  21.79800 -7.81800 46.38900
C  19.08300 -6.42000 44.29400
C  19.47200 -9.14400 46.35300
O  18.35700 -9.10400 45.83800
C  19.80100 -10.13000 47.35700
N  24.84000 -7.68200 47.35300
C  23.95100 -8.55100 47.75500
C  24.52900 -9.57900 48.78000
C  26.01100 -9.11400 48.89100
C  26.05000 -7.90200 48.03000
C  23.72300 -9.55300 50.12700
C  27.01500 -10.18600 48.50200
C  28.28500 -10.08900 49.32900
N  26.33400 -5.40700 46.39200
C  27.37000 -5.94700 47.11900
C  28.59900 -5.23600 46.86200
C  28.25000 -4.29100 45.86600
C  26.87700 -4.47900 45.59300
C  29.90000 -5.45200 47.42400
C  28.84100 -3.25900 44.98300
O  29.97200 -2.87600 44.81100
C  27.62500 -2.77200 44.20000
C  27.32400 -1.33700 44.51600
O  26.79400 -0.95900 45.52300
O  27.87600 -0.57300 43.57100
C  27.84600 0.90600 43.90600
H  20.81600 -4.32700 43.87200
H  22.16400 -9.54200 47.64000
H  27.97000 -7.27000 48.66900
H  24.83200 -1.62400 43.39900
H  22.50800 -3.10100 42.26600
H  22.92700 -1.30200 44.81500
H  21.48800 -2.13700 44.67300
H  21.90900 -0.89100 43.45400
H  24.29700 -3.24100 40.97900
H  25.87100 -3.46300 41.54800
H  26.53400 -1.16200 41.08200
H  24.89800 -0.56500 41.26300
H  18.65100 -5.52900 44.74900
H  18.29800 -7.16800 44.18900
H  19.53400 -6.15100 43.33900
H  18.99000 -10.82500 47.57300
H  20.16300 -9.59000 48.23200
H  20.53200 -10.69100 46.77600
H  24.54100 -10.62900 48.48600
H  26.20800 -8.78400 49.91200
H  23.37500 -10.53100 50.46000
H  22.80300 -8.97300 50.05700
H  24.30300 -9.10600 50.93400
H  27.32200 -10.12100 47.45800
H  26.51600 -11.15200 48.57400
H  28.83500 -11.03000 49.30200
H  27.99100 -9.90400 50.36200
H  28.97400 -9.34700 48.92500
H  30.60200 -5.99500 46.79100
H  29.92800 -5.84000 48.44300
H  30.30200 -4.43900 47.44100
H  27.84800 -2.91900 43.14300
H  28.11900 1.49900 43.03300
H  28.68000 1.01300 44.59900
H  26.88600 1.29800 44.24300
Mg 42.93400 4.49600 47.89900
C  40.99300 7.42300 48.01100
C  40.08000 2.56700 47.73100
C  44.80800 1.86200 47.07600
C  45.79200 6.56500 47.63000
N  40.83300 5.03300 47.64900
C  40.25300 6.29500 47.81000
C  38.75000 6.22200 47.91700
C  38.57300 4.70700 48.16400
C  39.89700 4.02600 47.71500
C  38.36100 4.37800 49.63400
C  37.99300 6.72000 46.66100
C  38.73500 6.62400 45.26900
H  38.98900 7.67500 44.28300
N  42.47500 2.51600 47.49000
C  41.32000 1.89800 47.60600
C  41.42600 0.45100 47.43200
C  42.82200 0.19900 47.23500
C  43.44100 1.57900 47.25000
C  40.22900 -0.42000 47.46400
C  43.41700 -1.14800 47.10000
O  42.69600 -2.14100 47.16700
C  44.92700 -1.39400 46.85100
N  45.01600 4.29000 47.42100
C  45.49900 3.07100 47.04500
C  46.99600 3.11000 46.93200
C  47.37000 4.59500 47.23400
C  45.99500 5.21300 47.43100
C  47.70100 2.07900 47.85300
C  48.28500 5.25700 46.13700
C  49.60700 5.81400 46.60000
N  43.38500 6.54600 47.92100
C  44.62100 7.24900 47.86000
C  44.30800 8.69100 47.95600
C  42.94500 8.76000 47.97100
C  42.42900 7.49000 47.98200
C  45.41700 9.78200 47.99900
C  41.89500 9.74000 48.17300
O  41.92200 10.97300 48.32900
C  40.58500 8.86900 48.11100
C  39.78100 9.10500 49.28900
O  40.09900 8.71700 50.40600
O  38.75600 9.94400 48.98100
C  37.94900 10.32700 50.15100
H  39.19800 1.93400 47.85100
H  45.47100 1.02200 46.85700
H  46.69200 7.18200 47.58000
H  38.54400 6.94400 48.70600
H  37.75200 4.17300 47.68400
H  37.76200 5.14000 50.13300
H  39.31100 4.27300 50.15800
H  37.70600 3.50800 49.68700
H  37.85300 7.79700 46.75600
H  37.00200 6.27300 46.73200
H  38.18400 5.82000 44.78200
H  39.77400 6.30100 45.33200
H  39.48300 -0.15600 46.71400
H  39.65100 -0.32100 48.38300
H  40.38100 -1.48600 47.29700
H  45.59300 -1.05500 47.64400
H  45.21700 -0.83500 45.96100
H  44.93300 -2.46000 46.62000
H  47.25900 2.78400 45.92500
H  47.81100 4.72500 48.22200
H  47.03000 1.45900 48.44700
H  48.37600 2.70500 48.43700
H  48.29700 1.38200 47.26300
H  47.70200 6.09100 45.74600
H  48.41500 4.51600 45.34800
H  49.61700 6.81000 46.15700
H  50.49600 5.38900 46.13400
H  49.66800 5.88200 47.68700
H  46.42500 9.38200 47.88500
H  45.34000 10.35900 48.92000
H  45.33000 10.40500 47.10900
H  39.99200 9.08800 47.22400
H  36.89600 10.04900 50.12200
H  37.82100 11.40700 50.22200
H  38.30800 10.01800 51.13300

