158

Mg 48.89900 44.65700 43.08700
C  45.43600 45.06900 42.31800
C  48.59400 41.45200 42.25400
C  52.17700 44.64400 43.15700
C  48.98200 48.18200 43.84000
N  47.12100 43.38200 42.23000
C  45.80100 43.73300 42.06200
C  45.03700 42.53600 41.62800
C  46.03300 41.33300 41.95600
C  47.33700 42.06700 42.09300
C  45.65100 40.65800 43.27200
C  44.41700 42.47300 40.21300
C  45.05100 43.24100 39.03500
H  45.02900 42.55300 37.65800
N  50.26500 43.26600 42.58100
C  49.95900 41.94900 42.36200
C  51.25500 41.24600 42.21900
C  52.28500 42.09700 42.53600
C  51.56100 43.38500 42.75800
C  51.36100 39.75100 41.78400
C  53.72700 41.73000 42.63200
O  54.08800 40.56200 42.39600
C  54.71300 42.68500 43.19000
N  50.35600 46.22600 43.46600
C  51.65200 45.87300 43.53900
C  52.60100 47.10800 43.78400
C  51.54300 48.24100 44.13700
C  50.18100 47.52300 43.89800
C  53.74400 46.91900 44.76500
C  51.73700 49.65000 43.49300
C  51.91100 50.71000 44.58000
N  47.50100 46.31000 43.18000
C  47.67600 47.62000 43.47600
C  46.44800 48.33700 43.17900
C  45.55100 47.37900 42.73000
C  46.21800 46.16400 42.73900
C  46.24200 49.81700 43.24000
C  44.23600 47.24400 42.11800
O  43.33300 48.05400 41.83800
C  44.08600 45.66200 41.85800
C  42.77500 45.21900 42.55900
O  41.85800 44.65800 41.94700
O  42.89200 45.47900 43.93500
C  41.68600 45.09200 44.63200
H  48.54300 40.37200 42.09600
H  53.26700 44.59800 43.19200
H  48.99200 49.24700 44.08400
H  44.14200 42.56400 42.25000
H  46.08400 40.51100 41.24200
H  45.63400 39.56800 43.28700
H  44.70700 41.05700 43.64200
H  46.37500 41.01400 44.00500
H  43.42400 42.89200 40.37900
H  44.46900 41.41000 39.98200
H  46.09100 43.47400 39.26200
H  44.50400 44.16600 38.85300
H  50.36700 39.51100 41.40800
H  51.55700 39.20200 42.70500
H  52.12500 39.59400 41.02200
H  55.05000 43.50200 42.55100
H  55.51800 42.05500 43.57000
H  54.27400 43.26000 44.00500
H  52.92100 47.31400 42.76300
H  51.68600 48.37300 45.21000
H  53.59400 46.04300 45.39700
H  53.79100 47.84500 45.33800
H  54.70000 46.73800 44.27500
H  50.95800 49.86300 42.76100
H  52.70200 49.65900 42.98700
H  52.80200 51.31500 44.41200
H  51.91500 50.38200 45.62000
H  51.01800 51.33400 44.57700
H  47.17600 50.18700 42.81700
H  46.00600 50.23400 44.21900
H  45.40200 49.99700 42.56900
H  43.91900 45.48200 40.79600
H  41.91700 45.20400 45.69200
H  41.47600 44.06600 44.32900
H  40.83100 45.71500 44.37100
Mg -6.05100 24.84400 25.50900
C  -4.57200 26.40500 28.15800
C  -7.89100 22.86000 27.67500
C  -7.59100 23.39600 22.80900
C  -3.80200 26.41600 23.33500
N  -6.19400 24.65500 27.63600
C  -5.57000 25.44700 28.57400
C  -6.09500 25.24200 30.01900
C  -6.93000 23.89100 29.80900
C  -7.13700 23.85400 28.26400
C  -6.26100 22.62800 30.43600
C  -7.02900 26.40500 30.43800
C  -7.15500 26.50200 32.01200
H  -6.66700 25.47100 33.00200
N  -7.64100 23.37400 25.27100
C  -8.17600 22.64600 26.33300
C  -9.21500 21.77400 25.74300
C  -9.10500 21.95300 24.34600
C  -8.12600 22.93600 24.08400
C  -10.10800 20.98400 26.58700
C  -10.00700 21.41500 23.28500
O  -10.10800 21.95800 22.18200
C  -10.90200 20.31400 23.49400
N  -5.92100 24.97300 23.32900
C  -6.60400 24.23800 22.45500
C  -6.12000 24.37200 20.99100
C  -5.08300 25.57200 21.20100
C  -4.88400 25.67700 22.69400
C  -5.43100 23.09500 20.50100
C  -5.50100 26.96900 20.66400
C  -4.86000 27.51000 19.29400
N  -4.51600 26.04900 25.68300
C  -3.77800 26.69700 24.69200
C  -2.82400 27.59100 25.29300
C  -3.13300 27.55800 26.66600
C  -4.13600 26.58000 26.85200
C  -1.88800 28.47600 24.54800
C  -2.82400 28.19000 27.94100
O  -2.02900 29.08200 28.22200
C  -3.80600 27.43900 28.98400
C  -2.88200 26.71400 29.93700
O  -1.85700 26.21500 29.60700
O  -3.29100 26.83200 31.23700
C  -2.46200 26.23200 32.34600
H  -8.18300 22.16500 28.46500
H  -7.91200 22.90800 21.88600
H  -3.17600 26.98300 22.64300
H  -5.23600 25.01000 30.64800
H  -7.91400 24.03400 30.25700
H  -5.74700 22.92200 31.35000
H  -5.63900 22.07000 29.73500
H  -7.20600 22.09600 30.55100
H  -8.06000 26.27100 30.10900
H  -6.60400 27.30800 30.00100
H  -8.23400 26.48700 32.16600
H  -6.75100 27.46200 32.33200
H  -9.68400 19.98100 26.54000
H  -11.15800 21.01700 26.29700
H  -10.15800 21.47100 27.56100
H  -10.32500 19.50000 23.93200
H  -11.25000 20.04800 22.49600
H  -11.70500 20.67700 24.13600
H  -6.92800 24.69400 20.33500
H  -4.07200 25.40400 20.83100
H  -5.58200 22.21300 21.12400
H  -4.36000 23.23600 20.35900
H  -5.88500 22.78000 19.56200
H  -5.25500 27.78500 21.34300
H  -6.57200 26.99300 20.46400
H  -5.69000 27.80400 18.65100
H  -4.34200 26.66400 18.84200
H  -4.10100 28.28600 19.38700
H  -1.29500 29.06800 25.24400
H  -2.44100 29.11800 23.86200
H  -1.23000 27.76600 24.04600
H  -4.43100 28.19900 29.45300
H  -2.07900 25.22400 32.19000
H  -3.07200 26.36000 33.24000
H  -1.61700 26.91000 32.46500

