158

Mg 1.90600 -0.99400 44.37000
C  5.05100 0.25300 43.42900
C  0.54700 1.64400 42.33700
C  -1.11200 -2.44700 44.33000
C  3.41800 -3.81100 45.49300
N  2.79000 0.72500 42.94700
C  4.03600 1.02600 42.84400
C  4.19300 2.32300 41.97900
C  2.76600 2.67200 41.52300
C  1.98900 1.67200 42.39400
C  2.33000 4.18100 41.54800
C  5.25300 2.00200 40.78700
C  6.51900 2.92100 40.65200
H  7.77600 2.31500 39.97700
N  -0.01900 -0.39900 43.73000
C  -0.33200 0.66500 42.94200
C  -1.79000 0.80300 42.72600
C  -2.30100 -0.36300 43.31800
C  -1.11400 -1.14200 43.79700
C  -2.55400 1.80800 41.81300
C  -3.76300 -0.76600 43.33700
O  -4.55600 -0.08800 42.69300
C  -4.32000 -1.98100 43.94600
N  1.23800 -2.84700 44.78500
C  -0.06600 -3.21700 44.87700
C  -0.21200 -4.67900 45.46900
C  1.23900 -5.13000 45.71700
C  2.01200 -3.82800 45.28700
C  -1.10100 -4.72200 46.90000
C  1.65500 -6.33900 44.86100
C  1.17900 -7.70500 45.32000
N  3.88100 -1.69000 44.55000
C  4.34000 -2.93000 45.07000
C  5.78700 -2.87700 45.22300
C  6.09600 -1.64500 44.63500
C  4.92300 -0.97100 44.17300
C  6.68200 -3.87700 45.87600
C  7.21400 -0.73600 44.39200
O  8.34600 -0.83400 44.80800
C  6.61500 0.49100 43.59000
C  6.86100 1.70500 44.44500
O  6.29900 1.83900 45.54500
O  7.79900 2.48900 43.89100
C  7.84700 3.77400 44.57400
H  0.02900 2.40600 41.75000
H  -2.09000 -2.93300 44.33700
H  3.81300 -4.70800 45.97500
H  4.47600 3.22200 42.52600
H  2.71500 2.32600 40.49100
H  1.70800 4.21500 42.44300
H  1.71100 4.33700 40.66400
H  3.17100 4.87400 41.51700
H  4.82200 2.04700 39.78600
H  5.60000 0.97500 40.89700
H  6.71500 3.19500 41.68900
H  6.19200 3.83000 40.14700
H  -3.21600 1.42300 41.03700
H  -1.81800 2.26100 41.14800
H  -3.15900 2.50400 42.39300
H  -4.10100 -2.83700 43.30800
H  -5.40300 -1.87300 43.99700
H  -3.94100 -2.20500 44.94300
H  -0.61400 -5.17100 44.58300
H  1.50600 -5.30200 46.75900
H  -1.98400 -5.35800 46.83500
H  -1.40000 -3.69400 47.10500
H  -0.54600 -5.01500 47.79100
H  2.73900 -6.44600 44.90100
H  1.46800 -6.17200 43.80100
H  0.50100 -8.19800 44.62300
H  0.51100 -7.52400 46.16200
H  1.99500 -8.40100 45.51700
H  6.15400 -4.82900 45.84700
H  6.99500 -3.57200 46.87500
H  7.59300 -4.07300 45.31000
H  7.18600 0.62600 42.67100
H  8.78700 4.23200 44.26800
H  7.90800 3.71800 45.66000
H  6.98000 4.37900 44.30800
Mg -12.10800 38.03600 42.00100
C  -10.22100 35.16300 40.97300
C  -9.93600 40.00700 40.42200
C  -14.22400 40.49900 42.70000
C  -14.50300 35.66900 43.25100
N  -10.35700 37.59500 40.74500
C  -9.64200 36.40100 40.60300
C  -8.27400 36.58700 39.97100
C  -8.10100 38.16800 40.18600
C  -9.59900 38.62300 40.39500
C  -7.15200 38.63400 41.31800
C  -8.16300 35.99000 38.62300
C  -6.94400 35.04800 38.38700
H  -5.85400 35.68200 37.43300
N  -12.15200 40.02800 41.58100
C  -11.10200 40.66100 40.92400
C  -11.42800 42.11300 40.98300
C  -12.70400 42.24300 41.57200
C  -13.09500 40.93700 41.93600
C  -10.50700 43.19800 40.35900
C  -13.39200 43.64400 41.87600
O  -12.76700 44.64800 41.63700
C  -14.65700 43.65200 42.56300
N  -14.16400 38.08300 42.65800
C  -14.77800 39.26200 43.00600
C  -15.98900 38.98900 43.93600
C  -16.20300 37.42100 43.72900
C  -14.82900 37.03200 43.20900
C  -15.70500 39.44500 45.31200
C  -17.51500 37.00100 42.90300
C  -18.80100 36.65500 43.75900
N  -12.33800 35.83400 42.22400
C  -13.43200 35.06400 42.62200
C  -13.13100 33.63200 42.51000
C  -11.87000 33.67400 41.85000
C  -11.47000 34.97600 41.65800
C  -13.90600 32.48000 42.97700
C  -10.82700 32.82600 41.26800
O  -10.88200 31.59100 41.19600
C  -9.74000 33.76300 40.68100
C  -8.46100 33.44400 41.40600
O  -7.57100 32.73600 40.94900
O  -8.35200 34.08800 42.57800
C  -6.93600 34.11200 43.15200
H  -9.14500 40.64300 40.01800
H  -14.99200 41.20700 43.01900
H  -15.32800 35.04300 43.59600
H  -7.55500 36.17200 40.67700
H  -7.64100 38.47100 39.24500
H  -6.66200 37.80700 41.83300
H  -7.68100 39.13400 42.12900
H  -6.42300 39.35900 40.95500
H  -7.98700 36.87100 38.00600
H  -9.10800 35.54700 38.30700
H  -7.38900 34.13300 37.99500
H  -6.54300 34.80000 39.37000
H  -11.14800 43.82600 39.74000
H  -9.65700 42.80400 39.80200
H  -10.04300 43.81800 41.12600
H  -15.13800 44.63000 42.53700
H  -14.30100 43.33000 43.54200
H  -15.37600 42.97300 42.10400
H  -16.85100 39.55700 43.58600
H  -16.19700 36.85900 44.66300
H  -16.18700 40.39400 45.54600
H  -14.63900 39.66000 45.39500
H  -16.03100 38.66000 45.99400
H  -17.21300 36.15100 42.29100
H  -17.76400 37.80600 42.21200
H  -19.08900 35.66900 43.39300
H  -19.59400 37.39200 43.63400
H  -18.57700 36.69400 44.82500
H  -14.32000 31.92700 42.13400
H  -14.68600 32.60900 43.72800
H  -13.30600 31.69700 43.44100
H  -9.64900 33.51100 39.62400
H  -6.27600 34.73400 42.54800
H  -6.51300 33.11000 43.21900
H  -6.83900 34.59500 44.12400

