158

Mg -1.67400 18.26700 26.75100
C  -1.96600 15.90100 29.36400
C  -2.29400 20.72400 28.96600
C  -1.78300 20.37300 24.25600
C  -1.73100 15.47600 24.49400
N  -2.09600 18.22800 28.86100
C  -2.18300 17.18900 29.79800
C  -2.45400 17.74400 31.17000
C  -3.04800 19.18400 30.87200
C  -2.32500 19.43100 29.52100
C  -4.57900 19.25100 30.74900
C  -1.25900 17.75000 32.09500
C  -1.65900 17.27500 33.46400
H  -0.60400 17.40500 34.63600
N  -1.65400 20.28300 26.68200
C  -1.93300 21.15400 27.67800
C  -1.79500 22.45800 27.20600
C  -1.38700 22.33500 25.78600
C  -1.64600 20.95500 25.49500
C  -2.05800 23.73600 28.05500
C  -1.01200 23.38900 24.83200
O  -0.68500 23.18000 23.65500
C  -0.85500 24.71700 25.31500
N  -1.75300 18.00600 24.69800
C  -1.89400 19.00800 23.85600
C  -1.84100 18.58600 22.42200
C  -1.57700 16.99600 22.50700
C  -1.74100 16.77400 23.98200
C  -3.22400 18.70200 21.63800
C  -0.16700 16.61700 21.98300
C  1.08600 17.08100 22.76700
N  -1.89400 16.15500 26.79700
C  -1.91300 15.21300 25.82800
C  -2.14700 13.94800 26.40400
C  -2.00500 14.13800 27.83100
C  -1.96000 15.54100 28.01800
C  -2.30900 12.62100 25.74300
C  -1.93900 13.39300 29.14200
O  -1.97700 12.21900 29.46900
C  -2.05300 14.53200 30.18800
C  -0.94500 14.41300 31.14700
O  0.17300 14.76700 31.00900
O  -1.29400 13.84000 32.36000
C  -0.32200 13.57300 33.52200
H  -2.25000 21.49500 29.73900
H  -1.83800 21.09700 23.44000
H  -1.70600 14.70100 23.72600
H  -3.18400 17.05800 31.60000
H  -2.63100 19.87600 31.60300
H  -5.13600 18.32800 30.91200
H  -4.79100 19.51800 29.71300
H  -4.92600 20.11500 31.31500
H  -0.91100 18.76800 32.27200
H  -0.42900 17.19500 31.65800
H  -1.99000 16.23600 33.44500
H  -2.52300 17.86700 33.76400
H  -2.50400 24.40700 27.32000
H  -1.17500 24.17100 28.52400
H  -2.75500 23.55900 28.87300
H  -0.47500 25.39200 24.54800
H  -0.16000 24.72700 26.15400
H  -1.80300 25.18800 25.57400
H  -1.08700 19.07900 21.80900
H  -2.24500 16.46300 21.83200
H  -3.89300 17.95700 22.06800
H  -3.21400 18.56500 20.55600
H  -3.70600 19.66200 21.82300
H  -0.01600 17.00200 20.97500
H  -0.20700 15.52800 22.01100
H  0.88800 17.39300 23.79200
H  1.58600 17.90600 22.25900
H  1.82800 16.29300 22.90500
H  -2.98500 12.57600 24.88900
H  -2.89200 12.08400 26.49100
H  -1.35800 12.16700 25.46500
H  -2.96900 14.36900 30.75500
H  0.52800 14.24800 33.42300
H  0.11200 12.57500 33.45300
H  -0.86400 13.69600 34.45900
Mg 48.42000 15.50800 28.41000
C  46.33400 15.00700 31.37000
C  50.45500 17.26400 30.33900
C  50.19200 16.21400 25.61700
C  45.77700 14.12300 26.49900
N  48.32800 16.01800 30.61200
C  47.45100 15.74200 31.65200
C  47.90800 16.28500 32.92400
C  49.18800 17.13900 32.56000
C  49.38600 16.79200 31.02200
C  48.98000 18.73700 32.68600
C  48.31200 15.13900 33.91300
C  47.87200 15.17700 35.40100
H  47.55300 16.49200 35.91200
N  50.17500 16.57000 28.05200
C  50.87400 17.21400 28.97400
C  52.07900 17.76100 28.41600
C  52.08900 17.30600 27.05700
C  50.79800 16.63400 26.82300
C  53.11100 18.44800 29.28900
C  53.20600 17.40300 26.03800
O  53.16200 16.70600 25.00300
C  54.46100 18.24500 26.28100
N  48.01600 15.22500 26.36700
C  48.99100 15.51900 25.40800
C  48.39200 15.27000 24.03000
C  46.96500 14.58000 24.27900
C  46.87700 14.71600 25.80500
C  48.23200 16.58600 23.20200
C  46.92700 13.09000 23.73200
C  47.80600 12.11600 24.51800
N  46.46300 14.64200 28.82000
C  45.54700 14.01200 27.94600
C  44.45000 13.57800 28.75900
C  44.69300 13.88300 30.09900
C  45.94600 14.51600 30.07100
C  43.22100 12.93800 28.25500
C  44.27200 13.73500 31.46400
O  43.19200 13.29200 31.91000
C  45.26600 14.48400 32.32400
C  44.44900 15.36800 33.21200
O  44.02600 16.45700 33.00700
O  44.20800 14.65700 34.36000
C  43.41600 15.39400 35.36000
H  51.12300 17.85400 30.96900
H  50.82700 16.41300 24.75100
H  45.05800 13.52900 25.93100
H  47.13700 16.99900 33.21200
H  50.15000 16.89400 33.00900
H  49.72800 19.13300 33.37200
H  47.99600 19.01900 33.06300
H  49.06300 19.35700 31.79300
H  49.37300 15.05300 34.14700
H  48.07000 14.22300 33.37500
H  48.65300 14.84500 36.08400
H  47.03500 14.48300 35.47600
H  53.54400 17.65100 29.89500
H  52.72900 19.18700 29.99300
H  53.81100 18.89400 28.58300
H  54.20000 19.27400 26.52600
H  55.03200 18.21600 25.35300
H  54.95200 17.73900 27.11300
H  49.02000 14.46600 23.64800
H  46.08100 15.18600 24.08300
H  47.74600 17.24900 23.91800
H  47.67400 16.46600 22.27400
H  49.26800 16.83300 22.96900
H  47.36200 13.05700 22.73300
H  45.87300 12.81600 23.69000
H  48.23500 11.48000 23.74400
H  47.22200 11.48100 25.18300
H  48.64900 12.59600 25.01600
H  43.09700 11.91100 28.59900
H  42.96000 13.10100 27.20900
H  42.43700 13.53900 28.71500
H  45.71100 13.69200 32.92600
H  42.55800 15.83500 34.85400
H  43.90900 16.18100 35.93000
H  42.90300 14.62700 35.94000

