158

Mg 47.41600 25.79300 29.30800
C  48.29300 28.10500 31.95700
C  46.24500 23.76800 31.77900
C  46.96100 23.55100 27.06300
C  48.94600 27.92600 27.12100
N  47.21300 26.03500 31.72500
C  47.68600 26.97000 32.52100
C  47.47500 26.61800 33.97200
C  46.90200 25.15300 33.82400
C  46.82000 24.89900 32.37000
C  47.67700 23.96200 34.62300
C  46.31800 27.59800 34.50100
C  46.10800 27.80300 35.97600
H  46.72400 26.99700 37.10500
N  46.57200 23.94300 29.38400
C  46.07000 23.32400 30.46700
C  45.41500 22.11100 30.10100
C  45.53600 22.05200 28.65700
C  46.36300 23.20500 28.31000
C  44.72500 21.06400 31.07700
C  45.08500 20.99600 27.63200
O  45.41100 21.02700 26.43000
C  44.22600 19.89800 28.00200
N  48.12600 25.62000 27.40700
C  47.77200 24.59600 26.63700
C  48.34500 24.77100 25.24200
C  48.76300 26.25900 25.18200
C  48.53900 26.69200 26.65500
C  49.54700 23.81900 24.86200
C  48.02300 27.15700 24.15600
C  48.80700 28.19600 23.43100
N  48.28200 27.77000 29.44700
C  48.97000 28.46500 28.40600
C  49.50000 29.71600 28.90600
C  49.25500 29.62600 30.35900
C  48.51300 28.39700 30.58500
C  50.11200 30.78000 28.16500
C  49.51300 30.21300 31.62700
O  50.14000 31.20100 31.91300
C  48.89500 29.29200 32.68500
C  49.95600 28.93500 33.71500
O  51.06200 28.62800 33.46300
O  49.46200 29.09900 34.99600
C  50.44500 28.94800 36.06700
H  45.69800 23.27600 32.58700
H  46.64800 23.02600 26.15800
H  49.39900 28.57400 26.36900
H  48.35900 26.66800 34.60900
H  45.86700 25.08700 34.16100
H  48.26500 23.35800 33.93200
H  47.00600 23.23400 35.08000
H  48.28000 24.40600 35.41500
H  45.38000 27.20100 34.11300
H  46.44000 28.52200 33.93600
H  45.02300 27.69800 35.97500
H  46.18400 28.86800 36.19900
H  44.79600 21.49400 32.07500
H  45.20300 20.08400 31.06800
H  43.70100 20.83900 30.77600
H  44.65300 19.30900 28.81200
H  44.04800 19.18300 27.19800
H  43.25200 20.28400 28.30500
H  47.46600 24.54000 24.63900
H  49.81900 26.40500 24.95400
H  50.40500 24.32300 24.41900
H  49.18100 23.07600 24.15400
H  49.98900 23.36800 25.75100
H  47.29400 27.69200 24.76600
H  47.47100 26.58100 23.41300
H  48.43800 28.28400 22.40900
H  49.88700 28.04700 23.44900
H  48.82500 29.16400 23.93300
H  49.39500 31.58800 28.01800
H  50.39400 30.51700 27.14500
H  50.93100 31.12700 28.79400
H  48.11600 29.85500 33.19800
H  51.19800 29.72000 35.90700
H  50.76800 27.90800 36.03500
H  49.89500 29.21700 36.96900
Mg -5.55400 25.09900 25.91800
C  -3.96000 26.46600 28.73000
C  -7.23600 22.96300 27.88100
C  -6.94700 23.76700 23.17800
C  -3.62500 27.43600 23.88000
N  -5.44700 24.71300 28.07500
C  -4.87200 25.47300 28.97100
C  -5.37400 25.08400 30.38300
C  -6.12500 23.72900 30.14200
C  -6.28700 23.76300 28.61800
C  -5.29100 22.50100 30.65000
C  -6.31000 26.10500 30.96000
C  -6.36000 26.35900 32.51400
H  -5.66500 25.27600 33.36400
N  -6.90600 23.53900 25.59300
C  -7.44700 22.83700 26.54600
C  -8.48200 21.98600 26.00500
C  -8.49200 22.17800 24.58200
C  -7.37000 23.15700 24.34600
C  -9.35700 21.05400 26.74700
C  -9.53100 21.58000 23.52000
O  -9.41000 21.82600 22.36900
C  -10.70900 20.72100 23.94000
N  -5.13100 25.29600 23.88100
C  -5.92700 24.75800 22.97500
C  -5.45700 25.15500 21.57400
C  -4.63300 26.45900 21.84500
C  -4.39900 26.38600 23.29100
C  -4.64500 24.04500 20.89000
C  -5.41500 27.76900 21.37100
C  -4.53700 28.81000 20.62400
N  -4.01200 26.53600 26.17700
C  -3.32300 27.37500 25.26100
C  -2.43100 28.16300 26.04600
C  -2.60100 27.80600 27.36600
C  -3.62100 26.87100 27.48700
C  -1.38800 29.13300 25.49100
C  -2.18500 28.15400 28.75300
O  -1.22700 28.84900 29.09500
C  -3.12200 27.30800 29.67800
C  -2.31300 26.54000 30.69900
O  -1.98100 25.37900 30.48400
O  -2.19900 27.27800 31.88000
C  -1.35400 26.71300 32.93100
H  -7.90300 22.38200 28.52100
H  -7.41100 23.35500 22.27900
H  -3.02200 28.02900 23.18900
H  -4.52800 24.96800 31.06100
H  -7.08500 23.79100 30.65400
H  -5.81800 21.84500 31.34200
H  -4.34900 22.81500 31.10000
H  -5.00000 21.94200 29.76100
H  -7.35500 25.98500 30.67500
H  -6.02200 27.07200 30.54700
H  -7.39800 26.29000 32.84000
H  -5.89900 27.29700 32.82300
H  -9.26100 20.07500 26.27600
H  -10.34900 21.49600 26.66500
H  -9.08800 20.90200 27.79200
H  -11.46600 21.25200 24.51700
H  -10.33200 19.83600 24.45300
H  -11.23300 20.27900 23.09200
H  -6.25700 25.31800 20.85200
H  -3.65700 26.43600 21.36100
H  -3.73800 24.50700 20.50000
H  -5.22400 23.69300 20.03600
H  -4.53000 23.21100 21.58200
H  -6.01100 28.21700 22.16600
H  -6.15700 27.34700 20.69300
H  -4.63100 29.73600 21.19100
H  -5.03800 29.07800 19.69300
H  -3.47900 28.59800 20.46800
H  -1.71700 30.16200 25.63800
H  -1.32200 28.96900 24.41500
H  -0.37500 29.06500 25.88900
H  -3.79600 27.99700 30.18700
H  -1.95400 26.01500 33.51500
H  -0.90500 27.45400 33.59300
H  -0.58900 26.14500 32.40200

