158

Mg 46.82600 24.39700 28.53400
C  47.70300 26.81000 31.04500
C  45.95600 22.30900 31.07300
C  46.67400 22.01300 26.29900
C  48.40200 26.39900 26.21700
N  46.78700 24.61400 30.81600
C  47.09500 25.71000 31.67100
C  46.71700 25.41900 33.10000
C  46.37500 23.89200 33.06300
C  46.22400 23.59900 31.56200
C  47.39800 22.92600 33.81100
C  45.72400 26.42500 33.76400
C  46.15800 27.28400 34.93200
H  45.11300 27.56800 35.99900
N  46.17300 22.52900 28.63500
C  45.91600 21.87900 29.80400
C  45.57300 20.50300 29.44000
C  45.65300 20.40500 27.96500
C  46.23100 21.66400 27.56000
C  44.93500 19.51400 30.35900
C  45.35600 19.19900 27.00700
O  45.40700 19.22500 25.80300
C  44.92000 17.81700 27.52200
N  47.58600 24.18300 26.50100
C  47.23000 23.18600 25.81700
C  47.60000 23.28100 24.36200
C  48.02800 24.78200 24.20900
C  47.93500 25.18800 25.75300
C  48.64400 22.14700 23.89700
C  47.18600 25.61000 23.16600
C  45.76300 26.17100 23.52900
N  47.84900 26.22100 28.58400
C  48.35000 26.94200 27.52300
C  48.78300 28.24600 27.93300
C  48.57900 28.15700 29.30000
C  47.98800 26.97700 29.65100
C  49.47900 29.30400 27.18700
C  48.93000 28.90300 30.49600
O  49.67300 29.88100 30.59500
C  48.28700 28.06600 31.71000
C  49.32300 27.70900 32.81000
O  50.25900 26.99400 32.69300
O  49.03300 28.44200 33.94000
C  49.88400 28.22000 35.12800
H  45.86200 21.61300 31.90900
H  46.47800 21.31200 25.48500
H  48.74500 27.21700 25.58000
H  47.69000 25.64000 33.53800
H  45.36000 23.80200 33.45000
H  46.99300 22.47800 34.71800
H  48.24100 23.53300 34.14200
H  47.81600 22.16500 33.15200
H  44.96600 25.80300 34.23900
H  45.40200 26.96600 32.87400
H  46.48500 28.20400 34.44700
H  47.08200 26.81300 35.26800
H  45.34200 18.50400 30.30800
H  43.88400 19.51800 30.06900
H  45.09800 19.78600 31.40200
H  44.14300 18.04000 28.25300
H  45.75800 17.41000 28.08800
H  44.30800 17.25400 26.81800
H  46.63400 23.23600 23.86100
H  49.09600 24.83000 23.99700
H  49.54000 22.58600 23.45800
H  48.15800 21.67300 23.04400
H  48.99300 21.36000 24.56600
H  47.12400 24.99400 22.26900
H  47.75000 26.51200 22.93200
H  45.06200 25.90400 22.73900
H  45.94200 27.24300 23.60000
H  45.44400 25.57700 24.38600
H  49.45900 28.96900 26.15000
H  50.49900 29.50600 27.51400
H  48.99000 30.27400 27.27900
H  47.35900 28.51100 32.07000
H  49.69100 27.21400 35.50000
H  49.65500 28.99400 35.86100
H  50.92200 28.27400 34.79900
Mg 0.28700 43.96800 26.47100
C  2.63600 43.60200 29.13700
C  -1.94800 42.34500 28.41200
C  -1.73200 43.81800 23.75000
C  2.99300 45.12500 24.41800
N  0.42300 43.09400 28.52300
C  1.30000 43.28300 29.48800
C  0.69900 43.08600 30.91400
C  -0.69700 42.47000 30.61600
C  -0.81100 42.67200 29.11000
C  -0.99400 41.05500 31.11900
C  0.62500 44.37700 31.77700
C  1.00100 44.23000 33.33900
H  0.68100 42.94900 34.08900
N  -1.55700 43.00300 26.09000
C  -2.31000 42.35100 27.01600
C  -3.52400 41.90900 26.41200
C  -3.58500 42.45000 25.06600
C  -2.23100 43.16200 24.89000
C  -4.56500 41.00900 27.19600
C  -4.62200 42.29000 24.02300
O  -4.51700 42.78900 22.90800
C  -5.75800 41.37600 24.25000
N  0.56500 44.39900 24.36600
C  -0.47900 44.43900 23.52000
C  -0.16400 45.32800 22.34500
C  1.30000 45.81400 22.60800
C  1.68000 45.10000 23.86500
C  -0.27100 44.70300 20.93500
C  1.28300 47.33800 22.96800
C  2.06500 48.32700 22.08600
N  2.37000 44.43300 26.66000
C  3.35200 44.75400 25.73200
C  4.67200 44.63200 26.35400
C  4.38000 44.24300 27.66600
C  3.00700 44.12700 27.84200
C  6.02500 44.86000 25.74900
C  4.99800 43.92300 28.98000
O  6.19400 43.86300 29.24900
C  3.79800 43.70100 29.94500
C  4.03500 42.45500 30.72100
O  4.33500 41.33100 30.29300
O  3.90300 42.78200 32.03900
C  4.35800 41.69000 32.97700
H  -2.78800 42.05200 29.04600
H  -2.45200 43.91000 22.93400
H  3.78500 45.68800 23.91900
H  1.26200 42.30200 31.42000
H  -1.45000 43.04600 31.15400
H  -1.12700 40.36100 30.29000
H  -1.85600 40.98200 31.78300
H  -0.23500 40.73100 31.83000
H  -0.40000 44.71900 31.92100
H  1.24200 45.17500 31.36400
H  0.39900 45.02200 33.78400
H  2.08300 44.30600 33.45100
H  -4.48000 39.97400 26.86300
H  -5.55100 41.35400 26.88700
H  -4.34000 41.08800 28.25900
H  -6.50700 41.85400 24.88100
H  -5.40600 40.42700 24.65600
H  -6.17700 41.13400 23.27300
H  -0.96600 46.06400 22.29300
H  1.95600 45.57500 21.77000
H  0.62200 44.94500 20.35800
H  -1.23800 44.96700 20.50800
H  -0.26000 43.61300 20.97500
H  1.46400 47.40900 24.04100
H  0.29600 47.75600 22.76600
H  1.42300 49.00900 21.52900
H  2.66300 47.70400 21.42000
H  2.81700 48.85600 22.67100
H  6.56000 43.94300 25.99700
H  6.44300 45.77600 26.16500
H  5.93100 44.99900 24.67200
H  3.65800 44.51000 30.66200
H  3.63800 40.87500 32.89800
H  4.25100 42.20900 33.93000
H  5.39400 41.44900 32.74000

