158

Mg 2.01400 -1.35300 45.51000
C  5.37000 -0.34700 44.65100
C  0.87000 1.42400 43.67600
C  -0.93900 -2.78200 45.31300
C  3.42700 -4.36600 46.71100
N  2.98000 0.36000 44.28300
C  4.36800 0.59100 44.22700
C  4.66600 1.92200 43.52900
C  3.26100 2.50800 43.42000
C  2.31800 1.38500 43.83800
C  3.07400 3.76800 44.36300
C  5.34300 1.77900 42.06200
C  6.77700 2.18400 41.68800
H  7.06000 2.65800 40.21900
N  0.22800 -0.75000 44.54500
C  -0.09400 0.48200 43.95700
C  -1.51900 0.61700 43.81500
C  -2.11700 -0.56000 44.36500
C  -0.96900 -1.49100 44.74300
C  -2.19700 1.79000 43.21700
C  -3.64600 -0.96400 44.49200
O  -4.50300 -0.19600 44.13500
C  -4.18700 -2.24400 44.90900
N  1.40900 -3.37000 45.67600
C  0.12000 -3.58000 45.82100
C  -0.18900 -4.87800 46.61700
C  1.19800 -5.47200 46.87500
C  2.08000 -4.38900 46.31700
C  -1.05100 -4.65700 47.87300
C  1.48500 -6.83600 46.09200
C  0.52400 -8.07500 46.42500
N  3.90900 -2.22200 45.72500
C  4.30500 -3.42000 46.28900
C  5.80200 -3.39600 46.37600
C  6.21900 -2.20200 45.76700
C  5.05800 -1.54200 45.33000
C  6.84500 -4.46700 46.92600
C  7.42900 -1.48300 45.29400
O  8.67700 -1.63100 45.42000
C  6.89600 -0.20400 44.69200
C  7.33700 1.00300 45.51300
O  7.07700 1.25100 46.68700
O  8.17100 1.82700 44.72200
C  8.61000 3.11200 45.35000
H  0.60800 2.43100 43.34300
H  -1.84200 -3.38500 45.42600
H  3.91200 -5.13800 47.31200
H  5.40200 2.40900 44.16700
H  3.00200 2.85400 42.41900
H  2.72400 4.58800 43.73600
H  3.98600 4.08500 44.86900
H  2.25900 3.67600 45.08100
H  4.74900 2.23700 41.27100
H  5.39500 0.72300 41.79800
H  7.40100 1.30900 41.87200
H  7.02200 3.01900 42.34400
H  -3.18300 1.63300 42.78200
H  -1.59000 2.23900 42.43100
H  -2.31100 2.57800 43.96100
H  -4.08500 -2.56200 45.94700
H  -3.73400 -2.93000 44.19400
H  -5.24000 -2.16600 44.63600
H  -0.63100 -5.61100 45.94200
H  1.44600 -5.61300 47.92700
H  -0.56800 -4.76200 48.84400
H  -1.93900 -5.29000 47.87100
H  -1.41300 -3.63200 47.94900
H  2.51500 -7.11400 46.31400
H  1.54500 -6.57400 45.03600
H  0.33500 -8.45600 45.42100
H  -0.40800 -7.71800 46.86400
H  1.05000 -8.87800 46.94200
H  7.81300 -3.97200 47.00600
H  6.85400 -5.27100 46.19100
H  6.39000 -4.90900 47.81200
H  7.28900 -0.13000 43.67800
H  8.45800 3.89300 44.60500
H  9.69600 3.05300 45.41600
H  8.15500 3.40000 46.29800
Mg 35.48400 49.26500 26.73900
C  35.61100 47.11700 29.58100
C  34.29200 51.73400 28.75100
C  35.00800 50.94300 24.02200
C  36.25400 46.32700 24.85200
N  35.10200 49.30100 28.86700
C  35.10400 48.38600 29.84500
C  34.94300 48.91600 31.24500
C  34.23200 50.23500 30.86500
C  34.61900 50.49000 29.40500
C  32.71700 50.29800 31.06600
C  36.28200 49.17800 32.08500
C  36.32800 48.59500 33.52900
H  35.05700 48.71700 34.37100
N  34.76700 51.12300 26.39000
C  34.35900 51.99600 27.33800
C  34.19000 53.27300 26.70600
C  34.34900 53.06300 25.29300
C  34.65100 51.65600 25.16700
C  33.91700 54.51500 27.54900
C  34.35600 53.98900 24.14200
O  34.64200 53.71900 22.96700
C  33.79400 55.40200 24.38600
N  35.61600 48.70500 24.76200
C  35.46200 49.62200 23.76000
C  35.79400 49.10300 22.39300
C  36.21800 47.65500 22.67500
C  35.99900 47.54500 24.19600
C  34.73700 49.25600 21.28800
C  37.66600 47.16800 22.22900
C  38.91900 47.73500 22.78100
N  35.86900 47.14300 27.03900
C  36.22300 46.11300 26.21400
C  36.51200 44.92400 26.92000
C  36.28200 45.26600 28.25000
C  35.90000 46.64000 28.29700
C  37.15600 43.62200 26.31400
C  36.47100 44.72300 29.61800
O  36.96200 43.61100 29.97800
C  35.87600 45.89000 30.51700
C  34.58900 45.47700 31.19500
O  33.46600 45.35000 30.62000
O  34.88100 45.11600 32.45100
C  33.86900 44.38100 33.23800
H  33.83000 52.50900 29.36600
H  34.76000 51.51100 23.12300
H  36.51900 45.44200 24.27000
H  34.27100 48.27100 31.81100
H  34.53700 51.06900 31.49600
H  32.52400 51.16300 31.69900
H  32.28000 49.40900 31.52100
H  32.15100 50.53700 30.16600
H  36.51100 50.23300 32.23300
H  36.99700 48.66500 31.44100
H  37.07200 49.08800 34.15500
H  36.73500 47.58400 33.53200
H  33.66500 54.32100 28.59200
H  33.02400 54.93900 27.09200
H  34.64200 55.32800 27.49800
H  32.82000 55.46500 24.87200
H  33.70100 55.87600 23.41000
H  34.54400 55.92300 24.98100
H  36.65500 49.72800 22.15900
H  35.54600 47.01300 22.10600
H  34.55500 48.29000 20.81800
H  35.14100 49.93000 20.53300
H  33.74300 49.50200 21.66300
H  37.69100 47.30900 21.14800
H  37.67200 46.09400 22.41300
H  38.71600 47.84200 23.84600
H  39.24400 48.68400 22.35400
H  39.70800 46.98600 22.70600
H  38.19000 43.56000 26.65300
H  37.08000 43.57700 25.22700
H  36.65600 42.73400 26.70200
H  36.59100 46.08300 31.31700
H  33.90000 43.30800 33.04800
H  32.84300 44.69700 33.05000
H  34.04500 44.50300 34.30700

