158

Mg 47.34200 34.42300 27.34800
C  46.08100 32.57600 30.18800
C  47.29400 37.12000 29.22200
C  47.95500 35.96300 24.53700
C  46.82100 31.44300 25.48000
N  46.76800 34.77000 29.45000
C  46.40900 33.90900 30.48000
C  46.59800 34.60600 31.87100
C  46.62900 36.08300 31.44600
C  46.91000 35.99100 29.91400
C  45.37500 36.87400 31.77600
C  47.94700 34.08500 32.47800
C  47.94600 33.99800 34.06000
H  47.15200 35.06000 34.81200
N  47.59100 36.30500 27.00900
C  47.67000 37.26200 27.90200
C  48.01400 38.50100 27.22300
C  48.21300 38.14700 25.80500
C  47.87100 36.70700 25.69800
C  48.06400 39.85600 27.97400
C  48.59100 38.99900 24.61200
O  48.81700 38.62200 23.49300
C  48.86700 40.48100 24.91100
N  47.45900 33.76100 25.20200
C  47.75800 34.65800 24.30300
C  48.25000 33.93300 22.97200
C  47.78600 32.43700 23.25600
C  47.34700 32.46800 24.69200
C  47.56800 34.54300 21.70100
C  48.93900 31.33900 23.20600
C  48.45400 29.87700 22.99500
N  46.65400 32.37100 27.66400
C  46.43100 31.35600 26.82000
C  45.89000 30.19300 27.51400
C  45.71200 30.60100 28.87200
C  46.10900 31.94400 28.85400
C  45.61400 28.86400 26.93400
C  45.32900 30.21200 30.21400
O  44.98500 29.08500 30.60000
C  45.43900 31.56400 31.08100
C  45.91600 31.34500 32.38600
O  47.08100 31.06400 32.80400
O  44.87800 31.45200 33.26200
C  45.13900 31.17300 34.66700
H  47.32500 37.98100 29.89200
H  48.26100 36.35900 23.56600
H  46.70900 30.45500 25.02900
H  45.70300 34.29900 32.41200
H  47.42500 36.57300 32.00700
H  45.22200 36.66500 32.83500
H  44.65000 36.43000 31.09400
H  45.79800 37.85800 31.57400
H  48.71700 34.81400 32.22500
H  48.25100 33.12100 32.07100
H  48.97700 34.11000 34.39400
H  47.58900 33.02300 34.39200
H  47.76300 40.68900 27.34000
H  49.08200 40.11500 28.26400
H  47.42000 39.93400 28.85100
H  49.51200 40.60600 25.78100
H  47.91000 40.98200 25.05500
H  49.35900 40.87500 24.02200
H  49.32300 34.08100 22.84900
H  46.95900 32.15600 22.60300
H  47.64200 35.62900 21.64300
H  46.49800 34.33900 21.65300
H  48.04900 34.24300 20.77000
H  49.30800 31.23800 24.22600
H  49.83700 31.58300 22.63800
H  48.85400 29.43800 22.08000
H  47.40200 30.06200 22.78000
H  48.59200 29.27200 23.89100
H  46.23100 28.67100 26.05600
H  44.58300 28.76300 26.59400
H  45.77100 28.05200 27.64300
H  44.42000 31.93400 31.19100
H  45.06800 32.18500 35.06600
H  46.00500 30.56900 34.93800
H  44.22300 30.70800 35.03200
Mg -1.79400 34.79300 25.97800
C  -3.02200 32.79900 28.68900
C  -0.09000 36.65200 28.32900
C  -0.89200 36.70700 23.47100
C  -3.44600 32.64900 23.85800
N  -1.49900 34.68000 28.31200
C  -2.26100 33.88800 29.18100
C  -1.73500 34.06500 30.63000
C  -0.85900 35.37400 30.49000
C  -0.85900 35.65900 28.93800
C  -1.34700 36.58800 31.32100
C  -1.08600 32.82300 31.20200
C  -1.68800 32.20200 32.49900
H  -0.75800 31.92800 33.70000
N  -0.51100 36.36600 25.88000
C  0.18400 36.91100 26.92700
C  1.05400 37.92200 26.46000
C  0.82700 37.95200 25.08400
C  -0.26800 37.07500 24.72200
C  2.01300 38.67500 27.24000
C  1.45800 38.87800 24.01400
O  1.13000 38.93900 22.81700
C  2.57300 39.83300 24.43200
N  -2.31600 34.80600 23.99100
C  -1.76200 35.70100 23.14200
C  -1.97800 35.28400 21.61300
C  -2.55800 33.82800 21.82800
C  -2.73400 33.76400 23.31000
C  -2.92100 36.23300 20.77500
C  -1.61300 32.65300 21.24800
C  -0.22000 32.56800 21.86900
N  -2.99800 33.12400 26.19900
C  -3.59300 32.31000 25.22500
C  -4.35200 31.25600 25.73400
C  -4.14000 31.41100 27.15600
C  -3.39100 32.54200 27.38500
C  -5.20700 30.22700 24.96300
C  -4.46200 30.86500 28.47700
O  -5.21600 29.94300 28.80200
C  -3.69400 31.74000 29.52700
C  -4.57500 32.47700 30.47700
O  -4.97200 33.61200 30.40900
O  -4.88400 31.55400 31.48500
C  -5.55000 32.07600 32.69300
H  0.38500 37.27700 29.08900
H  -0.54700 37.20400 22.56200
H  -3.92800 31.93000 23.19200
H  -2.51200 34.36900 31.33200
H  0.15300 35.18200 30.84600
H  -1.86200 37.31400 30.69200
H  -0.58600 37.09000 31.91900
H  -2.05800 36.26100 32.07900
H  -0.09600 33.16200 31.50900
H  -0.94500 32.10600 30.39300
H  -2.00300 31.25000 32.07100
H  -2.54400 32.76500 32.87100
H  2.22300 38.34700 28.25800
H  1.74000 39.73000 27.22600
H  2.99300 38.46800 26.81000
H  3.32000 39.23600 24.95500
H  2.12100 40.55600 25.11100
H  2.99100 40.44300 23.63100
H  -1.08300 35.24100 20.99200
H  -3.54700 33.79300 21.37100
H  -3.40800 36.88500 21.50000
H  -3.73400 35.70600 20.27700
H  -2.35600 36.80600 20.04000
H  -1.62600 32.67200 20.15900
H  -2.12600 31.74500 21.56500
H  -0.14300 32.79900 22.93100
H  0.46700 33.15800 21.26300
H  -0.00000 31.50100 21.90700
H  -6.07100 30.80200 24.62900
H  -5.42300 29.37400 25.60600
H  -4.70700 29.81600 24.08600
H  -3.00000 31.19200 30.16400
H  -4.92300 32.90100 33.03300
H  -5.43000 31.28200 33.42900
H  -6.60800 32.29400 32.55100

