158

Mg 17.07300 -1.55900 28.11900
C  15.75800 0.48900 30.62800
C  19.06100 -3.01900 30.48400
C  18.34300 -3.27800 25.48000
C  15.30300 0.35600 25.74000
N  17.41700 -1.25500 30.33400
C  16.73700 -0.39200 31.17600
C  17.17000 -0.65500 32.63800
C  18.39600 -1.53400 32.51600
C  18.34000 -1.95000 31.04700
C  19.70000 -0.72100 32.91400
C  16.14300 -1.39200 33.57300
C  16.00100 -0.80800 34.96200
H  17.28100 -0.18600 35.60900
N  18.43100 -3.01600 28.01300
C  19.14900 -3.52100 29.10200
C  19.93600 -4.58200 28.49600
C  19.67000 -4.73700 27.10000
C  18.78500 -3.59700 26.79700
C  20.79400 -5.57700 29.39600
C  20.18400 -5.76900 26.09100
O  20.01900 -5.74700 24.89700
C  21.05800 -6.85600 26.58200
N  16.74800 -1.60200 25.89000
C  17.49200 -2.29200 25.02900
C  17.42300 -1.90700 23.63500
C  16.30400 -0.83000 23.78700
C  16.13500 -0.61900 25.20200
C  18.82000 -1.36100 23.05300
C  14.89300 -1.22900 23.08800
C  13.67900 -1.73300 23.93500
N  15.95400 0.10600 28.11900
C  15.24900 0.73100 27.08600
C  14.39800 1.79600 27.60400
C  14.60300 1.76000 29.01800
C  15.54400 0.74500 29.23900
C  13.52800 2.67600 26.70700
C  14.25200 2.32900 30.32100
O  13.43700 3.18800 30.56400
C  14.98100 1.48700 31.43200
C  15.68300 2.63400 32.21300
O  16.72400 3.24200 31.90200
O  15.02200 2.83500 33.38500
C  15.72500 3.77600 34.32300
H  19.55900 -3.58600 31.27400
H  18.74400 -3.84600 24.63700
H  14.70800 0.86800 24.98100
H  17.43500 0.31200 33.06600
H  18.25500 -2.44200 33.10100
H  19.98000 -1.29200 33.79900
H  19.67000 0.33300 33.19100
H  20.47700 -0.93600 32.18100
H  16.04900 -2.47400 33.48300
H  15.16400 -1.12400 33.17400
H  15.67800 -1.62500 35.60800
H  15.20200 -0.08200 34.81400
H  21.22800 -4.96400 30.18600
H  21.68400 -5.94600 28.88600
H  20.24900 -6.37900 29.89500
H  22.01600 -6.51000 26.97000
H  21.19600 -7.44900 25.67900
H  20.45000 -7.40400 27.30200
H  17.15500 -2.80300 23.07500
H  16.73100 0.09400 23.39800
H  19.52900 -1.18100 23.86000
H  18.71800 -0.50000 22.39200
H  19.32500 -2.15500 22.50300
H  15.10500 -1.95600 22.30400
H  14.52200 -0.38600 22.50500
H  12.85400 -1.05700 23.70900
H  13.82800 -1.85000 25.00900
H  13.21200 -2.68000 23.66500
H  13.04500 3.44500 27.31100
H  12.81700 2.17900 26.04800
H  14.25900 3.07500 26.00400
H  14.16700 1.05300 32.01200
H  16.78100 3.86400 34.06500
H  15.64200 3.53500 35.38300
H  15.32400 4.78800 34.27200
Mg 0.62900 43.10100 24.95000
C  2.60300 42.77900 27.91200
C  -1.97800 41.99300 26.61900
C  -0.89900 42.91400 21.98100
C  3.67300 43.85200 23.25700
N  0.35300 42.65100 27.04100
C  1.23500 42.72000 28.11500
C  0.47200 42.60300 29.43400
C  -0.94800 42.14700 28.96600
C  -0.89200 42.25300 27.45900
C  -1.35600 40.73500 29.55200
C  0.57500 43.90400 30.33200
C  0.95500 43.54700 31.82600
H  0.58000 42.18000 32.40100
N  -1.27200 42.44300 24.38200
C  -2.21800 42.06800 25.21500
C  -3.40400 41.80700 24.42800
C  -3.12200 42.22400 23.09200
C  -1.70700 42.55600 23.09800
C  -4.61000 41.12100 24.97900
C  -4.00500 42.31400 21.86200
O  -3.64800 42.76800 20.79400
C  -5.46800 41.84000 22.00100
N  1.30200 43.31500 22.97900
C  0.44500 43.23100 21.95100
C  1.05600 43.79100 20.60600
C  2.47300 44.16000 21.08800
C  2.48600 43.76600 22.52200
C  0.96000 42.70800 19.48900
C  2.88900 45.66500 20.82600
C  4.37200 45.94100 20.47200
N  2.77400 43.23900 25.48500
C  3.85400 43.49700 24.64600
C  5.08300 43.43200 25.43200
C  4.63400 43.06800 26.74800
C  3.22000 42.98700 26.68800
C  6.47300 43.76000 25.05000
C  5.07200 42.79600 28.08600
O  6.24500 42.75200 28.53200
C  3.72600 42.76400 28.89000
C  3.87200 41.50700 29.68500
O  3.60900 40.36400 29.28300
O  4.23800 41.85800 30.95400
C  4.41700 40.68500 31.83600
H  -2.87100 41.69300 27.17200
H  -1.28000 43.00000 20.96100
H  4.57400 43.94000 22.64600
H  1.01200 41.80000 29.93500
H  -1.60800 42.90600 29.38600
H  -2.03100 40.96300 30.37700
H  -0.42600 40.30500 29.92300
H  -1.86300 40.10400 28.82200
H  -0.31300 44.53100 30.25600
H  1.44900 44.43500 29.95400
H  0.61500 44.29900 32.53800
H  2.03900 43.45700 31.89400
H  -5.55600 41.66000 25.01100
H  -4.47900 40.93600 26.04600
H  -4.72400 40.14800 24.50200
H  -5.43200 40.75000 22.02500
H  -6.02200 42.18700 21.12900
H  -5.93400 42.24600 22.89900
H  0.63100 44.75400 20.32300
H  3.22500 43.51400 20.63500
H  1.90000 42.18500 19.31200
H  0.78800 43.22200 18.54300
H  0.22800 41.93100 19.70600
H  2.72400 46.10600 21.80900
H  2.24800 46.08800 20.05100
H  4.83300 46.46900 21.30700
H  4.50300 46.53200 19.56500
H  4.88200 44.98600 20.34100
H  6.52200 44.27700 24.09200
H  7.12300 42.88600 25.07300
H  6.80700 44.43000 25.84300
H  3.64200 43.59600 29.58900
H  3.65200 39.90900 31.83700
H  4.42400 41.07800 32.85300
H  5.32600 40.09700 31.71000

