158

Mg 26.11400 0.45300 29.31900
C  27.67500 0.11900 32.46500
C  23.26000 1.16500 30.92000
C  24.70900 0.85700 26.31600
C  29.13300 -0.26800 27.81900
N  25.48200 0.46600 31.42100
C  26.34400 0.46500 32.48600
C  25.61000 0.84000 33.75300
C  24.15700 1.10200 33.31200
C  24.27400 0.88500 31.78400
C  22.99100 0.27300 33.92800
C  26.17600 2.14200 34.49000
C  25.26800 2.70400 35.62800
H  25.79800 2.95800 36.99600
N  24.20000 0.88300 28.68400
C  23.11800 1.06100 29.50800
C  21.93700 1.25800 28.63400
C  22.37400 1.15000 27.33700
C  23.76200 0.90500 27.41400
C  20.57700 1.44200 29.23800
C  21.66100 1.26400 25.99200
O  22.18400 0.94700 24.95700
C  20.18200 1.64700 25.96900
N  26.90800 0.54200 27.33900
C  26.03100 0.63700 26.24100
C  26.77000 0.65400 24.92700
C  28.28700 0.39900 25.36900
C  28.13900 0.22800 26.95500
C  26.24900 -0.47100 23.86200
C  29.26900 1.54400 25.09500
C  29.39900 1.89400 23.65300
N  28.03400 -0.15300 29.98700
C  29.13900 -0.34800 29.24100
C  30.18500 -0.61900 30.14700
C  29.71700 -0.41500 31.42100
C  28.38800 -0.20500 31.32000
C  31.51700 -0.92100 29.69200
C  30.10700 -0.34100 32.78600
O  31.21100 -0.46300 33.26400
C  28.72500 0.10200 33.51000
C  28.45300 -0.84000 34.72200
O  27.90200 -1.91800 34.73300
O  28.94500 -0.28000 35.87700
C  28.85600 -1.01000 37.11400
H  22.45600 1.51800 31.56900
H  24.37400 0.97600 25.28400
H  30.08500 -0.38200 27.29600
H  25.68400 -0.00700 34.43400
H  24.00200 2.17700 33.39400
H  22.73900 -0.46100 33.16300
H  22.14100 0.91300 34.16800
H  23.31500 -0.20800 34.85100
H  26.41100 2.85900 33.70400
H  27.13600 1.84300 34.90900
H  24.40600 2.04200 35.70700
H  24.93500 3.66100 35.22500
H  20.46300 1.50300 30.32000
H  19.82200 0.68100 29.03900
H  20.23500 2.36500 28.76900
H  19.83800 1.68100 24.93500
H  20.07700 2.66600 26.34100
H  19.61400 0.90100 26.52400
H  26.66800 1.57500 24.35200
H  28.64800 -0.55400 24.98200
H  25.58500 -1.18700 24.34800
H  27.16100 -0.94900 23.50500
H  25.76600 -0.01000 23.00000
H  30.27100 1.19300 25.34300
H  29.03500 2.44900 25.65600
H  28.72100 1.36000 22.98700
H  30.40700 1.66000 23.30900
H  29.13300 2.92000 23.40100
H  32.14700 -0.45400 30.44900
H  31.72000 -0.46700 28.72200
H  31.71200 -1.97900 29.51900
H  29.00900 1.09400 33.86300
H  28.70000 -0.23200 37.86100
H  29.82000 -1.41000 37.43100
H  28.03700 -1.72900 37.07200
Mg 26.60700 50.28500 26.96400
C  24.72900 51.68600 29.64800
C  28.93600 49.40200 29.25600
C  28.45900 49.36200 24.40200
C  24.14000 51.55800 24.87200
N  26.84100 50.70500 29.18400
C  25.86600 51.04800 30.09100
C  26.38300 50.93500 31.55900
C  27.75500 50.19300 31.36800
C  27.87600 50.08300 29.83800
C  29.02600 50.98000 31.94000
C  25.31000 50.12600 32.46600
C  25.82800 49.11000 33.60800
H  25.01900 48.86700 34.83100
N  28.41600 49.43900 26.81100
C  29.18300 48.99600 27.86200
C  30.39400 48.38500 27.29400
C  30.29200 48.44300 25.86200
C  29.02700 49.14500 25.63900
C  31.42300 47.88900 28.18000
C  31.26200 48.01400 24.84300
O  31.12800 48.16600 23.59500
C  32.47900 47.27700 25.28500
N  26.41300 50.72300 24.88300
C  27.27600 50.06300 24.05000
C  26.72900 49.97400 22.57700
C  25.29500 50.60800 22.79800
C  25.24200 50.94000 24.29400
C  27.64300 50.67500 21.46700
C  24.14600 49.59100 22.43000
C  23.20700 50.09700 21.28200
N  24.85600 51.48800 27.14400
C  23.92000 51.82700 26.22600
C  22.82400 52.55000 26.76800
C  23.06300 52.52500 28.17200
C  24.32900 51.85900 28.28800
C  21.82200 53.29000 25.89400
C  22.63300 52.87900 29.51100
O  21.67300 53.56700 29.88100
C  23.67200 52.25900 30.52900
C  24.31000 53.42300 31.27800
O  25.24300 54.06900 30.81600
O  23.78700 53.65500 32.55500
C  24.47900 54.74600 33.30800
H  29.56300 48.98000 30.04400
H  28.89700 48.86400 23.53500
H  23.44000 51.92900 24.12100
H  26.58100 51.97900 31.80300
H  27.74700 49.12900 31.60300
H  29.44700 50.41600 32.77200
H  28.67000 51.95700 32.26800
H  29.80900 50.94400 31.18300
H  24.75400 49.61400 31.68100
H  24.77700 50.91900 32.99000
H  26.87500 49.30300 33.84500
H  25.96200 48.14400 33.12000
H  31.29600 46.83500 28.42700
H  31.38100 48.40100 29.14200
H  32.41700 48.21400 27.87400
H  33.06200 48.09600 25.70600
H  33.06100 46.71300 24.55500
H  32.38800 46.43300 25.96900
H  26.62000 48.89800 22.44000
H  25.21800 51.55100 22.25600
H  28.45500 51.32300 21.79700
H  26.97200 51.33000 20.91100
H  27.96800 49.84300 20.84100
H  23.51800 49.37900 23.29500
H  24.48000 48.60100 22.11900
H  23.69200 50.90500 20.73400
H  22.20700 50.39500 21.59900
H  23.06700 49.28100 20.57200
H  21.11500 53.89200 26.46500
H  21.34600 52.56000 25.23900
H  22.27500 53.97100 25.17400
H  23.22000 51.51400 31.18400
H  24.00400 54.92700 34.27200
H  24.45900 55.74000 32.86200
H  25.53100 54.46600 33.35300

