158

Mg 5.93200 53.72800 41.39200
C  5.50000 50.24300 41.12400
C  9.18500 53.15400 40.13100
C  6.45300 56.98100 41.32100
C  2.77300 54.05900 42.60700
N  7.15800 51.91300 40.51400
C  6.71800 50.60900 40.57700
C  7.74700 49.74100 39.87700
C  9.03500 50.60200 39.84600
C  8.40900 52.01500 40.10700
C  9.99500 50.18300 40.97600
C  7.37500 49.24700 38.40800
C  6.61700 50.24700 37.44400
H  5.88400 49.61000 36.36400
N  7.63600 54.93300 40.85400
C  8.79100 54.48000 40.40800
C  9.67500 55.62700 40.32000
C  8.98600 56.75300 40.72500
C  7.63200 56.29500 40.95400
C  11.12400 55.57100 39.85300
C  9.49000 58.22200 40.86500
O  10.64900 58.58500 40.67200
C  8.60500 59.36200 41.39600
N  4.66700 55.30100 41.61600
C  5.17700 56.54200 41.65700
C  4.07100 57.52000 42.15300
C  2.85900 56.61300 42.54300
C  3.44000 55.25300 42.19500
C  4.55900 58.51400 43.30700
C  1.44000 56.88100 41.94700
C  0.85500 58.23400 42.31100
N  4.31400 52.44200 41.66300
C  3.12600 52.66800 42.28800
C  2.40800 51.47500 42.51600
C  3.35200 50.43700 42.13200
C  4.45000 51.13000 41.62500
C  0.98900 51.33800 43.18300
C  3.56800 49.06600 42.06400
O  2.87100 48.08500 42.27900
C  4.98600 48.89500 41.44400
C  4.75300 48.01300 40.27600
O  4.14900 48.33000 39.22100
O  5.33700 46.71600 40.52900
C  5.07500 45.67300 39.57200
H  10.15600 53.05600 39.64100
H  6.62000 58.05800 41.39200
H  1.89500 54.19900 43.24200
H  7.88200 48.89700 40.55300
H  9.48200 50.63500 38.85300
H  11.04200 50.19400 40.67200
H  9.80800 49.19800 41.40100
H  9.86900 50.78100 41.87900
H  6.90900 48.26100 38.41800
H  8.29100 48.97300 37.88400
H  7.36100 50.92000 37.01900
H  5.88100 50.83800 37.98900
H  11.74500 56.17800 40.51200
H  11.21700 55.88900 38.81400
H  11.58200 54.58300 39.80000
H  9.24300 60.23300 41.54700
H  8.24200 59.12400 42.39600
H  7.87300 59.56400 40.61400
H  3.74100 58.14900 41.32600
H  2.77400 56.68100 43.62700
H  4.85500 59.44400 42.82300
H  5.40000 58.04800 43.82100
H  3.80200 58.54300 44.09000
H  0.81200 56.01600 42.16300
H  1.49900 57.03600 40.87000
H  1.22600 58.63900 43.25200
H  -0.22300 58.11700 42.41700
H  0.95900 59.08000 41.63100
H  1.12400 51.14200 44.24600
H  0.43000 50.52400 42.72100
H  0.42400 52.26700 43.10700
H  5.70900 48.42600 42.11100
H  5.21000 44.70000 40.04400
H  5.80200 45.72000 38.76100
H  4.06800 45.66500 39.15700
Mg -12.96500 16.08100 42.07700
C  -9.94100 14.57700 41.48100
C  -11.68600 19.04200 40.55300
C  -16.04100 17.55400 42.38100
C  -14.41900 13.02100 42.87300
N  -10.92900 16.71700 41.14500
C  -9.84400 15.92200 41.07700
C  -8.65100 16.65200 40.38400
C  -9.23600 18.13200 40.31200
C  -10.69200 18.00000 40.70900
C  -8.42900 19.28900 41.01300
C  -8.09500 15.99200 39.12500
C  -6.58200 15.51600 39.07800
H  -5.69700 16.29100 38.12400
N  -13.74900 18.07100 41.59400
C  -13.01400 19.09600 41.01300
C  -13.93100 20.23200 40.87900
C  -15.19900 19.82200 41.42700
C  -15.03300 18.43600 41.87800
C  -13.42600 21.49200 40.22000
C  -16.45100 20.75300 41.61300
O  -16.49100 21.87400 41.12400
C  -17.59500 20.36700 42.50800
N  -14.96400 15.41800 42.51000
C  -16.01700 16.20300 42.73500
C  -17.22600 15.47100 43.28800
C  -16.77100 14.03900 43.14400
C  -15.27800 14.17300 42.85900
C  -17.60900 15.86400 44.83500
C  -17.49000 13.23100 42.00400
C  -17.43600 11.66500 42.06100
N  -12.28600 14.18800 42.35500
C  -13.01200 13.01800 42.67200
C  -12.05400 11.92600 42.76000
C  -10.82300 12.47600 42.32300
C  -11.01100 13.87200 42.05400
C  -12.30600 10.58100 43.27100
C  -9.42800 12.24000 41.96700
O  -8.83200 11.18400 41.88700
C  -8.82900 13.57200 41.52100
C  -7.79500 14.06000 42.48500
O  -7.99900 14.42100 43.64100
O  -6.57000 13.95700 41.84500
C  -5.32700 14.35600 42.60800
H  -11.28400 19.96100 40.12300
H  -17.02500 18.01500 42.27400
H  -14.89000 12.05200 43.05100
H  -7.84500 16.64800 41.11800
H  -9.21900 18.40100 39.25600
H  -7.54800 18.93100 41.54600
H  -9.19300 19.71800 41.66200
H  -8.23600 20.14300 40.36500
H  -8.28400 16.55500 38.21000
H  -8.66300 15.07900 38.95100
H  -6.75100 14.58100 38.54500
H  -6.06300 15.53600 40.03700
H  -13.77300 21.42800 39.18900
H  -12.33700 21.53500 40.20500
H  -13.76300 22.34800 40.80400
H  -18.37500 20.01100 41.83500
H  -17.88500 21.34300 42.89600
H  -17.32400 19.66000 43.29200
H  -18.12600 15.69600 42.71500
H  -16.99500 13.54500 44.08900
H  -18.00900 16.87800 44.84400
H  -16.74700 15.65600 45.46900
H  -18.40600 15.22800 45.22100
H  -16.89700 13.49400 41.12800
H  -18.51400 13.60300 41.99400
H  -16.85800 11.23800 41.24200
H  -18.41800 11.19600 41.99500
H  -17.05800 11.39600 43.04800
H  -13.20300 10.18300 42.79500
H  -12.42700 10.57100 44.35400
H  -11.46300 9.93200 43.03600
H  -8.39400 13.53800 40.52200
H  -4.57100 14.89600 42.03600
H  -4.75100 13.46300 42.85100
H  -5.60200 14.91600 43.50100

