158

Mg 34.70000 3.16600 29.44300
C  32.68700 4.33700 32.09700
C  37.30500 3.14400 31.63600
C  36.69700 2.78600 26.77900
C  31.85900 3.92300 27.31900
N  34.95600 3.60200 31.66400
C  33.95300 3.90700 32.56300
C  34.42800 3.82300 34.01000
C  36.02400 3.54100 33.83200
C  36.13800 3.49500 32.25900
C  36.85400 4.48600 34.60400
C  33.62400 2.89400 34.91600
C  33.19500 3.22600 36.37600
H  34.04200 4.34200 37.06000
N  36.67300 2.81200 29.25300
C  37.57800 2.74700 30.26100
C  38.85800 2.38400 29.76200
C  38.69400 2.26300 28.35500
C  37.33500 2.64100 28.05700
C  40.04500 2.01700 30.59100
C  39.71800 1.85800 27.24300
O  39.42300 1.74700 26.06300
C  41.17200 1.48300 27.60600
N  34.29700 3.38800 27.43200
C  35.32700 3.06300 26.49000
C  34.79700 3.06800 25.02000
C  33.25300 3.34900 25.28300
C  33.08200 3.52800 26.78000
C  35.44300 4.13100 24.14700
C  32.30600 2.13400 24.79800
C  32.12900 0.95600 25.74200
N  32.70800 3.94000 29.63500
C  31.69600 4.13600 28.70900
C  30.52500 4.67800 29.28300
C  30.86200 4.78200 30.64500
C  32.23800 4.34800 30.80500
C  29.32700 5.00400 28.68400
C  30.39100 5.15700 31.94900
O  29.34700 5.64900 32.37700
C  31.49000 4.78800 32.95700
C  31.68900 5.93500 33.98000
O  32.36000 6.96500 33.79500
O  30.82300 5.72300 34.99000
C  30.59300 6.88100 35.78200
H  37.95400 3.00800 32.50400
H  37.15000 2.40700 25.86000
H  31.03500 4.18400 26.65100
H  34.26100 4.87500 34.24000
H  36.24600 2.49100 34.02300
H  37.61700 4.94400 33.97500
H  37.39700 3.90600 35.35000
H  36.33200 5.28500 35.13100
H  34.26500 2.07000 35.23000
H  32.78100 2.45500 34.38300
H  33.40100 2.38100 37.03300
H  32.11600 3.38200 36.36800
H  39.69600 1.70500 31.57600
H  40.85600 2.74300 30.64500
H  40.48800 1.07700 30.26200
H  41.16100 0.67500 28.33800
H  41.60600 2.36300 28.08000
H  41.73700 1.17000 26.72800
H  34.84800 2.05400 24.62300
H  32.94500 4.26100 24.77100
H  35.87900 3.68200 23.25400
H  36.21000 4.50700 24.82400
H  34.80600 4.96100 23.84200
H  32.68000 1.69000 23.87500
H  31.32400 2.60100 24.71600
H  31.10200 0.83500 26.08400
H  32.78500 0.94900 26.61200
H  32.27300 -0.01500 25.26700
H  28.67100 5.41800 29.45000
H  28.75900 4.24300 28.14900
H  29.51500 5.70000 27.86600
H  31.11300 3.85300 33.37100
H  31.50600 7.22800 36.26600
H  29.86900 6.53300 36.51900
H  30.07700 7.61500 35.16300
Mg -12.22700 16.75200 41.21800
C  -9.12400 14.99600 41.22300
C  -10.51400 19.66700 40.56700
C  -15.13700 18.09900 40.82700
C  -13.74300 13.56800 41.78700
N  -10.01800 17.19900 40.78300
C  -8.92800 16.35300 40.90400
C  -7.65000 17.13800 40.60500
C  -8.10700 18.68600 40.54700
C  -9.64100 18.53500 40.62900
C  -7.53800 19.43500 41.73400
C  -6.84500 16.59000 39.32600
C  -5.33700 16.94600 39.20600
H  -4.95000 17.57800 37.82900
N  -12.81000 18.69500 40.66500
C  -11.95400 19.83000 40.52400
C  -12.80500 20.93600 40.12200
C  -14.15300 20.44000 40.02000
C  -14.10300 19.02900 40.51300
C  -12.14500 22.29700 39.69600
C  -15.28800 21.20200 39.50200
O  -15.20200 22.38300 39.33600
C  -16.58600 20.49300 39.23000
N  -14.15100 15.96100 41.36100
C  -15.23200 16.79700 41.27700
C  -16.58000 16.04400 41.41500
C  -16.10700 14.61600 41.58900
C  -14.57800 14.69100 41.53800
C  -17.49500 16.78900 42.46300
C  -16.56400 13.52800 40.55200
C  -17.21900 12.30900 41.11600
N  -11.63700 14.63700 41.58000
C  -12.37700 13.48800 41.77300
C  -11.46100 12.37800 41.98600
C  -10.16700 12.95300 41.68300
C  -10.32600 14.31200 41.46500
C  -11.79500 11.04100 42.39500
C  -8.78100 12.62800 41.60100
O  -8.19700 11.54800 41.64900
C  -8.02200 13.95800 41.20200
C  -6.98600 14.26000 42.27100
O  -7.11800 13.98700 43.44700
O  -5.80300 14.82300 41.80900
C  -4.87000 15.26600 42.90000
H  -10.01800 20.63700 40.49100
H  -16.14700 18.50900 40.75800
H  -14.17700 12.59100 42.00900
H  -6.87500 17.01200 41.36200
H  -7.71700 19.16300 39.64800
H  -7.01800 20.35100 41.45400
H  -6.96500 18.79600 42.40600
H  -8.41100 19.71700 42.32500
H  -7.22400 17.06800 38.42300
H  -6.84300 15.51600 39.14000
H  -4.72700 16.07100 39.43100
H  -5.10200 17.66800 39.98800
H  -12.72500 22.76900 38.90300
H  -11.15000 22.10000 39.29700
H  -12.10900 22.95600 40.56400
H  -16.34900 19.48600 38.88700
H  -17.04400 20.96700 38.36200
H  -17.08000 20.44700 40.20100
H  -17.04000 16.12900 40.43000
H  -16.32700 14.32400 42.61600
H  -18.50200 16.91000 42.06300
H  -17.05000 17.74500 42.73700
H  -17.63300 16.12500 43.31700
H  -15.65100 13.19500 40.05700
H  -17.14900 13.95300 39.73600
H  -16.83400 12.18000 42.12700
H  -16.96000 11.40000 40.57300
H  -18.30500 12.39500 41.13200
H  -11.85100 10.43400 41.49100
H  -12.74700 10.86300 42.89600
H  -11.03600 10.55300 43.00600
H  -7.61300 13.78600 40.20700
H  -3.83400 15.48000 42.63800
H  -4.83900 14.57400 43.74200
H  -5.38300 16.11100 43.35900

