158

Mg 28.16000 56.41500 40.28300
C  25.97300 53.84300 39.60200
C  30.91300 54.43300 39.46600
C  30.16400 59.09100 40.42100
C  25.29500 58.49400 40.50800
N  28.33200 54.45000 39.55300
C  27.30400 53.57200 39.32700
C  27.80700 52.26300 38.67200
C  29.37400 52.34700 38.93300
C  29.58300 53.88100 39.39700
C  29.93000 51.32000 39.90600
C  27.46700 52.12500 37.14800
C  26.89800 53.36600 36.39000
H  26.76600 53.21700 34.82900
N  30.26200 56.73000 40.09200
C  31.21200 55.81200 39.77200
C  32.51700 56.45400 39.83200
C  32.38600 57.79000 40.21800
C  30.89500 57.96800 40.31700
C  33.74500 55.64300 39.60500
C  33.54100 58.74200 40.41000
O  34.74000 58.50000 40.28900
C  33.21100 60.04500 40.94800
N  27.75800 58.51600 40.34200
C  28.76600 59.40300 40.52000
C  28.21400 60.83000 40.87600
C  26.70300 60.66300 40.64200
C  26.54600 59.14700 40.56000
C  28.69200 61.30500 42.29500
C  26.10900 61.53100 39.55600
C  26.14400 63.05300 39.83900
N  26.06500 56.23200 40.16400
C  25.04000 57.17000 40.29500
C  23.72300 56.52200 40.13800
C  23.99900 55.19100 39.86100
C  25.45800 55.07800 39.89800
C  22.36900 57.17500 40.06800
C  23.47300 53.85100 39.66300
O  22.31400 53.41700 39.57900
C  24.78100 52.92400 39.50200
C  24.74900 51.83800 40.57300
O  24.13300 50.81300 40.45300
O  25.45400 52.18800 41.68200
C  25.37300 51.32300 42.87500
H  31.78700 53.81000 39.26800
H  30.71500 60.02600 40.53500
H  24.45000 59.16600 40.67100
H  27.38900 51.39200 39.17500
H  29.80700 52.19900 37.94400
H  29.09100 50.83600 40.40700
H  30.46600 51.78400 40.73400
H  30.45500 50.52400 39.37700
H  26.66200 51.39000 37.16800
H  28.36200 51.67100 36.72300
H  27.45000 54.25300 36.70000
H  25.88600 53.51500 36.76600
H  33.57100 55.06900 38.69500
H  33.68600 54.96300 40.45500
H  34.67000 56.21100 39.50600
H  32.62000 60.03900 41.86400
H  32.64000 60.52800 40.15500
H  34.06400 60.71100 41.07400
H  28.62200 61.47000 40.09400
H  26.11700 60.95400 41.51300
H  29.76900 61.42800 42.41300
H  28.41200 60.59200 43.07100
H  28.18200 62.23600 42.54000
H  25.16800 61.11800 39.19400
H  26.72400 61.28700 38.69000
H  26.60400 63.32500 40.78800
H  25.11900 63.42600 39.84000
H  26.74000 63.61500 39.12000
H  21.61400 56.66900 39.46500
H  22.54100 58.13800 39.58700
H  21.93900 57.23200 41.06800
H  24.95800 52.44000 38.54100
H  25.99000 50.47000 42.59200
H  24.41100 50.86100 43.09700
H  25.64200 51.82300 43.80500
Mg 17.11200 51.96700 25.81300
C  18.82000 50.45000 28.48400
C  14.82000 53.20600 28.14400
C  15.30400 53.05000 23.28900
C  19.33600 50.39400 23.62200
N  16.89600 51.87800 28.00600
C  17.69600 51.14700 28.87800
C  17.22200 51.36400 30.35100
C  15.80500 51.93500 30.14800
C  15.79600 52.32400 28.65500
C  14.73800 50.93200 30.40200
C  18.23500 52.33200 31.11100
C  18.39600 52.24000 32.63300
H  17.22400 51.68100 33.48800
N  15.35300 53.10300 25.72500
C  14.60100 53.53700 26.79900
C  13.57200 54.43900 26.27200
C  13.66800 54.40900 24.82800
C  14.77700 53.45100 24.53100
C  12.60000 55.15000 27.11700
C  12.82500 55.14800 23.77600
O  13.00100 55.14800 22.55800
C  11.78500 56.07000 24.34700
N  17.26400 51.61600 23.72400
C  16.34400 52.17900 22.87300
C  16.67400 51.90300 21.41000
C  18.14500 51.28300 21.49200
C  18.32500 51.15000 23.05700
C  15.64300 51.17900 20.53600
C  19.21000 52.23700 20.82500
C  20.68600 51.82200 20.69000
N  18.74600 50.69700 25.96700
C  19.50500 50.11100 24.98900
C  20.55100 49.34000 25.61600
C  20.39700 49.47200 27.00300
C  19.24400 50.32300 27.18800
C  21.68600 48.72700 24.91800
C  20.89800 49.13400 28.29400
O  21.87200 48.51600 28.64100
C  19.95500 49.82700 29.29400
C  19.56000 48.76900 30.27500
O  18.89800 47.77300 29.99700
O  19.93000 49.01000 31.55700
C  19.16800 48.16100 32.57100
H  14.07100 53.44400 28.90200
H  14.65600 53.50200 22.53600
H  20.07700 50.00000 22.92400
H  17.18200 50.40200 30.86300
H  15.61900 52.77100 30.82200
H  13.81500 51.50900 30.46400
H  14.79300 50.45400 31.38100
H  14.63400 50.31400 29.51000
H  18.01400 53.37000 30.86300
H  19.18000 52.08500 30.62700
H  18.54100 53.25100 33.01400
H  19.31000 51.67700 32.82400
H  12.49300 56.20700 26.87200
H  12.90400 55.27000 28.15700
H  11.68400 54.56400 27.18800
H  11.11400 55.70600 25.12600
H  11.14700 56.19200 23.47200
H  12.31000 56.99600 24.58100
H  16.80600 52.93500 21.08500
H  18.25100 50.33800 20.95800
H  16.08900 50.65600 19.68900
H  14.95600 51.88700 20.07400
H  15.10200 50.40600 21.08200
H  19.20100 53.10500 21.48400
H  18.81700 52.53100 19.85200
H  21.01100 52.17100 19.71000
H  20.93200 50.78400 20.91600
H  21.23100 52.34700 21.47500
H  22.15500 49.28000 24.10400
H  21.32900 47.71200 24.74400
H  22.42100 48.69200 25.72300
H  20.53500 50.60600 29.78900
H  19.15800 47.07200 32.52400
H  18.14000 48.52300 32.58800
H  19.66500 48.37300 33.51800

