158

Mg 16.84100 -3.47500 28.31300
C  15.73500 -1.27700 30.84900
C  18.67900 -5.08300 30.61800
C  18.10000 -5.26400 25.79700
C  15.26900 -1.38600 25.97200
N  17.21900 -3.10800 30.52000
C  16.65800 -2.21300 31.32300
C  16.99500 -2.43600 32.80700
C  18.10300 -3.53200 32.74000
C  17.98500 -3.99100 31.22700
C  19.48600 -3.01100 33.04800
C  15.73500 -2.98900 33.57000
C  15.67900 -2.53400 35.03100
H  16.93300 -2.08400 35.79300
N  18.08200 -5.12100 28.20900
C  18.69000 -5.70400 29.30500
C  19.25900 -6.93200 28.94500
C  19.14100 -7.02600 27.51900
C  18.34800 -5.80500 27.09900
C  20.01000 -7.87800 29.80800
C  19.72300 -8.00000 26.46300
O  19.47000 -7.90800 25.27400
C  20.46400 -9.19600 26.89800
N  16.82000 -3.30500 26.20600
C  17.45300 -4.15300 25.42500
C  17.38500 -3.77400 23.92000
C  16.28600 -2.71600 23.94300
C  16.13600 -2.37400 25.44900
C  18.71000 -3.36400 23.26400
C  14.85900 -3.14800 23.37100
C  14.42800 -2.24600 22.20200
N  15.81600 -1.70200 28.26300
C  15.06000 -1.10200 27.29100
C  14.28700 0.04100 27.80100
C  14.49600 -0.06200 29.15200
C  15.42000 -1.10600 29.43800
C  13.48500 0.94400 27.03400
C  14.28600 0.73000 30.37100
O  13.81400 1.85800 30.52000
C  14.92300 -0.17000 31.53300
C  15.68600 0.76000 32.37300
O  16.80300 1.22800 32.08300
O  14.95700 1.16100 33.44300
C  15.68200 2.07300 34.27300
H  19.31300 -5.56900 31.36200
H  18.53600 -5.86500 24.99600
H  14.80900 -0.72400 25.23500
H  17.25600 -1.45900 33.21300
H  18.02500 -4.42000 33.36700
H  19.45600 -2.10000 33.64500
H  20.05300 -2.80000 32.14100
H  20.09100 -3.74500 33.58100
H  15.89400 -4.06000 33.68800
H  14.76400 -2.73300 33.14700
H  15.27100 -3.40400 35.54600
H  15.08500 -1.62300 35.09100
H  21.06900 -7.62600 29.75100
H  20.05000 -8.95300 29.63200
H  19.66700 -7.86400 30.84300
H  19.90300 -9.90100 27.51100
H  21.18600 -8.55500 27.40200
H  20.89000 -9.66600 26.01200
H  17.07300 -4.68700 23.41200
H  16.58000 -1.82700 23.38500
H  18.65700 -2.36200 22.83900
H  18.80900 -3.99500 22.38100
H  19.54800 -3.46700 23.95300
H  14.06500 -3.00000 24.10300
H  14.91600 -4.14900 22.94200
H  13.66200 -1.62600 22.66800
H  13.95900 -2.86200 21.43400
H  15.10200 -1.65500 21.58100
H  13.94400 1.24000 26.09100
H  13.17900 1.87700 27.50600
H  12.67400 0.30700 26.68000
H  14.03500 -0.52200 32.05800
H  16.19900 2.85100 33.71000
H  16.28900 1.54200 35.00600
H  15.01400 2.67600 34.88800
Mg 25.95300 53.08400 26.11700
C  23.69900 53.98300 28.90100
C  28.31300 52.65100 28.45400
C  28.05700 52.72800 23.49300
C  23.39700 53.95700 23.90300
N  25.89600 53.27000 28.46400
C  24.91000 53.47900 29.36700
C  25.40100 53.21200 30.78600
C  26.83600 52.68300 30.53500
C  27.06500 52.89900 29.04900
C  27.95200 53.34000 31.35200
C  24.47700 52.30200 31.61800
C  25.05900 51.67600 32.95200
H  24.42300 52.02100 34.40300
N  27.93400 52.79000 25.96900
C  28.73500 52.60200 27.02700
C  30.07800 52.33200 26.61000
C  30.04500 52.37200 25.16600
C  28.64300 52.60800 24.77300
C  31.21100 52.05500 27.66400
C  31.18400 52.17900 24.15700
O  31.09800 52.29100 22.96700
C  32.61000 51.92700 24.72700
N  25.67400 53.48400 24.00100
C  26.71200 53.11000 23.18800
C  26.25900 53.23600 21.70600
C  24.69700 53.42200 21.77600
C  24.57500 53.61400 23.30700
C  26.93500 54.41000 20.87300
C  23.86900 52.21300 21.27900
C  22.54100 52.60200 20.48800
N  23.99000 53.87100 26.31000
C  23.04700 54.10200 25.24900
C  21.80700 54.66000 25.91000
C  22.03300 54.63700 27.26900
C  23.37900 54.14800 27.47500
C  20.66300 55.06800 25.16900
C  21.42000 54.78400 28.56600
O  20.34500 55.21400 28.82200
C  22.48400 54.34300 29.64000
C  22.65500 55.49400 30.59300
O  23.26000 56.57000 30.39200
O  22.18000 55.07700 31.82900
C  22.42200 56.16600 32.83900
H  29.11700 52.35400 29.13100
H  28.70300 52.54300 22.63200
H  22.57600 54.13700 23.20700
H  25.40800 54.18400 31.28100
H  26.94300 51.61900 30.74400
H  27.67500 53.65100 32.35900
H  28.46000 54.16000 30.84400
H  28.64000 52.54500 31.63900
H  23.93900 51.51200 31.09500
H  23.65000 52.94900 31.91000
H  26.13700 51.82900 33.01600
H  24.91100 50.60700 32.80200
H  31.44100 50.99200 27.74300
H  31.00800 52.54700 28.61500
H  32.21700 52.39700 27.42200
H  33.24900 51.58100 23.91500
H  32.54200 51.14900 25.48700
H  32.78100 52.87200 25.24400
H  26.46800 52.24900 21.29400
H  24.29400 54.29600 21.26300
H  27.67200 54.04800 20.15700
H  27.42300 55.03100 21.62500
H  26.16100 55.05100 20.45200
H  23.45100 51.64100 22.10700
H  24.35700 51.49900 20.61500
H  22.38900 53.66800 20.32000
H  21.66800 52.27700 21.05300
H  22.57100 52.20600 19.47300
H  20.88400 55.34300 24.13700
H  20.28800 56.00300 25.58600
H  19.79000 54.41800 25.21200
H  22.19600 53.50500 30.27500
H  23.47100 56.05700 33.11400
H  21.85900 55.98600 33.75500
H  22.23000 57.17500 32.47300

