158

Mg 0.86800 7.20600 25.41500
C  1.55400 8.90100 28.38000
C  1.15500 4.27000 27.20800
C  0.40300 5.47100 22.63500
C  1.11100 10.24000 23.68000
N  1.07100 6.67200 27.60500
C  1.29700 7.56700 28.55000
C  1.36100 6.82800 29.87500
C  1.55000 5.28900 29.47000
C  1.26000 5.38400 27.97100
C  2.78900 4.59200 29.97800
C  0.10300 7.07200 30.72100
C  0.44400 7.49800 32.20600
H  1.73700 6.97700 32.85900
N  0.78100 5.12800 24.96700
C  0.95200 4.06900 25.81000
C  0.86400 2.84800 25.07200
C  0.68500 3.25700 23.71600
C  0.67000 4.68600 23.69400
C  1.12800 1.53600 25.73400
C  0.56500 2.33600 22.46200
O  0.49000 2.79800 21.30900
C  0.47800 0.89900 22.63100
N  0.86400 7.75600 23.44000
C  0.39900 6.89000 22.51400
C  0.10700 7.60600 21.21100
C  0.34900 9.09700 21.49700
C  0.78000 9.08500 22.98600
C  0.97400 6.95300 20.09900
C  -0.87700 10.04000 21.38700
C  -0.79200 11.24700 20.37600
N  1.39200 9.19100 25.90400
C  1.40000 10.31600 25.12800
C  1.57900 11.49900 25.93900
C  1.66300 10.98900 27.24500
C  1.63100 9.52600 27.15900
C  1.53000 12.91600 25.27200
C  1.84100 11.35200 28.67600
O  2.01900 12.43600 29.21700
C  1.83700 9.95500 29.42900
C  3.15300 9.82100 30.12900
O  4.20200 9.43100 29.60400
O  3.12800 10.49000 31.40200
C  4.43500 10.67800 32.14000
H  1.37400 3.39300 27.82100
H  0.07000 4.96100 21.72900
H  1.11400 11.20100 23.16100
H  2.23600 7.29500 30.32900
H  0.74100 4.69000 29.88900
H  3.43600 5.30100 30.49400
H  3.38600 4.19200 29.15800
H  2.51000 3.80100 30.67400
H  -0.49000 6.15900 30.78200
H  -0.60000 7.75300 30.24100
H  -0.44600 7.24300 32.78200
H  0.48900 8.58200 32.31100
H  2.05500 1.15800 25.30300
H  0.34200 0.84900 25.42100
H  1.02600 1.54900 26.81900
H  1.48800 0.52500 22.79600
H  0.05000 0.33500 21.80200
H  -0.25200 0.81600 23.43600
H  -0.97200 7.54100 21.07500
H  1.18600 9.39100 20.86300
H  1.14100 7.64800 19.27600
H  0.45500 6.06400 19.74000
H  1.97000 6.70100 20.46200
H  -1.07200 10.50000 22.35700
H  -1.77600 9.48000 21.13000
H  -0.92000 12.16800 20.94400
H  -1.45700 11.14600 19.51900
H  0.21000 11.34200 19.95700
H  1.33400 13.54800 26.13800
H  0.71400 13.07500 24.56600
H  2.41400 13.28700 24.75300
H  1.03000 10.06300 30.15300
H  5.22000 10.77900 31.39100
H  4.82900 9.87900 32.76900
H  4.29700 11.59500 32.71300
Mg 30.74300 58.44000 40.65100
C  27.97300 56.49500 39.81800
C  32.80900 55.97400 39.48000
C  33.25700 60.69500 40.65700
C  28.43100 61.24100 41.26800
N  30.39200 56.53100 39.62000
C  29.19800 55.87400 39.44100
C  29.40900 54.56800 38.69500
C  30.80400 54.21800 39.16200
C  31.40000 55.62100 39.38100
C  31.04400 53.28600 40.45100
C  29.24700 54.67100 37.16400
C  28.08600 53.81300 36.64400
H  27.24600 54.50500 35.58200
N  32.80000 58.28300 40.28400
C  33.43100 57.20300 39.82900
C  34.84900 57.38500 39.91100
C  35.03300 58.84900 40.14600
C  33.65400 59.34500 40.30500
C  35.97700 56.28400 39.58900
C  36.28600 59.60000 39.99000
O  37.36200 58.97600 39.86700
C  36.39300 61.06600 39.94600
N  30.72500 60.69700 40.82800
C  31.96800 61.35100 40.90000
C  31.76300 62.77600 41.05500
C  30.23000 62.93500 41.27500
C  29.77700 61.59800 41.10700
C  32.53500 63.35500 42.29000
C  29.48300 63.97900 40.32300
C  28.76900 65.11300 41.06000
N  28.63000 58.77500 40.68800
C  27.82100 59.92500 41.00200
C  26.48000 59.47700 40.98000
C  26.48300 58.20400 40.47000
C  27.80300 57.77500 40.33700
C  25.36100 60.37900 41.34800
C  25.67400 57.11600 40.11400
O  24.44500 57.03900 40.07700
C  26.57400 55.95400 39.66500
C  26.31200 54.77200 40.49500
O  26.89800 54.61900 41.53200
O  25.26400 54.04900 40.01400
C  24.79400 52.95100 40.90400
H  33.47400 55.11800 39.34900
H  34.09100 61.40000 40.65100
H  27.69800 61.99700 41.55900
H  28.82200 53.79800 39.19600
H  31.35300 53.73900 38.35000
H  30.17900 52.62300 40.49000
H  31.31300 53.94100 41.27900
H  31.82100 52.56400 40.19700
H  30.11600 54.32700 36.60200
H  29.04800 55.71000 36.90300
H  27.53400 53.54500 37.54400
H  28.46300 52.85400 36.28900
H  35.51100 55.34500 39.88600
H  36.84000 56.32800 40.25400
H  36.18700 56.29200 38.52000
H  36.27900 61.46800 40.95300
H  35.61900 61.53400 39.33900
H  37.41400 61.27100 39.62400
H  32.11600 63.14600 40.09300
H  29.99100 63.21200 42.30100
H  33.52900 62.91700 42.37400
H  31.86300 63.26300 43.14400
H  32.67100 64.43500 42.22700
H  28.86800 63.37400 39.65800
H  30.24700 64.52200 39.76600
H  29.07900 65.13500 42.10500
H  27.68500 65.03900 40.97600
H  29.15700 66.09000 40.77000
H  25.72700 60.93300 42.21200
H  24.47400 59.77100 41.53300
H  25.23700 61.01700 40.47400
H  26.30800 55.67800 38.64500
H  23.94200 53.29400 41.49100
H  25.57400 52.56800 41.56200
H  24.48300 52.23900 40.13800

