158

Mg 35.47800 48.13200 24.78300
C  36.28000 46.55800 27.87200
C  34.48300 50.91400 26.57700
C  34.41600 49.46500 21.88200
C  36.65400 45.29100 23.20700
N  35.36100 48.63300 27.05600
C  35.74500 47.84700 28.08500
C  35.46700 48.61900 29.37400
C  34.76400 49.95300 29.00300
C  34.88600 49.86600 27.46000
C  33.23400 50.04400 29.40900
C  36.72900 48.88600 30.22700
C  36.73900 48.70500 31.85800
H  35.34800 48.66200 32.50400
N  34.61700 49.95200 24.30100
C  34.33700 51.00200 25.15500
C  33.69200 52.04000 24.47400
C  33.46500 51.61000 23.12700
C  34.20300 50.35300 22.99100
C  33.39300 53.34100 25.10400
C  32.63100 52.23200 22.05400
O  32.45600 51.78400 20.94700
C  31.88500 53.55100 22.37200
N  35.32000 47.42700 22.87200
C  34.98200 48.18400 21.76400
C  35.52200 47.59200 20.48200
C  36.40800 46.40800 20.86200
C  36.21200 46.37100 22.40800
C  34.35100 47.20600 19.48500
C  37.90400 46.30800 20.44800
C  39.09900 46.80700 21.30400
N  36.32300 46.24700 25.35500
C  36.69700 45.17600 24.67900
C  37.11500 44.15300 25.47800
C  36.91200 44.59800 26.83500
C  36.42900 45.91400 26.65600
C  37.73600 42.94500 24.94700
C  37.06300 44.27100 28.23200
O  37.41600 43.25400 28.83300
C  36.44300 45.52300 28.96400
C  35.17200 45.10000 29.59800
O  34.04300 45.34800 29.08300
O  35.42400 44.67900 30.80900
C  34.24800 44.44600 31.62900
H  34.37400 51.85700 27.11700
H  34.10800 49.89600 20.92700
H  37.14500 44.40500 22.79900
H  34.74500 47.96500 29.86400
H  35.22100 50.88700 29.33000
H  33.21400 50.89300 30.09200
H  32.95900 49.15300 29.97400
H  32.65500 50.21000 28.50100
H  37.16300 49.88600 30.19000
H  37.52900 48.22800 29.88900
H  37.22800 49.56700 32.31100
H  37.40400 47.84900 31.97300
H  33.76300 54.13800 24.45900
H  33.85900 53.55800 26.06500
H  32.33500 53.47100 25.32800
H  32.52400 54.42200 22.51600
H  31.27900 53.46800 23.27400
H  31.26600 53.79900 21.50900
H  36.13100 48.37500 20.02900
H  36.01600 45.44100 20.54800
H  34.19400 47.99300 18.74800
H  33.44600 47.14000 20.08800
H  34.67000 46.31900 18.93600
H  37.84100 46.88900 19.52800
H  38.14800 45.29800 20.11700
H  39.59500 47.65300 20.82800
H  39.87700 46.07200 21.51400
H  38.75400 47.25300 22.23700
H  37.86400 42.23900 25.76800
H  38.76300 43.19500 24.68200
H  37.13900 42.62800 24.09200
H  37.08400 45.86900 29.77500
H  33.66600 43.70800 31.07600
H  33.71300 45.39300 31.70200
H  34.47400 44.02700 32.60900
Mg -12.45600 16.17700 41.27200
C  -9.57900 14.09900 41.11100
C  -10.56100 18.75700 39.84500
C  -15.26700 17.80300 40.90600
C  -14.31200 13.12500 42.03100
N  -10.31900 16.38700 40.52800
C  -9.26300 15.47300 40.76400
C  -7.92700 16.09100 40.39000
C  -8.30300 17.59300 40.25500
C  -9.84700 17.55000 40.13200
C  -7.88600 18.60900 41.30300
C  -7.25000 15.51500 39.08900
C  -5.71400 15.28600 39.09500
H  -4.90600 16.09800 38.02800
N  -12.85100 18.06800 40.58100
C  -11.96500 18.99900 39.97500
C  -12.67300 20.15300 39.68900
C  -14.05600 19.88200 39.97400
C  -14.13800 18.56800 40.55900
C  -11.98700 21.38400 39.06600
C  -15.26400 20.82500 39.65600
O  -15.07700 21.82200 38.95200
C  -16.66700 20.63500 40.13400
N  -14.52200 15.56200 41.44200
C  -15.48700 16.46600 41.30500
C  -16.88300 15.88600 41.41700
C  -16.54300 14.34700 41.63000
C  -15.01500 14.34200 41.75400
C  -17.62700 16.46300 42.61600
C  -17.12800 13.47600 40.48900
C  -18.19900 12.45500 40.94100
N  -12.11600 14.02500 41.57600
C  -12.90900 12.92600 41.80200
C  -12.08700 11.73600 42.03800
C  -10.78700 12.22100 41.73600
C  -10.83900 13.53800 41.43300
C  -12.63400 10.41300 42.38800
C  -9.43600 11.75900 41.55600
O  -8.97400 10.63600 41.56300
C  -8.59200 12.96200 41.18700
C  -7.67800 13.23800 42.25500
O  -7.95000 13.43000 43.44700
O  -6.47100 13.43900 41.70100
C  -5.46800 13.72200 42.71300
H  -10.03700 19.64800 39.49300
H  -16.16200 18.42500 40.98100
H  -14.86800 12.18900 42.10700
H  -7.28600 16.01200 41.26900
H  -7.84700 17.91900 39.32000
H  -8.71900 18.81900 41.97400
H  -7.47800 19.57300 41.00000
H  -7.08700 18.17000 41.90000
H  -7.42900 16.13400 38.21000
H  -7.67000 14.51100 39.02200
H  -5.52400 14.21600 39.00600
H  -5.45300 15.54100 40.12200
H  -12.58600 22.21000 38.68300
H  -11.34600 21.05600 38.24700
H  -11.21800 21.84200 39.68900
H  -17.22500 19.80800 39.69500
H  -17.18000 21.48300 39.68000
H  -16.69200 20.70600 41.22100
H  -17.39800 16.13200 40.48900
H  -16.89200 13.98200 42.59600
H  -17.17000 17.38100 42.98300
H  -17.57900 15.68700 43.38000
H  -18.67700 16.65500 42.39400
H  -16.31400 12.91100 40.03400
H  -17.52900 14.16300 39.74400
H  -17.71300 11.48900 40.80500
H  -19.06100 12.52200 40.27700
H  -18.56900 12.54500 41.96300
H  -11.80700 9.80200 42.75000
H  -13.22200 10.13100 41.51500
H  -13.28500 10.58500 43.24500
H  -8.06700 12.89300 40.23500
H  -5.35600 12.77800 43.24600
H  -5.64900 14.54200 43.40700
H  -4.50700 14.00100 42.27900

