158

Mg -2.63300 17.24500 27.10100
C  -3.14100 15.04100 29.76000
C  -3.06300 19.84700 29.18500
C  -2.53800 19.20200 24.37100
C  -2.79600 14.36600 24.94500
N  -3.25300 17.40400 29.27600
C  -3.28900 16.41000 30.15100
C  -3.38100 16.93400 31.62600
C  -3.52300 18.46700 31.35300
C  -3.30400 18.65700 29.84100
C  -4.76500 19.22700 31.79400
C  -2.22900 16.63400 32.61000
C  -2.66600 16.13800 33.98200
H  -1.74300 16.16000 35.25600
N  -2.61000 19.24500 26.83900
C  -2.86700 20.11400 27.84100
C  -2.59900 21.41300 27.22800
C  -2.46100 21.32600 25.85300
C  -2.51400 19.89300 25.60300
C  -2.79300 22.68400 27.95200
C  -2.24300 22.33700 24.69400
O  -2.20700 22.01500 23.47500
C  -2.09900 23.81400 25.02400
N  -2.91300 16.83600 24.94300
C  -2.70300 17.85500 24.05400
C  -2.60900 17.34500 22.58000
C  -2.56400 15.74800 22.77300
C  -2.79300 15.62000 24.31400
C  -3.65700 17.86800 21.54100
C  -1.42100 14.99700 22.18800
C  -0.08600 15.31000 22.86100
N  -2.98400 15.15800 27.23400
C  -2.92500 14.11500 26.32500
C  -2.95900 12.84700 26.92300
C  -3.03300 13.18100 28.26700
C  -3.07200 14.53800 28.41100
C  -2.92200 11.59000 26.27400
C  -3.22500 12.59300 29.50400
O  -3.34700 11.45100 29.89200
C  -3.18400 13.80700 30.55900
C  -1.89400 13.57600 31.29900
O  -0.74200 13.64000 30.85800
O  -2.14800 13.22600 32.63300
C  -0.93600 12.92400 33.42400
H  -3.11100 20.71800 29.84100
H  -2.35200 19.66300 23.39900
H  -2.81500 13.53700 24.23500
H  -4.31000 16.48000 31.97100
H  -2.66300 18.96800 31.79800
H  -5.45100 19.44100 30.97500
H  -4.45100 20.14900 32.28200
H  -5.37900 18.58200 32.42400
H  -1.48500 17.43100 32.63200
H  -1.74300 15.82800 32.06100
H  -3.10500 15.14300 33.89900
H  -3.43100 16.77100 34.43000
H  -3.24400 23.52700 27.42800
H  -1.81300 22.89400 28.37900
H  -3.34400 22.46800 28.86700
H  -1.58300 24.34500 24.22300
H  -1.54200 23.91100 25.95600
H  -3.09800 24.17900 25.26000
H  -1.60000 17.59900 22.25700
H  -3.47600 15.34400 22.33200
H  -4.10000 18.78100 21.93800
H  -4.53300 17.22100 21.50700
H  -3.24600 18.02600 20.54400
H  -1.29800 15.30300 21.14900
H  -1.58500 13.92000 22.24000
H  -0.14400 15.67100 23.88700
H  0.56800 16.01400 22.34600
H  0.53700 14.41800 22.79700
H  -2.45900 11.50100 25.29100
H  -3.98600 11.45400 26.08100
H  -2.57400 10.82400 26.96600
H  -4.01900 13.79200 31.25900
H  -0.81900 11.85800 33.23400
H  -1.09900 13.02000 34.49700
H  0.00800 13.40100 33.16100
Mg 47.48200 16.44800 28.61100
C  45.43300 16.67500 31.34900
C  50.05400 17.85500 30.53100
C  49.31800 17.07300 25.76500
C  44.90900 15.27200 26.66600
N  47.64500 17.25300 30.66400
C  46.72100 17.04400 31.64100
C  47.31000 17.27100 33.02300
C  48.76900 17.83300 32.76100
C  48.82300 17.71400 31.18300
C  48.81400 19.32900 33.23900
C  47.21600 16.05900 33.99000
C  47.08700 16.48100 35.46400
H  47.15800 17.97800 35.95400
N  49.44300 17.33000 28.18100
C  50.34500 17.72800 29.14200
C  51.58000 18.22100 28.46800
C  51.32500 18.17600 27.05800
C  49.94100 17.55200 26.95200
C  52.72200 18.83900 29.31200
C  52.10800 18.66900 25.87100
O  51.71300 18.54400 24.74900
C  53.45400 19.20500 26.05300
N  47.28600 15.86000 26.53000
C  48.13900 16.22000 25.53200
C  47.60800 15.78700 24.14300
C  46.19800 15.18300 24.45600
C  46.09300 15.46700 25.95300
C  47.40600 16.92000 23.12800
C  45.88000 13.79300 23.95000
C  45.26900 13.67600 22.59600
N  45.58600 16.12700 28.83700
C  44.60000 15.57800 28.01000
C  43.29300 15.43700 28.71500
C  43.59400 15.85600 30.07100
C  44.94300 16.30900 30.05300
C  42.01200 14.88000 28.09400
C  43.12400 15.96700 31.45000
O  42.01700 15.71600 31.97000
C  44.30300 16.46300 32.35200
C  43.98100 17.67100 33.02700
O  43.97500 18.83500 32.70400
O  43.57700 17.30100 34.29100
C  42.77800 18.26300 35.10900
H  50.83100 18.26000 31.18200
H  49.75100 17.20400 24.77100
H  44.14300 14.82500 26.03000
H  46.70100 18.08700 33.41300
H  49.52100 17.25900 33.30200
H  48.42000 19.37200 34.25400
H  48.21400 19.85400 32.49500
H  49.87300 19.58700 33.28400
H  48.13500 15.47800 33.90600
H  46.37400 15.42000 33.72400
H  47.74100 15.82500 36.03900
H  46.07000 16.17200 35.70600
H  52.63700 18.59800 30.37200
H  52.55000 19.91100 29.21100
H  53.69900 18.55000 28.92400
H  54.01000 18.42100 26.56700
H  53.41100 20.14800 26.59800
H  54.11100 19.38000 25.20000
H  48.33100 15.08100 23.73600
H  45.39800 15.80300 24.05100
H  46.38300 17.24400 22.93400
H  47.67300 16.38700 22.21600
H  48.03300 17.80800 23.20200
H  45.28200 13.32400 24.73100
H  46.78700 13.19400 23.86600
H  45.36100 14.60100 22.02800
H  44.18300 13.73900 22.66300
H  45.65100 12.82800 22.02800
H  41.91900 15.35900 27.11900
H  41.19300 15.28500 28.68900
H  41.95300 13.79900 27.96600
H  44.40300 15.66200 33.08400
H  43.45100 19.05800 35.43300
H  42.50200 17.71800 36.01200
H  41.94100 18.73200 34.59200

