158

Mg 24.02900 -5.76300 46.16100
C  26.08700 -3.26800 44.38900
C  21.39500 -4.53600 44.34700
C  22.41800 -8.48200 46.88800
C  27.09900 -7.13200 47.34800
N  23.86600 -4.00800 44.49900
C  24.74200 -3.06600 44.06400
C  24.06300 -2.16700 43.09700
C  22.52900 -2.37700 43.28600
C  22.60000 -3.70800 44.10300
C  21.81700 -1.25700 44.14600
C  24.53500 -2.42700 41.65300
C  25.26900 -1.28900 40.82100
H  26.18700 -1.62000 39.58500
N  22.09400 -6.33800 45.81000
C  21.13300 -5.74100 45.06100
C  19.98800 -6.55000 45.06500
C  20.21900 -7.67600 45.88600
C  21.60900 -7.53800 46.26800
C  18.67300 -6.09000 44.36400
C  19.19800 -8.75300 46.35100
O  17.99600 -8.77400 45.97100
C  19.55000 -9.86300 47.27300
N  24.63200 -7.60200 46.93600
C  23.72100 -8.51200 47.17200
C  24.35400 -9.62400 48.03300
C  25.90200 -9.23600 48.15100
C  25.89400 -7.90600 47.47000
C  23.79000 -9.75900 49.42500
C  26.76700 -10.28300 47.50500
C  27.77100 -10.84300 48.43100
N  26.11500 -5.29300 46.08100
C  27.19300 -5.87000 46.70700
C  28.39200 -5.11400 46.41800
C  28.00600 -4.10300 45.55600
C  26.57200 -4.22500 45.31100
C  29.77300 -5.42700 46.98300
C  28.50000 -2.99100 44.69900
O  29.66600 -2.64300 44.39200
C  27.23900 -2.47000 43.85700
C  26.96800 -1.05800 44.19500
O  26.32700 -0.66100 45.13700
O  27.67400 -0.32100 43.32100
C  27.91900 1.07600 43.58000
H  20.58000 -4.02000 43.83400
H  21.90000 -9.43400 47.02600
H  28.02200 -7.64700 47.62200
H  24.40100 -1.18200 43.42000
H  21.95800 -2.53500 42.37100
H  22.08400 -1.35700 45.19800
H  20.73300 -1.17500 44.06400
H  22.16500 -0.26600 43.85500
H  23.72500 -2.60800 40.94700
H  25.22800 -3.26500 41.58600
H  25.77300 -0.67700 41.56900
H  24.52400 -0.56700 40.48600
H  18.00200 -6.03200 45.22200
H  18.20100 -6.80500 43.69100
H  18.72700 -5.12300 43.86400
H  18.73900 -10.24000 47.89600
H  20.22300 -9.44900 48.02300
H  20.11200 -10.67000 46.80200
H  24.16800 -10.54000 47.47200
H  26.21200 -9.10700 49.18700
H  22.75800 -10.11200 49.42100
H  23.93200 -8.82800 49.97400
H  24.34300 -10.62000 49.80000
H  27.22300 -9.88700 46.59700
H  26.11300 -11.14100 47.35000
H  28.02400 -10.13400 49.21900
H  28.72700 -11.12300 47.98800
H  27.32000 -11.65900 48.99600
H  30.03700 -6.45500 46.73200
H  29.64300 -5.46000 48.06500
H  30.57900 -4.78300 46.63300
H  27.59800 -2.58400 42.83400
H  28.32700 1.44900 42.64000
H  28.74600 1.09200 44.29000
H  27.08600 1.73000 43.83800
Mg 5.83400 55.93600 41.01800
C  3.28500 53.35500 41.10900
C  7.91700 53.47800 39.39500
C  8.10000 58.36200 40.38000
C  3.49400 58.21700 41.89200
N  5.57300 53.61500 40.28600
C  4.45000 52.85600 40.45900
C  4.66800 51.44700 39.78700
C  6.27700 51.47600 39.54800
C  6.62400 52.96100 39.69900
C  7.06000 50.65100 40.51900
C  3.89200 51.41000 38.35500
C  3.15900 50.16600 37.96600
H  3.71100 49.43900 36.78200
N  7.75000 55.91400 40.06800
C  8.42400 54.80200 39.53900
C  9.77600 55.25600 39.20600
C  9.80400 56.65300 39.36600
C  8.51800 57.03700 39.90100
C  10.90800 54.27000 38.99400
C  11.00900 57.58300 39.06400
O  12.03300 57.02000 38.58200
C  11.10100 59.02600 39.32500
N  5.73000 58.02700 40.95100
C  6.85600 58.81000 40.78800
C  6.53000 60.33200 40.99600
C  5.08100 60.24200 41.49000
C  4.73700 58.75000 41.51000
C  7.49500 60.92600 42.01200
C  4.02800 61.15100 40.74400
C  3.61900 62.45900 41.55600
N  3.86000 55.87400 41.59900
C  3.00600 56.85400 41.96700
C  1.76500 56.25400 42.38300
C  1.82600 54.92700 42.06500
C  3.10400 54.72600 41.46300
C  0.62400 57.03900 42.84800
C  1.15800 53.62500 42.09800
O  0.03500 53.39000 42.52900
C  2.07900 52.56400 41.52500
C  1.27000 51.89900 40.49700
O  0.98100 52.46900 39.48300
O  1.04600 50.57900 40.74600
C  0.19200 49.82600 39.78000
H  8.66200 52.82100 38.94100
H  8.82400 59.17900 40.33200
H  2.79600 58.95300 42.29600
H  4.29400 50.63400 40.40900
H  6.48200 51.34200 38.48600
H  7.52000 51.30100 41.26400
H  7.87000 50.08300 40.06300
H  6.41600 50.04100 41.15200
H  4.62800 51.62300 37.57900
H  3.21700 52.26400 38.30800
H  2.15000 50.37300 37.60900
H  3.01000 49.43100 38.75700
H  11.19200 54.12900 37.95200
H  10.76500 53.25700 39.37100
H  11.75900 54.63400 39.57000
H  11.96900 59.56200 38.94000
H  11.04000 59.30900 40.37600
H  10.27900 59.46800 38.76200
H  6.60000 60.90800 40.07300
H  4.99600 60.46500 42.55400
H  8.19600 60.19000 42.40500
H  6.90400 61.29800 42.84900
H  8.13500 61.72700 41.64000
H  3.16100 60.53200 40.51400
H  4.47500 61.49500 39.81200
H  4.32300 62.72000 42.34700
H  2.61500 62.40300 41.97500
H  3.51500 63.25400 40.81700
H  0.99700 57.91900 43.37000
H  0.06100 56.39600 43.52500
H  -0.01200 57.35600 42.02100
H  2.32500 51.95800 42.39700
H  -0.74000 50.25600 40.14700
H  0.09400 48.74500 39.88400
H  0.31400 50.05000 38.72000

