158

Mg 26.93600 51.32300 26.51900
C  24.68300 51.91100 29.20300
C  29.07600 50.02500 28.81000
C  29.05700 50.69600 23.97100
C  24.81100 52.93300 24.41200
N  26.82600 50.99900 28.76200
C  25.87600 51.32800 29.62000
C  26.26600 50.91300 31.06100
C  27.74400 50.57300 30.93400
C  27.91800 50.46900 29.43000
C  28.73300 51.54600 31.55600
C  25.43700 49.79100 31.62800
C  25.05100 49.97100 33.13700
H  26.05500 50.40000 34.21100
N  28.72600 50.43100 26.38700
C  29.50200 49.99500 27.46600
C  30.72700 49.37400 26.96000
C  30.81100 49.62000 25.56000
C  29.45500 50.24400 25.25800
C  31.63800 48.77900 27.93200
C  31.96700 49.43900 24.60500
O  32.05600 49.82700 23.41900
C  33.06500 48.59200 25.07200
N  27.08500 52.03300 24.50200
C  28.02300 51.58200 23.62600
C  27.67600 52.05500 22.19500
C  26.17100 52.54000 22.27700
C  25.98800 52.51300 23.84100
C  28.64000 53.12500 21.57900
C  25.08600 51.57300 21.58400
C  24.19700 52.32200 20.58500
N  25.08600 52.19100 26.67900
C  24.36200 52.82700 25.75600
C  23.17800 53.37600 26.28100
C  23.28700 53.05600 27.60700
C  24.44200 52.28800 27.83400
C  22.07000 54.16200 25.59000
C  22.60400 53.18300 28.89700
O  21.54500 53.72900 29.23700
C  23.53800 52.48200 29.93600
C  23.88100 53.54400 30.92900
O  24.93100 54.13500 30.87500
O  22.95300 53.50100 31.99600
C  23.37300 54.11000 33.24300
H  29.68000 49.65700 29.64300
H  29.80000 50.50400 23.19400
H  24.09100 53.51800 23.83600
H  26.14100 51.80900 31.67000
H  27.89200 49.61800 31.43900
H  29.37200 50.96900 32.22400
H  28.16400 52.34400 32.03300
H  29.51600 51.87800 30.87500
H  25.89000 48.80900 31.49300
H  24.51200 49.62400 31.07600
H  24.74800 48.98700 33.49500
H  24.22200 50.67800 33.14600
H  31.76300 47.73200 27.65700
H  31.28100 48.70300 28.95900
H  32.61300 49.26400 27.98100
H  32.67500 47.67900 25.52200
H  33.66600 49.15200 25.78800
H  33.66200 48.24900 24.22700
H  27.71200 51.15700 21.57700
H  26.00900 53.60600 22.11900
H  29.43100 53.25000 22.31800
H  28.29600 54.14500 21.41100
H  29.07300 52.71800 20.66500
H  24.44000 51.21000 22.38300
H  25.58300 50.71000 21.14200
H  23.34900 52.68800 21.16500
H  23.85300 51.67000 19.78200
H  24.72400 53.11900 20.06100
H  21.54800 54.71300 26.37100
H  21.44900 53.48600 25.00200
H  22.60700 54.92300 25.02400
H  22.95200 51.69800 30.41500
H  24.07500 53.51100 33.82300
H  22.52900 54.03400 33.92800
H  23.58400 55.17700 33.18300
Mg 9.95100 47.97500 26.29700
C  8.22800 47.71500 29.37100
C  12.50500 49.67000 27.96500
C  11.72300 48.12600 23.36800
C  7.18800 46.90800 24.55700
N  10.26600 48.69300 28.40400
C  9.53500 48.32300 29.47800
C  10.14000 48.86200 30.77200
C  11.23500 49.76400 30.21600
C  11.35900 49.34200 28.79100
C  11.23600 51.27700 30.46800
C  10.55700 47.68800 31.66600
C  10.06200 47.68700 33.17600
H  10.19000 46.33400 33.94700
N  11.86300 48.63000 25.79800
C  12.77500 49.22200 26.65800
C  14.04300 49.22200 25.92400
C  13.79900 48.84700 24.61100
C  12.34100 48.56200 24.49300
C  15.36700 49.52400 26.67400
C  14.84100 48.61400 23.44300
O  14.54100 48.26600 22.28200
C  16.36100 48.77700 23.75400
N  9.53700 47.61600 24.19100
C  10.38800 47.75000 23.18200
C  9.83100 47.11500 21.86700
C  8.43800 46.55300 22.39600
C  8.33800 47.10800 23.75500
C  9.73200 48.06500 20.61500
C  8.40800 44.99700 22.29900
C  9.31400 44.22700 23.19200
N  8.06200 47.44100 26.78900
C  7.06200 47.02600 25.98800
C  5.87700 46.82400 26.82300
C  6.29000 47.01900 28.14300
C  7.66600 47.37000 28.09000
C  4.54600 46.50400 26.37300
C  5.89600 47.09800 29.55700
O  4.76400 46.81900 30.07100
C  7.19300 47.36600 30.35700
C  7.42500 46.03600 30.97100
O  8.09500 45.17500 30.57100
O  6.59500 45.81700 32.03600
C  6.74700 44.54600 32.73400
H  13.30600 50.23900 28.44200
H  12.24800 48.19200 22.41300
H  6.31700 46.67300 23.94100
H  9.31700 49.45500 31.17200
H  12.17100 49.40800 30.64800
H  10.55200 51.58500 31.25800
H  10.96400 51.78700 29.54400
H  12.17800 51.66500 30.85600
H  11.63600 47.65900 31.51100
H  10.14300 46.84100 31.11900
H  8.99500 47.91300 33.17400
H  10.52500 48.56900 33.61700
H  15.24600 49.72700 27.73800
H  15.91800 50.30300 26.14700
H  16.09300 48.72300 26.53200
H  16.70000 49.80100 23.91100
H  16.87400 48.37700 22.88000
H  16.70000 48.11200 24.54800
H  10.47800 46.28300 21.59000
H  7.55600 46.93100 21.88000
H  8.71300 48.41500 20.45300
H  10.11800 47.47800 19.78200
H  10.40100 48.92200 20.69900
H  8.68800 44.78000 21.26900
H  7.38900 44.66200 22.49500
H  9.66500 44.90800 23.96800
H  10.25300 44.01700 22.68000
H  8.83100 43.32500 23.56700
H  3.93700 47.38600 26.17400
H  3.98000 45.89500 27.07800
H  4.56100 45.88200 25.47800
H  7.04100 48.09100 31.15700
H  6.10200 43.79200 32.28200
H  6.48100 44.85000 33.74600
H  7.74700 44.11500 32.78600

