158

Mg 54.30700 23.65700 43.73800
C  51.48300 25.72600 43.26900
C  52.33700 20.98800 42.73400
C  57.16200 22.10100 43.25600
C  56.20400 26.71100 44.23000
N  52.16000 23.40000 42.91800
C  51.16500 24.44800 42.91400
C  49.88100 23.87500 42.38000
C  50.19800 22.33400 42.60500
C  51.66300 22.20200 42.78000
C  49.52600 21.73100 43.80100
C  49.67900 24.18800 40.83500
C  48.24100 24.22500 40.31300
H  47.84400 24.79000 38.91900
N  54.73100 21.79700 43.23700
C  53.77300 20.77800 42.92500
C  54.48900 19.51400 42.68300
C  55.88700 19.76300 42.89500
C  56.03500 21.28400 43.15900
C  53.83700 18.24900 42.17000
C  57.00000 18.70800 42.78200
O  56.81100 17.52000 42.54800
C  58.44600 19.06800 43.08400
N  56.37700 24.29900 43.80700
C  57.39200 23.38600 43.57600
C  58.81800 23.98300 43.89200
C  58.50700 25.48000 44.06400
C  56.95200 25.55400 44.04600
C  59.43500 23.42800 45.12600
C  58.97700 26.35700 42.86800
C  58.74500 25.99200 41.39500
N  53.91000 25.73000 43.89100
C  54.74600 26.78600 44.21200
C  53.97000 27.97700 44.43100
C  52.67000 27.54100 44.08500
C  52.74000 26.22500 43.69400
C  54.39500 29.29100 45.02800
C  51.25100 28.04700 44.09000
O  50.73200 29.11100 44.51200
C  50.46600 26.96100 43.42700
C  50.07900 27.52200 42.12600
O  50.85300 27.93400 41.26200
O  48.67600 27.51300 41.92300
C  48.22900 28.00500 40.60800
H  51.75600 20.07800 42.56900
H  58.00000 21.44900 43.00100
H  56.72500 27.59300 44.60700
H  49.02000 24.18400 42.97300
H  49.96400 21.81200 41.67700
H  48.79600 22.43100 44.20700
H  50.27300 21.48700 44.55700
H  48.99500 20.79300 43.64200
H  50.12500 23.43500 40.18500
H  50.05700 25.20100 40.69700
H  47.70700 24.70600 41.13300
H  47.87500 23.20600 40.43900
H  53.04100 18.31300 41.42800
H  53.42000 17.71800 43.02600
H  54.37500 17.42000 41.71000
H  58.92300 19.74800 42.37800
H  59.09600 18.19800 43.16600
H  58.43200 19.56800 44.05200
H  59.47000 23.74100 43.05300
H  58.68400 25.77600 45.09800
H  60.47500 23.18600 44.90500
H  58.99400 22.45500 45.34300
H  59.28100 24.05400 46.00500
H  60.03900 26.43900 43.10200
H  58.60600 27.36000 43.08000
H  57.93700 25.27300 41.26300
H  59.70700 25.68000 40.99100
H  58.41800 26.90400 40.89500
H  55.22000 29.05200 45.69800
H  53.53300 29.68200 45.56900
H  54.74400 30.09400 44.37800
H  49.56500 26.73300 43.99700
H  48.39700 29.07400 40.48000
H  47.14400 27.90800 40.60600
H  48.69900 27.46600 39.78400
Mg 9.50600 48.95300 25.43800
C  7.87400 48.76600 28.41600
C  12.26000 50.21600 27.10600
C  11.08500 48.99400 22.51900
C  6.67800 47.72600 23.83700
N  9.88700 49.63200 27.56200
C  9.16100 49.25100 28.60200
C  9.92500 49.62400 29.90800
C  10.99200 50.58800 29.44500
C  11.09700 50.12400 27.95000
C  10.72400 52.14900 29.48400
C  10.43500 48.46900 30.83100
C  9.67400 48.33900 32.12000
H  10.24500 49.24300 33.20400
N  11.40500 49.46700 24.89800
C  12.36500 49.89000 25.68900
C  13.61300 49.95800 24.96400
C  13.37200 49.67900 23.65600
C  11.86900 49.40100 23.60000
C  14.93000 50.48700 25.54200
C  14.29700 49.58900 22.41600
O  13.83100 49.31400 21.29800
C  15.77700 49.77400 22.59200
N  8.85600 48.51400 23.38000
C  9.72300 48.61000 22.36000
C  9.17700 48.20600 20.97300
C  7.83600 47.56200 21.45500
C  7.72900 47.96200 22.93900
C  8.96600 49.27500 19.90100
C  7.82600 46.00000 21.21400
C  7.20900 45.59600 19.86000
N  7.61000 48.39200 25.92400
C  6.59800 48.01400 25.19800
C  5.47900 47.79700 26.05000
C  5.93400 48.06000 27.33200
C  7.24900 48.45900 27.19000
C  4.09300 47.29200 25.58200
C  5.53000 48.10400 28.70300
O  4.43500 47.84500 29.21900
C  6.85400 48.49400 29.51400
C  7.07400 47.27800 30.36500
O  7.65300 46.29900 29.99200
O  6.55500 47.40000 31.66700
C  6.65100 46.24000 32.60600
H  13.04300 50.70500 27.68900
H  11.53900 49.04200 21.52700
H  5.80800 47.26100 23.36900
H  9.32800 50.32600 30.49000
H  11.96900 50.41000 29.89500
H  10.81200 52.62300 28.50600
H  11.34300 52.69400 30.19600
H  9.70500 52.40700 29.77200
H  11.45300 48.61400 31.19200
H  10.44300 47.47700 30.38100
H  9.82200 47.28900 32.37300
H  8.63800 48.63400 31.95100
H  14.74800 50.82000 26.56400
H  15.35700 51.30500 24.96100
H  15.66600 49.68400 25.57300
H  16.00700 50.83900 22.63200
H  16.33700 49.31500 21.77800
H  16.21200 49.28900 23.46500
H  9.89900 47.51900 20.53100
H  6.92100 48.05600 21.12800
H  8.01000 49.79900 19.89300
H  9.16200 48.83800 18.92300
H  9.72800 50.03100 20.09100
H  7.31100 45.49600 22.03300
H  8.87700 45.71300 21.24200
H  6.68300 46.34100 19.26300
H  6.45900 44.81700 19.99500
H  7.98700 45.17700 19.22300
H  4.43300 46.38400 25.08400
H  3.63100 48.07400 24.97900
H  3.36800 47.08600 26.36900
H  6.65200 49.32100 30.19400
H  7.47600 45.54600 32.44300
H  5.72900 45.66100 32.54700
H  6.74200 46.55500 33.64600

