158

Mg 48.01000 24.59000 27.88200
C  48.79000 26.72200 30.46800
C  47.43400 22.06800 30.11900
C  47.24300 22.57100 25.38300
C  49.41100 26.90400 25.59600
N  47.97700 24.44000 30.04600
C  48.39000 25.43400 30.92200
C  48.21600 25.02500 32.41500
C  47.76700 23.51900 32.21200
C  47.81900 23.28500 30.70200
C  48.64500 22.49700 33.04500
C  47.27900 26.02800 33.14300
C  46.91300 25.61100 34.61100
H  46.99500 26.68300 35.72500
N  47.41700 22.57500 27.82400
C  47.15100 21.71100 28.81400
C  46.74200 20.40500 28.39200
C  46.59700 20.51800 26.96200
C  47.06300 21.94800 26.65400
C  46.41100 19.20300 29.32500
C  46.24800 19.46200 25.94900
O  46.13200 19.67700 24.70200
C  45.96700 18.05600 26.43600
N  48.13200 24.75400 25.78400
C  47.75300 23.71800 24.96900
C  47.91200 24.15200 23.52900
C  48.67500 25.45900 23.56100
C  48.78300 25.72400 25.02900
C  48.69900 23.12000 22.72100
C  47.91600 26.71000 22.89900
C  48.69100 27.46700 21.86200
N  48.87900 26.52000 27.94900
C  49.44400 27.23700 26.99200
C  49.80100 28.49300 27.56100
C  49.71800 28.31200 28.97500
C  48.97000 27.12900 29.10600
C  50.49600 29.61000 26.87100
C  50.04700 28.93900 30.25300
O  50.65400 29.99000 30.49800
C  49.32600 27.92500 31.23600
C  50.27900 27.51400 32.34600
O  51.15500 26.64100 32.26100
O  49.93500 28.09100 33.57800
C  50.80900 27.64100 34.63600
H  47.10300 21.33600 30.85900
H  46.84600 21.93500 24.58900
H  49.84200 27.60500 24.87800
H  49.18300 25.00600 32.91800
H  46.71200 23.50900 32.48500
H  47.98500 22.08800 33.81000
H  49.50400 23.01100 33.47500
H  49.01800 21.67800 32.43100
H  46.41100 26.07800 32.48600
H  47.75600 26.99100 33.32800
H  47.45800 24.73700 34.96900
H  45.90200 25.20300 34.62400
H  46.30900 19.50500 30.36800
H  47.20500 18.45600 29.34300
H  45.52100 18.67100 28.98900
H  46.73000 17.65100 27.10000
H  45.71100 17.40500 25.60000
H  45.04400 18.09400 27.01500
H  46.86100 24.20300 23.24600
H  49.68000 25.30100 23.16900
H  49.54900 22.66900 23.23300
H  48.95400 23.31900 21.68000
H  47.94900 22.33000 22.74900
H  47.58600 27.46800 23.61000
H  47.03400 26.34300 22.37300
H  48.74900 28.52800 22.10800
H  48.26800 27.27800 20.87500
H  49.71300 27.09000 21.88700
H  49.73900 30.33000 26.55900
H  51.09900 29.26300 26.03200
H  51.24500 30.08500 27.50600
H  48.43200 28.38900 31.65300
H  50.49900 26.69900 35.08900
H  50.76700 28.40500 35.41200
H  51.85700 27.65400 34.33500
Mg 6.31100 54.43200 39.58600
C  6.00000 50.91100 39.51500
C  9.66700 53.99800 38.55900
C  6.46800 57.77400 39.17700
C  2.99400 54.77700 40.49600
N  7.64700 52.68200 38.87400
C  7.28600 51.33300 38.98400
C  8.44700 50.39800 38.80400
C  9.68500 51.40600 38.77900
C  8.96600 52.85100 38.76900
C  10.64700 51.29200 39.94600
C  8.34700 49.58200 37.53700
C  7.75000 50.31700 36.28500
H  6.26100 50.02000 35.85400
N  7.83600 55.69500 38.86200
C  9.18600 55.34100 38.48700
C  9.93400 56.55100 38.25100
C  9.02100 57.62900 38.43200
C  7.68800 57.08400 38.82700
C  11.47500 56.55900 37.90300
C  9.41600 59.15300 38.24700
O  10.56800 59.45400 38.02000
C  8.38700 60.23500 38.26500
N  4.76300 55.98100 39.43700
C  5.21200 57.31100 39.45400
C  4.07600 58.31700 39.79800
C  2.89900 57.32800 40.06100
C  3.57900 55.98300 40.01400
C  4.35800 59.34600 40.89100
C  1.64800 57.38000 39.03800
C  0.30000 57.83600 39.66600
N  4.78100 53.18800 39.86200
C  3.54000 53.45100 40.44600
C  2.87600 52.19800 40.80000
C  3.86800 51.22000 40.50600
C  4.91500 51.87600 39.88200
C  1.55400 51.85700 41.48800
C  4.11400 49.74400 40.62500
O  3.41200 48.76700 40.91400
C  5.50700 49.54500 40.05400
C  5.30400 48.44800 39.07400
O  4.70600 48.60600 38.02900
O  5.66100 47.25600 39.65600
C  5.05200 46.11200 38.92800
H  10.75600 54.03600 38.62400
H  6.62500 58.84200 39.33800
H  1.97300 54.92600 40.85500
H  8.35000 49.81400 39.71800
H  10.34200 51.23100 37.92700
H  10.73800 50.24500 40.23500
H  10.40000 51.94900 40.78000
H  11.61600 51.67400 39.62600
H  7.65100 48.80500 37.85500
H  9.31800 49.11600 37.36800
H  8.45900 49.98900 35.52500
H  7.92200 51.39000 36.36900
H  11.87500 55.54800 37.97900
H  12.02700 57.09600 38.67500
H  11.57000 56.87300 36.86400
H  7.59500 59.83100 37.63500
H  8.78700 61.16600 37.86300
H  8.08100 60.52200 39.27100
H  3.81600 58.90500 38.91800
H  2.52000 57.50400 41.06800
H  5.40300 59.19400 41.16100
H  3.60300 59.29500 41.67600
H  4.40500 60.34700 40.46300
H  1.45900 56.49300 38.43400
H  1.83900 58.20800 38.35500
H  -0.42700 57.02800 39.58400
H  -0.07800 58.76600 39.24200
H  0.39000 58.10400 40.71800
H  1.64500 51.62700 42.55000
H  1.02200 51.04600 40.99000
H  0.88400 52.71000 41.38500
H  6.16500 49.07200 40.78400
H  5.28900 46.31800 37.88400
H  3.97000 46.05100 39.04500
H  5.48300 45.16800 39.25900

