158

Mg 43.89300 3.01200 46.96300
C  42.04700 6.04200 46.82800
C  40.78400 1.31100 46.96400
C  45.62700 0.15900 46.64800
C  46.91700 4.85900 46.70900
N  41.72400 3.55900 46.81300
C  41.25800 4.84500 46.76700
C  39.77900 4.87500 47.19800
C  39.35800 3.36400 47.30300
C  40.69400 2.69500 47.04200
C  38.84300 2.96100 48.69700
C  38.77000 5.74800 46.23000
C  39.15000 6.25100 44.80900
H  38.24300 5.90600 43.60300
N  43.33200 1.04400 46.67500
C  42.03700 0.57600 46.69300
C  42.03200 -0.87900 46.57500
C  43.37900 -1.24300 46.34100
C  44.20500 -0.03500 46.57700
C  40.69100 -1.81900 46.61400
C  43.74200 -2.68600 45.97600
O  42.84600 -3.57600 45.83500
C  45.16100 -3.04300 45.70400
N  46.01600 2.63900 46.59300
C  46.46100 1.33500 46.63900
C  47.99300 1.27700 46.60400
C  48.43700 2.81400 46.65200
C  47.04900 3.48900 46.69900
C  48.53200 0.27300 47.59800
C  49.28700 3.34500 45.45700
C  50.40700 4.33700 45.74900
N  44.39200 5.04800 46.81800
C  45.66900 5.63500 46.72100
C  45.51900 7.12500 46.72800
C  44.09200 7.30200 46.88600
C  43.44100 6.00300 46.87600
C  46.60200 8.06400 46.67600
C  43.02000 8.30000 47.09700
O  42.93900 9.51900 47.17800
C  41.71500 7.44500 46.98700
C  40.98700 7.78900 48.26200
O  41.17000 7.31300 49.37300
O  39.93100 8.63000 47.92000
C  38.97800 8.93200 48.98400
H  39.86000 0.74700 47.10600
H  46.28000 -0.71200 46.73300
H  47.90700 5.30800 46.81600
H  39.66000 5.30800 48.19100
H  38.65300 3.06500 46.52800
H  38.39500 3.70000 49.36100
H  39.75400 2.58500 49.16300
H  38.17000 2.10500 48.73900
H  38.54100 6.59800 46.87200
H  37.82000 5.21600 46.27800
H  40.08300 5.72800 44.60200
H  39.27500 7.33100 44.88100
H  40.84800 -2.69800 47.23800
H  40.38700 -2.15000 45.62100
H  39.84700 -1.41700 47.17500
H  45.72400 -3.05300 46.63700
H  45.75900 -2.49700 44.97500
H  45.10200 -4.03500 45.25500
H  48.32500 0.99500 45.60500
H  48.95600 2.99100 47.59400
H  48.72000 -0.58000 46.94600
H  47.77900 0.03600 48.35000
H  49.43500 0.64300 48.08400
H  48.61400 3.70200 44.67700
H  49.83100 2.44900 45.15900
H  51.33300 3.89100 45.38700
H  50.42700 4.54000 46.82000
H  50.32300 5.28800 45.22300
H  46.73200 8.33000 47.72500
H  46.37600 8.89000 46.00000
H  47.58200 7.67500 46.40000
H  41.17600 7.90900 46.16200
H  38.43500 9.83100 48.69100
H  39.48500 9.14700 49.92400
H  38.30100 8.10300 49.19200
Mg -2.25200 35.44700 26.34300
C  -3.85500 33.42700 28.74900
C  -1.30800 37.57100 29.03700
C  -0.73600 37.49200 24.08600
C  -3.45000 33.50400 23.91200
N  -2.70000 35.53200 28.64700
C  -3.16600 34.48500 29.40600
C  -2.90700 34.73500 30.91800
C  -2.32500 36.20800 30.87400
C  -2.17500 36.53900 29.47000
C  -3.04800 37.24700 31.66300
C  -2.05800 33.62600 31.69600
C  -2.65600 33.03700 33.04100
H  -1.73800 33.07900 34.31500
N  -1.06800 37.22100 26.54400
C  -0.77300 37.83300 27.72400
C  0.04300 38.96700 27.36900
C  0.35500 39.04200 25.95800
C  -0.50200 37.86600 25.43100
C  0.45300 39.84200 28.49100
C  1.18300 39.93500 25.12000
O  1.20500 39.92200 23.89000
C  1.99100 40.97800 25.76300
N  -2.01500 35.38600 24.35000
C  -1.37500 36.35800 23.58000
C  -1.85500 36.17500 22.15900
C  -1.97500 34.62600 22.10600
C  -2.53000 34.44100 23.55400
C  -3.03600 36.97300 21.63000
C  -0.65700 33.87200 21.94300
C  -0.52900 33.12000 20.59900
N  -3.56500 33.94200 26.34300
C  -3.97800 33.24500 25.24600
C  -4.89200 32.15800 25.64500
C  -4.80200 32.19900 27.06600
C  -4.04400 33.37800 27.41800
C  -5.61600 31.14500 24.79000
C  -5.21100 31.53200 28.28000
O  -5.98100 30.56700 28.44800
C  -4.57500 32.28300 29.41600
C  -5.54700 32.64400 30.45000
O  -6.42200 33.55200 30.33100
O  -5.34300 31.89300 31.61400
C  -6.19800 32.13400 32.76100
H  -0.91900 38.14900 29.87800
H  -0.35900 38.15700 23.30700
H  -3.71800 32.82900 23.09800
H  -3.89200 34.83700 31.37400
H  -1.37300 36.21000 31.40400
H  -3.69600 37.81100 30.99200
H  -2.31300 37.83500 32.21300
H  -3.80900 36.91400 32.36800
H  -1.06100 33.97600 31.96600
H  -1.88900 32.78000 31.03000
H  -2.89300 31.98100 32.90500
H  -3.58200 33.55000 33.29700
H  0.56100 39.33200 29.44800
H  -0.36100 40.56300 28.56300
H  1.37100 40.42400 28.40600
H  2.63400 41.54500 25.09000
H  2.59300 40.51500 26.54500
H  1.30500 41.74800 26.11800
H  -0.95400 36.49300 21.63500
H  -2.66600 34.25700 21.34900
H  -3.65700 37.34100 22.44700
H  -3.69400 36.43000 20.95200
H  -2.66800 37.82700 21.06200
H  -0.62400 33.18300 22.78700
H  0.16800 34.57200 22.07400
H  -0.74400 32.05800 20.71700
H  0.53600 33.09000 20.36700
H  -1.01700 33.57400 19.73700
H  -6.64800 31.40700 24.55500
H  -5.70900 30.28100 25.44700
H  -5.08600 30.85500 23.88300
H  -3.83000 31.68600 29.94200
H  -6.15700 31.25300 33.40200
H  -7.24700 32.21100 32.47400
H  -5.82200 32.95900 33.36600

