158

Mg 40.53900 10.25900 29.22500
C  42.44900 11.80100 31.76600
C  38.20400 9.32000 31.51500
C  38.74700 9.07700 26.70000
C  43.01900 11.10800 27.03400
N  40.31200 10.57800 31.33100
C  41.21100 11.23400 32.20100
C  40.68800 11.30600 33.59700
C  39.53000 10.34800 33.54700
C  39.37500 9.94600 32.07100
C  39.45600 9.14800 34.45600
C  40.27800 12.84500 33.85100
C  39.52700 13.12700 35.22900
H  40.27500 13.75000 36.36000
N  38.75800 9.25400 29.12900
C  37.95600 8.89900 30.20100
C  36.84200 8.20100 29.71600
C  37.04700 8.05900 28.29300
C  38.22100 8.86000 27.97300
C  35.75500 7.60400 30.53700
C  36.12800 7.37300 27.29400
O  36.42500 7.19000 26.14200
C  34.76000 6.85300 27.74800
N  40.87200 10.03600 27.12500
C  39.97000 9.51900 26.29300
C  40.40900 9.56700 24.82300
C  41.75900 10.31800 24.94800
C  41.89200 10.61300 26.47500
C  40.29900 8.28500 23.95900
C  41.94400 11.48800 23.99900
C  41.46900 12.91000 24.46700
N  42.45300 11.02000 29.36200
C  43.32400 11.31600 28.38600
C  44.55500 11.82700 28.91500
C  44.20600 12.10600 30.24400
C  42.92200 11.63000 30.46500
C  45.89100 11.98300 28.32300
C  44.57500 12.78800 31.44500
O  45.61300 13.36300 31.66900
C  43.42400 12.63700 32.48900
C  44.04200 11.76500 33.61300
O  44.47900 10.63300 33.44500
O  43.78400 12.38900 34.82900
C  43.93800 11.44000 35.96400
H  37.48200 9.08300 32.29900
H  38.27700 8.82100 25.74800
H  43.80800 11.35100 26.32000
H  41.47000 11.01900 34.30100
H  38.60400 10.88500 33.75000
H  39.37600 8.21000 33.90700
H  38.61100 9.19900 35.14200
H  40.35700 9.13900 35.07000
H  39.64900 13.13400 33.00900
H  41.16300 13.47900 33.89600
H  39.22700 12.15800 35.62900
H  38.63500 13.71100 35.00000
H  35.77000 6.51600 30.60700
H  34.80900 8.01100 30.17900
H  35.75100 7.96700 31.56500
H  34.32200 6.44400 26.83800
H  34.21700 7.66100 28.24000
H  34.79700 6.01500 28.44400
H  39.80600 10.32300 24.32000
H  42.43800 9.48500 24.76500
H  41.12200 8.21900 23.24800
H  39.35500 8.27000 23.41400
H  40.38700 7.46300 24.67000
H  41.51900 11.32000 23.01000
H  42.98500 11.66700 23.72800
H  40.77900 12.76300 25.29800
H  40.87200 13.45300 23.73400
H  42.40400 13.37100 24.78300
H  46.07500 13.03200 28.08900
H  46.09700 11.33400 27.47200
H  46.55300 11.63700 29.11700
H  43.02600 13.60900 32.78300
H  44.99700 11.18700 35.99900
H  43.41500 10.49000 35.85100
H  43.66100 11.82900 36.94400
Mg 43.40200 42.58200 26.26800
C  42.19200 44.62300 28.83500
C  44.89300 40.66100 28.60400
C  44.30500 40.56400 23.68400
C  42.21500 45.00200 23.98200
N  43.66800 42.81100 28.46200
C  42.88800 43.53100 29.24300
C  43.05000 43.09200 30.78700
C  43.82800 41.73700 30.70100
C  44.23300 41.78200 29.15300
C  45.10100 41.59700 31.61100
C  41.64800 42.92700 31.51400
C  41.53500 41.85900 32.67800
H  40.74800 42.21600 33.93300
N  44.52500 40.88200 26.12500
C  45.10400 40.27700 27.24200
C  45.90400 39.14100 26.76000
C  45.58800 38.95100 25.33700
C  44.75400 40.16700 24.98300
C  46.78900 38.27100 27.75300
C  46.08900 37.88000 24.38000
O  45.88600 38.03100 23.17300
C  46.97200 36.79100 24.84200
N  43.43900 42.85600 24.03500
C  43.70300 41.74700 23.25400
C  43.38500 42.10500 21.81900
C  42.66300 43.50600 21.93300
C  42.62400 43.79400 23.42900
C  44.58400 42.16000 20.85400
C  41.20600 43.62100 21.24100
C  40.00700 43.05000 22.00400
N  42.51900 44.46400 26.33100
C  42.05900 45.31900 25.36000
C  41.47500 46.49700 25.92900
C  41.40900 46.20200 27.28100
C  42.07900 44.99400 27.44900
C  41.00400 47.66900 25.19900
C  40.92500 46.76400 28.54400
O  40.25800 47.78800 28.74100
C  41.40400 45.74800 29.64100
C  42.10300 46.49500 30.66100
O  43.27000 46.85200 30.54100
O  41.37600 46.67200 31.86700
C  42.11000 47.33600 32.91100
H  45.34500 39.97000 29.31900
H  44.75700 39.87200 22.97100
H  41.76400 45.69800 23.27100
H  43.72500 43.85800 31.16900
H  43.24100 40.82400 30.80800
H  45.15600 42.28600 32.45300
H  45.98500 41.75100 30.99200
H  45.12300 40.62300 32.10100
H  40.80600 42.74900 30.84500
H  41.58800 43.87700 32.04400
H  42.58300 41.77300 32.96400
H  41.22300 40.88300 32.30400
H  46.26900 37.34400 27.99400
H  46.90000 38.84600 28.67200
H  47.75500 38.09600 27.27800
H  46.58200 36.15000 25.63300
H  47.91800 37.25800 25.11500
H  47.02200 36.18900 23.93500
H  42.69500 41.41300 21.33700
H  43.22900 44.34800 21.53500
H  44.82800 43.14200 20.44800
H  44.58200 41.48300 20.00000
H  45.49200 42.01400 21.44000
H  41.25600 43.19600 20.23800
H  40.89600 44.65300 21.07300
H  39.49200 42.21900 21.52000
H  39.29800 43.84100 22.24800
H  40.40100 42.59300 22.91100
H  40.10500 47.40900 24.64000
H  41.76000 47.99400 24.48400
H  40.81300 48.50900 25.86600
H  40.53600 45.29400 30.11900
H  42.80500 46.62000 33.35000
H  41.41000 47.80000 33.60500
H  42.74700 48.14200 32.54800

