158

Mg 36.63500 49.61400 24.59600
C  36.45300 47.74400 27.63000
C  35.30100 52.36700 26.28300
C  35.90900 51.13300 21.58700
C  37.51200 46.78000 22.93800
N  35.84700 49.90200 26.68200
C  35.91100 49.04900 27.72700
C  35.58600 49.89700 29.00600
C  35.01000 51.26000 28.47100
C  35.42600 51.17500 27.04900
C  33.48100 51.49500 28.66600
C  36.81900 50.13300 29.94000
C  36.54800 50.04000 31.45400
H  35.22700 49.68900 31.94300
N  35.75800 51.52500 24.00000
C  35.41700 52.56400 24.87600
C  34.94700 53.67100 24.05000
C  35.24700 53.32300 22.72100
C  35.63200 51.91200 22.72500
C  34.28000 54.80800 24.74600
C  35.28200 54.17900 21.49300
O  35.52400 53.79200 20.39400
C  34.95400 55.56400 21.61900
N  36.74600 49.03400 22.54400
C  36.49400 49.90900 21.49300
C  36.83500 49.18800 20.12400
C  37.63600 47.93100 20.61200
C  37.29100 47.86700 22.13200
C  35.57100 48.88300 19.31100
C  39.16000 48.04200 20.36900
C  39.88000 46.67000 20.43300
N  36.95600 47.60900 25.16100
C  37.34100 46.58500 24.35800
C  37.56400 45.36000 25.19900
C  37.30000 45.80000 26.50600
C  36.82300 47.12100 26.42300
C  38.19500 44.16200 24.74600
C  37.26500 45.39000 27.91000
O  37.54200 44.32300 28.36600
C  36.72700 46.67100 28.70800
C  35.49700 46.10600 29.32800
O  34.45800 45.86200 28.76400
O  35.78500 45.75300 30.62100
C  34.73900 45.05700 31.20200
H  35.17200 53.22900 26.94100
H  35.68800 51.51200 20.58700
H  37.89000 45.95600 22.32900
H  34.82200 49.35700 29.56600
H  35.57000 52.12500 28.82900
H  33.14000 50.99500 29.57300
H  32.88900 51.03400 27.87600
H  33.17400 52.53600 28.77100
H  37.27600 51.10400 29.74600
H  37.55300 49.36700 29.69000
H  36.98200 50.98100 31.79300
H  37.21400 49.27000 31.84400
H  35.02000 55.55400 25.03400
H  33.81200 54.51500 25.68600
H  33.45900 55.30500 24.23100
H  33.87500 55.65400 21.48700
H  35.41100 56.17900 20.84400
H  35.23900 55.95300 22.59700
H  37.38800 49.86200 19.46900
H  37.26100 46.97000 20.26100
H  34.69900 49.41500 19.69200
H  35.38200 47.81000 19.27700
H  35.69100 49.30100 18.31100
H  39.47900 48.68900 21.18600
H  39.32400 48.74400 19.55100
H  40.56100 46.47600 19.60400
H  39.18600 45.83300 20.50500
H  40.50200 46.59900 21.32500
H  39.01800 43.91300 25.41700
H  38.69800 44.20800 23.78000
H  37.48000 43.36400 24.54600
H  37.28500 47.04900 29.56500
H  34.88400 45.16500 32.27700
H  34.80000 43.99200 30.98200
H  33.69400 45.19800 30.92600
Mg 0.62500 42.87800 25.82900
C  2.53200 42.93100 28.89200
C  -2.05400 41.78200 27.49400
C  -0.81800 42.43500 22.90100
C  3.77500 43.64500 24.18000
N  0.35000 42.19100 27.99300
C  1.18300 42.50400 29.04000
C  0.37900 42.44000 30.36700
C  -0.97900 41.74600 29.90500
C  -0.93200 41.96000 28.34400
C  -1.08700 40.22300 30.33000
C  0.18100 43.90900 30.96800
C  0.62600 44.21800 32.45100
H  0.75400 43.03100 33.43800
N  -1.25800 42.34400 25.25600
C  -2.22000 41.87300 26.07900
C  -3.37300 41.54200 25.22300
C  -3.02600 41.80000 23.90900
C  -1.60300 42.11500 23.98000
C  -4.64400 41.01300 25.81300
C  -3.87000 41.64900 22.61000
O  -3.39700 41.82100 21.46600
C  -5.35700 41.17900 22.68400
N  1.34100 43.04700 23.97300
C  0.49700 42.83700 22.84800
C  1.19400 42.97300 21.48500
C  2.62700 43.47400 21.96900
C  2.60500 43.37200 23.46600
C  1.25900 41.61000 20.59600
C  2.90100 45.02600 21.56600
C  1.76300 46.06700 21.76800
N  2.73100 43.24400 26.41200
C  3.84800 43.62300 25.59000
C  5.02700 43.83500 26.47100
C  4.47200 43.57600 27.79200
C  3.10800 43.20600 27.66200
C  6.40300 44.12700 26.03600
C  4.94100 43.41000 29.14700
O  6.09500 43.43200 29.63300
C  3.63900 43.12200 29.90500
C  3.94100 41.84300 30.64500
O  3.89700 40.70500 30.16900
O  4.42600 42.07300 31.92000
C  4.76900 40.90000 32.72400
H  -3.00300 41.57800 27.99500
H  -1.21100 42.38300 21.88300
H  4.68900 43.80300 23.60400
H  0.93500 41.78900 31.04100
H  -1.71800 42.36600 30.41200
H  -1.27900 39.55700 29.48900
H  -1.96700 40.06800 30.95500
H  -0.22200 39.84500 30.87600
H  -0.83200 44.30400 31.04500
H  0.76300 44.59900 30.35700
H  -0.08900 44.91100 32.89400
H  1.58500 44.73600 32.41100
H  -5.44800 41.53100 25.29100
H  -4.74100 41.32900 26.85200
H  -4.65300 39.92500 25.74800
H  -6.01500 41.86500 23.21700
H  -5.33200 40.20900 23.18200
H  -5.88200 40.99500 21.74700
H  0.60800 43.68400 20.90300
H  3.43100 42.87300 21.54400
H  0.72800 40.89500 21.22400
H  2.24900 41.20100 20.39600
H  0.66000 41.65900 19.68700
H  3.16100 44.98800 20.50800
H  3.84600 45.30100 22.03500
H  1.92300 46.54500 22.73500
H  0.80200 45.59100 21.96200
H  1.65600 46.82700 20.99500
H  6.51000 43.66600 25.05500
H  7.07200 43.70900 26.78900
H  6.49700 45.20200 25.88400
H  3.45500 43.95000 30.58900
H  5.83300 40.66100 32.74400
H  4.18600 40.03100 32.41900
H  4.51000 41.18000 33.74500

