158

Mg 43.75900 4.37500 47.36500
C  41.66600 7.21400 47.17400
C  40.92200 2.54800 46.66600
C  45.73400 1.76800 46.87600
C  46.56000 6.54700 46.98400
N  41.46100 4.95000 46.83900
C  40.88500 6.10900 46.97000
C  39.38300 5.95700 46.85300
C  39.10400 4.42900 46.68700
C  40.57200 3.92000 46.73000
C  38.33000 3.70000 47.84400
C  38.79300 6.82000 45.67400
C  39.41700 6.72600 44.28700
H  38.52900 6.24700 43.09200
N  43.38800 2.39500 46.86400
C  42.17800 1.83800 46.67500
C  42.33100 0.37400 46.58100
C  43.69000 0.10200 46.54900
C  44.37000 1.43700 46.64300
C  41.16800 -0.60500 46.47300
C  44.24700 -1.31700 46.53900
O  43.53200 -2.32400 46.35800
C  45.74600 -1.51300 46.79400
N  45.88800 4.21400 47.09000
C  46.45400 2.93200 47.14100
C  47.99400 2.97500 47.20000
C  48.25600 4.46500 46.81700
C  46.86300 5.18700 46.99500
C  48.73100 2.67200 48.52800
C  48.89800 4.77200 45.41500
C  50.41300 4.58600 45.19300
N  44.10200 6.41600 47.20200
C  45.28300 7.16300 47.14200
C  45.03300 8.55800 47.31900
C  43.64300 8.58800 47.39800
C  43.09800 7.30400 47.32100
C  45.97000 9.69300 47.38000
C  42.53600 9.47700 47.49200
O  42.44500 10.71000 47.40400
C  41.17500 8.62600 47.32400
C  40.29800 8.92100 48.49800
O  40.53600 8.44600 49.57900
O  39.28200 9.69100 48.15600
C  38.13600 9.76300 49.02400
H  40.11200 1.85400 46.43000
H  46.27500 0.82500 46.77200
H  47.40000 7.24400 46.95100
H  38.91800 6.26400 47.79000
H  38.43000 4.27100 45.84600
H  37.56600 4.34500 48.27600
H  39.00100 3.44600 48.66400
H  37.68200 2.89800 47.48900
H  38.75300 7.86100 45.99400
H  37.76300 6.47100 45.59800
H  40.35000 6.16100 44.30300
H  39.81300 7.72500 44.10800
H  40.19000 -0.12600 46.48800
H  41.35500 -1.33600 47.25900
H  41.25300 -1.14600 45.53000
H  46.34400 -1.19800 45.93900
H  46.04300 -2.55800 46.88800
H  45.98700 -1.04400 47.74800
H  48.23600 2.16500 46.51300
H  48.81900 4.95800 47.61000
H  49.11300 1.65300 48.59500
H  48.14500 2.97100 49.39600
H  49.64600 3.26100 48.60800
H  48.78400 5.82500 45.15900
H  48.32700 4.17000 44.70800
H  50.68300 5.46000 44.60000
H  50.65300 3.65400 44.68200
H  50.94900 4.67500 46.13800
H  45.55300 10.53900 46.83400
H  46.85300 9.48300 46.77700
H  46.18500 10.13000 48.35500
H  40.68100 8.94000 46.40400
H  38.30100 10.38500 49.90400
H  37.84600 8.73900 49.26400
H  37.32700 10.21600 48.45100
Mg 6.62900 53.44400 41.46400
C  6.38600 49.95700 41.63900
C  9.89600 52.91500 40.28000
C  6.67000 56.59200 40.41500
C  3.17400 53.62600 42.21700
N  7.89400 51.61100 40.87500
C  7.57900 50.30300 41.11400
C  8.72400 49.37100 40.73900
C  9.97200 50.35400 40.70100
C  9.25300 51.70700 40.62700
C  11.06100 50.12900 41.82700
C  8.54900 48.46200 39.50600
C  7.89300 49.05500 38.24300
H  6.78900 48.26600 37.52800
N  8.06300 54.59600 40.57700
C  9.32400 54.19500 40.19500
C  10.05000 55.45600 39.73300
C  9.16100 56.56700 39.77900
C  7.92700 55.98600 40.28300
C  11.51500 55.45200 39.22300
C  9.42600 58.03000 39.39000
O  10.47700 58.42000 38.89800
C  8.43000 59.09500 39.45100
N  5.00300 54.78200 41.12400
C  5.40400 56.08300 40.85600
C  4.19100 57.00200 41.03600
C  3.09100 56.10200 41.68300
C  3.71300 54.77000 41.66300
C  4.45900 58.27300 41.87500
C  1.72300 55.92300 40.88500
C  0.42700 56.29000 41.62100
N  5.07900 52.16700 42.03600
C  3.73200 52.34400 42.38600
C  3.23700 51.07800 42.91900
C  4.27800 50.15200 42.68500
C  5.35200 50.83700 42.05700
C  1.91700 50.94700 43.56900
C  4.62200 48.74900 42.82900
O  4.02900 47.86100 43.39300
C  5.92200 48.58700 42.03400
C  5.53300 47.65000 40.92700
O  4.78100 47.97600 40.00300
O  5.89200 46.36700 41.25900
C  5.64500 45.28900 40.26300
H  10.95600 52.80200 40.04300
H  6.54400 57.66000 40.22400
H  2.16700 53.69300 42.63500
H  8.83600 48.65400 41.55300
H  10.47200 50.20600 39.74400
H  11.24200 50.98200 42.48100
H  11.93600 49.86400 41.23500
H  10.93900 49.20700 42.39500
H  8.09800 47.53600 39.86300
H  9.53900 48.15400 39.17000
H  8.69700 48.97700 37.51100
H  7.60800 50.10200 38.34900
H  12.23100 54.94400 39.86900
H  12.00700 56.42100 39.30100
H  11.69300 55.10900 38.20400
H  8.19000 59.35300 40.48300
H  7.54000 58.69000 38.97100
H  8.78700 59.94800 38.87400
H  3.82300 57.39300 40.08700
H  2.81000 56.37200 42.70100
H  4.13900 59.17400 41.35100
H  5.53500 58.27500 42.05000
H  3.95000 58.33600 42.83600
H  1.59500 54.94400 40.42400
H  1.80500 56.61200 40.04400
H  0.49000 56.21900 42.70700
H  -0.26800 55.48300 41.38800
H  0.14500 57.30500 41.33900
H  1.23000 50.74300 42.74700
H  1.56200 51.90900 43.93800
H  1.87400 50.11600 44.27300
H  6.75200 48.06200 42.50600
H  4.62000 45.37100 39.90300
H  5.76100 44.33500 40.77800
H  6.36100 45.46600 39.46000

