158

Mg -1.93400 17.19900 26.24300
C  -2.14200 14.92500 28.97000
C  -2.47600 19.84700 28.54600
C  -2.37800 19.23900 23.66500
C  -2.44500 14.44000 24.20600
N  -2.04400 17.36700 28.50200
C  -2.07000 16.32000 29.39100
C  -2.41200 16.88100 30.84100
C  -2.49000 18.44800 30.66500
C  -2.35800 18.58700 29.11600
C  -3.84700 19.09800 31.13000
C  -1.37900 16.38800 31.91500
C  -1.08900 17.32800 33.08600
H  -0.41100 16.75000 34.21300
N  -2.27400 19.17700 26.13300
C  -2.44500 20.12700 27.15500
C  -2.55800 21.40500 26.60400
C  -2.40000 21.31400 25.16600
C  -2.35500 19.85300 24.92800
C  -2.88300 22.61300 27.44600
C  -2.61400 22.32200 24.09200
O  -2.62100 22.12900 22.88700
C  -2.82500 23.68700 24.49200
N  -2.46300 16.86400 24.17200
C  -2.46700 17.87000 23.30200
C  -2.63400 17.44700 21.83600
C  -2.63500 15.89200 22.04300
C  -2.51400 15.69200 23.60300
C  -3.96800 18.00400 21.29800
C  -1.56900 15.18400 21.29900
C  -1.78300 15.21900 19.76200
N  -2.31300 15.14500 26.45800
C  -2.32500 14.15200 25.55700
C  -2.40000 12.84500 26.11700
C  -2.29200 13.10800 27.52700
C  -2.27700 14.50200 27.64900
C  -2.69300 11.54400 25.41100
C  -2.27800 12.48600 28.80800
O  -2.20800 11.28100 29.05900
C  -2.26300 13.69100 29.83100
C  -1.20900 13.30800 30.78300
O  -0.02500 13.45600 30.58600
O  -1.83900 12.78100 31.91900
C  -0.92100 12.35700 32.96900
H  -2.65800 20.60800 29.30800
H  -2.48400 19.85300 22.76800
H  -2.52700 13.66200 23.44400
H  -3.35700 16.36000 30.99600
H  -1.72200 18.96000 31.24500
H  -4.46500 19.37600 30.27600
H  -3.58100 20.01800 31.65000
H  -4.33600 18.38000 31.78900
H  -0.54400 16.14100 31.26100
H  -1.78100 15.46700 32.33900
H  -1.95100 17.94700 33.33400
H  -0.37400 18.10200 32.80900
H  -3.92400 22.88600 27.27300
H  -2.32600 23.50400 27.15600
H  -2.81100 22.48400 28.52600
H  -2.96500 24.36600 23.65100
H  -1.90100 24.00500 24.97300
H  -3.68300 23.76500 25.16000
H  -1.82600 17.81600 21.20500
H  -3.64700 15.52400 21.87100
H  -4.17400 18.91700 21.85800
H  -4.69900 17.19800 21.25000
H  -3.69500 18.37800 20.31200
H  -1.31900 14.14900 21.53100
H  -0.67100 15.78500 21.43600
H  -1.17900 16.04200 19.37800
H  -2.83200 15.45400 19.58100
H  -1.45800 14.33500 19.21400
H  -2.09200 11.41700 24.51100
H  -3.74400 11.64600 25.13900
H  -2.48200 10.66200 26.01500
H  -3.25100 13.76900 30.28600
H  -0.26000 13.19000 33.20800
H  -0.36100 11.49900 32.59600
H  -1.52400 12.27400 33.87300
Mg 47.04000 16.32700 28.94100
C  44.92400 15.57600 31.79500
C  49.16500 17.95300 30.94500
C  48.54600 17.17100 26.23500
C  44.20700 15.00300 27.00700
N  47.04400 16.68100 31.13000
C  46.15400 16.20300 32.13100
C  46.54600 16.67500 33.56400
C  47.82800 17.54300 33.19800
C  48.08100 17.38200 31.73600
C  47.72700 19.05900 33.51300
C  46.78200 15.41100 34.47800
C  46.50200 15.60400 36.01800
H  46.58800 16.99700 36.76800
N  48.73200 17.34000 28.65200
C  49.57100 17.90100 29.57200
C  50.75700 18.47600 28.96000
C  50.46000 18.34700 27.60200
C  49.15000 17.69000 27.43400
C  51.95600 19.09500 29.69000
C  51.37900 18.74700 26.41500
O  51.09800 18.48600 25.21300
C  52.58300 19.67300 26.69500
N  46.42200 16.10200 26.95300
C  47.35200 16.49000 26.01600
C  46.84900 16.26200 24.55300
C  45.57800 15.44000 24.82200
C  45.43400 15.46500 26.38700
C  46.55800 17.60800 23.77400
C  45.54900 14.00300 24.28700
C  44.30500 13.67300 23.40100
N  45.00200 15.50800 29.24800
C  44.02700 15.03800 28.33800
C  42.88200 14.60600 29.05300
C  43.17100 14.82300 30.41900
C  44.54500 15.29200 30.45300
C  41.63600 14.00600 28.52100
C  42.63600 14.60400 31.79200
O  41.63900 14.07700 32.28400
C  43.71600 15.24500 32.69100
C  43.10700 16.53500 33.16400
O  42.95200 17.56500 32.51100
O  43.01300 16.54200 34.53700
C  42.50200 17.71900 35.24100
H  49.91900 18.43800 31.56900
H  49.01600 17.45400 25.29000
H  43.50200 14.57100 26.29300
H  45.77800 17.36000 33.92400
H  48.71600 17.22700 33.74400
H  48.14200 19.70300 32.73700
H  48.23100 19.32600 34.44200
H  46.72000 19.38100 33.77700
H  47.80600 15.14900 34.21300
H  46.09500 14.60400 34.22100
H  47.18200 14.91500 36.52000
H  45.49500 15.23700 36.21600
H  51.96100 20.16700 29.49500
H  52.91000 18.70200 29.33800
H  51.94700 18.97900 30.77400
H  52.86300 19.92300 25.67200
H  53.29200 18.97400 27.13900
H  52.44200 20.53400 27.34900
H  47.56400 15.68600 23.96500
H  44.61700 15.82900 24.48500
H  45.49200 17.83200 23.76300
H  46.96200 17.49300 22.76800
H  47.04100 18.35100 24.40900
H  45.57900 13.36400 25.17000
H  46.44300 13.91700 23.67100
H  44.58800 12.83600 22.76300
H  43.99300 14.36100 22.61500
H  43.39800 13.63700 24.00500
H  41.41700 14.60800 27.63900
H  40.81400 14.03500 29.23500
H  41.86800 12.97400 28.25800
H  43.79400 14.67300 33.61500
H  41.54300 17.36900 35.62300
H  42.14600 18.56000 34.64500
H  43.21400 18.03300 36.00400

