158

Mg -0.71700 18.08400 27.39000
C  -1.33600 15.80200 30.09500
C  -1.49500 20.57600 29.40500
C  -0.60400 19.96700 24.66900
C  -0.56600 15.14600 25.28500
N  -1.32900 18.19500 29.51400
C  -1.29900 17.16200 30.49700
C  -1.49100 17.70100 31.88700
C  -1.75000 19.21000 31.56700
C  -1.61600 19.31700 30.05700
C  -3.06000 19.79200 32.17400
C  -0.40000 17.41200 33.01300
C  -1.01500 16.90100 34.39500
H  -0.18600 17.25300 35.65600
N  -0.76700 20.04800 27.07200
C  -1.09300 20.95500 28.08300
C  -0.93000 22.30200 27.54300
C  -0.69800 22.14700 26.12300
C  -0.64900 20.70700 25.88500
C  -1.21200 23.57700 28.39700
C  -0.58500 23.17700 25.03800
O  -0.41900 22.94100 23.87800
C  -0.72300 24.62800 25.38000
N  -0.66200 17.61000 25.26600
C  -0.50300 18.63600 24.38400
C  -0.45100 17.97900 22.99000
C  -0.04800 16.57400 23.24400
C  -0.50100 16.43400 24.66000
C  -1.66700 18.29600 22.03100
C  1.57400 16.37600 23.05200
C  2.51000 17.25600 23.92000
N  -0.99200 16.00200 27.52700
C  -0.98400 14.93500 26.60100
C  -1.20800 13.69000 27.15300
C  -1.35100 13.96900 28.47000
C  -1.25700 15.35700 28.72900
C  -1.31600 12.41400 26.35300
C  -1.61700 13.31200 29.75900
O  -1.81300 12.08700 30.03600
C  -1.60300 14.52700 30.83500
C  -0.58500 14.16600 31.90000
O  0.63900 14.18400 31.77700
O  -1.29900 13.62000 32.94400
C  -0.52500 12.91800 34.00100
H  -1.73700 21.44600 30.01900
H  -0.54500 20.67000 23.83600
H  -0.32400 14.30700 24.62800
H  -2.42600 17.29600 32.27300
H  -0.96100 19.79000 32.04600
H  -3.70200 20.16900 31.37800
H  -2.93100 20.71700 32.73600
H  -3.59600 19.04100 32.75300
H  0.19400 18.31600 33.14400
H  0.31500 16.64500 32.71500
H  -1.14300 15.82300 34.49000
H  -1.93100 17.49000 34.44400
H  -1.62000 23.41400 29.39500
H  -1.93900 24.25900 27.95400
H  -0.40400 24.26900 28.63500
H  -0.72800 25.24800 24.48400
H  0.00200 24.99600 26.10700
H  -1.75000 24.66300 25.74500
H  0.34200 18.55600 22.51500
H  -0.67500 15.85500 22.71600
H  -2.02700 17.45100 21.44400
H  -1.12100 18.89200 21.29900
H  -2.47000 18.79100 22.57700
H  1.77800 16.59600 22.00400
H  1.83200 15.32300 23.16800
H  2.97400 16.67900 24.72000
H  2.02700 18.03900 24.50500
H  3.31000 17.65700 23.29700
H  -0.34300 12.01400 26.06800
H  -1.80100 12.60000 25.39500
H  -1.91300 11.65900 26.86500
H  -2.62700 14.53200 31.20900
H  -1.05000 13.25400 34.89600
H  0.53100 13.14900 34.14000
H  -0.68100 11.84200 33.92900
Mg 29.86100 57.91500 40.24700
C  27.03500 55.92000 39.16500
C  31.84800 55.29400 39.00000
C  32.43800 59.87300 40.39300
C  27.66700 60.64700 40.53300
N  29.52900 55.93000 39.08100
C  28.31300 55.30300 38.88300
C  28.46600 53.83100 38.52700
C  29.94800 53.54900 38.56900
C  30.46500 55.01800 38.86800
C  30.46700 52.43600 39.55000
C  27.83300 53.46000 37.05400
C  28.47400 54.22200 35.82100
H  27.57500 55.29600 35.14200
N  31.96400 57.58900 39.95200
C  32.57900 56.48000 39.38500
C  34.00000 56.71800 39.42900
C  34.21600 58.00700 39.96800
C  32.84000 58.50800 40.16200
C  34.93900 55.64500 38.96600
C  35.55300 58.70300 40.23500
O  36.58900 58.12000 39.94900
C  35.71900 60.05900 40.80500
N  30.06400 59.99400 40.29000
C  31.25800 60.51000 40.52300
C  31.19900 62.02600 40.91300
C  29.67900 62.31400 40.78700
C  29.05900 60.92100 40.55000
C  31.74500 62.34800 42.31600
C  29.35000 63.21300 39.55000
C  28.38100 64.33100 39.93600
N  27.73700 58.27700 40.10000
C  27.00800 59.42000 40.19500
C  25.64900 59.11200 39.87800
C  25.60500 57.73400 39.53300
C  26.93800 57.30300 39.62900
C  24.48100 60.09400 39.92400
C  24.68200 56.54200 39.21600
O  23.43700 56.57400 39.12800
C  25.61300 55.37000 38.90700
C  25.25400 54.27800 39.85100
O  25.72500 54.07000 40.95900
O  24.34700 53.41300 39.27200
C  23.94900 52.22100 40.07200
H  32.45200 54.40500 38.80900
H  33.28900 60.55500 40.45200
H  27.01600 61.49300 40.76400
H  27.95000 53.21600 39.26500
H  30.29300 53.22500 37.58600
H  30.52300 53.02400 40.46700
H  31.44800 52.08000 39.23300
H  29.75700 51.60900 39.56400
H  26.81700 53.83900 37.16500
H  27.97500 52.38100 36.99300
H  28.73800 53.52600 35.02500
H  29.35800 54.75600 36.16900
H  35.79500 55.92700 38.35300
H  34.53000 54.78100 38.44300
H  35.42100 55.32500 39.89000
H  35.20100 60.20800 41.75300
H  35.33900 60.79200 40.09300
H  36.77200 60.31800 40.92000
H  31.81700 62.60400 40.22600
H  29.31100 62.82400 41.67800
H  30.94700 62.73300 42.95100
H  32.40000 63.18600 42.07800
H  32.25700 61.50800 42.78700
H  28.95200 62.55000 38.78200
H  30.23700 63.67800 39.11900
H  27.47800 64.09900 39.37100
H  28.69400 65.29900 39.54600
H  28.21000 64.36100 41.01200
H  24.53500 60.72100 39.03400
H  24.70100 60.71000 40.79600
H  23.50700 59.61900 40.04400
H  25.36600 54.92000 37.94600
H  23.73200 52.61000 41.06700
H  24.78000 51.52200 40.16600
H  23.11200 51.73200 39.57400

