158

Mg 16.58500 51.60200 25.94500
C  18.78400 50.61700 28.63300
C  14.55300 52.92800 28.29300
C  14.61700 52.44200 23.47500
C  19.02200 50.44400 23.71100
N  16.74100 51.85600 28.11300
C  17.62100 51.22100 29.03800
C  17.26600 51.54000 30.53500
C  15.83600 52.15400 30.39800
C  15.66200 52.30400 28.84700
C  14.75700 51.28900 31.13400
C  18.30100 52.49500 31.16100
C  18.59500 52.26500 32.66200
H  17.62300 51.40000 33.53600
N  14.76800 52.47600 25.93000
C  14.08500 53.01700 26.97200
C  12.82200 53.49000 26.50600
C  12.79500 53.21400 25.11400
C  14.12300 52.70300 24.75000
C  11.82400 54.17000 27.46600
C  11.63500 53.49400 24.15300
O  11.67200 53.44300 22.91700
C  10.40400 53.99500 24.79400
N  16.83300 51.50100 23.76900
C  15.81500 51.92100 22.99800
C  16.06500 51.41400 21.56800
C  17.60900 50.91300 21.62200
C  17.86700 50.98700 23.10000
C  14.99700 50.35100 21.04300
C  18.54700 51.88900 20.81200
C  19.95100 51.41500 20.43500
N  18.55100 50.76100 26.06900
C  19.34400 50.32600 25.06000
C  20.44000 49.54400 25.61400
C  20.30500 49.58300 26.98600
C  19.10600 50.35200 27.26500
C  21.53500 48.88900 24.74500
C  20.86700 49.13200 28.23100
O  21.83700 48.45300 28.63000
C  19.87800 49.76100 29.34600
C  19.49300 48.69400 30.32800
O  18.66500 47.83300 30.11300
O  20.17500 48.86200 31.50400
C  19.77900 47.92800 32.54500
H  13.78200 53.14800 29.03400
H  13.98400 52.68500 22.61900
H  19.76100 50.15800 22.96000
H  17.38400 50.56700 31.01200
H  15.94700 53.14200 30.84600
H  14.05400 52.02000 31.53300
H  15.23200 50.58400 31.81600
H  14.31900 50.71000 30.32100
H  17.99900 53.53600 31.05100
H  19.25600 52.43300 30.63800
H  18.76200 53.23200 33.13500
H  19.46800 51.62000 32.76500
H  11.32100 55.06400 27.09700
H  12.45300 54.59200 28.25000
H  11.02100 53.53500 27.84000
H  10.07000 53.38800 25.63600
H  9.68300 54.11600 23.98600
H  10.53000 55.01400 25.15800
H  15.97900 52.27700 20.90700
H  17.76100 49.95500 21.12400
H  15.37000 49.35500 20.80600
H  14.48500 50.82500 20.20500
H  14.22700 50.16000 21.79100
H  18.59500 52.75900 21.46700
H  18.07100 52.10900 19.85700
H  20.84000 51.86400 20.87800
H  20.19500 51.43500 19.37200
H  19.86400 50.34500 20.62000
H  22.48600 49.04000 25.25600
H  21.60400 49.41400 23.79200
H  21.21600 47.84700 24.69800
H  20.44000 50.37900 30.04600
H  19.92900 48.61100 33.38100
H  20.44000 47.07100 32.67100
H  18.72000 47.67400 32.48900
Mg -10.90600 38.62800 42.30100
C  -9.28800 35.50700 41.72400
C  -8.31500 40.20600 40.45600
C  -12.78700 41.48600 42.19000
C  -13.74700 36.87900 43.19700
N  -8.97400 37.93700 41.22900
C  -8.57100 36.62400 41.13400
C  -7.28300 36.50700 40.25500
C  -6.87000 38.02900 40.00300
C  -8.14500 38.76800 40.58000
C  -5.57900 38.47700 40.68700
C  -7.43900 35.63400 38.94600
C  -6.15100 34.88900 38.56000
H  -5.18800 35.53700 37.51000
N  -10.50400 40.60600 41.54400
C  -9.45000 41.01200 40.81700
C  -9.67400 42.33900 40.41800
C  -10.98900 42.74500 40.86100
C  -11.50000 41.62900 41.62200
C  -8.60900 43.07100 39.60800
C  -11.61100 44.09800 40.60100
O  -11.05200 44.85100 39.85000
C  -12.80700 44.57800 41.20500
N  -12.98900 39.15900 42.68700
C  -13.52900 40.36900 42.59300
C  -14.93000 40.35700 43.19700
C  -15.25700 38.81300 43.35400
C  -13.89800 38.20600 43.07300
C  -15.31700 41.16100 44.46700
C  -16.41600 38.24900 42.49200
C  -17.26800 37.25000 43.21800
N  -11.44200 36.61800 42.55200
C  -12.63300 36.08800 42.97400
C  -12.45600 34.63500 43.03900
C  -11.07200 34.35900 42.64300
C  -10.55900 35.60100 42.30400
C  -13.50800 33.70500 43.50200
C  -10.03400 33.35200 42.47400
O  -10.08600 32.15200 42.76900
C  -8.87300 34.04100 41.74200
C  -7.68800 33.64700 42.59800
O  -7.58300 33.94300 43.78300
O  -6.74800 32.93900 41.85900
C  -5.51200 32.65200 42.63200
H  -7.45900 40.66000 39.95300
H  -13.39500 42.38900 42.28300
H  -14.61800 36.25800 43.41700
H  -6.53400 36.07500 40.91900
H  -6.89100 38.21400 38.92900
H  -5.95300 39.07900 41.51500
H  -5.15400 39.20600 39.99700
H  -4.82400 37.71600 40.88500
H  -7.60900 36.46100 38.25700
H  -8.31800 34.98900 38.95300
H  -6.43600 33.96400 38.05800
H  -5.56900 34.58600 39.43000
H  -9.03400 43.60500 38.75900
H  -7.74300 42.54600 39.20600
H  -8.24800 43.78800 40.34600
H  -12.72800 44.26300 42.24600
H  -13.66500 44.17600 40.66800
H  -12.88400 45.66500 41.18100
H  -15.62600 40.69800 42.43000
H  -15.36800 38.59600 44.41700
H  -16.19400 41.76600 44.23900
H  -14.63100 41.99200 44.62600
H  -15.32000 40.57000 45.38300
H  -15.99800 37.74200 41.62300
H  -17.03400 39.03600 42.05900
H  -18.23900 37.73900 43.29700
H  -16.92500 36.93300 44.20300
H  -17.37700 36.33500 42.63600
H  -13.58200 33.88300 44.57500
H  -13.30100 32.64700 43.34400
H  -14.46900 33.94800 43.04900
H  -8.74800 33.64200 40.73500
H  -5.70000 32.51000 43.69600
H  -4.74500 33.41500 42.50300
H  -5.01900 31.80200 42.15900

