158

Mg 9.64000 3.82700 27.77400
C  10.85100 2.26900 30.57000
C  7.96100 6.11600 29.75900
C  8.18800 5.28100 25.00900
C  10.96500 1.30600 25.66300
N  9.49300 4.09000 29.91500
C  10.06200 3.40100 30.94000
C  9.66500 3.98300 32.32200
C  8.64200 5.06100 31.96500
C  8.78600 5.23300 30.41900
C  7.24000 4.72100 32.43800
C  10.98600 4.56300 32.95500
C  10.78700 5.37800 34.26000
H  11.68800 4.91300 35.42200
N  8.37100 5.58200 27.44500
C  7.76300 6.36800 28.41900
C  6.86100 7.25900 27.76200
C  6.92800 7.01700 26.33300
C  7.89200 5.90000 26.17300
C  5.89100 8.05400 28.54700
C  6.19500 7.71900 25.14600
O  6.18400 7.41200 23.94400
C  5.31700 8.91200 25.53100
N  9.43900 3.25700 25.71600
C  8.90600 4.06200 24.73800
C  9.28500 3.59200 23.35400
C  9.82600 2.16700 23.59000
C  10.21100 2.30400 25.02100
C  8.25100 3.72100 22.21400
C  11.09100 1.84300 22.76300
C  11.03800 0.58200 21.94200
N  10.66000 2.14700 27.97400
C  11.10500 1.21600 27.02900
C  11.77800 0.18400 27.77700
C  11.84400 0.66000 29.16000
C  11.01800 1.79400 29.26000
C  12.41800 -1.08300 27.26000
C  12.36300 0.30600 30.46900
O  13.07500 -0.61900 30.80000
C  11.77000 1.40300 31.45600
C  11.01100 0.73300 32.52400
O  10.23200 -0.16400 32.31600
O  11.50600 1.16300 33.73600
C  11.15000 0.33400 34.86000
H  7.50600 6.80200 30.47600
H  7.75800 5.74300 24.11700
H  11.30500 0.40100 25.15600
H  9.31500 3.18400 32.97500
H  8.77700 5.98300 32.53000
H  6.53300 5.02500 31.66500
H  7.12700 5.30300 33.35200
H  7.09200 3.66400 32.66100
H  11.57200 5.20400 32.29600
H  11.51100 3.64100 33.20100
H  9.73800 5.28900 34.54500
H  10.99800 6.43700 34.11100
H  6.25000 9.08300 28.55000
H  5.74800 7.78400 29.59300
H  4.89300 8.10100 28.11100
H  5.89700 9.56700 26.18100
H  4.51400 8.36600 26.02800
H  4.90800 9.44400 24.67200
H  10.17100 4.21000 23.21000
H  8.97600 1.51100 23.40400
H  7.24300 4.10000 22.38200
H  8.02800 2.74900 21.77500
H  8.64400 4.43000 21.48500
H  11.92600 1.81100 23.46300
H  11.16900 2.69400 22.08700
H  11.52400 0.67400 20.97100
H  10.02800 0.22600 21.73900
H  11.55800 -0.17100 22.53400
H  13.45600 -0.88400 26.99300
H  11.93700 -1.42000 26.34200
H  12.31900 -1.90000 27.97500
H  12.54700 1.99400 31.94200
H  10.64700 -0.61200 34.66000
H  10.62900 0.97900 35.56700
H  12.06200 0.02800 35.37300
Mg 43.82800 3.45500 48.04900
C  41.52600 5.91700 47.13200
C  41.30000 1.15700 47.72600
C  46.04900 1.02700 48.22200
C  46.39200 5.86800 47.83000
N  41.72500 3.54000 47.25400
C  40.92300 4.68100 47.02400
C  39.44500 4.31200 46.77100
C  39.44100 2.80200 47.28100
C  40.93200 2.48400 47.59000
C  38.46700 2.63300 48.57300
C  39.06100 4.50000 45.22000
C  37.86400 5.38600 44.95100
H  38.00300 6.25500 43.77400
N  43.68700 1.33400 47.89100
C  42.56500 0.54700 47.92900
C  42.88400 -0.84700 48.04900
C  44.29200 -0.89300 48.31300
C  44.74200 0.47600 48.14400
C  41.83600 -1.92400 48.11100
C  45.04800 -2.16700 48.75400
O  44.49700 -3.24400 48.87300
C  46.49200 -2.16900 49.04500
N  45.93600 3.41100 47.59400
C  46.63600 2.26700 47.90100
C  48.18800 2.49000 47.82500
C  48.21500 4.04900 47.62100
C  46.78100 4.49700 47.58700
C  48.92700 2.03500 49.11200
C  49.00500 4.43300 46.35300
C  50.42900 3.86800 46.27200
N  43.99200 5.54400 47.74000
C  45.11100 6.32400 47.60300
C  44.65300 7.68900 47.43500
C  43.23900 7.57600 47.27700
C  42.91100 6.23700 47.40800
C  45.52400 8.87700 47.27400
C  42.00800 8.36900 47.15500
O  41.82800 9.57600 47.03500
C  40.86200 7.29900 47.14900
C  40.06000 7.47400 48.39500
O  40.27800 7.01100 49.51400
O  39.09700 8.41700 48.05700
C  38.07900 8.89200 49.03900
H  40.44200 0.48300 47.74800
H  46.79600 0.24400 48.37400
H  47.18200 6.61200 47.94900
H  38.85500 4.94200 47.43800
H  39.02600 2.25800 46.43200
H  37.87100 1.72100 48.52800
H  37.72300 3.42900 48.59400
H  39.03300 2.68100 49.50400
H  38.69100 3.55400 44.82700
H  39.84900 4.88500 44.57300
H  37.66300 6.02500 45.81100
H  37.01800 4.72300 44.77100
H  42.13100 -2.64400 47.34900
H  40.80100 -1.73300 47.82800
H  41.74800 -2.57600 48.98000
H  47.04000 -1.96900 48.12500
H  46.74900 -3.09200 49.56600
H  46.62000 -1.39600 49.80300
H  48.58800 2.01600 46.92900
H  48.68000 4.47000 48.51200
H  49.73000 2.71600 49.39200
H  49.28600 1.08600 48.71500
H  48.32300 1.82300 49.99500
H  49.02300 5.52200 46.40200
H  48.55100 4.00500 45.45900
H  50.53200 3.16300 45.44700
H  50.70400 3.33200 47.18000
H  51.11500 4.71000 46.18200
H  45.12200 9.70100 47.86200
H  45.59600 9.25900 46.25600
H  46.57100 8.81400 47.57100
H  40.27100 7.52800 46.26200
H  37.75800 9.87500 48.69600
H  38.35700 8.98300 50.09000
H  37.23800 8.20300 48.96300

