158

Mg 8.93800 3.63100 27.99900
C  10.06100 1.92100 30.86800
C  7.12000 5.86400 30.00800
C  7.47100 5.03400 25.27000
C  10.13100 1.06900 25.97900
N  8.58800 3.72900 30.11400
C  9.24600 3.02900 31.12400
C  9.08400 3.75800 32.42900
C  8.07900 4.89800 32.22400
C  7.87900 4.82400 30.67100
C  6.69400 4.80000 33.05000
C  10.40800 4.13600 33.18800
C  10.69400 3.54200 34.59000
H  11.37900 4.42400 35.67200
N  7.62500 5.34300 27.68300
C  7.00800 6.11100 28.60400
C  6.29600 7.19100 27.97600
C  6.27800 6.86400 26.62200
C  7.19600 5.74000 26.43500
C  5.58200 8.28200 28.72500
C  5.39800 7.45800 25.52100
O  5.38500 6.99000 24.42300
C  4.44600 8.68600 25.78100
N  8.92400 3.13900 25.93100
C  8.30500 3.94100 24.97600
C  8.29300 3.28600 23.60200
C  9.22500 2.04100 23.73100
C  9.40300 2.05700 25.29600
C  6.81600 2.89000 23.21800
C  10.53400 2.12200 22.97800
C  10.63300 1.17000 21.78700
N  9.94700 1.87500 28.31300
C  10.38100 0.94800 27.43500
C  11.02900 -0.09600 28.09900
C  10.93000 0.19400 29.44000
C  10.21600 1.41300 29.54300
C  11.67700 -1.26500 27.39000
C  11.36700 -0.15000 30.84500
O  12.00300 -1.06500 31.24900
C  10.73900 0.96800 31.78500
C  9.85700 0.28500 32.78500
O  8.79100 -0.22500 32.56000
O  10.38800 0.31500 34.06400
C  9.63200 -0.41400 35.07300
H  6.55100 6.44300 30.73800
H  7.13100 5.47400 24.33100
H  10.53000 0.24300 25.38800
H  8.66200 3.02100 33.11200
H  8.56200 5.84900 32.45000
H  6.44800 5.81400 33.36500
H  6.92400 4.23800 33.95500
H  5.87900 4.37700 32.46300
H  10.33800 5.21300 33.33800
H  11.26800 3.92300 32.55400
H  11.47400 2.78300 34.53900
H  9.77300 3.09400 34.96500
H  4.50000 8.21100 28.60600
H  5.92800 9.22300 28.29900
H  5.87100 8.35300 29.77300
H  3.78500 8.88400 24.93700
H  5.02500 9.58100 26.01000
H  3.80600 8.61900 26.66000
H  8.36000 4.04000 22.81800
H  8.72500 1.09500 23.52300
H  6.12900 3.26400 23.97800
H  6.68800 1.81000 23.15300
H  6.61500 3.40100 22.27700
H  11.32800 1.73600 23.61800
H  10.67300 3.09700 22.51300
H  11.03500 1.60300 20.87100
H  9.68700 0.72300 21.48000
H  11.27000 0.30800 21.98700
H  11.11500 -1.67600 26.55100
H  11.92600 -2.10900 28.03200
H  12.58300 -0.82100 26.97600
H  11.58500 1.42000 32.30200
H  10.13900 -1.34500 35.32400
H  8.61000 -0.64800 34.77500
H  9.49300 0.21600 35.95200
Mg 47.25600 25.18500 28.77000
C  48.08800 27.31100 31.52900
C  46.24200 22.83100 31.09500
C  47.04200 23.07900 26.25100
C  48.85400 27.46300 26.71500
N  47.57300 24.93600 31.09200
C  47.56500 26.07900 31.97200
C  47.16300 25.62400 33.50400
C  46.86700 24.10500 33.30600
C  46.86900 23.91600 31.70900
C  47.93700 23.17600 34.06600
C  46.04000 26.45400 34.15500
C  46.32000 27.06800 35.52000
H  45.11100 27.22400 36.46200
N  46.59300 23.36100 28.60100
C  46.14000 22.52800 29.68900
C  45.59900 21.27600 29.14600
C  45.90000 21.20900 27.75000
C  46.51100 22.59200 27.46700
C  44.84600 20.23200 30.04700
C  45.83700 19.97500 26.81200
O  46.19000 20.08900 25.64400
C  45.22100 18.73000 27.26800
N  47.91500 25.23200 26.82200
C  47.65300 24.30600 25.89900
C  47.80400 24.77700 24.47400
C  48.17900 26.27200 24.68700
C  48.35300 26.37300 26.18500
C  48.82100 23.99200 23.59100
C  47.06500 27.32900 24.21200
C  47.56100 28.75600 23.82300
N  48.24300 27.03700 29.03600
C  48.85600 27.80200 28.07900
C  49.25000 29.02600 28.63300
C  48.98000 28.91400 30.00700
C  48.37900 27.64600 30.20400
C  49.90400 30.13200 27.90300
C  48.98700 29.60600 31.29500
O  49.21200 30.74600 31.61800
C  48.53300 28.48600 32.39500
C  49.55000 28.13600 33.35900
O  50.63700 27.58800 33.15100
O  49.18100 28.75700 34.57000
C  50.05000 28.31600 35.64900
H  45.87800 22.02800 31.73900
H  46.90100 22.38000 25.42400
H  49.34300 28.13600 26.00800
H  47.94100 25.75100 34.25700
H  45.86000 23.88000 33.65700
H  47.54700 22.84600 35.02900
H  48.88200 23.71900 34.08700
H  48.23000 22.29100 33.50000
H  45.20400 25.80100 34.40700
H  45.61200 27.20400 33.49000
H  46.76900 28.05800 35.43500
H  47.09400 26.48200 36.01800
H  43.99400 19.82300 29.50400
H  44.36700 20.75000 30.87700
H  45.41600 19.39200 30.44400
H  45.83800 18.40700 28.10700
H  45.28300 17.95700 26.50200
H  44.20300 19.02500 27.52100
H  46.82800 24.78700 23.98900
H  49.11900 26.49700 24.18400
H  49.31200 23.15100 24.08000
H  49.62800 24.67400 23.32000
H  48.34400 23.77500 22.63500
H  46.29000 27.35900 24.97800
H  46.59400 26.87300 23.34200
H  47.31000 29.57100 24.50100
H  47.18700 29.07200 22.84900
H  48.64700 28.68500 23.77500
H  49.20800 30.64400 27.23900
H  50.80600 29.76300 27.41500
H  50.33900 30.80900 28.63900
H  47.65700 28.86000 32.92600
H  49.50300 27.50100 36.12200
H  50.31800 29.00900 36.44600
H  51.01400 27.87600 35.39200

