158

Mg 46.91600 16.74900 28.07000
C  44.82400 16.18700 30.91200
C  49.00500 18.47900 30.32700
C  48.82200 17.85500 25.42000
C  44.75300 15.27100 26.00600
N  46.79700 17.36500 30.38000
C  45.88700 17.02500 31.33800
C  46.28400 17.43500 32.79500
C  47.52100 18.34500 32.41600
C  47.83500 18.07200 30.93700
C  47.28300 19.87400 32.78400
C  46.72200 16.21000 33.58900
C  46.54000 16.17200 35.15300
H  45.98400 17.44900 35.90500
N  48.67900 17.91300 27.89800
C  49.39000 18.45100 28.95600
C  50.60900 18.99100 28.46600
C  50.59300 18.95500 27.02600
C  49.33800 18.18000 26.71600
C  51.73200 19.56300 29.28300
C  51.67600 19.49800 26.03400
O  51.46300 19.48000 24.86000
C  52.96200 20.07700 26.48900
N  46.71600 16.76300 25.90900
C  47.65800 17.22500 25.06000
C  47.16900 16.95100 23.59200
C  45.95400 16.03700 23.82500
C  45.81000 15.95300 25.34200
C  46.85700 18.20800 22.73800
C  46.04900 14.60600 23.20100
C  44.83200 14.05200 22.42100
N  45.18400 15.86000 28.30500
C  44.37500 15.27400 27.39300
C  43.17500 14.74200 28.03200
C  43.33700 14.98500 29.44600
C  44.49000 15.79900 29.57400
C  42.00400 14.12300 27.36100
C  42.77400 14.85100 30.73100
O  41.77500 14.33600 31.09900
C  43.71100 15.64400 31.74600
C  42.85300 16.66500 32.37900
O  42.60400 17.80100 31.94600
O  42.40300 16.19200 33.60500
C  41.61600 17.07000 34.39500
H  49.81400 18.97300 30.87000
H  49.46500 18.26100 24.63700
H  44.08200 14.70000 25.36000
H  45.43700 17.96000 33.23500
H  48.37300 18.04600 33.02800
H  46.30200 20.12200 33.19000
H  47.63800 20.53600 31.99400
H  47.90900 20.14600 33.63400
H  47.78400 16.01200 33.44200
H  46.12200 15.36000 33.26400
H  47.48000 15.99900 35.67700
H  45.94400 15.31600 35.46900
H  51.98800 20.57700 28.97600
H  52.72800 19.17900 29.06200
H  51.51100 19.49500 30.34900
H  52.78900 21.03800 26.97300
H  53.47400 20.18800 25.53300
H  53.51500 19.34200 27.07400
H  47.93100 16.31500 23.14000
H  44.98600 16.39200 23.47200
H  47.19400 19.12300 23.22500
H  45.77500 18.19900 22.60700
H  47.31400 18.06700 21.75800
H  46.24800 13.94100 24.04200
H  46.87000 14.60500 22.48400
H  44.88500 12.96600 22.50100
H  45.02200 14.44700 21.42300
H  43.84300 14.42500 22.68700
H  41.93200 13.03800 27.43600
H  41.95100 14.48200 26.33300
H  41.13400 14.57900 27.83400
H  44.02600 14.94800 32.52300
H  42.01700 18.08300 34.42300
H  41.70700 16.72600 35.42600
H  40.58600 17.04800 34.03900
Mg 36.83500 49.54100 23.98800
C  36.92900 47.98500 27.24700
C  35.30100 52.23000 25.45100
C  35.75100 50.51500 20.95100
C  37.89100 46.52500 22.71300
N  36.17400 49.99600 26.12300
C  36.53500 49.33400 27.24500
C  36.21100 50.11900 28.49700
C  35.44300 51.42100 27.91000
C  35.65200 51.24100 26.40500
C  33.89700 51.65500 28.30800
C  37.39500 50.38800 29.32500
C  37.21400 49.97800 30.83300
H  35.79400 49.72800 31.43200
N  35.89500 51.25500 23.28100
C  35.31600 52.19200 24.03200
C  34.85100 53.27600 23.15100
C  34.93900 52.79900 21.85400
C  35.52200 51.44600 22.00900
C  34.15100 54.60600 23.64700
C  34.54400 53.34800 20.49100
O  34.75900 52.76100 19.46000
C  33.82700 54.64500 20.36700
N  36.65700 48.54900 22.21300
C  36.40800 49.27800 21.01600
C  36.68800 48.44800 19.79000
C  37.63500 47.38500 20.32900
C  37.38100 47.46500 21.82500
C  35.35900 47.78600 19.11700
C  39.15500 47.61400 20.06900
C  40.00600 46.31400 20.14100
N  37.29000 47.55600 24.81200
C  37.79900 46.51400 24.11600
C  38.06900 45.43000 25.03100
C  37.81200 45.97300 26.33000
C  37.27900 47.27200 26.09500
C  38.69800 44.03200 24.74600
C  37.74400 45.71900 27.73500
O  38.14300 44.72000 28.35100
C  37.07000 47.00400 28.42100
C  35.73100 46.53200 28.90900
O  34.61500 46.57600 28.40500
O  35.96100 45.84200 30.07500
C  34.83000 45.03600 30.54400
H  34.83000 53.10600 25.90100
H  35.53600 50.59200 19.88400
H  38.46600 45.61800 22.51500
H  35.51200 49.44700 28.99400
H  35.93400 52.33200 28.25200
H  33.58600 51.03500 29.14900
H  33.19000 51.55400 27.48500
H  33.84000 52.63700 28.77700
H  37.65000 51.44100 29.20400
H  38.20100 49.78000 28.91500
H  37.70700 50.71000 31.47200
H  37.84700 49.12200 31.06500
H  33.07200 54.53100 23.51500
H  34.37600 55.54800 23.14700
H  34.27000 54.70900 24.72500
H  33.24000 54.67800 19.44900
H  34.46100 55.52900 20.42900
H  33.14700 54.69900 21.21700
H  37.23000 49.11500 19.12000
H  37.32500 46.42400 19.91800
H  34.63400 47.42600 19.84700
H  35.66200 46.90200 18.55600
H  34.82200 48.47500 18.46500
H  39.34500 48.34400 20.85600
H  39.26400 48.09100 19.09500
H  39.38000 45.44100 20.32400
H  40.66300 46.45500 20.99900
H  40.63700 46.13800 19.27000
H  37.86000 43.43600 24.38200
H  39.21400 43.58800 25.59700
H  39.44600 44.19400 23.97000
H  37.58700 47.37000 29.30900
H  34.37400 44.50500 29.70800
H  34.16600 45.72400 31.06600
H  35.36300 44.27600 31.11600

