158

Mg 46.57500 15.56900 28.14100
C  44.56200 15.66900 31.04600
C  48.81000 17.67800 29.90300
C  48.47500 15.89400 25.43900
C  44.08300 14.03000 26.41100
N  46.60600 16.68000 30.20000
C  45.68500 16.46700 31.26100
C  46.22100 17.03500 32.63200
C  47.47100 17.85000 32.08000
C  47.66400 17.30100 30.62500
C  47.42800 19.34500 32.31600
C  46.52700 15.97900 33.73800
C  45.74500 16.24800 35.01000
H  45.85300 17.58400 35.68400
N  48.49200 16.46600 27.77300
C  49.24800 17.28900 28.56600
C  50.44800 17.70800 27.92400
C  50.42400 17.08300 26.65100
C  49.08700 16.43000 26.57300
C  51.62500 18.34500 28.64300
C  51.56300 17.00400 25.60900
O  51.50600 16.24700 24.64500
C  52.76200 17.76900 25.80500
N  46.30300 15.06400 26.30000
C  47.23100 15.23300 25.31600
C  46.78800 14.62400 23.96600
C  45.41700 13.98000 24.32900
C  45.21000 14.47700 25.79500
C  46.81500 15.63200 22.79000
C  45.39200 12.40000 24.00500
C  46.02600 11.44500 25.00100
N  44.71500 14.88300 28.57800
C  43.77000 14.28300 27.76600
C  42.56200 14.07100 28.50100
C  42.87400 14.53300 29.85800
C  44.15100 15.04800 29.83300
C  41.33700 13.43900 27.77600
C  42.33300 14.73500 31.22100
O  41.22100 14.31300 31.73900
C  43.47400 15.40400 32.03500
C  42.90400 16.62400 32.75200
O  43.00100 17.79800 32.42500
O  42.29600 16.23900 33.92300
C  41.62900 17.36300 34.61700
H  49.54700 18.32800 30.37800
H  49.03800 16.04400 24.51500
H  43.28300 13.65400 25.77000
H  45.48500 17.77500 32.94600
H  48.36900 17.55200 32.62200
H  46.70500 19.62600 33.08200
H  47.25000 19.85900 31.37100
H  48.39400 19.71000 32.66300
H  47.57800 16.12400 33.98700
H  46.30600 14.94300 33.47900
H  46.10000 15.46800 35.68400
H  44.72500 16.02600 34.69500
H  52.40800 17.59100 28.56400
H  51.48800 18.55900 29.70300
H  51.91000 19.24900 28.10400
H  52.27900 18.66500 26.19400
H  53.28000 18.11700 24.91100
H  53.27200 17.07900 26.47600
H  47.42600 13.78000 23.70400
H  44.61500 14.47500 23.78100
H  47.40800 16.51000 23.04700
H  45.89100 15.98200 22.33100
H  47.49300 15.19100 22.06000
H  45.87200 12.21400 23.04400
H  44.32400 12.22500 23.87100
H  46.31900 11.95200 25.92100
H  46.85500 10.92400 24.52200
H  45.28600 10.67500 25.21600
H  41.73100 12.59000 27.21800
H  40.83300 14.19200 27.17000
H  40.60700 13.00000 28.45600
H  43.76500 14.70400 32.81800
H  42.31400 18.04600 35.11900
H  40.97300 16.95200 35.38400
H  41.01300 17.79000 33.82600
Mg 46.44200 24.58000 28.43300
C  47.11700 26.71600 31.21200
C  45.34700 22.20400 30.61900
C  46.28600 22.43600 25.79300
C  47.88900 27.03600 26.38400
N  46.45000 24.46200 30.71800
C  46.59500 25.45600 31.62000
C  46.23900 25.06600 33.05400
C  45.59300 23.65200 32.76600
C  45.86500 23.33800 31.28900
C  46.10800 22.61900 33.83200
C  45.31700 26.13700 33.72600
C  45.77800 26.62900 35.09500
H  44.72800 26.87500 36.19600
N  45.69400 22.66500 28.24000
C  45.27500 21.86200 29.30700
C  44.89100 20.61500 28.77500
C  45.19800 20.56000 27.35700
C  45.74200 21.94600 27.01500
C  44.22400 19.52700 29.49300
C  44.88800 19.43400 26.35600
O  45.11300 19.54200 25.16600
C  44.28600 18.15600 26.74700
N  46.79400 24.79300 26.35800
C  46.75500 23.74300 25.50400
C  47.44700 24.17200 24.14500
C  47.80800 25.63700 24.29600
C  47.43000 25.88700 25.75200
C  48.64300 23.31700 23.63500
C  47.17400 26.57700 23.22400
C  47.55300 26.28700 21.77900
N  47.32800 26.47700 28.63300
C  47.84600 27.33900 27.71000
C  48.29300 28.52400 28.37200
C  47.94700 28.38200 29.71200
C  47.44900 27.09300 29.88900
C  48.96100 29.66300 27.68000
C  48.00100 29.00100 30.97900
O  48.27300 30.14000 31.21800
C  47.55300 27.90800 31.96400
C  48.72900 27.58800 32.89200
O  49.58900 26.76500 32.68400
O  48.61500 28.37200 33.96800
C  49.56900 28.08400 35.00900
H  44.84600 21.55000 31.33500
H  46.46800 21.64400 25.06300
H  48.26900 27.73200 25.63400
H  47.16800 24.90700 33.60200
H  44.50500 23.59700 32.82000
H  46.66700 21.91300 33.21800
H  45.35300 22.01700 34.33700
H  46.80100 22.98900 34.58700
H  44.30800 25.74400 33.85500
H  45.04000 26.94300 33.04600
H  46.27800 27.59400 35.00300
H  46.52100 25.92800 35.47500
H  44.54500 18.55600 29.11800
H  43.17300 19.70500 29.26700
H  44.41700 19.66700 30.55700
H  43.92100 17.59900 25.88400
H  43.45300 18.36600 27.41700
H  45.07200 17.62200 27.28100
H  46.68100 23.95100 23.40200
H  48.86000 25.89900 24.18300
H  49.60200 23.81900 23.50300
H  48.35500 22.97900 22.64000
H  48.78300 22.42500 24.24600
H  47.50000 27.59200 23.45400
H  46.08600 26.58200 23.28400
H  46.72900 25.80700 21.25000
H  48.41700 25.62600 21.71300
H  47.74500 27.23000 21.26700
H  48.76200 30.68000 28.02000
H  48.78600 29.50700 26.61600
H  50.04200 29.58000 27.79400
H  46.74600 28.24100 32.61600
H  49.17300 27.36600 35.72800
H  49.83000 28.99600 35.54500
H  50.51100 27.68400 34.63100

