158

Mg 47.27600 16.04000 28.47200
C  45.18000 15.61300 31.19100
C  49.56800 17.71100 30.57300
C  49.03200 16.89100 25.79700
C  44.62300 14.92700 26.45200
N  47.37100 16.50000 30.63700
C  46.35700 16.23300 31.53600
C  46.85700 16.66800 32.95300
C  48.22100 17.50500 32.72700
C  48.38600 17.19900 31.20800
C  47.94500 19.00900 33.06400
C  47.06700 15.48400 33.97700
C  46.49400 15.65300 35.36000
H  46.16900 17.07700 35.87600
N  49.13600 16.88300 28.24800
C  49.89300 17.58200 29.17300
C  51.11700 18.06200 28.55900
C  51.05000 17.77200 27.22700
C  49.73800 17.12600 27.03300
C  52.16000 18.69400 29.30800
C  52.06000 18.01400 26.13900
O  51.93000 17.60900 25.02200
C  53.24500 18.90400 26.34200
N  46.89500 15.97900 26.46000
C  47.79200 16.33200 25.49500
C  47.18900 16.06200 24.06700
C  46.03800 15.15500 24.32900
C  45.81700 15.32800 25.84000
C  46.72600 17.34600 23.34300
C  46.35600 13.63300 24.09700
C  45.18300 12.92200 23.50500
N  45.31700 15.42700 28.66200
C  44.37300 15.02500 27.79900
C  43.28300 14.47300 28.54500
C  43.51800 14.63000 29.87000
C  44.76200 15.29400 29.88500
C  42.07400 13.81100 28.01300
C  43.05400 14.47000 31.26600
O  42.11100 13.92400 31.78300
C  44.04800 15.23600 32.13400
C  43.22900 16.31000 32.77100
O  42.80600 17.39000 32.25400
O  42.80900 15.96200 33.98900
C  41.75600 16.74800 34.64100
H  50.26700 18.20200 31.25500
H  49.65700 17.25900 24.98200
H  43.88900 14.42500 25.81800
H  46.01000 17.27600 33.27400
H  49.09300 17.21200 33.31300
H  47.98200 19.55200 32.12000
H  48.82600 19.26400 33.65400
H  47.06200 19.16700 33.68300
H  48.12700 15.27100 34.11600
H  46.65400 14.58100 33.52800
H  47.26900 15.30400 36.04200
H  45.78500 14.83300 35.48100
H  53.10200 18.19200 29.08900
H  51.95700 18.46600 30.35500
H  52.32100 19.76800 29.21300
H  52.83300 19.88900 26.55900
H  53.87200 19.00600 25.45600
H  53.73700 18.46800 27.21100
H  47.96500 15.49100 23.55600
H  45.11300 15.49000 23.85900
H  47.43200 18.14200 23.58000
H  45.67000 17.54100 23.53000
H  46.85400 17.26000 22.26400
H  46.49500 13.21600 25.09500
H  47.23200 13.40100 23.49300
H  44.78100 12.33900 24.33400
H  45.59700 12.24100 22.76200
H  44.40200 13.51500 23.02800
H  41.66800 14.32000 27.13900
H  41.24500 13.82900 28.72000
H  42.23300 12.74800 27.83300
H  44.45400 14.49500 32.82400
H  40.87200 17.07700 34.09400
H  42.25500 17.61400 35.07700
H  41.42500 16.07900 35.43500
Mg 46.74600 24.96000 28.86900
C  47.46000 27.46300 31.26900
C  45.75900 22.91400 31.34700
C  46.58000 22.51900 26.55900
C  48.31900 26.97600 26.48600
N  46.76800 25.20000 31.01700
C  46.94400 26.29900 31.79200
C  46.58000 26.07400 33.26400
C  46.17700 24.52300 33.32900
C  46.23700 24.17400 31.80400
C  47.14300 23.62100 34.19000
C  45.35300 27.01500 33.81800
C  44.90500 26.76200 35.25400
H  45.86700 26.49700 36.46100
N  46.03300 23.02500 28.92900
C  45.72300 22.35500 30.04400
C  45.26300 21.02500 29.65000
C  45.31200 20.93800 28.16600
C  46.04700 22.20200 27.81500
C  44.80500 19.97700 30.61900
C  44.84300 19.83600 27.16900
O  44.96300 19.93700 25.95900
C  44.17500 18.63100 27.76300
N  47.42900 24.72000 26.89000
C  47.34800 23.64400 26.15500
C  48.03500 23.65800 24.82300
C  48.37400 25.17400 24.75500
C  47.94200 25.71600 26.18400
C  49.09500 22.61000 24.75000
C  47.72000 26.08100 23.64400
C  48.70400 26.79000 22.70200
N  47.60100 26.85400 28.80900
C  48.13800 27.55300 27.75500
C  48.52200 28.89500 28.20300
C  48.30900 28.89600 29.60600
C  47.81400 27.61700 29.89800
C  49.08800 29.95400 27.42200
C  48.40000 29.69300 30.82800
O  48.82300 30.81600 31.01600
C  47.97600 28.73000 31.98800
C  49.13700 28.45500 32.91900
O  50.20900 27.93700 32.62100
O  48.65200 28.59000 34.20600
C  49.73700 28.48000 35.23700
H  45.50400 22.29000 32.20600
H  46.56000 21.68400 25.85500
H  48.87000 27.65000 25.82800
H  47.45400 26.39000 33.83300
H  45.14200 24.44500 33.66400
H  46.51100 23.13100 34.93000
H  47.90000 24.24200 34.66900
H  47.70000 22.92000 33.56900
H  44.44400 26.84500 33.24200
H  45.52900 28.08800 33.73900
H  44.22100 25.91300 35.27200
H  44.25100 27.58700 35.53500
H  43.74000 20.03400 30.84500
H  45.41600 20.12000 31.50900
H  45.07300 18.99400 30.23000
H  43.48200 18.85000 28.57500
H  44.90700 17.92600 28.15900
H  43.61300 18.15300 26.96000
H  47.26500 23.46400 24.07600
H  49.44700 25.32300 24.63900
H  49.01200 21.89800 23.92800
H  49.10300 22.00600 25.65800
H  50.06400 23.09800 24.65100
H  47.10100 26.84200 24.12000
H  47.02500 25.48300 23.05600
H  48.86900 27.83400 22.96900
H  48.51400 26.75900 21.62900
H  49.71200 26.43200 22.91100
H  50.17700 29.96400 27.43900
H  48.68300 30.84800 27.89600
H  48.77200 29.89700 26.38000
H  47.25000 29.21700 32.63900
H  50.75700 28.38000 34.86400
H  49.52300 27.65400 35.91500
H  49.84800 29.48300 35.65000

