158

Mg 9.26600 4.12500 26.89000
C  10.75900 2.55000 29.74600
C  7.10800 5.73800 29.12400
C  7.73500 5.40300 24.26400
C  10.86600 1.67500 24.92700
N  9.04200 4.22900 29.25100
C  9.70800 3.47500 30.11100
C  9.38900 3.90300 31.57400
C  8.19900 4.90700 31.42100
C  8.07900 4.95800 29.84800
C  6.91800 4.54500 32.20800
C  10.60400 4.54900 32.38900
C  10.61200 4.17800 33.88000
H  11.05600 5.07900 35.10000
N  7.75300 5.42700 26.71800
C  7.07700 6.13100 27.77500
C  6.10500 7.02700 27.15900
C  6.29600 6.91800 25.75400
C  7.29900 5.89300 25.51200
C  5.24300 7.85100 28.07100
C  5.63500 7.74300 24.57500
O  5.98800 7.65300 23.39100
C  4.47600 8.73200 24.85400
N  9.37000 3.62500 24.90400
C  8.62100 4.32700 24.00600
C  8.81300 3.83500 22.56800
C  9.59000 2.42800 22.87000
C  10.09000 2.59900 24.29100
C  7.55900 3.75100 21.65900
C  10.69300 2.21200 21.82100
C  10.95700 0.83000 21.32600
N  10.56300 2.51900 27.18900
C  11.19100 1.65000 26.30400
C  12.09300 0.77700 27.01900
C  12.01100 1.08500 28.41400
C  11.05800 2.15600 28.42400
C  12.90600 -0.28000 26.41400
C  12.52600 0.81300 29.70700
O  13.43900 0.10100 30.18100
C  11.69300 1.74800 30.70000
C  10.93500 0.88800 31.68200
O  9.98600 0.12900 31.32600
O  11.38200 1.02700 32.95900
C  10.61000 0.27400 33.96300
H  6.42100 6.21800 29.82400
H  7.25900 5.76600 23.35100
H  11.10900 0.87500 24.22400
H  9.09400 3.02700 32.15100
H  8.36400 5.94000 31.72700
H  6.52900 5.51100 32.53000
H  7.06900 3.81600 33.00500
H  6.16900 4.08100 31.56600
H  10.65400 5.62600 32.22700
H  11.44600 3.99700 31.97100
H  11.27300 3.31100 33.90700
H  9.63700 3.86200 34.25000
H  4.49400 8.39600 27.49500
H  5.86700 8.65100 28.46900
H  4.87600 7.24500 28.89900
H  4.76200 9.65100 25.36600
H  3.60800 8.19900 25.24200
H  4.17200 9.17000 23.90300
H  9.60200 4.43600 22.11600
H  8.98200 1.52500 22.93100
H  6.77000 3.99300 22.37100
H  7.35300 2.73600 21.31800
H  7.69600 4.51600 20.89500
H  11.64000 2.47200 22.29500
H  10.59200 2.83000 20.92900
H  10.08900 0.18000 21.42300
H  11.80900 0.32200 21.77900
H  11.25000 0.96100 20.28400
H  12.39900 -1.23400 26.26800
H  13.77100 -0.50800 27.03600
H  13.15600 0.08900 25.41900
H  12.50100 2.25600 31.22700
H  11.33900 -0.35700 34.47200
H  9.86800 -0.42900 33.58500
H  10.14000 0.92600 34.69900
Mg 47.92900 15.46100 28.33200
C  45.64500 14.91900 31.19700
C  50.00000 16.86700 30.55700
C  49.75200 16.15200 25.72300
C  45.40900 14.04400 26.34800
N  47.64700 15.95600 30.61500
C  46.75100 15.56900 31.57200
C  47.15900 16.08400 32.97300
C  48.39500 16.98000 32.58300
C  48.78300 16.49000 31.19400
C  48.21800 18.47400 32.65700
C  47.40600 14.98600 33.99900
C  46.78400 15.01200 35.39600
H  46.49700 16.22200 36.15600
N  49.71600 16.37300 28.15300
C  50.47100 16.87800 29.20700
C  51.68800 17.44000 28.63300
C  51.59500 17.14200 27.23000
C  50.28400 16.52400 26.96800
C  52.67500 18.24200 29.40500
C  52.65000 17.30500 26.08000
O  52.46500 16.99100 24.93200
C  54.00400 17.73000 26.52500
N  47.56200 15.20800 26.30500
C  48.52900 15.52000 25.40100
C  48.08600 15.27400 23.98000
C  46.77800 14.53900 24.17100
C  46.48000 14.62600 25.67700
C  47.81600 16.59300 23.21100
C  46.74100 13.03300 23.76300
C  46.07700 12.76300 22.41600
N  45.94600 14.64900 28.62800
C  45.12900 13.98500 27.72600
C  43.96100 13.45900 28.43800
C  44.20500 13.67600 29.79000
C  45.36200 14.51500 29.89600
C  42.70700 13.01000 27.86200
C  43.61500 13.51900 31.10200
O  42.61700 12.82800 31.37200
C  44.52200 14.37500 32.11400
C  43.66100 15.52300 32.58700
O  43.32800 16.47300 31.94000
O  43.20300 15.23000 33.82700
C  42.62900 16.34800 34.50400
H  50.60800 17.28500 31.36200
H  50.24100 16.56300 24.83800
H  44.65600 13.53400 25.74400
H  46.32900 16.66500 33.37500
H  49.15100 16.75500 33.33500
H  47.17100 18.76800 32.73100
H  48.59600 18.91800 31.73600
H  48.71500 18.86000 33.54700
H  48.46800 14.90100 34.22800
H  47.12500 14.03400 33.54700
H  47.24600 14.20800 35.96900
H  45.82900 14.55100 35.14500
H  53.66600 17.85900 29.16100
H  52.36400 18.37300 30.44100
H  52.57900 19.26200 29.03100
H  54.47500 16.88800 27.03000
H  54.09500 18.62000 27.14700
H  54.51000 17.81200 25.56200
H  48.88700 14.68100 23.53900
H  45.92900 15.06800 23.73700
H  48.07700 17.44600 23.83700
H  46.77700 16.73100 22.91200
H  48.39200 16.67900 22.29000
H  46.12500 12.56600 24.53200
H  47.73600 12.58700 23.76300
H  45.67600 13.70500 22.03900
H  45.25300 12.05100 22.45800
H  46.71800 12.35200 21.63600
H  41.79100 12.95200 28.44900
H  42.98700 12.03700 27.45800
H  42.48600 13.63400 26.99600
H  44.83900 13.83300 33.00500
H  41.74200 16.60900 33.92700
H  43.18500 17.27300 34.65100
H  42.19600 16.06300 35.46400

