158

Mg 17.54600 -1.07300 27.53500
C  16.14300 0.85200 30.15100
C  19.33000 -2.75000 29.75100
C  18.77200 -2.72200 24.92700
C  15.81700 1.15900 25.22100
N  17.65800 -0.81000 29.73900
C  17.06100 -0.05300 30.68600
C  17.59700 -0.23500 32.11400
C  18.68300 -1.26800 31.77100
C  18.57700 -1.65700 30.28000
C  20.08100 -0.65000 32.17100
C  16.66400 -0.75100 33.19500
C  16.94200 -0.14000 34.61100
H  18.37700 0.07700 35.14900
N  18.73200 -2.65600 27.36500
C  19.36600 -3.22800 28.38700
C  20.00200 -4.47500 27.98300
C  19.94900 -4.45300 26.56200
C  19.11500 -3.28100 26.24000
C  20.73100 -5.40100 28.87200
C  20.48200 -5.41800 25.47100
O  20.20400 -5.30900 24.27600
C  21.31800 -6.66000 25.94700
N  17.32200 -0.82000 25.34400
C  17.98700 -1.63800 24.53500
C  17.87200 -1.19800 23.11500
C  16.83000 -0.04300 23.16000
C  16.61700 0.17600 24.62800
C  19.14300 -0.96400 22.27500
C  15.49000 -0.28800 22.38400
C  15.46000 0.03800 20.91400
N  16.19300 0.52200 27.61500
C  15.57500 1.30200 26.58200
C  14.57800 2.20600 27.31100
C  14.75700 1.98100 28.67000
C  15.80400 1.02700 28.83000
C  13.75000 3.25600 26.63700
C  14.42200 2.60000 29.92600
O  13.66900 3.48500 30.24000
C  15.25900 1.77600 30.93800
C  16.04200 2.84400 31.68900
O  17.08000 3.36800 31.32200
O  15.42500 2.97000 32.86400
C  16.09200 3.94100 33.75700
H  19.94800 -3.16400 30.55000
H  19.19800 -3.26100 24.07800
H  15.18900 1.76900 24.56800
H  17.92300 0.78900 32.29800
H  18.66300 -2.20700 32.32300
H  20.65600 -0.49300 31.25800
H  20.57900 -1.42400 32.75500
H  19.95300 0.29300 32.70300
H  16.79100 -1.83000 33.29100
H  15.66300 -0.51300 32.83500
H  16.52700 -0.90700 35.26500
H  16.38000 0.74500 34.91200
H  21.74000 -5.33800 28.46500
H  20.31600 -6.40700 28.81400
H  20.68600 -5.08000 29.91300
H  22.35400 -6.44500 26.20700
H  21.38200 -7.32900 25.08900
H  20.87200 -7.10900 26.83500
H  17.36200 -2.02700 22.62500
H  17.33400 0.85200 22.79400
H  20.00000 -1.06800 22.94100
H  19.21900 -0.00400 21.76500
H  19.19000 -1.81500 21.59500
H  14.73300 0.24800 22.95700
H  15.25100 -1.35100 22.41600
H  14.71200 0.79400 20.67500
H  15.22700 -0.90100 20.41100
H  16.46100 0.25400 20.54100
H  13.63200 3.05600 25.57200
H  14.25900 4.21500 26.73000
H  12.72100 3.33100 26.98900
H  14.58900 1.40900 31.71400
H  15.75300 3.83600 34.78700
H  16.02900 4.99400 33.48200
H  17.16400 3.76600 33.66000
Mg 49.15100 45.37200 42.68000
C  45.79500 46.07500 41.61400
C  48.71100 42.28600 41.23500
C  52.39700 45.25700 42.77000
C  49.39400 48.99300 43.29500
N  47.41500 44.36100 41.49600
C  46.14300 44.79400 41.27800
C  45.31500 43.71700 40.57900
C  46.16700 42.46000 40.71100
C  47.51700 43.04700 41.03200
C  45.69900 41.50300 41.82700
C  44.88500 44.10000 39.08400
C  45.86200 44.93900 38.24800
H  45.73800 44.88500 36.78000
N  50.34500 43.89000 42.31300
C  50.03000 42.66100 41.74500
C  51.26900 41.88900 41.80400
C  52.29900 42.69300 42.30400
C  51.74000 44.00300 42.55700
C  51.30300 40.40700 41.40800
C  53.69000 42.14800 42.51500
O  54.04400 41.04900 42.01700
C  54.77500 42.80300 43.35900
N  50.57700 46.93400 43.03900
C  51.88700 46.56000 43.00100
C  52.84700 47.71000 43.19200
C  51.87600 48.94900 43.49800
C  50.53300 48.30900 43.23200
C  54.11800 47.41900 44.05700
C  52.06700 50.21600 42.61800
C  51.93300 51.61900 43.23600
N  47.84300 47.11800 42.69000
C  48.10300 48.45300 43.01600
C  46.86300 49.22700 43.01700
C  45.88000 48.30300 42.52300
C  46.57700 47.05500 42.22500
C  46.75100 50.58500 43.50000
C  44.53800 48.25600 42.11500
O  43.66900 49.14300 42.10400
C  44.41400 46.83600 41.47400
C  43.29700 46.02000 41.94900
O  42.36300 45.61800 41.27200
O  43.22000 46.06000 43.29500
C  42.06400 45.40000 43.88000
H  48.65200 41.26400 40.85500
H  53.47700 45.26000 42.92600
H  49.41300 50.08500 43.28300
H  44.39900 43.57200 41.15200
H  46.28000 41.91100 39.77500
H  46.55300 41.13500 42.39500
H  45.08300 40.73200 41.36300
H  45.10400 41.99400 42.59700
H  43.90300 44.57200 39.07100
H  44.62700 43.17900 38.56100
H  46.86600 44.66100 38.57000
H  45.65300 45.96500 38.54900
H  51.26300 39.82500 42.32900
H  52.22600 39.99500 41.00100
H  50.52100 40.15200 40.69300
H  55.57500 42.07800 43.51200
H  54.36300 43.15200 44.30600
H  55.12400 43.59600 42.69800
H  53.10500 47.85600 42.14300
H  52.05300 49.15600 44.55300
H  54.91200 47.23900 43.33200
H  54.02200 46.54600 44.70200
H  54.28100 48.28200 44.70200
H  51.21500 50.20900 41.93900
H  52.90500 50.18600 41.92200
H  52.94700 52.01800 43.26200
H  51.62600 51.65600 44.28100
H  51.28100 52.22400 42.60500
H  45.87400 50.66500 44.14300
H  46.54600 51.26500 42.67300
H  47.63600 50.80800 44.09500
H  44.17200 46.99800 40.42300
H  41.66700 44.57600 43.28700
H  41.33000 46.19800 43.99500
H  42.42200 45.02600 44.83900

