158

Mg 53.43100 24.58700 45.00200
C  50.76000 26.91700 44.22300
C  51.35400 22.05900 43.73600
C  56.01800 22.56500 44.60100
C  55.43800 27.24100 45.75800
N  51.37200 24.56000 44.16500
C  50.41900 25.57700 43.96300
C  49.10900 25.06900 43.30900
C  49.21000 23.61300 43.67500
C  50.76900 23.38400 43.85700
C  48.43500 23.16800 44.90700
C  49.01200 25.39600 41.79200
C  47.59200 25.13800 41.22100
H  47.39800 24.95200 39.73300
N  53.66700 22.53600 44.51800
C  52.70000 21.68400 44.02600
C  53.26500 20.35300 43.84200
C  54.58500 20.45300 44.24200
C  54.80400 21.87900 44.44900
C  52.38700 19.18500 43.35800
C  55.55100 19.26500 44.29100
O  55.17800 18.10900 44.09700
C  57.04400 19.35400 44.56400
N  55.48900 24.86400 45.21100
C  56.34400 23.85300 45.00400
C  57.77900 24.33200 45.32000
C  57.55100 25.80800 45.82200
C  56.06100 26.02500 45.44400
C  58.65700 23.48400 46.24600
C  58.57500 26.86900 45.23900
C  59.27300 27.80800 46.27400
N  53.24900 26.70300 45.07100
C  54.11700 27.60300 45.48200
C  53.35700 28.82800 45.71900
C  52.07600 28.61300 45.14100
C  52.04100 27.32500 44.75900
C  53.74500 30.16500 46.27000
C  50.76600 29.22500 44.86900
O  50.38900 30.36700 45.22300
C  49.91900 28.19500 44.10300
C  49.79200 28.69800 42.74700
O  50.73600 28.91200 42.01500
O  48.45800 28.77600 42.40300
C  48.19300 29.30400 41.05500
H  50.70700 21.21200 43.49700
H  56.92800 21.97900 44.45700
H  56.16200 27.94600 46.17200
H  48.23200 25.49800 43.79400
H  48.94500 22.94500 42.85600
H  48.02100 22.20800 44.60000
H  47.61300 23.87800 44.99900
H  49.03000 23.09200 45.81800
H  49.70700 24.73300 41.27600
H  49.17400 26.44600 41.55000
H  47.06100 26.05400 41.47900
H  47.14600 24.26500 41.69900
H  51.64700 19.46000 42.60600
H  51.65500 18.89700 44.11300
H  53.01700 18.40700 42.92800
H  57.42400 18.34300 44.71200
H  57.05600 19.92600 45.49200
H  57.49100 19.89000 43.72700
H  58.35800 24.31600 44.39600
H  57.68800 25.85400 46.90300
H  59.63200 23.44100 45.76100
H  58.28900 22.47000 46.40000
H  58.82200 24.00700 47.18800
H  58.07500 27.42900 44.44800
H  59.35000 26.24100 44.80000
H  60.33200 27.67700 46.05500
H  58.91500 27.72000 47.30000
H  58.91700 28.78100 45.93400
H  53.29000 30.21700 47.25900
H  53.45800 30.93800 45.55700
H  54.81500 30.27100 46.44900
H  48.91700 28.02700 44.49900
H  48.01400 30.36700 41.21100
H  47.21800 28.99700 40.67600
H  48.97800 29.15400 40.31400
Mg 30.50800 58.00900 39.21800
C  27.79200 55.90600 38.36500
C  32.53600 55.35800 38.19800
C  32.98500 60.09900 39.18600
C  28.26400 60.55700 39.86300
N  30.16200 55.82900 38.22400
C  28.96500 55.21700 38.12400
C  29.17200 53.73600 37.86100
C  30.70800 53.52200 38.18100
C  31.18500 54.98000 38.12700
C  31.03900 52.79500 39.51700
C  28.78200 53.24700 36.41900
C  29.17800 54.35000 35.26700
H  28.10100 54.89800 34.38500
N  32.54700 57.72900 38.70000
C  33.21000 56.55100 38.38500
C  34.62800 56.90200 38.19000
C  34.77300 58.30700 38.42900
C  33.43200 58.82000 38.74400
C  35.64700 55.91000 37.78000
C  36.04400 59.15300 38.44700
O  37.14800 58.66700 38.19500
C  36.04500 60.58200 38.79500
N  30.67700 60.02700 39.46400
C  31.81300 60.67500 39.52400
C  31.71000 62.12500 39.94600
C  30.14700 62.26800 40.16900
C  29.64900 60.85600 39.81200
C  32.54200 62.61300 41.18900
C  29.45000 63.40800 39.31400
C  28.60900 64.39300 40.08900
N  28.37300 58.23100 39.22800
C  27.63100 59.32900 39.51000
C  26.27000 59.01900 39.36300
C  26.25100 57.66500 38.94800
C  27.61000 57.24300 38.78900
C  25.12400 59.91300 39.63600
C  25.38100 56.52500 38.62600
O  24.17900 56.48400 38.69900
C  26.37000 55.30000 38.28800
C  26.06800 54.22800 39.27000
O  26.52700 54.13800 40.39900
O  25.06000 53.49900 38.80000
C  24.49500 52.63400 39.76700
H  33.21400 54.52400 38.00300
H  33.66100 60.93000 39.40000
H  27.50700 61.34400 39.85700
H  28.43700 53.27000 38.51700
H  31.23300 52.92800 37.43200
H  30.11700 52.29600 39.81500
H  31.15400 53.55700 40.28900
H  31.84700 52.09400 39.31300
H  27.72400 52.99800 36.34000
H  29.42100 52.41000 36.13800
H  29.87700 53.86300 34.58800
H  29.84200 55.13000 35.64000
H  35.21700 54.97900 37.40900
H  36.13400 55.76300 38.74400
H  36.40000 56.26100 37.07600
H  37.04600 61.00500 38.88400
H  35.64800 60.49500 39.80600
H  35.44900 61.08300 38.03200
H  32.03300 62.75900 39.12000
H  29.83000 62.54800 41.17400
H  33.37300 61.96000 41.45800
H  31.96600 62.81300 42.09200
H  33.01400 63.54500 40.87700
H  28.84500 63.09000 38.46500
H  30.11300 64.16600 38.89800
H  28.01900 65.01100 39.41300
H  29.20100 65.11500 40.65000
H  27.92500 63.83900 40.73200
H  25.22600 60.99400 39.74100
H  24.57500 59.63300 40.53500
H  24.47400 59.69500 38.78900
H  26.04100 55.06000 37.27800
H  24.17500 53.13300 40.68200
H  25.16600 51.84600 40.10900
H  23.62000 52.12700 39.35900

