158

Mg 35.44800 2.29700 29.67700
C  33.79400 3.36400 32.54600
C  38.26200 2.10200 31.70400
C  37.41300 1.76900 26.94800
C  32.79900 3.37600 27.66400
N  35.99400 2.66600 31.94700
C  35.07900 3.04300 32.89900
C  35.72700 2.96300 34.36200
C  37.23100 2.78800 33.95600
C  37.21600 2.49800 32.47600
C  38.22500 3.96700 34.23500
C  35.15300 1.81300 35.17900
C  34.66900 2.18600 36.53500
H  35.35900 3.28700 37.31700
N  37.52800 1.91500 29.33300
C  38.47300 1.79200 30.33500
C  39.71700 1.31600 29.73000
C  39.45900 1.17600 28.34500
C  38.10100 1.66000 28.14000
C  40.88600 0.94400 30.49700
C  40.31100 0.68400 27.17700
O  39.97300 0.61300 25.97200
C  41.71500 0.29600 27.49100
N  35.13000 2.52400 27.55100
C  36.10600 2.19400 26.60900
C  35.43200 2.17600 25.23600
C  33.94900 2.54400 25.44300
C  33.93800 2.84300 26.91200
C  36.17400 3.11600 24.33200
C  32.94800 1.48000 24.89300
C  32.43300 0.32400 25.81200
N  33.65000 3.09200 30.01700
C  32.70100 3.47200 29.10500
C  31.50600 3.95800 29.83100
C  31.88200 3.89400 31.14200
C  33.18600 3.40200 31.24700
C  30.17200 4.45000 29.31300
C  31.47900 4.16200 32.46600
O  30.40700 4.60300 32.85300
C  32.62100 3.78500 33.41800
C  32.88800 5.04700 34.38000
O  33.58200 6.01700 34.12300
O  32.02900 4.92800 35.43700
C  31.92200 6.00800 36.38400
H  39.19300 1.95300 32.25500
H  37.95900 1.75400 26.00300
H  31.87500 3.63200 27.14100
H  35.53800 3.96800 34.73900
H  37.59600 1.89700 34.46700
H  38.72000 3.87900 35.20200
H  37.58700 4.85100 34.20700
H  38.95500 4.11100 33.43800
H  35.92100 1.06700 35.38200
H  34.32600 1.33200 34.65500
H  34.46200 1.32800 37.17400
H  33.66600 2.56300 36.33800
H  40.89100 -0.11400 30.76200
H  40.87000 1.40400 31.48600
H  41.82200 1.23400 30.01900
H  42.05700 1.26100 27.86700
H  42.29700 0.02600 26.60900
H  41.87700 -0.47500 28.24400
H  35.49100 1.12100 24.96800
H  33.75900 3.52500 25.00800
H  35.45700 3.78300 23.85500
H  36.59200 2.42800 23.59700
H  36.97400 3.68700 24.80400
H  33.37900 1.06400 23.98200
H  32.14500 2.09700 24.48800
H  33.10300 0.15200 26.65400
H  32.30000 -0.61700 25.27800
H  31.42100 0.58500 26.12200
H  29.72200 3.71600 28.64500
H  30.16900 5.38600 28.75500
H  29.56400 4.50300 30.21600
H  32.21900 2.94700 33.98800
H  30.87300 6.29700 36.45800
H  32.60400 6.83600 36.19500
H  32.15200 5.54200 37.34200
Mg 26.80800 50.11900 26.42700
C  24.69500 51.23000 29.12200
C  29.11700 49.28200 28.86000
C  28.88100 49.25000 24.03600
C  24.44100 51.49200 24.22700
N  26.94400 50.49600 28.72900
C  25.94800 50.76200 29.64700
C  26.39500 50.48700 31.08500
C  27.88500 50.09700 30.98800
C  28.03000 49.95100 29.42800
C  28.97700 51.01700 31.64500
C  25.55900 49.34700 31.91600
C  24.55300 49.97500 32.95800
H  24.25100 49.37600 34.35000
N  28.79300 49.48700 26.46500
C  29.53100 49.06300 27.58200
C  30.88100 48.64900 27.11500
C  30.80100 48.56100 25.65400
C  29.49400 49.16100 25.32300
C  31.90700 48.24700 28.06700
C  31.69500 47.95300 24.61900
O  31.51900 48.00800 23.37800
C  32.97800 47.23700 24.98900
N  26.80300 50.58500 24.40100
C  27.63500 49.88500 23.61400
C  27.07200 49.73000 22.16300
C  25.65500 50.41400 22.23000
C  25.63700 50.89200 23.71900
C  27.94300 50.40600 21.10500
C  24.47600 49.42100 21.89200
C  23.15400 49.85100 21.25100
N  24.92900 51.09200 26.63300
C  24.12800 51.63200 25.61300
C  22.96300 52.21100 26.18600
C  23.06900 52.06000 27.62600
C  24.36000 51.41300 27.81000
C  21.74700 52.82700 25.52400
C  22.49700 52.46700 28.84700
O  21.55300 53.16800 29.12100
C  23.41900 51.75300 29.82800
C  23.74300 52.71200 30.98100
O  24.74300 53.46000 30.99600
O  22.65600 52.72500 31.87800
C  22.95500 53.63300 32.96200
H  29.73700 48.82400 29.63400
H  29.20100 48.57600 23.23900
H  23.60200 51.85000 23.62800
H  26.29600 51.43000 31.62300
H  28.08400 49.11800 31.42300
H  29.62100 50.51100 32.36400
H  28.35400 51.67400 32.25200
H  29.54100 51.57300 30.89600
H  26.14300 48.63200 32.49500
H  24.99600 48.70800 31.23600
H  23.65800 50.03200 32.33800
H  24.79700 51.03500 33.02600
H  32.81600 48.78900 27.80500
H  32.22000 47.21500 27.90900
H  31.73800 48.55800 29.09800
H  33.55600 46.97900 24.10200
H  32.56900 46.30800 25.38700
H  33.55300 47.81500 25.71200
H  26.96100 48.68800 21.86000
H  25.57300 51.24400 21.52800
H  28.94700 50.74600 21.35800
H  27.39200 51.14400 20.52200
H  28.14700 49.61600 20.38200
H  24.05800 48.86100 22.72900
H  24.83000 48.59500 21.27500
H  22.95900 49.34500 20.30500
H  23.09700 50.92200 21.05800
H  22.27300 49.65600 21.86300
H  20.99500 52.04900 25.39100
H  21.96400 53.03500 24.47600
H  21.39200 53.74900 25.98400
H  22.97900 50.82600 30.19700
H  23.14200 54.65100 32.61900
H  23.74400 53.37400 33.66900
H  22.03600 53.60100 33.54700

