158

Mg -2.75500 16.70700 26.59500
C  -3.03500 14.61800 29.39700
C  -2.80800 19.40800 28.78000
C  -2.82900 18.70700 23.96800
C  -3.50200 14.01400 24.53700
N  -2.90800 17.00300 28.83400
C  -2.91600 15.98400 29.79600
C  -3.07500 16.53400 31.19300
C  -3.31300 18.03600 31.00900
C  -3.01800 18.19900 29.47800
C  -4.62200 18.66800 31.49100
C  -1.89800 16.03800 32.20000
C  -1.39700 17.01300 33.33300
H  -0.72100 16.39800 34.54400
N  -2.68600 18.74100 26.39700
C  -2.72400 19.67300 27.37300
C  -2.67100 21.02300 26.80400
C  -2.61800 20.88000 25.35100
C  -2.77100 19.37700 25.19700
C  -2.87900 22.28700 27.68300
C  -2.37600 21.82100 24.25300
O  -2.20400 21.58700 23.09600
C  -2.23300 23.26400 24.57100
N  -2.91700 16.31500 24.44300
C  -2.97400 17.36300 23.62100
C  -3.35500 16.87000 22.27200
C  -3.67400 15.35300 22.43300
C  -3.27300 15.17600 23.86300
C  -4.45700 17.71900 21.48700
C  -2.97400 14.43100 21.45500
C  -1.50800 13.98800 21.69800
N  -3.05200 14.73300 26.79000
C  -3.38800 13.73900 25.89800
C  -3.66800 12.50800 26.64800
C  -3.44400 12.74400 28.00300
C  -3.16100 14.13300 28.08200
C  -4.19600 11.22100 26.06200
C  -3.40000 12.18700 29.29700
O  -3.53600 11.01400 29.67400
C  -3.24300 13.38600 30.25200
C  -2.07600 13.16500 31.17300
O  -0.93300 13.49200 30.86100
O  -2.48600 12.57000 32.32400
C  -1.33400 12.31600 33.24200
H  -2.78100 20.25900 29.46500
H  -2.92300 19.32500 23.07200
H  -3.86000 13.29600 23.79600
H  -3.96000 16.13100 31.68600
H  -2.57800 18.64400 31.53800
H  -5.19000 18.84600 30.57800
H  -4.49200 19.59600 32.04700
H  -5.27100 17.99000 32.04600
H  -1.11100 15.69600 31.52800
H  -2.36800 15.21100 32.73100
H  -2.14700 17.69600 33.73000
H  -0.56000 17.56700 32.90700
H  -3.42800 22.09900 28.60500
H  -3.38500 22.99600 27.02600
H  -1.91000 22.67400 27.99600
H  -1.28200 23.42700 25.07800
H  -3.09900 23.66600 25.09600
H  -2.25100 23.90900 23.69200
H  -2.45600 17.01300 21.67300
H  -4.73100 15.27200 22.18000
H  -4.85400 18.45200 22.18900
H  -5.35100 17.12100 21.30800
H  -4.05700 18.26400 20.63200
H  -2.98800 14.99200 20.52100
H  -3.48500 13.49600 21.22400
H  -1.37900 12.91800 21.86300
H  -1.08300 14.64600 22.45700
H  -0.89400 14.35700 20.87600
H  -3.28500 10.66700 25.83600
H  -4.64400 11.52200 25.11400
H  -4.92800 10.82700 26.76700
H  -3.97800 13.39700 31.05700
H  -1.48400 12.96300 34.10700
H  -0.32600 12.33200 32.82700
H  -1.28200 11.28800 33.59900
Mg 10.32800 46.74700 24.71900
C  8.07200 47.14000 27.43100
C  12.76100 48.31200 26.51800
C  12.29200 46.58800 21.97100
C  7.53100 45.81200 22.77200
N  10.36800 47.73500 26.58300
C  9.40200 47.63300 27.65700
C  9.96700 47.98600 28.99400
C  11.34400 48.73500 28.53500
C  11.51600 48.30500 27.09200
C  11.14700 50.25700 28.64600
C  10.26600 46.72000 29.86400
C  10.09900 47.10100 31.39400
H  9.85900 45.89300 32.34100
N  12.35100 47.18300 24.34800
C  13.19700 47.74900 25.28700
C  14.50700 47.66200 24.80900
C  14.38600 47.16700 23.49600
C  12.97900 46.98500 23.16700
C  15.70000 47.92400 25.69600
C  15.51700 46.84400 22.50900
O  15.29100 46.47800 21.37400
C  16.96100 46.78900 22.83000
N  9.88900 46.36700 22.70600
C  10.90300 46.37200 21.77400
C  10.42800 45.91600 20.41700
C  8.98200 45.41700 20.70700
C  8.76800 45.80600 22.16800
C  10.51000 46.93500 19.30700
C  8.74300 43.92100 20.46500
C  9.47700 43.01600 21.54200
N  8.22400 46.42400 25.04300
C  7.22200 46.13500 24.14500
C  5.88600 46.33700 24.73700
C  6.16600 46.57900 26.12000
C  7.58100 46.68000 26.20700
C  4.57900 46.17600 24.08200
C  5.67600 46.76300 27.43700
O  4.52900 46.57300 27.89000
C  6.89300 47.06800 28.42400
C  7.03000 45.92600 29.34200
O  7.50200 44.84200 29.05600
O  6.46700 46.41600 30.51100
C  6.47800 45.53400 31.65500
H  13.63200 48.63400 27.09100
H  12.94400 46.31800 21.13600
H  6.71900 45.86800 22.04400
H  9.12000 48.54500 29.39300
H  12.11800 48.46400 29.25300
H  10.37800 50.80800 28.10400
H  12.13200 50.66600 28.42200
H  10.94000 50.47100 29.69400
H  11.32900 46.49400 29.78600
H  9.68100 45.83000 29.63000
H  9.15100 47.60700 31.57900
H  10.86200 47.77900 31.77600
H  15.56500 47.57100 26.71900
H  16.05700 48.95300 25.66900
H  16.51000 47.30200 25.31300
H  17.03700 45.90100 23.45800
H  17.08300 47.78300 23.26000
H  17.64000 46.80800 21.97700
H  11.13200 45.15700 20.07800
H  8.30800 46.02700 20.10600
H  11.26700 47.69800 19.48600
H  9.52800 47.35400 19.08500
H  10.82200 46.36400 18.43300
H  9.10100 43.63400 19.47700
H  7.65700 43.83100 20.48200
H  8.73500 42.51700 22.16500
H  10.21600 43.54400 22.14400
H  10.16100 42.31700 21.06000
H  3.86800 46.91400 24.45400
H  4.35100 45.14400 24.34900
H  4.64400 46.41100 23.01900
H  6.75500 47.97500 29.01300
H  6.90500 46.19500 32.41000
H  7.11800 44.66600 31.49900
H  5.47200 45.25200 31.96800

