158

Mg 35.85900 1.02300 30.02800
C  33.62700 2.47300 32.61600
C  38.41600 1.50300 32.34500
C  37.81800 0.28500 27.63700
C  33.14200 1.27200 27.83800
N  35.96200 1.83500 32.23700
C  34.93100 2.26500 33.07500
C  35.45400 2.44000 34.50900
C  37.02600 2.34700 34.32700
C  37.15200 1.83600 32.84000
C  37.64600 3.67100 34.43700
C  34.97600 1.25800 35.43000
C  34.44600 1.68500 36.77600
H  34.78700 3.03500 37.42700
N  37.87900 0.71000 30.01800
C  38.78400 1.03600 31.04900
C  40.16800 0.72000 30.56200
C  39.97300 0.25900 29.21900
C  38.53800 0.32000 28.88000
C  41.39500 0.83200 31.50000
C  41.09100 -0.15200 28.22900
O  40.80500 -0.44500 27.08800
C  42.42400 -0.40400 28.83500
N  35.49400 0.88400 28.07100
C  36.47500 0.50000 27.22100
C  35.95700 0.59700 25.81900
C  34.44500 0.27400 25.97600
C  34.31700 0.79600 27.36900
C  36.30100 1.92200 25.12000
C  33.99600 -1.18400 26.00300
C  33.46900 -1.67900 24.63200
N  33.86600 1.77500 30.09200
C  32.93900 1.78800 29.14100
C  31.67200 2.23300 29.58900
C  31.89100 2.50800 30.92300
C  33.26100 2.21800 31.23000
C  30.36700 2.35400 28.79400
C  31.20000 3.03800 32.14200
O  30.11100 3.55000 32.29500
C  32.35500 3.03800 33.24700
C  32.58000 4.46900 33.71900
O  33.38100 5.24000 33.17900
O  31.75900 4.80000 34.75000
C  31.92900 6.14500 35.33700
H  39.14200 1.63500 33.15000
H  38.46100 0.15000 26.76500
H  32.42200 1.44100 27.03500
H  35.06800 3.40700 34.83200
H  37.49800 1.64900 35.01900
H  36.94400 4.50400 34.49100
H  38.19200 3.92700 33.52900
H  38.29800 3.55600 35.30200
H  35.77400 0.55500 35.66800
H  34.19200 0.78600 34.83800
H  34.90900 0.97300 37.45900
H  33.37300 1.52000 36.87400
H  40.99900 0.87800 32.51400
H  41.89300 1.76200 31.22500
H  42.16000 0.05500 31.48600
H  42.32700 -1.13300 29.64000
H  42.84300 0.55700 29.13300
H  43.11000 -0.79100 28.08100
H  36.35800 -0.27800 25.30700
H  33.77400 0.87400 25.36100
H  35.61200 2.76200 25.02800
H  36.60900 1.66800 24.10600
H  37.19800 2.36300 25.55400
H  33.26200 -1.34800 26.79200
H  34.87400 -1.80800 26.16700
H  33.46900 -1.06300 23.73200
H  32.43600 -1.97200 24.82200
H  33.98700 -2.59200 24.33900
H  30.09800 3.37900 29.04800
H  29.62300 1.61000 29.07800
H  30.60400 2.40900 27.73100
H  31.96100 2.48800 34.10200
H  31.19300 6.57000 36.02100
H  32.03600 6.93900 34.59800
H  32.77700 6.00800 36.00900
Mg 8.89200 48.61000 25.48100
C  7.05100 48.56200 28.49200
C  11.60100 49.88000 27.35900
C  10.67400 48.86700 22.62300
C  6.02000 47.98200 23.76900
N  9.35900 49.04400 27.75600
C  8.41400 48.94300 28.76900
C  8.90100 49.45800 30.07300
C  10.29500 50.10400 29.62300
C  10.50100 49.68400 28.13400
C  10.51700 51.62700 29.90300
C  8.86200 48.61200 31.35800
C  9.87000 48.91400 32.54700
H  9.24800 48.75600 33.97600
N  10.94400 49.15100 25.06800
C  11.91900 49.53700 26.00300
C  13.20100 49.55300 25.25600
C  12.92700 49.26700 23.87000
C  11.44800 49.08600 23.77800
C  14.52800 49.91700 25.90400
C  13.88600 49.33400 22.69000
O  13.49900 49.15100 21.53100
C  15.44000 49.61700 22.75900
N  8.39100 48.50600 23.46700
C  9.31900 48.46000 22.52700
C  8.69700 48.25500 21.14900
C  7.25800 47.75400 21.51700
C  7.16800 48.09900 22.99200
C  8.74800 49.48200 20.18700
C  6.85900 46.20800 21.28600
C  6.60000 45.92100 19.79100
N  7.01400 48.28700 26.00600
C  5.90700 48.04100 25.17300
C  4.71300 47.84300 25.90900
C  5.13200 48.05800 27.24000
C  6.53700 48.30400 27.23600
C  3.26800 47.62600 25.34600
C  4.70700 48.14400 28.60300
O  3.59200 48.08500 29.03600
C  5.93600 48.46100 29.49000
C  6.00400 47.24000 30.31100
O  6.84300 46.32700 30.23300
O  5.02800 47.15600 31.21900
C  5.27200 46.26600 32.40200
H  12.49700 50.18600 27.90300
H  11.19100 48.90600 21.66300
H  5.05300 47.80700 23.29200
H  8.26100 50.29600 30.35000
H  11.13100 49.57300 30.07800
H  11.56200 51.87000 30.09800
H  9.86200 52.04600 30.66700
H  10.43400 52.17600 28.96500
H  9.19000 47.62900 31.02000
H  7.85300 48.44300 31.73300
H  10.05800 49.97800 32.39700
H  10.80500 48.36000 32.46600
H  14.63200 49.67200 26.96100
H  14.88400 50.91100 25.63000
H  15.27500 49.24400 25.48400
H  15.78000 49.99800 21.79600
H  15.97100 48.71700 23.06800
H  15.56500 50.40200 23.50500
H  9.20200 47.40000 20.70000
H  6.57800 48.39100 20.95200
H  9.31300 49.32300 19.26800
H  9.27400 50.29300 20.69100
H  7.74700 49.85200 19.96200
H  5.94600 46.01900 21.85000
H  7.67800 45.52300 21.50300
H  6.62500 46.84600 19.21400
H  5.65300 45.39800 19.66200
H  7.43500 45.30400 19.46000
H  2.59700 47.88000 26.16700
H  3.04500 46.68900 24.83600
H  2.96200 48.43000 24.67700
H  5.70100 49.32600 30.11100
H  4.35300 46.11100 32.96600
H  6.02500 46.69500 33.06300
H  5.65600 45.29100 32.10000

