158

Mg 47.79400 15.28000 29.13800
C  45.96800 15.06300 32.01500
C  49.81100 17.71500 30.80700
C  49.45600 15.95900 26.21400
C  45.32500 13.42100 27.41900
N  47.74200 16.39000 31.07200
C  47.08600 15.81000 32.22900
C  47.70700 16.36200 33.53800
C  48.48200 17.53100 33.04800
C  48.72400 17.17200 31.51700
C  47.78700 19.01400 33.19400
C  48.42100 15.31900 34.38200
C  48.17900 15.36100 35.89900
H  47.86600 16.58400 36.67400
N  49.44700 16.53800 28.61200
C  50.15500 17.40800 29.46200
C  51.25200 18.02200 28.69700
C  51.13000 17.59100 27.33000
C  49.98400 16.63000 27.32300
C  52.14000 19.01300 29.31000
C  51.97900 17.96100 26.10800
O  51.84500 17.48000 25.03100
C  53.02300 19.00800 26.29700
N  47.43100 14.76700 27.08200
C  48.30700 15.14300 26.09700
C  47.82000 14.57700 24.77700
C  46.57500 13.73200 25.16300
C  46.40500 13.92400 26.64400
C  47.48500 15.71300 23.76000
C  46.68400 12.19400 24.86600
C  46.16600 11.86800 23.41700
N  45.94900 14.46300 29.51100
C  45.07300 13.72800 28.75300
C  43.93100 13.29200 29.57000
C  44.25600 13.81000 30.83800
C  45.47800 14.45300 30.76700
C  42.78600 12.41600 29.24400
C  43.79800 13.80000 32.23500
O  42.79200 13.26900 32.75100
C  44.88300 14.55500 32.97500
C  44.31700 15.67000 33.80400
O  44.04700 16.77300 33.44700
O  44.22600 15.28300 35.11100
C  43.86700 16.33900 36.05700
H  50.51400 18.35500 31.34400
H  50.04800 16.13400 25.31300
H  44.63700 12.71900 26.94300
H  46.87300 16.70300 34.15100
H  49.42400 17.61400 33.59100
H  48.24300 19.35800 34.12200
H  46.71800 18.96100 33.40000
H  48.00800 19.73300 32.40600
H  49.48900 15.52400 34.29900
H  48.35300 14.32000 33.95200
H  49.05000 14.90300 36.36700
H  47.28700 14.73300 35.90100
H  53.19400 18.76500 29.18400
H  51.92600 19.17900 30.36500
H  51.91900 20.00400 28.91200
H  52.62200 19.93400 26.71000
H  53.36100 19.16400 25.27300
H  53.83900 18.66200 26.93200
H  48.52900 13.91900 24.27500
H  45.74900 14.25000 24.67600
H  47.55600 16.66500 24.28600
H  46.47600 15.59100 23.36600
H  48.13500 15.74400 22.88600
H  46.18500 11.71500 25.70900
H  47.74300 11.96100 24.97800
H  45.37400 11.12000 23.46800
H  46.95500 11.39600 22.83100
H  45.81600 12.77700 22.92800
H  41.87000 12.71600 29.75400
H  43.06500 11.38100 29.44000
H  42.57900 12.43900 28.17400
H  45.26700 13.82400 33.68600
H  42.78400 16.46000 36.04100
H  44.22000 17.35300 35.86800
H  44.12400 16.12500 37.09400
Mg 35.52200 48.00000 26.22000
C  35.79900 46.34500 29.30900
C  34.11900 50.68600 27.83100
C  34.93000 49.25500 23.18300
C  36.41000 44.83600 24.73100
N  35.00800 48.48400 28.30900
C  35.33600 47.70100 29.40000
C  35.07900 48.46700 30.71000
C  34.11100 49.60500 30.23000
C  34.50600 49.69200 28.72700
C  32.53100 49.37900 30.31300
C  36.48300 48.94400 31.26800
C  36.61600 48.85400 32.81700
H  35.75200 49.87600 33.74700
N  34.72600 49.80300 25.59100
C  34.16400 50.78200 26.40100
C  33.69300 51.89100 25.63700
C  34.00100 51.51000 24.24000
C  34.59100 50.15400 24.29200
C  33.13000 53.19800 26.18400
C  33.70300 52.22000 22.99000
O  34.07000 51.72200 21.94600
C  32.82400 53.50100 22.98300
N  35.57300 47.12200 24.25500
C  35.42700 47.90000 23.14100
C  35.72200 47.17500 21.82800
C  36.22100 45.78600 22.34400
C  36.05700 45.85900 23.84600
C  34.41200 47.16200 20.86000
C  37.71400 45.49500 22.00900
C  38.07900 45.39300 20.47500
N  36.03100 45.98000 26.89000
C  36.44600 44.90900 26.12600
C  36.83000 43.83600 26.99600
C  36.58200 44.37600 28.31300
C  36.02700 45.64400 28.19300
C  37.41000 42.49200 26.54300
C  36.77400 44.13000 29.77400
O  37.28100 43.29000 30.51500
C  36.24600 45.45000 30.40000
C  35.19000 44.97900 31.32300
O  34.25800 44.29600 30.97700
O  35.60900 45.24800 32.65300
C  34.52200 44.84200 33.62600
H  33.62300 51.49300 28.37500
H  34.94800 49.59900 22.14600
H  36.71500 43.91800 24.22500
H  34.46600 48.05900 31.51300
H  34.31300 50.57100 30.69100
H  32.26700 48.59600 31.02400
H  31.99600 49.15500 29.39000
H  32.00300 50.25600 30.68600
H  36.64900 49.99500 31.03000
H  37.26600 48.33100 30.82200
H  37.66300 49.07100 33.02900
H  36.28200 47.88500 33.18800
H  34.00600 53.80300 25.95200
H  32.96400 53.22200 27.26200
H  32.30600 53.65600 25.63700
H  31.80600 53.17100 23.19100
H  32.65600 53.87400 21.97300
H  33.17400 54.33100 23.59600
H  36.54400 47.68700 21.32600
H  35.60400 44.99000 21.92800
H  34.24800 46.12300 20.57400
H  34.58800 47.79200 19.98800
H  33.51300 47.41100 21.42500
H  38.09800 44.63200 22.55400
H  38.23000 46.35600 22.43400
H  37.14600 45.56900 19.94000
H  38.69700 44.51300 20.29600
H  38.61500 46.34000 20.41700
H  37.85300 42.54100 25.54900
H  36.61700 41.75900 26.68600
H  38.18500 42.27200 27.27800
H  37.09500 45.81700 30.97600
H  34.57700 43.76700 33.79900
H  33.48900 44.96300 33.29800
H  34.57400 45.56000 34.44400

