158

Mg 1.38200 8.13800 26.99300
C  1.97600 9.77400 29.81800
C  1.33900 5.09700 28.68400
C  0.97800 6.43500 24.02900
C  2.01300 10.95800 25.12500
N  1.56100 7.54700 29.07900
C  1.60100 8.43600 30.10700
C  1.60100 7.73200 31.45600
C  1.45900 6.22900 31.06400
C  1.40300 6.26900 29.52400
C  2.62500 5.34500 31.63400
C  0.43300 8.28300 32.31500
C  0.06000 7.60300 33.65300
H  1.07400 7.57400 34.84200
N  1.05400 6.05700 26.41000
C  1.14600 5.01700 27.23800
C  0.85400 3.77200 26.55200
C  0.67800 4.19300 25.19800
C  0.85000 5.62800 25.18200
C  0.77700 2.38900 27.27800
C  0.34600 3.39700 24.01000
O  0.21800 3.89700 22.89400
C  0.25600 1.85900 24.13500
N  1.55200 8.64600 24.88300
C  1.26100 7.80100 23.87300
C  1.37600 8.50300 22.53800
C  1.45800 10.03800 22.92600
C  1.68200 9.86400 24.38400
C  2.66100 8.04800 21.83100
C  0.17400 10.93200 22.53100
C  -1.16600 10.21200 22.64600
N  1.98000 10.03600 27.36500
C  2.20800 11.09000 26.51900
C  2.50800 12.26800 27.29500
C  2.52900 11.80500 28.63300
C  2.11000 10.46300 28.58000
C  2.85900 13.68900 26.83800
C  2.74800 12.13600 30.00700
O  2.96000 13.25200 30.44800
C  2.25100 10.92700 30.85500
C  3.35300 10.64700 31.85000
O  4.18000 9.74700 31.73600
O  3.34500 11.60700 32.85200
C  4.21700 11.25500 33.94100
H  1.19400 4.16500 29.23400
H  0.93500 5.98400 23.03500
H  2.35900 11.83800 24.57900
H  2.50500 7.97300 32.01400
H  0.52300 5.77300 31.38800
H  3.21900 5.08100 30.75900
H  2.21500 4.42000 32.04000
H  3.33400 5.87100 32.27400
H  -0.52100 8.28100 31.78800
H  0.57300 9.27400 32.74800
H  -0.10200 6.54700 33.43800
H  -0.92700 7.92400 33.98500
H  1.47400 1.61800 26.95000
H  -0.26800 2.16300 27.06900
H  0.90600 2.40500 28.36100
H  -0.60800 1.57000 24.73300
H  1.14100 1.46700 24.63500
H  0.19900 1.30800 23.19600
H  0.63500 8.29000 21.76800
H  2.34900 10.54300 22.55200
H  3.39200 8.85400 21.76600
H  2.55300 7.92300 20.75400
H  3.02700 7.16500 22.35600
H  0.21600 11.16300 21.46600
H  0.17500 11.85500 23.11000
H  -1.02800 9.14600 22.82500
H  -1.81700 10.33700 21.78000
H  -1.72500 10.58300 23.50500
H  3.47600 14.24000 27.54800
H  1.94200 14.25500 26.67400
H  3.36900 13.63700 25.87700
H  1.34000 11.17000 31.40400
H  3.70300 10.52700 34.56900
H  4.34800 12.16200 34.53200
H  5.16300 10.83700 33.59700
Mg 47.95400 34.72400 26.73600
C  46.01700 33.03800 29.38600
C  48.05900 37.41300 28.60700
C  49.33800 36.16400 24.12000
C  47.05900 31.75400 24.71400
N  47.01300 35.15200 28.75700
C  46.41200 34.34900 29.66200
C  46.57600 35.03400 31.05400
C  46.66800 36.59100 30.76700
C  47.21100 36.42500 29.26200
C  45.42100 37.45800 30.92100
C  47.66900 34.44900 31.99700
C  47.72800 35.05900 33.42000
H  46.50400 35.82000 33.96800
N  48.60300 36.58400 26.41300
C  48.68500 37.49300 27.38400
C  49.51000 38.61100 26.88400
C  49.80900 38.36500 25.58100
C  49.25800 36.97400 25.30600
C  50.03200 39.85200 27.65200
C  50.44700 39.21600 24.54100
O  50.60600 38.85300 23.39200
C  50.89400 40.55600 24.83400
N  48.10700 34.06600 24.75700
C  48.76400 34.91900 23.90800
C  49.11300 34.03100 22.60600
C  48.45500 32.64800 22.75000
C  47.86100 32.78800 24.12800
C  48.85000 34.85500 21.23500
C  49.36900 31.37700 22.54600
C  49.10700 30.54900 21.35100
N  46.86800 32.73300 26.99700
C  46.58100 31.72900 26.04900
C  45.82600 30.67000 26.64300
C  45.61400 31.17200 27.95500
C  46.19700 32.45700 28.08100
C  45.29400 29.46700 25.94000
C  44.87700 30.88700 29.21500
O  44.11900 29.94100 29.45000
C  45.25100 31.99400 30.22000
C  46.11200 31.35000 31.28500
O  47.31300 31.13700 31.25800
O  45.38300 31.19900 32.38100
C  45.91000 30.67700 33.65800
H  48.14700 38.28600 29.25700
H  49.85600 36.50200 23.22000
H  46.82900 30.95400 24.00800
H  45.65600 34.71300 31.54300
H  47.43800 36.97500 31.43700
H  44.64000 36.89200 31.42900
H  45.01600 37.78600 29.96400
H  45.66600 38.39300 31.42400
H  48.65600 34.65600 31.58400
H  47.53000 33.37800 32.14500
H  48.60800 35.69500 33.51800
H  47.90400 34.19100 34.05600
H  51.09100 39.90900 27.40100
H  50.13800 39.84100 28.73700
H  49.36500 40.67000 27.38000
H  50.03500 41.04900 25.28800
H  51.13600 41.02600 23.88000
H  51.78200 40.55100 25.46500
H  50.18300 33.87800 22.74400
H  47.54200 32.64400 22.15400
H  48.78200 34.01100 20.54800
H  49.58800 35.56000 20.85300
H  47.88400 35.34800 21.12800
H  49.28600 30.81000 23.47300
H  50.43700 31.59600 22.53900
H  49.93200 30.63300 20.64400
H  48.11900 30.64100 20.90100
H  49.23500 29.54000 21.74100
H  46.11500 28.78800 25.71000
H  44.69000 29.81000 25.10000
H  44.58200 28.92700 26.56500
H  44.44400 32.54100 30.70800
H  45.17400 29.92600 33.94300
H  45.85800 31.48800 34.38500
H  46.89800 30.23800 33.51700

