158

Mg 0.59100 41.99900 25.87000
C  3.17700 41.78400 28.38700
C  -1.56100 40.95600 28.27400
C  -1.66900 41.64700 23.48500
C  3.16200 42.21000 23.53500
N  0.80400 41.63600 28.15200
C  1.90100 41.64300 28.91900
C  1.59400 41.52400 30.40300
C  0.14900 40.92700 30.30600
C  -0.31700 41.24300 28.82900
C  0.14300 39.38200 30.54200
C  1.74700 42.92300 31.07500
C  1.82500 42.91200 32.63900
H  1.21800 41.70900 33.35900
N  -1.32800 41.55900 25.90300
C  -2.06100 41.14700 26.96300
C  -3.46400 41.19100 26.59600
C  -3.49000 41.44400 25.15300
C  -2.10600 41.51800 24.83000
C  -4.66700 40.94700 27.58100
C  -4.69500 41.58400 24.28100
O  -4.62300 41.79300 23.09800
C  -6.12000 41.55400 24.89400
N  0.73200 42.01000 23.81900
C  -0.36500 41.96700 22.99500
C  -0.02100 42.28000 21.58700
C  1.43800 42.82500 21.70200
C  1.81700 42.36700 23.11000
C  -0.13900 41.08700 20.56700
C  1.67700 44.38700 21.51100
C  1.74100 45.35500 22.72800
N  2.78800 42.02800 25.87000
C  3.66900 42.04700 24.85000
C  5.05200 41.88400 25.35600
C  4.91200 41.81700 26.80700
C  3.47700 41.77600 27.01900
C  6.24300 41.72000 24.50000
C  5.59200 41.74500 28.03500
O  6.78500 41.61000 28.20600
C  4.50000 41.80400 29.13800
C  4.59600 40.71900 30.20600
O  4.28800 39.54400 30.09700
O  5.03100 41.27100 31.38800
C  4.79900 40.40400 32.55900
H  -2.31900 40.59900 28.97400
H  -2.42400 41.67800 22.69700
H  3.96400 42.41100 22.82200
H  2.20300 40.80000 30.94400
H  -0.62200 41.30100 30.98000
H  1.13900 39.04800 30.83300
H  -0.05500 38.97000 29.55200
H  -0.61400 39.08800 31.26900
H  0.90000 43.51800 30.73600
H  2.65100 43.39100 30.68600
H  1.29900 43.80100 32.98700
H  2.87500 42.92200 32.92800
H  -5.25400 41.82300 27.86100
H  -4.26900 40.65500 28.55300
H  -5.30300 40.19900 27.10800
H  -6.36800 40.51500 25.11200
H  -6.84900 41.84000 24.13600
H  -6.25500 42.12100 25.81500
H  -0.71200 43.04600 21.23300
H  2.04200 42.27400 20.98100
H  0.54900 40.25100 20.69400
H  -0.10000 41.44200 19.53700
H  -1.14100 40.68600 20.72000
H  0.89900 44.75600 20.84300
H  2.60700 44.40300 20.94300
H  1.73800 44.90100 23.71900
H  0.77500 45.86000 22.72400
H  2.46100 46.15200 22.54400
H  6.55900 42.72300 24.21400
H  6.00000 41.05300 23.67300
H  7.07000 41.28300 25.06000
H  4.62100 42.80100 29.56300
H  5.04400 40.83700 33.52900
H  5.49500 39.56500 32.58900
H  3.78300 40.01100 32.60700
Mg -4.82400 24.85700 26.56700
C  -3.12400 26.41700 29.20400
C  -6.36500 22.79600 28.97900
C  -6.79700 23.50200 24.13400
C  -3.15200 26.64000 24.31200
N  -4.77600 24.67600 28.79900
C  -4.11100 25.52000 29.66100
C  -4.35200 25.15000 31.18300
C  -5.22300 23.82400 31.01700
C  -5.50000 23.75700 29.51800
C  -4.49400 22.56700 31.55200
C  -5.08300 26.45200 31.78700
C  -5.98000 26.17000 33.00500
H  -5.47000 25.08100 33.98700
N  -6.29400 23.24200 26.53600
C  -6.72800 22.48700 27.60500
C  -7.71200 21.51400 27.07300
C  -7.96500 21.89200 25.75700
C  -6.98500 22.85300 25.43300
C  -8.37000 20.43100 27.96500
C  -9.08800 21.36200 24.80400
O  -9.17500 21.73900 23.62400
C  -10.06900 20.31000 25.25700
N  -4.89300 24.91700 24.43200
C  -5.89600 24.40100 23.63000
C  -5.75100 24.77300 22.13000
C  -4.67600 25.86500 22.28000
C  -4.21100 25.82300 23.81100
C  -5.45200 23.57500 21.19600
C  -5.03500 27.26600 21.69200
C  -5.26200 27.41700 20.15200
N  -3.39400 26.21600 26.68400
C  -2.75700 26.81000 25.66100
C  -1.67300 27.61800 26.14000
C  -1.78300 27.50900 27.52900
C  -2.89800 26.71900 27.82500
C  -0.75500 28.38000 25.34700
C  -1.26300 27.94800 28.76800
O  -0.27400 28.69500 28.81300
C  -2.17000 27.30400 29.96300
C  -1.28900 26.53600 30.89900
O  -0.55300 25.60400 30.56300
O  -1.33700 26.94300 32.14600
C  -0.36200 26.47100 33.13900
H  -6.87200 22.25300 29.77900
H  -7.35200 23.15000 23.26200
H  -2.54600 27.19900 23.59600
H  -3.42600 24.90700 31.70300
H  -6.17600 23.79100 31.54300
H  -3.45800 22.48600 31.22400
H  -4.98300 21.62300 31.31400
H  -4.47400 22.64300 32.63900
H  -5.77700 26.89700 31.07500
H  -4.40800 27.27900 32.00800
H  -7.01000 25.97500 32.70600
H  -5.94400 27.03800 33.66300
H  -8.36800 19.50700 27.38700
H  -9.32700 20.79200 28.34100
H  -7.70700 20.23900 28.80800
H  -10.83100 20.11800 24.50300
H  -10.69700 20.50600 26.12600
H  -9.57900 19.35900 25.46900
H  -6.68300 25.27000 21.86100
H  -3.85100 25.55500 21.63900
H  -4.90300 22.79800 21.72800
H  -4.86300 23.93700 20.35300
H  -6.37400 23.17000 20.77800
H  -4.23700 27.97200 21.92200
H  -5.96700 27.57200 22.16800
H  -6.29200 27.71100 19.95000
H  -5.10100 26.44600 19.68500
H  -4.56000 28.20000 19.86700
H  -1.22300 29.09500 24.67100
H  -0.09900 27.87500 24.63800
H  -0.24800 29.00700 26.08100
H  -2.73300 28.01900 30.56200
H  0.59300 26.26500 32.65500
H  -0.72200 25.59100 33.67200
H  -0.18100 27.40000 33.67900

