158

Mg 48.44700 16.13100 28.53900
C  46.31800 16.06900 31.32700
C  50.70400 17.92000 30.46800
C  50.50500 16.03200 25.99100
C  45.88500 14.79800 26.65600
N  48.41600 16.97300 30.61800
C  47.49700 16.74400 31.60500
C  48.02600 17.20800 32.96600
C  49.20200 18.12800 32.57200
C  49.43200 17.65700 31.14600
C  48.93100 19.68500 32.77500
C  48.27900 15.99600 33.90200
C  48.37900 16.39800 35.38800
H  48.01400 17.76900 35.94400
N  50.33500 16.78000 28.25000
C  51.13500 17.52300 29.17600
C  52.41700 17.78800 28.52000
C  52.33600 17.23500 27.29000
C  51.05400 16.63500 27.12500
C  53.49100 18.62400 29.20200
C  53.40200 17.33300 26.22600
O  53.19000 16.89100 25.12100
C  54.86100 17.70700 26.59900
N  48.26400 15.28500 26.64100
C  49.27000 15.48000 25.68800
C  48.84700 15.05800 24.26500
C  47.41800 14.44900 24.53900
C  47.12800 14.83600 26.04300
C  48.90300 16.15400 23.20300
C  47.25300 12.95100 24.47400
C  47.24800 12.32600 23.05200
N  46.47600 15.68100 28.83200
C  45.58900 15.14000 27.96100
C  44.31000 15.03900 28.62100
C  44.55300 15.30600 30.01600
C  45.94100 15.68700 30.07000
C  42.98700 14.48600 28.09200
C  43.99900 15.31900 31.35400
O  42.93800 14.97700 31.80800
C  45.24200 15.75000 32.32600
C  44.74300 16.87100 33.18900
O  44.21200 17.91300 32.78000
O  44.69200 16.39700 34.49200
C  43.87600 17.21100 35.31700
H  51.44600 18.38200 31.12300
H  51.10700 16.02100 25.08000
H  45.09000 14.37300 26.04000
H  47.25300 17.79100 33.46700
H  50.08800 17.79700 33.11400
H  49.78200 20.13500 33.28700
H  48.08000 19.91400 33.41600
H  48.77200 20.14300 31.79900
H  49.19500 15.53500 33.53200
H  47.44600 15.29400 33.91900
H  49.40900 16.27400 35.72400
H  47.86000 15.60400 35.92600
H  54.28900 17.94400 29.49800
H  53.14900 19.06800 30.13700
H  53.75700 19.41200 28.49700
H  54.98100 18.78700 26.68200
H  55.45200 17.55900 25.69500
H  55.14400 16.98500 27.36500
H  49.56500 14.31900 23.91000
H  46.60800 14.95600 24.01500
H  49.39400 17.06800 23.53600
H  47.89100 16.34700 22.84600
H  49.54700 15.76800 22.41300
H  46.23900 12.79800 24.84300
H  47.87600 12.39200 25.17300
H  47.87000 11.46200 22.81600
H  47.51900 13.09000 22.32400
H  46.29800 11.89100 22.74100
H  42.89100 13.40600 28.19800
H  42.87500 14.69100 27.02700
H  42.26400 14.99900 28.72800
H  45.53700 14.86900 32.89600
H  44.17100 18.25500 35.42700
H  43.77500 16.78700 36.31600
H  42.89400 17.24600 34.84600
Mg 47.76600 25.04300 28.44100
C  49.01300 27.21300 30.99200
C  46.96500 22.83500 30.81600
C  47.65400 22.86000 26.09500
C  49.04700 27.51900 26.12800
N  47.88200 25.16200 30.63100
C  48.21400 26.19000 31.47300
C  47.90000 25.88700 32.89800
C  47.44500 24.37700 32.79000
C  47.39400 24.06500 31.33300
C  48.21400 23.45300 33.73800
C  46.99800 27.02400 33.55000
C  46.09500 26.72100 34.74700
H  46.04500 27.74800 35.90900
N  47.32100 23.07800 28.44000
C  46.95900 22.31300 29.53600
C  46.54800 20.97600 29.19900
C  46.86200 20.93400 27.80000
C  47.28600 22.28600 27.37300
C  45.98000 19.87800 30.12200
C  46.77100 19.73000 26.81900
O  47.17100 19.87100 25.65300
C  46.20200 18.33300 27.35100
N  48.24700 25.13200 26.38900
C  48.08700 24.09300 25.62000
C  48.31900 24.47200 24.13500
C  48.49800 25.98500 24.15300
C  48.55500 26.26900 25.63000
C  49.66500 23.78400 23.57500
C  47.33900 26.76600 23.30700
C  47.74200 27.35100 22.00200
N  48.81500 26.98300 28.49000
C  49.19700 27.85800 27.50600
C  49.96300 28.96700 28.05200
C  49.86600 28.85900 29.41700
C  49.23600 27.54300 29.61700
C  50.43400 30.12100 27.22600
C  50.07100 29.47700 30.77400
O  50.68500 30.47800 31.14300
C  49.47400 28.42700 31.78900
C  50.54400 28.17100 32.75100
O  51.42600 27.38500 32.48000
O  50.30600 28.72700 34.00400
C  51.27700 28.33000 35.05400
H  46.63800 22.12500 31.57900
H  47.56500 22.17500 25.24900
H  49.33800 28.30200 25.42600
H  48.86100 26.05700 33.38300
H  46.39300 24.42500 33.07000
H  48.93500 23.98700 34.35600
H  48.76700 22.69200 33.18700
H  47.47600 22.94100 34.35600
H  46.27200 27.16200 32.74800
H  47.66500 27.84900 33.80100
H  46.43500 25.73600 35.06900
H  45.08100 26.50200 34.41000
H  44.98400 19.67800 29.72700
H  45.83200 20.34200 31.09700
H  46.58600 18.97500 30.19300
H  45.26500 18.42700 27.89900
H  46.97600 18.03700 28.05900
H  46.13300 17.62100 26.52900
H  47.52100 24.04700 23.52600
H  49.48100 26.25400 23.76500
H  50.53200 24.44200 23.63200
H  49.64400 23.46500 22.53300
H  49.85900 22.91800 24.20700
H  47.11900 27.62600 23.93900
H  46.44800 26.13900 23.31900
H  47.13100 26.95600 21.19100
H  48.75200 27.05700 21.71600
H  47.69400 28.43900 21.97100
H  50.83600 29.77000 26.27500
H  51.09500 30.77400 27.79500
H  49.62900 30.83300 27.04600
H  48.65000 28.95300 32.27100
H  52.26100 28.79800 35.07100
H  51.37400 27.24900 34.95800
H  50.88700 28.73400 35.98900

