158

Mg -2.03300 16.91100 26.45400
C  -2.37000 14.56000 29.07300
C  -2.96800 19.31700 28.74000
C  -2.34200 19.05900 23.87700
C  -1.92900 14.25700 24.16900
N  -2.71900 16.90600 28.73400
C  -2.56700 15.86200 29.59000
C  -2.73400 16.24300 31.06300
C  -2.86300 17.80500 30.91200
C  -2.96300 18.03600 29.37600
C  -4.08600 18.42900 31.73600
C  -1.73900 15.74200 32.23700
C  -1.67000 16.59100 33.47800
H  -1.24900 15.98500 34.76400
N  -2.32000 18.90600 26.36400
C  -2.72000 19.72400 27.40400
C  -2.71400 21.06400 26.88600
C  -2.61500 21.02800 25.53500
C  -2.35700 19.64500 25.17800
C  -2.98700 22.26600 27.78900
C  -2.84600 22.20300 24.54400
O  -2.98000 22.03500 23.34800
C  -3.13800 23.64600 24.94900
N  -2.26800 16.67000 24.33100
C  -2.32300 17.73900 23.53400
C  -2.30700 17.27700 22.06000
C  -1.78700 15.84300 22.16900
C  -1.95900 15.55800 23.63100
C  -3.68100 17.45900 21.33700
C  -0.36800 15.57400 21.75700
C  0.87600 16.08800 22.50100
N  -2.15500 14.82500 26.49100
C  -2.03000 13.85700 25.48000
C  -2.10800 12.53800 26.03800
C  -2.18500 12.75400 27.40200
C  -2.23700 14.13700 27.65000
C  -2.11500 11.27000 25.15700
C  -2.34200 12.08600 28.68800
O  -2.41400 10.90200 28.98000
C  -2.49000 13.26700 29.79900
C  -1.39500 12.97200 30.80200
O  -0.24500 13.44200 30.81000
O  -1.87800 12.05300 31.72400
C  -1.10900 11.57000 32.85600
H  -3.12800 20.13600 29.44400
H  -2.35600 19.69400 22.98900
H  -1.69900 13.54400 23.37500
H  -3.68700 15.89800 31.46500
H  -1.94700 18.33400 31.17300
H  -4.46300 17.69200 32.44500
H  -4.89900 18.66500 31.04900
H  -3.76100 19.31600 32.27900
H  -0.71700 15.67200 31.86400
H  -2.15000 14.77400 32.52300
H  -2.69700 16.90700 33.65800
H  -1.03400 17.46300 33.32600
H  -2.74400 22.15200 28.84600
H  -4.03600 22.55700 27.73000
H  -2.33700 23.09800 27.51900
H  -2.41300 23.91900 25.71700
H  -4.08500 23.54000 25.47800
H  -3.17600 24.32300 24.09600
H  -1.52900 17.89000 21.60600
H  -2.37300 15.06600 21.68000
H  -4.20800 18.14100 22.00400
H  -4.32500 16.58200 21.39200
H  -3.61500 17.78100 20.29700
H  -0.15200 15.69700 20.69600
H  -0.23900 14.49200 21.77000
H  1.44200 16.73500 21.83100
H  1.59000 15.30100 22.74700
H  0.57300 16.58000 23.42400
H  -1.43400 11.34100 24.30800
H  -3.12700 10.91400 24.96200
H  -1.62400 10.49100 25.74000
H  -3.51300 13.17000 30.16300
H  -0.14800 12.05500 33.02400
H  -0.84200 10.52300 32.71300
H  -1.68600 11.66200 33.77600
Mg -2.47400 35.14300 26.40100
C  -4.13300 33.36200 28.81200
C  -1.24400 37.26200 28.81900
C  -1.55700 37.34700 23.94300
C  -4.17100 33.27100 24.00600
N  -2.62800 35.21300 28.54600
C  -3.18300 34.29200 29.37400
C  -2.89800 34.63900 30.91500
C  -2.12700 36.00300 30.87100
C  -1.97000 36.21400 29.29000
C  -2.61800 37.19700 31.69800
C  -2.00700 33.53300 31.61200
C  -2.75700 32.62200 32.66200
H  -2.22200 32.50200 34.12400
N  -1.36700 37.01000 26.33200
C  -0.92800 37.67900 27.47000
C  0.08900 38.70300 26.99800
C  -0.10600 38.74200 25.53900
C  -1.05000 37.69100 25.17000
C  0.95700 39.45000 28.03100
C  0.54000 39.65000 24.51500
O  0.39800 39.66600 23.30400
C  1.46900 40.60800 24.98100
N  -2.94300 35.39600 24.34900
C  -2.43800 36.33500 23.51800
C  -2.99000 36.27000 22.08400
C  -3.71900 34.85300 22.15700
C  -3.47000 34.43400 23.59000
C  -3.96800 37.45500 21.74400
C  -2.99700 33.85200 21.11900
C  -1.70200 32.99800 21.45600
N  -3.75700 33.51000 26.34800
C  -4.31000 32.80400 25.31900
C  -5.05900 31.74900 25.88500
C  -4.97300 31.92300 27.23200
C  -4.23400 33.03500 27.49100
C  -5.86700 30.76300 25.12700
C  -5.44900 31.31800 28.48000
O  -6.14800 30.32600 28.65600
C  -4.78100 32.19500 29.62800
C  -5.85300 32.62400 30.58900
O  -6.60400 33.62300 30.45800
O  -6.02900 31.69200 31.59700
C  -6.91800 32.16800 32.67200
H  -0.81500 37.97300 29.52800
H  -1.33800 38.09500 23.17800
H  -4.74600 32.76100 23.23100
H  -3.86100 34.72600 31.41800
H  -1.11000 35.82100 31.21800
H  -1.83900 37.37900 32.43900
H  -3.51700 36.88700 32.23000
H  -2.85700 38.05700 31.07400
H  -1.12500 33.94400 32.10300
H  -1.66100 32.83700 30.84600
H  -2.82600 31.59600 32.30200
H  -3.78200 32.96800 32.79800
H  0.64400 40.49300 28.06900
H  1.98500 39.56600 27.68800
H  0.83600 39.12000 29.06300
H  2.32200 40.00000 25.28400
H  1.11100 41.08000 25.89600
H  1.77300 41.28100 24.17900
H  -2.18000 36.40900 21.36800
H  -4.78500 34.97800 21.96500
H  -4.26700 38.05600 22.60300
H  -4.89200 37.23900 21.20700
H  -3.42500 38.18800 21.14700
H  -2.87600 34.44200 20.21000
H  -3.82500 33.18700 20.87400
H  -1.00300 32.83800 20.63500
H  -2.05300 31.97700 21.60400
H  -1.28200 33.39700 22.38000
H  -5.20600 30.31500 24.38500
H  -6.62200 31.27800 24.53300
H  -6.38300 30.02000 25.73400
H  -3.95200 31.77300 30.19500
H  -6.17300 32.71300 33.25100
H  -7.30600 31.33700 33.26100
H  -7.71300 32.87200 32.42300

