158

Mg 25.33100 -1.11800 28.76100
C  27.39700 -1.51300 31.55000
C  22.63600 -1.08600 30.72500
C  23.55500 -0.77900 25.92900
C  28.16000 -1.82200 26.75900
N  25.09200 -1.42700 30.89200
C  26.03100 -1.36000 31.87100
C  25.37400 -1.20100 33.29100
C  23.81100 -1.06700 32.98300
C  23.84300 -1.28500 31.40100
C  22.78700 -2.12100 33.59900
C  25.86800 0.12500 34.01300
C  26.14000 -0.03900 35.46400
H  25.86800 1.18500 36.36600
N  23.36800 -0.83500 28.37700
C  22.40500 -0.83500 29.34400
C  21.15000 -0.39400 28.74900
C  21.42000 -0.44300 27.33500
C  22.83000 -0.69300 27.09900
C  19.89900 -0.05300 29.43100
C  20.45000 -0.20000 26.23100
O  20.83700 -0.04100 25.06100
C  19.05200 -0.27200 26.46200
N  25.79600 -1.51000 26.57300
C  24.88600 -1.12900 25.67700
C  25.50800 -1.11300 24.21100
C  27.01600 -1.43500 24.48300
C  27.01600 -1.66400 26.02000
C  24.94900 -2.07300 23.15000
C  27.93200 -0.22600 24.05600
C  27.90400 1.04200 24.85900
N  27.41800 -1.62100 29.02800
C  28.40300 -1.88800 28.15100
C  29.59700 -2.15400 28.90600
C  29.22300 -1.94700 30.22200
C  27.93900 -1.74600 30.25900
C  30.89200 -2.50300 28.23200
C  29.76800 -1.93700 31.55100
O  30.88600 -2.04600 31.95800
C  28.57700 -1.54200 32.45000
C  28.30600 -2.62000 33.48000
O  27.82400 -3.72400 33.27700
O  28.64300 -2.12500 34.75000
C  28.15500 -3.02900 35.79400
H  21.75100 -0.81600 31.30600
H  23.10900 -0.59800 24.94800
H  29.02500 -1.95200 26.10600
H  25.57600 -2.00600 33.99800
H  23.47700 -0.04100 33.13400
H  23.02100 -2.30500 34.64800
H  22.83600 -3.08600 33.09500
H  21.86300 -1.60000 33.84900
H  25.19800 0.94600 33.75900
H  26.80900 0.38700 33.53000
H  27.22000 -0.10800 35.60000
H  25.59600 -0.92900 35.78100
H  19.44500 0.83300 28.98700
H  20.08100 0.02400 30.50300
H  19.18200 -0.87000 29.34600
H  18.55800 -0.39900 25.49900
H  18.80800 0.73800 26.79200
H  18.71700 -1.05400 27.14500
H  25.37000 -0.15000 23.72000
H  27.44400 -2.25800 23.91100
H  25.55300 -2.98000 23.16400
H  25.10500 -1.63800 22.16300
H  23.87000 -2.16500 23.27300
H  27.73200 -0.05800 22.99800
H  28.97200 -0.54600 24.10900
H  27.37000 0.84300 25.78900
H  27.46300 1.93400 24.41300
H  28.91000 1.40600 25.06900
H  30.90300 -3.57100 28.01500
H  31.77700 -2.32800 28.84400
H  31.17400 -2.07700 27.27000
H  28.82200 -0.64100 33.01200
H  27.06700 -2.96400 35.77200
H  28.46900 -2.66200 36.77100
H  28.36700 -4.09200 35.68000
Mg -10.16300 40.12400 42.01300
C  -8.90400 36.84200 41.36100
C  -7.15700 41.29500 40.49800
C  -11.48400 43.10300 41.54700
C  -13.30300 38.57300 42.50300
N  -8.19500 39.19000 41.22900
C  -8.05200 37.87800 40.96700
C  -6.62100 37.60400 40.30800
C  -5.98800 38.97200 40.39900
C  -7.20400 39.91700 40.69500
C  -4.86500 39.27900 41.43700
C  -6.67400 37.05200 38.83100
C  -5.92600 35.73700 38.48500
H  -4.84100 35.76200 37.42200
N  -9.45500 42.00600 41.15900
C  -8.18500 42.27400 40.65900
C  -8.15700 43.65000 40.27900
C  -9.43500 44.25500 40.48500
C  -10.17500 43.14400 41.05800
C  -6.94000 44.35700 39.67700
C  -9.92500 45.69700 40.30100
O  -9.03500 46.45700 39.96700
C  -11.32800 46.15500 40.36600
N  -12.07200 40.67900 42.07900
C  -12.35600 42.01300 41.93000
C  -13.84700 42.26900 42.12600
C  -14.44300 40.89400 42.51400
C  -13.24600 39.99100 42.36100
C  -14.13700 43.39300 43.17800
C  -15.64800 40.39800 41.63600
C  -16.99000 40.18400 42.26100
N  -10.94700 38.09100 42.22200
C  -12.22000 37.63000 42.38300
C  -12.25100 36.27200 42.51700
C  -10.96700 35.84400 42.16800
C  -10.19600 37.00300 41.95300
C  -13.47600 35.44600 42.90500
C  -10.01400 34.78800 41.92100
O  -10.23200 33.56700 42.04400
C  -8.69800 35.36300 41.30000
C  -7.54700 34.93100 42.12300
O  -6.96500 35.53400 43.05600
O  -6.96000 33.86000 41.48900
C  -5.56500 33.46400 41.90100
H  -6.17700 41.51700 40.06900
H  -11.98000 44.06400 41.39700
H  -14.28700 38.14300 42.69900
H  -6.05900 36.86300 40.87600
H  -5.42000 39.19500 39.49500
H  -4.67900 38.41700 42.07800
H  -5.21900 40.06500 42.10300
H  -3.92000 39.67500 41.06500
H  -6.32800 37.77300 38.08900
H  -7.73500 36.90100 38.62900
H  -6.71900 35.05500 38.18000
H  -5.45800 35.29000 39.36300
H  -5.94600 43.93000 39.81200
H  -6.83400 45.38000 40.04000
H  -6.97600 44.39300 38.58800
H  -11.92200 45.51600 39.71300
H  -11.40200 47.16900 39.97200
H  -11.65000 46.19800 41.40700
H  -14.33000 42.66600 41.23300
H  -14.66800 40.85000 43.57900
H  -15.09500 43.15400 43.64000
H  -14.33700 44.21600 42.49200
H  -13.39700 43.47800 43.97400
H  -15.48600 39.43400 41.15300
H  -15.89100 41.12200 40.85900
H  -16.94400 40.62700 43.25500
H  -17.26900 39.13000 42.25600
H  -17.81500 40.61100 41.69100
H  -13.21300 34.48800 43.35300
H  -14.17200 35.22400 42.09500
H  -14.03800 36.00900 43.65000
H  -8.55000 35.05400 40.26500
H  -4.96200 33.53900 40.99600
H  -5.51000 32.48100 42.36900
H  -5.18200 34.12100 42.68100

