158

Mg -1.88900 17.54100 25.60800
C  -2.31300 15.30600 28.36500
C  -2.70100 20.10100 27.72200
C  -2.16000 19.52400 22.89300
C  -1.83300 14.78100 23.53200
N  -2.52400 17.61700 27.74200
C  -2.38600 16.63400 28.75100
C  -2.47400 17.25200 30.19700
C  -2.73500 18.77100 29.90200
C  -2.68800 18.82300 28.37000
C  -4.12800 19.24400 30.51300
C  -1.13100 16.94100 31.07400
C  -0.94900 17.70000 32.39800
H  -1.19000 16.89700 33.63900
N  -2.12500 19.50600 25.36300
C  -2.38100 20.42800 26.36300
C  -2.49500 21.74200 25.79200
C  -2.14200 21.57100 24.40800
C  -2.16100 20.15100 24.13400
C  -2.78600 23.03700 26.56500
C  -1.82900 22.67300 23.35000
O  -1.55400 22.37400 22.17100
C  -1.80300 24.05200 23.75100
N  -2.16200 17.18700 23.53000
C  -2.09100 18.17000 22.57500
C  -2.12600 17.60000 21.16100
C  -1.56500 16.13400 21.42900
C  -1.84200 15.99000 22.90600
C  -3.54100 17.61200 20.44100
C  -0.03200 15.93700 21.12400
C  0.93600 16.76500 21.94200
N  -1.93300 15.48500 25.86600
C  -1.93900 14.48800 24.88600
C  -2.03900 13.18100 25.50800
C  -2.11800 13.47000 26.84400
C  -2.08600 14.85900 27.00300
C  -1.92300 11.90700 24.78300
C  -2.28200 12.84300 28.09300
O  -2.22500 11.67900 28.45000
C  -2.34600 14.00000 29.16600
C  -1.28600 13.79800 30.18500
O  -0.08900 13.91400 29.91000
O  -1.75600 13.35400 31.45400
C  -0.79700 13.22800 32.48200
H  -2.75600 20.80100 28.55900
H  -2.30600 20.13200 21.99800
H  -1.60200 13.89600 22.93500
H  -3.24600 16.78000 30.80600
H  -1.94500 19.29000 30.44400
H  -4.76400 19.67800 29.74200
H  -3.94100 19.95600 31.31600
H  -4.70000 18.43700 30.97100
H  -0.22200 16.88600 30.47500
H  -1.29200 15.89700 31.34100
H  -1.63400 18.54800 32.38100
H  0.05300 18.12500 32.46100
H  -1.91500 23.69000 26.59700
H  -2.99100 22.80800 27.61100
H  -3.71100 23.42600 26.13800
H  -2.80200 24.25700 24.13600
H  -1.67500 24.72600 22.90400
H  -1.00700 24.19800 24.48100
H  -1.37000 18.06300 20.52700
H  -2.12500 15.41800 20.82700
H  -3.45600 17.87300 19.38600
H  -4.15100 18.38400 20.91000
H  -4.07400 16.67400 20.59600
H  0.18500 16.08800 20.06600
H  0.29300 14.90800 21.27400
H  0.49600 17.74700 22.11300
H  1.81500 17.06400 21.37000
H  1.18000 16.19100 22.83600
H  -1.14100 12.15700 24.06600
H  -2.82300 11.67200 24.21400
H  -1.62600 11.08200 25.43000
H  -3.34100 13.77900 29.55100
H  -1.05800 14.06600 33.12800
H  0.26500 13.32600 32.25700
H  -0.90000 12.25200 32.95600
Mg 1.28100 7.81300 25.79400
C  1.87000 9.82700 28.67300
C  1.63700 5.02700 27.78200
C  0.51300 5.96000 23.11100
C  1.15200 10.72400 23.96000
N  1.76700 7.60700 27.92900
C  1.87200 8.52600 28.98800
C  2.00200 7.84000 30.35900
C  2.18700 6.31700 29.98300
C  1.89300 6.26100 28.42500
C  3.52700 5.71900 30.35800
C  0.72700 8.24100 31.25500
C  0.99600 8.63000 32.70200
H  2.07500 7.75100 33.45100
N  1.10500 5.77100 25.43800
C  1.21400 4.75000 26.38500
C  0.71100 3.47100 25.86600
C  0.46000 3.74700 24.46000
C  0.61500 5.21900 24.28400
C  0.55300 2.23500 26.75800
C  0.07900 2.74800 23.40000
O  -0.07000 3.10500 22.22600
C  -0.23000 1.33900 23.70500
N  1.01600 8.21700 23.74700
C  0.63000 7.36700 22.82200
C  0.47700 8.07000 21.48300
C  0.70700 9.59700 21.78200
C  0.94200 9.56200 23.28600
C  1.40400 7.34600 20.40800
C  -0.52600 10.53100 21.37400
C  -0.10900 11.81500 20.70300
N  1.48200 9.89200 26.19000
C  1.27700 10.96900 25.33800
C  1.51500 12.21800 26.01900
C  1.75900 11.81000 27.40800
C  1.64700 10.40400 27.42700
C  1.36400 13.65100 25.50400
C  2.09800 12.26500 28.67800
O  2.40400 13.35700 29.03200
C  2.09100 10.96600 29.60900
C  3.30900 10.88800 30.31900
O  4.41100 10.65700 29.78900
O  3.06500 11.15300 31.66300
C  4.25100 11.30500 32.54700
H  1.90900 4.11300 28.31300
H  0.16100 5.43900 22.21800
H  1.04200 11.61600 23.33900
H  2.87100 8.37200 30.74800
H  1.38800 5.79300 30.50700
H  3.38500 4.97100 31.13800
H  4.05200 6.55800 30.81600
H  4.14300 5.43200 29.50700
H  -0.06100 7.48900 31.29200
H  0.28500 9.16200 30.87200
H  0.02100 8.38000 33.12100
H  1.03100 9.71400 32.81600
H  -0.32400 1.77500 26.30100
H  0.33800 2.56200 27.77500
H  1.34200 1.48200 26.77000
H  0.55100 0.94300 24.35400
H  -0.38500 0.68600 22.84600
H  -1.14200 1.33200 24.30100
H  -0.56300 7.96500 21.17500
H  1.62700 10.00200 21.36100
H  2.24800 6.80400 20.83500
H  1.80400 8.03100 19.65900
H  0.70500 6.62100 19.99300
H  -1.04600 10.78600 22.29700
H  -1.17900 10.02400 20.66200
H  0.91000 12.08100 20.42000
H  -0.59900 12.58900 21.29400
H  -0.68800 11.78400 19.78000
H  1.40700 14.41900 26.27700
H  0.58200 13.88800 24.78300
H  2.22800 13.84100 24.86800
H  1.25100 11.03100 30.30000
H  4.78800 12.23500 32.35900
H  5.01800 10.54900 32.37700
H  4.02200 11.07900 33.58800

