158

Mg 35.25700 2.68100 30.09900
C  33.19200 4.21100 32.48000
C  37.88400 2.72400 32.30200
C  37.31600 1.78700 27.57000
C  32.64200 2.91000 27.77700
N  35.53200 3.43500 32.10200
C  34.52900 3.91400 32.94300
C  34.97300 4.00900 34.43600
C  36.53200 3.89500 34.17400
C  36.71000 3.33100 32.75600
C  37.50000 5.05300 34.50300
C  34.29000 2.80000 35.21800
C  33.84900 3.12100 36.60300
H  34.56700 4.17800 37.46200
N  37.30400 2.19500 30.02300
C  38.12500 2.20300 31.05000
C  39.43800 1.85400 30.54800
C  39.36000 1.51300 29.15300
C  37.94300 1.80200 28.86000
C  40.72100 1.78600 31.43100
C  40.50000 0.97300 28.23100
O  40.22000 0.53700 27.06900
C  41.92700 0.90800 28.70600
N  34.99700 2.53200 27.99800
C  35.98000 1.99400 27.21200
C  35.54200 1.94700 25.75500
C  33.97200 2.00300 25.85800
C  33.84700 2.47700 27.29300
C  36.25400 2.97700 24.80100
C  33.26400 0.62300 25.50600
C  32.45300 0.64400 24.13700
N  33.37000 3.48700 30.07300
C  32.36100 3.39600 29.11200
C  31.10200 3.88200 29.60800
C  31.36300 4.15900 30.97700
C  32.71500 3.95300 31.19100
C  29.83200 3.97800 28.92300
C  30.76500 4.60200 32.19500
O  29.60200 4.95600 32.43600
C  31.92500 4.61000 33.23900
C  31.98600 5.75600 34.15300
O  32.78900 6.65900 34.09900
O  31.20500 5.41800 35.26000
C  31.41800 6.54000 36.23200
H  38.64700 2.67100 33.08200
H  38.04300 1.49500 26.80900
H  31.77400 2.69600 27.15000
H  34.70500 4.94600 34.92400
H  36.83100 3.05100 34.79500
H  37.09300 5.95100 34.96800
H  37.97900 5.40900 33.59100
H  38.26400 4.69800 35.19400
H  34.96000 1.94300 35.16300
H  33.54400 2.43300 34.51300
H  33.94200 2.17400 37.13400
H  32.77700 3.31800 36.62100
H  40.60700 2.53800 32.21200
H  41.64200 2.23100 31.05400
H  40.90100 0.81500 31.89200
H  41.99200 0.16800 29.50300
H  42.22700 1.90400 29.03300
H  42.52500 0.76700 27.80500
H  35.80400 0.96300 25.36600
H  33.67400 2.76900 25.14100
H  37.03400 3.48800 25.36400
H  35.52700 3.67200 24.38100
H  36.76700 2.46600 23.98600
H  32.61600 0.30400 26.32300
H  34.02200 -0.12300 25.26800
H  31.36900 0.60600 24.23900
H  32.88500 -0.05100 23.41700
H  32.61900 1.58100 23.60500
H  29.19100 3.24800 29.41700
H  29.89900 3.91300 27.83700
H  29.50600 5.00000 29.11200
H  31.76900 3.76100 33.90400
H  30.95200 7.40700 35.76400
H  32.47100 6.74900 36.41800
H  30.90000 6.38800 37.17900
Mg 42.97000 41.21500 25.90300
C  41.87200 43.53500 28.41500
C  43.93200 39.18200 28.35300
C  43.97200 39.27000 23.50300
C  42.16600 43.75300 23.57900
N  42.74800 41.32500 28.11500
C  42.19600 42.29800 28.90400
C  42.40000 41.94400 30.38200
C  43.08800 40.54500 30.33600
C  43.32600 40.37100 28.84700
C  44.36700 40.30800 31.25200
C  41.12500 42.05000 31.24700
C  40.96600 41.20900 32.53500
H  40.74000 41.91100 33.86900
N  43.84300 39.43900 25.99000
C  44.26300 38.76800 27.08100
C  44.81500 37.53000 26.70500
C  44.88300 37.55400 25.22900
C  44.23900 38.83900 24.87100
C  45.31200 36.52200 27.62600
C  45.36900 36.47200 24.29500
O  45.20200 36.53200 23.07200
C  46.11400 35.21600 24.73600
N  43.09900 41.51000 23.83900
C  43.52800 40.51900 23.00400
C  43.14100 40.66500 21.53800
C  42.60900 42.10200 21.58900
C  42.63700 42.52100 23.10000
C  44.28600 40.46400 20.46100
C  41.21900 42.35800 20.86400
C  41.16100 43.29700 19.65700
N  42.12800 43.26600 25.93000
C  41.89300 44.14200 24.88800
C  41.48500 45.43200 25.42800
C  41.41100 45.22100 26.81800
C  41.83600 43.89800 27.08500
C  41.17200 46.63700 24.58600
C  41.11100 45.81700 28.07000
O  40.71200 46.96200 28.25700
C  41.31800 44.76600 29.23100
C  42.37900 45.45700 30.01800
O  43.48600 45.78000 29.58800
O  41.90500 45.78500 31.32800
C  42.82100 46.54300 32.18200
H  44.13100 38.43400 29.12200
H  44.11200 38.59600 22.65500
H  42.01500 44.53600 22.83300
H  43.15300 42.63300 30.76400
H  42.38500 39.76100 30.61800
H  45.20700 40.12800 30.58100
H  44.32800 39.40900 31.86700
H  44.61700 41.22900 31.77900
H  40.17700 41.91600 30.72600
H  41.19700 43.09000 31.56600
H  41.73600 40.45400 32.69400
H  40.10000 40.59300 32.29000
H  46.20700 36.91900 28.10400
H  45.32600 35.52400 27.18900
H  44.54100 36.58400 28.39400
H  46.43700 34.55500 23.93200
H  45.44000 34.64600 25.37500
H  46.96100 35.56800 25.32600
H  42.35400 39.94800 21.30500
H  43.28800 42.76400 21.05100
H  45.28500 40.66700 20.84700
H  44.31100 41.13400 19.60200
H  44.20500 39.46900 20.02300
H  40.61300 42.86900 21.61100
H  40.72800 41.44000 20.54000
H  42.19400 43.42100 19.33200
H  40.76200 44.27000 19.94600
H  40.58800 42.82300 18.86000
H  41.10900 47.52400 25.21600
H  40.20300 46.44900 24.12300
H  41.93900 46.85300 23.84300
H  40.41700 44.57600 29.81400
H  42.73000 46.05800 33.15400
H  42.26900 47.48100 32.23600
H  43.86000 46.61200 31.86100

