158

Mg 41.44400 8.79900 30.11200
C  43.30900 10.13800 32.76800
C  39.11300 7.65400 32.49000
C  39.51000 7.67100 27.57600
C  43.96900 9.62600 27.89700
N  41.24700 8.74900 32.34400
C  42.12100 9.43700 33.22800
C  41.68600 9.29800 34.69700
C  40.42800 8.46800 34.57000
C  40.25200 8.24300 33.06100
C  40.39800 7.09900 35.45800
C  41.46800 10.71700 35.33500
C  40.39600 10.90500 36.36500
H  40.77400 11.99800 37.32800
N  39.50800 8.05600 30.00300
C  38.69300 7.54100 31.07000
C  37.48600 6.99200 30.59500
C  37.56700 7.15000 29.14400
C  38.88700 7.59800 28.82300
C  36.38000 6.28700 31.42500
C  36.49900 6.88100 28.09500
O  36.63000 6.94300 26.87800
C  35.11300 6.63200 28.54900
N  41.72500 8.53000 27.95600
C  40.83100 7.93000 27.13500
C  41.43500 7.91200 25.70900
C  42.69900 8.82100 25.76900
C  42.86400 8.90800 27.30700
C  41.65600 6.45000 25.23700
C  42.54700 10.20500 25.07000
C  41.27400 10.94800 25.39300
N  43.26400 9.58800 30.22700
C  44.23600 9.87300 29.27200
C  45.19500 10.77300 29.81700
C  44.89700 10.86500 31.14400
C  43.73300 10.14600 31.40000
C  46.38500 11.32000 29.01200
C  45.28500 11.60800 32.37200
O  46.15800 12.42200 32.52100
C  44.38100 11.06700 33.46800
C  45.17300 10.39000 34.47500
O  45.80100 9.37100 34.41500
O  45.11600 11.10500 35.61500
C  46.02400 10.80400 36.65900
H  38.24800 7.43900 33.12100
H  38.91100 7.27000 26.75600
H  44.71400 9.95700 27.17100
H  42.49700 8.87800 35.29200
H  39.57900 9.05300 34.92400
H  39.96400 7.37000 36.42000
H  41.39500 6.72700 35.69200
H  39.89800 6.29900 34.91300
H  41.31100 11.42500 34.52200
H  42.41300 10.95100 35.82500
H  40.18300 9.95100 36.84700
H  39.50200 11.24200 35.84000
H  36.75700 6.08700 32.42800
H  36.21600 5.30200 30.98800
H  35.42100 6.80300 31.47600
H  35.06500 5.63800 28.99200
H  34.29000 6.78500 27.85100
H  34.86600 7.40800 29.27400
H  40.72400 8.29200 24.97500
H  43.57400 8.37100 25.29900
H  40.86800 5.83100 25.66600
H  42.60500 6.02300 25.56200
H  41.50600 6.41000 24.15800
H  42.78100 10.17500 24.00500
H  43.33100 10.87500 25.42100
H  40.77100 10.41400 26.19900
H  40.67600 11.03100 24.48600
H  41.48400 11.92000 25.84000
H  46.79200 12.20300 29.50400
H  46.09100 11.53300 27.98400
H  47.15300 10.56900 28.82900
H  43.97500 12.02500 33.79000
H  45.57100 10.16900 37.42100
H  46.46300 11.62600 37.22400
H  46.91800 10.27600 36.32800
Mg 49.53700 45.62000 41.45800
C  46.17900 45.72200 40.32600
C  49.55900 42.17500 40.57000
C  52.89000 45.61600 41.47300
C  49.44600 49.17200 41.60100
N  48.04900 44.18200 40.50200
C  46.82200 44.49200 40.15000
C  46.19900 43.30100 39.47700
C  46.91200 42.12900 40.14100
C  48.29600 42.87400 40.40900
C  46.23500 41.42500 41.31100
C  46.23800 43.36500 37.83800
C  44.88600 43.24300 37.16900
H  44.68800 44.26200 36.02100
N  51.00900 44.09000 41.07000
C  50.86300 42.72100 40.81200
C  52.11900 42.06700 40.79000
C  53.06500 43.05200 41.08600
C  52.33100 44.37600 41.17800
C  52.24700 40.62100 40.49200
C  54.53100 42.74500 41.12700
O  54.95600 41.61800 40.82800
C  55.51500 43.78100 41.52100
N  50.99600 47.22300 41.49600
C  52.32400 46.90600 41.64600
C  53.17400 48.15500 41.71400
C  52.06500 49.30800 41.81500
C  50.75000 48.59500 41.62800
C  54.17000 48.05400 42.87800
C  52.27300 50.52900 40.90000
C  52.13900 51.93500 41.56500
N  48.09800 47.13900 41.37700
C  48.19900 48.56900 41.51000
C  46.87900 49.15900 41.40500
C  46.09400 48.04800 40.89800
C  46.82500 46.84900 40.97500
C  46.65700 50.68000 41.45500
C  44.75500 47.69200 40.39300
O  43.75900 48.40700 40.13200
C  44.78300 46.17500 40.02200
C  43.71200 45.61600 40.84400
O  43.61700 45.52000 42.06000
O  42.68000 45.32000 39.93400
C  41.38200 45.16800 40.52300
H  49.38200 41.10800 40.42100
H  53.98000 45.60800 41.41900
H  49.50800 50.24700 41.78400
H  45.19600 43.36800 39.89800
H  47.13600 41.30700 39.46200
H  45.19000 41.71800 41.21600
H  46.62300 41.70100 42.29100
H  46.16400 40.35400 41.11800
H  46.78600 42.50400 37.45500
H  46.80200 44.24700 37.53500
H  44.13500 43.54000 37.90000
H  44.60400 42.23900 36.85200
H  52.73500 40.60200 39.51800
H  51.31500 40.06100 40.42500
H  52.92800 40.05800 41.13200
H  55.15200 44.20800 42.45600
H  55.64900 44.57900 40.79100
H  56.51000 43.33800 41.56400
H  53.74700 48.32900 40.80300
H  52.09000 49.72200 42.82300
H  54.02100 47.07700 43.33800
H  54.24200 48.92900 43.52300
H  55.11500 48.22500 42.36200
H  51.53200 50.60400 40.10500
H  53.23700 50.43100 40.40100
H  53.14000 52.12800 41.95000
H  51.49200 51.85600 42.43900
H  51.86100 52.72500 40.86800
H  46.54800 51.08900 42.45900
H  45.67500 50.72100 40.98500
H  47.45600 51.13900 40.87300
H  44.77200 46.07100 38.93700
H  41.31000 44.27800 41.14900
H  40.65300 45.04200 39.72200
H  41.18100 46.03600 41.15000

