158

Mg 16.02500 -1.91900 27.68200
C  15.17900 0.17900 30.44600
C  17.98900 -3.83800 29.78100
C  17.33800 -3.42400 25.02600
C  14.34900 0.34000 25.67100
N  16.46200 -1.84300 29.81500
C  15.99100 -0.95400 30.80000
C  16.59600 -1.17400 32.20000
C  17.62500 -2.29500 31.90100
C  17.35500 -2.71700 30.37400
C  19.06600 -1.80800 32.01600
C  15.50800 -1.41200 33.35300
C  15.80600 -1.00800 34.86000
H  17.11300 -0.21800 35.20200
N  17.38500 -3.49700 27.39400
C  18.05800 -4.17600 28.41000
C  18.78000 -5.22500 27.86000
C  18.63700 -5.13700 26.43600
C  17.73300 -4.01400 26.21900
C  19.62800 -6.20200 28.71700
C  19.25300 -6.00100 25.41800
O  19.01500 -5.78700 24.26800
C  20.14700 -7.15100 25.67900
N  15.87300 -1.56700 25.64900
C  16.49000 -2.35600 24.71500
C  16.10500 -1.98500 23.28900
C  14.94600 -0.97000 23.50900
C  15.03900 -0.73600 25.05100
C  17.29400 -1.41900 22.43500
C  13.53100 -1.47600 23.11800
C  13.09100 -1.18800 21.71400
N  14.91100 -0.15300 27.97400
C  14.31600 0.66000 27.03200
C  13.59100 1.69100 27.63100
C  13.83700 1.56200 28.98900
C  14.68800 0.43000 29.16600
C  12.79300 2.69800 26.92900
C  13.55600 2.02700 30.33600
O  12.82300 2.88600 30.75600
C  14.54300 1.28200 31.31800
C  15.46100 2.24700 31.93000
O  16.43700 2.71000 31.34900
O  14.95300 2.70500 33.17900
C  15.79100 3.78400 33.77100
H  18.53200 -4.39600 30.54700
H  17.74500 -3.80900 24.08900
H  13.61400 0.91900 25.10600
H  16.93100 -0.15100 32.37100
H  17.47000 -3.19000 32.50300
H  19.49000 -1.71900 31.01600
H  19.73100 -2.46400 32.57800
H  19.07000 -0.85000 32.53600
H  15.31800 -2.48600 33.35900
H  14.58200 -0.94300 33.01900
H  15.74600 -1.94100 35.42100
H  14.87300 -0.55700 35.19800
H  19.39900 -7.24400 28.49300
H  19.35100 -6.14800 29.77000
H  20.70400 -6.06400 28.61200
H  21.13600 -6.97300 26.10200
H  20.43100 -7.58200 24.71900
H  19.65100 -7.86000 26.34100
H  15.79000 -2.89100 22.77100
H  15.17800 -0.03500 23.00000
H  17.14700 -0.34600 22.31300
H  17.44600 -1.98500 21.51500
H  18.20900 -1.54200 23.01500
H  12.74300 -1.06100 23.74700
H  13.60300 -2.56100 23.19600
H  12.10400 -0.78000 21.93100
H  13.14000 -2.07600 21.08300
H  13.73700 -0.45100 21.23600
H  13.24400 2.85600 25.94900
H  12.75000 3.66100 27.43900
H  11.75300 2.38700 26.83000
H  13.93900 0.85700 32.12000
H  15.76400 3.82400 34.86000
H  15.67700 4.79900 33.38900
H  16.85300 3.66400 33.55300
Mg 49.54800 47.06600 44.09000
C  46.33600 47.20300 42.95500
C  50.01300 44.20100 42.28700
C  52.84100 47.32600 44.65700
C  49.30800 50.41300 45.09200
N  48.33800 45.96300 42.65100
C  47.04700 46.06900 42.49700
C  46.47400 44.94300 41.61300
C  47.60200 43.92800 41.57300
C  48.73200 44.72400 42.20000
C  47.36900 42.57200 42.23700
C  45.97700 45.50200 40.22800
C  44.73900 44.80200 39.69900
H  44.33200 44.69700 38.18600
N  51.20300 45.78200 43.64200
C  51.18800 44.63800 42.97700
C  52.51400 44.11000 42.93600
C  53.28500 44.89700 43.81900
C  52.44900 46.07500 44.06000
C  52.96200 43.01400 42.03100
C  54.71400 44.59800 44.31400
O  55.27500 43.56800 43.86700
C  55.51200 45.35700 45.33800
N  50.97100 48.72900 44.56500
C  52.23600 48.51200 44.85000
C  53.00500 49.73400 45.33400
C  51.83400 50.72700 45.64300
C  50.60700 49.94200 45.03000
C  53.91100 49.61100 46.62000
C  52.07600 52.10900 44.97100
C  52.08200 53.35800 45.86900
N  48.09900 48.52000 44.18700
C  48.19900 49.82800 44.59300
C  46.86900 50.41100 44.51400
C  46.06100 49.38900 43.88800
C  46.95100 48.29500 43.69600
C  46.52200 51.79400 44.95300
C  44.80200 49.01000 43.37500
O  43.69500 49.58500 43.44400
C  44.92000 47.61000 42.71500
C  43.98000 46.73800 43.42300
O  44.24500 46.17300 44.47500
O  42.86800 46.43900 42.65800
C  41.94600 45.45100 43.27000
H  50.08500 43.18000 41.90600
H  53.90500 47.36100 44.90000
H  49.10400 51.40800 45.49300
H  45.64600 44.59800 42.23300
H  47.87100 43.69200 40.54300
H  46.36400 42.22400 41.99900
H  47.48900 42.52100 43.31900
H  48.02100 41.82100 41.79200
H  46.84300 45.38300 39.57700
H  45.82900 46.58200 40.23600
H  43.87300 45.14600 40.26500
H  44.72800 43.75100 39.98700
H  53.94700 43.24000 41.62100
H  52.23200 42.83900 41.24100
H  53.14900 42.10600 42.60400
H  56.07000 46.17000 44.87300
H  56.12200 44.62100 45.86200
H  54.73000 45.67800 46.02600
H  53.41400 50.06000 44.37800
H  51.57800 50.95600 46.67800
H  53.91400 50.48700 47.26800
H  54.94800 49.49200 46.30700
H  53.68200 48.72100 47.20700
H  51.34900 52.36400 44.20000
H  52.98400 52.04000 44.37200
H  52.25600 53.14000 46.92300
H  51.28300 54.05600 45.62100
H  53.04300 53.79500 45.59800
H  46.93600 52.63200 44.39200
H  46.97100 51.89800 45.94100
H  45.44200 51.67700 44.86400
H  44.61500 47.67800 41.67100
H  41.59600 44.81900 42.45400
H  41.11500 45.96200 43.75700
H  42.44100 44.74600 43.93800

