158

Mg 8.98900 2.95200 27.60300
C  10.21400 1.39100 30.37400
C  7.05300 4.97000 29.56200
C  7.94400 4.20500 24.77900
C  10.68800 0.43900 25.64500
N  8.61700 3.08500 29.77500
C  9.37100 2.48100 30.71400
C  9.06000 3.04700 32.06700
C  7.90500 4.05100 31.79000
C  7.72800 3.98000 30.28000
C  6.59800 3.84700 32.59200
C  10.30200 3.50700 32.93800
C  10.09800 4.55900 34.14200
H  10.85300 4.30700 35.51700
N  7.64400 4.39100 27.23700
C  6.93500 5.12700 28.14400
C  6.22100 6.11000 27.49800
C  6.50000 5.98800 26.08400
C  7.37300 4.81100 25.97000
C  5.45300 7.24500 28.16400
C  6.03900 6.80700 24.91800
O  6.62800 6.84100 23.82600
C  4.96000 7.93200 25.10000
N  9.44100 2.53500 25.47000
C  8.79200 3.15900 24.49900
C  8.96300 2.42100 23.12500
C  10.09200 1.44500 23.44100
C  10.05500 1.43400 24.96400
C  7.67900 1.82800 22.64000
C  11.55300 1.92200 22.97700
C  12.15600 1.06500 21.81600
N  10.25900 1.31700 27.86200
C  10.87000 0.43400 27.01300
C  11.67300 -0.51200 27.66000
C  11.50900 -0.12600 29.01900
C  10.58300 0.95100 29.05900
C  12.45200 -1.56100 27.06100
C  11.92700 -0.36200 30.38400
O  12.70700 -1.15100 30.84200
C  11.09800 0.57900 31.30500
C  10.59600 -0.14300 32.39500
O  9.51400 -0.70400 32.37900
O  11.41600 -0.05000 33.45700
C  10.82500 -0.44700 34.76000
H  6.49100 5.63100 30.22500
H  7.61600 4.64600 23.83600
H  11.19700 -0.35400 25.09300
H  8.68500 2.17500 32.60300
H  8.17300 5.09400 31.95500
H  6.86300 3.17400 33.40700
H  5.79000 3.39200 32.01800
H  6.13800 4.76200 32.96500
H  11.07400 4.05500 32.39700
H  10.72100 2.59600 33.36400
H  9.04000 4.66000 34.38200
H  10.24900 5.59400 33.83600
H  5.90800 8.22100 27.99800
H  5.41400 7.09600 29.24300
H  4.45300 7.27500 27.73100
H  3.98300 7.45900 25.19700
H  5.00500 8.68300 24.31200
H  5.12300 8.60000 25.94500
H  9.21300 3.10600 22.31500
H  9.77200 0.46300 23.09400
H  7.40400 2.39000 21.74700
H  6.83400 1.83300 23.32900
H  7.94200 0.85300 22.22900
H  12.23200 1.83500 23.82500
H  11.53500 2.98300 22.73100
H  13.12400 0.71100 22.17000
H  12.30400 1.68100 20.92900
H  11.50700 0.28700 21.41500
H  13.05000 -1.03100 26.31900
H  11.74000 -2.22200 26.56700
H  13.08600 -2.06900 27.78600
H  11.78900 1.30600 31.73200
H  10.25200 -1.34800 34.54100
H  10.15100 0.24600 35.26300
H  11.62500 -0.86500 35.37100
Mg -10.43600 39.73400 41.60900
C  -9.55600 36.54700 40.63700
C  -7.33900 40.89100 40.38100
C  -11.45500 42.88200 41.95600
C  -13.62900 38.63500 42.35000
N  -8.64800 38.81700 40.60700
C  -8.52300 37.43300 40.30800
C  -7.14100 37.10000 39.69200
C  -6.52200 38.48000 39.68000
C  -7.55900 39.44900 40.25800
C  -5.05200 38.64400 40.12900
C  -7.11500 36.36000 38.35100
C  -5.96500 35.48000 37.94600
H  -4.95600 36.01800 36.88500
N  -9.44400 41.63300 41.31300
C  -8.22000 41.91200 40.82900
C  -8.02900 43.32800 40.87300
C  -9.17300 43.93100 41.29400
C  -10.10500 42.77800 41.57400
C  -6.68000 43.91700 40.43800
C  -9.49400 45.37000 41.44100
O  -8.62800 46.21700 41.30300
C  -10.78100 46.06700 41.76600
N  -12.36700 40.59900 41.77000
C  -12.46800 41.94500 42.02400
C  -13.94100 42.37700 42.30200
C  -14.64600 40.98800 42.49900
C  -13.52200 39.99700 42.18500
C  -14.21800 43.43200 43.35800
C  -15.95900 40.66200 41.64000
C  -17.23800 40.54300 42.44100
N  -11.32900 37.96000 41.72300
C  -12.62400 37.65400 42.08400
C  -12.81100 36.16600 42.02500
C  -11.62300 35.74800 41.43100
C  -10.78100 36.83300 41.31700
C  -14.06300 35.35400 42.26500
C  -10.92000 34.54000 40.93800
O  -11.28000 33.41900 40.95200
C  -9.53800 35.06600 40.41500
C  -8.42600 34.28300 41.08900
O  -7.98600 34.42500 42.24500
O  -7.99800 33.33000 40.26000
C  -7.16300 32.21100 40.65800
H  -6.32500 41.08300 40.02400
H  -11.72200 43.86800 42.34300
H  -14.56000 38.22400 42.74600
H  -6.63300 36.48900 40.43800
H  -6.36300 38.82100 38.65700
H  -4.58600 39.31500 39.40700
H  -4.54200 37.68400 40.21100
H  -5.03000 39.06200 41.13600
H  -7.11500 37.17400 37.62500
H  -8.08000 35.88300 38.18000
H  -6.28500 34.50900 37.56900
H  -5.42600 35.16700 38.84100
H  -5.88100 43.22500 40.70400
H  -6.27400 44.82900 40.87600
H  -6.61900 44.08600 39.36300
H  -11.52500 45.66200 41.08000
H  -10.76100 47.14700 41.62000
H  -11.05500 45.89900 42.80700
H  -14.37500 42.80000 41.39600
H  -14.82900 40.91000 43.57000
H  -14.65400 42.96700 44.24200
H  -14.89700 44.20900 43.00700
H  -13.38400 43.93700 43.84500
H  -15.73200 39.71000 41.16000
H  -15.94800 41.45100 40.88700
H  -18.02300 41.09300 41.92300
H  -17.06600 40.92800 43.44600
H  -17.55000 39.50100 42.51100
H  -14.68200 35.43100 41.37100
H  -14.55000 35.72800 43.16600
H  -13.87900 34.29200 42.42600
H  -9.64700 34.75800 39.37500
H  -7.65100 31.27400 40.38800
H  -6.86300 32.27900 41.70300
H  -6.25500 32.28800 40.05900

