158

Mg 0.28800 7.80100 26.46300
C  1.16300 9.56500 29.45100
C  0.07600 4.80900 28.31300
C  -0.18300 6.23200 23.58600
C  0.54600 10.90500 24.71900
N  0.53300 7.33600 28.57400
C  0.97700 8.16700 29.64400
C  0.71700 7.45500 31.00500
C  0.75600 5.99700 30.56100
C  0.35400 6.02600 29.06100
C  2.01500 5.12100 30.90900
C  -0.60300 8.00600 31.55800
C  -0.76200 8.00300 33.06500
H  0.53500 7.69100 33.88300
N  0.04100 5.82200 26.02400
C  -0.14700 4.79100 26.88600
C  -0.76800 3.69700 26.16200
C  -0.80100 4.03700 24.80300
C  -0.30600 5.41500 24.74600
C  -1.35500 2.43800 26.89600
C  -1.41500 3.26600 23.58900
O  -1.22100 3.56700 22.37800
C  -2.15800 2.04500 23.88800
N  0.29600 8.41900 24.49200
C  0.04700 7.54400 23.46300
C  -0.03300 8.26900 22.14500
C  -0.16400 9.77200 22.56800
C  0.22500 9.76300 23.99800
C  1.15100 7.96500 21.12400
C  -1.56800 10.47200 22.48000
C  -1.74000 11.46000 21.37800
N  0.85700 9.75300 26.89800
C  0.91500 10.93800 26.09800
C  1.34800 12.04200 26.89700
C  1.42800 11.52400 28.18500
C  1.12400 10.19100 28.16700
C  1.55000 13.41700 26.38700
C  1.77800 11.87500 29.52600
O  2.22700 12.92900 29.89700
C  1.60600 10.66400 30.41300
C  2.82800 10.43900 31.24400
O  3.75800 9.67400 30.96000
O  2.63500 11.12000 32.39400
C  3.61000 10.86700 33.46500
H  -0.01600 3.88100 28.88100
H  -0.30800 5.73300 22.62300
H  0.69400 11.86400 24.21900
H  1.57300 7.71300 31.62800
H  -0.06000 5.47700 31.06300
H  2.67400 5.59600 31.63600
H  2.64800 5.08400 30.02200
H  1.82800 4.10300 31.24800
H  -1.43000 7.47900 31.08200
H  -0.72400 9.06800 31.34300
H  -1.53100 7.25600 33.26400
H  -1.06300 8.96500 33.47900
H  -2.03300 2.83200 27.65200
H  -0.44900 2.00100 27.31600
H  -1.98900 1.74300 26.34600
H  -2.63300 1.50600 23.06800
H  -3.02600 2.37500 24.45900
H  -1.49200 1.32000 24.35600
H  -0.99600 8.00200 21.71000
H  0.57200 10.39600 22.06200
H  0.75400 7.32900 20.33300
H  1.88100 7.39400 21.69600
H  1.58500 8.91100 20.80100
H  -1.69100 11.03600 23.40400
H  -2.36900 9.75900 22.28400
H  -0.87600 11.37800 20.72000
H  -1.60100 12.47900 21.73800
H  -2.65600 11.43900 20.78800
H  1.86300 14.10800 27.16900
H  0.64300 13.79800 25.91700
H  2.33700 13.46300 25.63400
H  0.76700 10.98100 31.03300
H  4.34200 10.12300 33.15000
H  3.13000 10.52400 34.38200
H  4.18100 11.76100 33.71500
Mg 1.18200 42.62500 25.49800
C  2.09700 42.56500 29.06200
C  -1.61300 40.85200 26.46900
C  0.77100 41.77500 22.26900
C  4.27700 43.85200 24.82900
N  0.31300 41.96100 27.57900
C  0.80000 42.02600 28.82800
C  -0.19200 41.51700 29.90600
C  -1.22600 40.83200 28.94700
C  -0.77200 41.14000 27.55800
C  -1.34900 39.23600 29.13000
C  -0.76900 42.71900 30.74300
C  -0.85300 42.51700 32.25800
H  -1.42500 41.19400 32.83500
N  -0.35000 41.72500 24.45200
C  -1.45300 41.05000 25.03100
C  -2.32800 40.59700 23.97600
C  -1.65700 40.89300 22.70000
C  -0.31700 41.49800 23.06000
C  -3.68900 39.95400 24.31100
C  -2.05300 40.63300 21.26300
O  -1.35700 40.85300 20.27900
C  -3.48700 40.17300 20.98700
N  2.36500 42.69000 23.83200
C  1.98800 42.30300 22.61100
C  3.13500 42.50700 21.63300
C  4.04800 43.56200 22.33400
C  3.49900 43.46900 23.72800
C  3.82100 41.11300 21.27600
C  3.92400 45.05000 21.87200
C  2.50200 45.58400 21.77800
N  2.81100 43.26000 26.65400
C  4.06800 43.74600 26.22200
C  4.88800 44.00800 27.34200
C  4.15000 43.54200 28.45100
C  2.92000 43.08200 28.01200
C  6.28600 44.60700 27.30400
C  4.15700 43.36000 29.94500
O  5.02500 43.67400 30.76700
C  2.82400 42.70400 30.31500
C  3.03800 41.52400 31.08500
O  3.74800 40.57300 30.72800
O  2.28600 41.56800 32.22000
C  2.21700 40.38200 33.04700
H  -2.51200 40.36700 26.85500
H  0.75400 41.53000 21.20500
H  5.26800 44.16100 24.48900
H  0.26100 40.77700 30.56500
H  -2.21100 41.28500 29.06200
H  -2.39300 39.05700 29.38900
H  -0.72000 38.85100 29.93200
H  -1.14700 38.70400 28.20000
H  -1.74600 43.01200 30.35700
H  -0.15700 43.61000 30.60300
H  -1.53700 43.25900 32.67100
H  0.14800 42.74100 32.62600
H  -3.80800 39.35800 25.21600
H  -3.80600 39.22600 23.50900
H  -4.52100 40.65700 24.27100
H  -4.27400 40.60700 21.60400
H  -3.60600 39.09300 21.07400
H  -3.74200 40.39100 19.94900
H  2.79200 42.95200 20.69900
H  5.07400 43.19600 22.28800
H  3.15000 40.27200 21.44700
H  4.68800 41.01400 21.92900
H  4.11400 41.05800 20.22700
H  4.20100 44.91100 20.82700
H  4.78900 45.56500 22.28900
H  2.40700 45.78900 20.71100
H  2.42800 46.48600 22.38600
H  1.67400 44.96500 22.12200
H  6.33800 45.64800 26.98300
H  7.01300 44.01700 26.74600
H  6.69400 44.59200 28.31500
H  2.30700 43.38000 30.99600
H  2.10600 39.43000 32.52900
H  1.43800 40.47000 33.80500
H  3.14800 40.25700 33.60000

