158

Mg 42.18800 40.96800 26.79700
C  41.45000 43.48000 29.13400
C  43.13300 38.97500 29.41600
C  43.03800 38.58300 24.46900
C  41.38700 43.21500 24.23400
N  42.35100 41.27500 29.04800
C  41.87500 42.35000 29.78300
C  42.02200 42.07400 31.26400
C  42.76200 40.73200 31.28100
C  42.73000 40.28400 29.84300
C  44.19500 40.81900 31.93000
C  40.59700 41.96100 31.91200
C  40.48900 42.70300 33.21300
H  39.85000 41.91800 34.41900
N  42.74600 38.96900 26.93900
C  43.19600 38.38000 28.14200
C  43.53400 37.00100 27.81000
C  43.48700 36.81500 26.39600
C  43.00600 38.10800 25.81100
C  43.86900 35.92000 28.87200
C  43.85600 35.57500 25.57800
O  43.55800 35.51100 24.38100
C  44.42700 34.37100 26.21500
N  42.36900 40.95700 24.62600
C  42.63800 39.82200 23.87500
C  42.44100 40.17400 22.33800
C  41.68400 41.53400 22.32300
C  41.82300 41.92500 23.85700
C  43.87100 40.28400 21.74000
C  40.13600 41.40800 21.96400
C  39.38400 40.20100 22.57700
N  41.74300 42.99800 26.61700
C  41.31800 43.71300 25.53100
C  40.93900 45.03400 25.98900
C  40.94200 45.03800 27.41700
C  41.37500 43.72600 27.74500
C  40.53100 46.19400 25.21100
C  40.76400 45.84000 28.66000
O  40.46900 46.99600 28.81800
C  40.88500 44.73500 29.73200
C  41.73600 45.35000 30.81600
O  42.90800 45.49400 30.81100
O  40.88900 45.89200 31.74100
C  41.59800 46.34000 33.02600
H  43.38700 38.31700 30.25000
H  43.09700 37.89900 23.62000
H  41.21700 43.95000 23.44600
H  42.59200 42.87000 31.74300
H  42.09400 40.06900 31.83000
H  44.33800 40.08500 32.72300
H  44.54300 41.82600 32.15900
H  44.93900 40.48100 31.20800
H  40.33300 40.92700 32.13200
H  39.89400 42.41300 31.21200
H  39.91100 43.60500 33.01000
H  41.48900 43.03100 33.49700
H  44.93100 35.73900 28.70500
H  43.34300 34.96600 28.86400
H  43.75900 36.36000 29.86300
H  43.94300 34.05800 27.14000
H  45.49600 34.51600 26.36900
H  44.42600 33.50800 25.54900
H  41.97400 39.38000 21.75400
H  42.11200 42.32700 21.70800
H  43.94600 39.46400 21.02600
H  44.65700 40.30800 22.49400
H  44.05300 41.18200 21.15100
H  40.16000 41.44800 20.87500
H  39.61400 42.35300 22.11300
H  38.86800 39.66000 21.78400
H  38.54700 40.55700 23.17900
H  39.96300 39.69100 23.34600
H  39.79600 46.69100 25.84400
H  40.03600 45.88300 24.29100
H  41.39600 46.83000 25.02300
H  39.90800 44.52500 30.16700
H  41.91600 45.61900 33.77900
H  40.97200 46.98400 33.64400
H  42.43800 46.97900 32.75300
Mg 36.52300 49.12700 25.78500
C  36.67700 47.09900 28.74400
C  35.69500 51.71600 27.80100
C  36.07100 50.88300 23.01500
C  36.88900 46.15500 23.94500
N  36.31400 49.37100 28.01400
C  36.44400 48.43800 28.97800
C  36.30300 49.05900 30.29300
C  35.65500 50.49800 30.07100
C  35.85400 50.55800 28.57700
C  34.19100 50.64000 30.46700
C  37.62200 49.16800 31.03600
C  37.57600 49.10500 32.60300
H  36.19400 49.35000 33.25700
N  36.18400 51.11800 25.44600
C  35.87400 51.99500 26.43000
C  35.69900 53.36000 25.75900
C  35.86600 53.09800 24.30500
C  36.03600 51.65000 24.17400
C  35.44600 54.72900 26.48400
C  35.78200 54.06000 23.10800
O  35.80300 53.66900 21.93600
C  35.76100 55.54100 23.35600
N  36.33100 48.56300 23.80700
C  36.17000 49.45800 22.78700
C  36.31300 48.81400 21.35500
C  36.90700 47.42900 21.72300
C  36.61400 47.32800 23.23900
C  34.94000 48.73600 20.72700
C  38.49600 47.29400 21.51600
C  39.02700 47.11300 20.08100
N  36.69700 47.04900 26.14900
C  36.97800 46.00200 25.34000
C  37.28100 44.76300 26.03500
C  37.08200 45.15200 27.39400
C  36.79500 46.52700 27.41200
C  37.61100 43.46300 25.46100
C  37.11000 44.66300 28.73600
O  37.27700 43.51700 29.12700
C  36.92000 45.94100 29.66600
C  35.70000 45.70100 30.54500
O  34.58500 45.53100 30.18200
O  36.08300 45.75500 31.85900
C  35.02700 45.52200 32.83700
H  35.37800 52.63300 28.30300
H  36.10100 51.43800 22.07500
H  37.28200 45.29200 23.40200
H  35.59700 48.51400 30.91900
H  36.11700 51.24600 30.71600
H  33.57800 50.77600 29.57500
H  34.12200 51.54700 31.06700
H  33.94100 49.88200 31.20900
H  38.06600 50.11100 30.71800
H  38.26400 48.36600 30.67200
H  38.27100 49.88500 32.91600
H  37.95200 48.11500 32.86100
H  34.73700 55.31500 25.90100
H  36.34600 55.33900 26.55900
H  34.91500 54.56900 27.42200
H  36.56400 55.64300 24.08600
H  34.75600 55.82600 23.66800
H  36.02600 56.01900 22.41200
H  37.02700 49.34500 20.72400
H  36.29600 46.65400 21.26000
H  34.42200 47.79000 20.88100
H  34.94000 48.98800 19.66600
H  34.37000 49.41900 21.35700
H  38.68500 46.37300 22.06800
H  38.96500 48.19600 21.91100
H  38.22200 47.39100 19.40100
H  39.16800 46.03200 20.08300
H  39.85800 47.77500 19.83800
H  38.61700 43.39900 25.04700
H  36.87000 43.15200 24.72400
H  37.56100 42.70900 26.24600
H  37.78700 46.06500 30.31500
H  34.10500 46.03700 32.56900
H  35.43800 45.79600 33.80800
H  34.64400 44.50100 32.85500

