158

Mg 25.36100 -6.13700 47.33800
C  26.80800 -3.04400 46.27800
C  22.90300 -5.79300 45.07400
C  24.52700 -9.25000 48.21200
C  28.46100 -6.63800 49.17200
N  24.98200 -4.63100 45.86700
C  25.71000 -3.46600 45.56100
C  25.09200 -2.74700 44.43800
C  23.68900 -3.50300 44.17200
C  23.82800 -4.72000 45.14900
C  22.46000 -2.60300 44.48000
C  26.10300 -2.90200 43.25400
C  26.26200 -1.66800 42.39000
H  25.38300 -1.63100 41.15300
N  23.88800 -7.38400 46.73500
C  22.93500 -7.03900 45.84500
C  21.99400 -8.07100 45.69000
C  22.52500 -9.09700 46.51800
C  23.68400 -8.60200 47.25100
C  20.82800 -8.06300 44.68900
C  21.93800 -10.45600 46.60800
O  20.88300 -10.81400 46.05700
C  22.54100 -11.50600 47.39400
N  26.50200 -7.82100 48.37400
C  25.80500 -8.91600 48.68500
C  26.56600 -9.82200 49.69100
C  27.79800 -8.99300 50.05100
C  27.59500 -7.77000 49.12400
C  25.84600 -10.11400 51.02900
C  29.11400 -9.82100 49.71000
C  30.10000 -10.13700 50.80100
N  27.21700 -5.10500 47.71600
C  28.34500 -5.42000 48.50100
C  29.18700 -4.27200 48.56700
C  28.60400 -3.33400 47.68800
C  27.45900 -3.87500 47.20100
C  30.50400 -4.15300 49.43100
C  28.78000 -1.93700 47.19100
O  29.60600 -1.10000 47.42100
C  27.63800 -1.72000 46.26800
C  26.80600 -0.49900 46.60200
O  26.77400 0.54900 45.98800
O  26.16500 -0.76300 47.81800
C  25.31400 0.26500 48.29100
H  22.12000 -5.60900 44.33500
H  24.27000 -10.17200 48.73600
H  29.32600 -6.76100 49.82700
H  24.85200 -1.70300 44.64400
H  23.67300 -3.83300 43.13300
H  22.60600 -1.64100 44.97200
H  21.74100 -3.16400 45.07700
H  21.94200 -2.42600 43.53800
H  25.90700 -3.63800 42.47500
H  27.07300 -3.21500 43.63900
H  27.33500 -1.69100 42.19700
H  26.23100 -0.66600 42.81800
H  20.75500 -7.03900 44.32200
H  19.84900 -8.34900 45.07600
H  21.09100 -8.79400 43.92500
H  23.53900 -11.63000 46.97400
H  22.06900 -12.44400 47.09900
H  22.60300 -11.22000 48.44400
H  26.77300 -10.71000 49.09400
H  27.95100 -8.64600 51.07300
H  25.31800 -11.06500 50.94900
H  25.22800 -9.32300 51.45500
H  26.60000 -10.36200 51.77600
H  29.68800 -9.12700 49.09600
H  28.93600 -10.74600 49.16200
H  30.13400 -11.22400 50.73900
H  29.78500 -9.89400 51.81600
H  31.07000 -9.71400 50.54100
H  31.38100 -4.27500 48.79400
H  30.68100 -4.91400 50.19100
H  30.43400 -3.16300 49.88100
H  28.06200 -1.63200 45.26800
H  24.40600 0.20700 47.69100
H  25.77100 1.25000 48.38700
H  25.12000 -0.02900 49.32200
Mg 17.04100 52.69000 26.86100
C  18.96000 51.08600 29.24900
C  14.76200 53.50000 29.22400
C  15.17300 53.96200 24.47000
C  19.22300 51.27100 24.41000
N  16.84800 52.26500 29.02400
C  17.80300 51.69400 29.84400
C  17.49200 51.84300 31.24000
C  15.99000 52.47000 31.20900
C  15.83200 52.75700 29.71300
C  14.89200 51.55400 31.67600
C  18.49200 52.89400 31.82600
C  18.26000 53.54900 33.17300
H  17.38900 52.78200 34.13700
N  15.22800 53.59400 26.85300
C  14.49500 53.90500 27.95100
C  13.34200 54.74100 27.55300
C  13.33800 54.83400 26.14800
C  14.63800 54.15000 25.78100
C  12.39900 55.27600 28.54000
C  12.26500 55.58400 25.29500
O  12.31500 55.59900 24.04400
C  11.05200 56.25900 25.95300
N  17.12700 52.51600 24.70600
C  16.26400 53.19200 23.96100
C  16.64700 53.19500 22.50100
C  17.91300 52.29600 22.43400
C  18.15300 52.02900 23.93300
C  15.51800 52.54300 21.58900
C  19.10600 52.89000 21.68800
C  19.10400 52.54900 20.17500
N  18.67500 51.37600 26.79400
C  19.46600 50.92700 25.73200
C  20.58000 50.18700 26.20200
C  20.37800 50.11600 27.59800
C  19.22500 50.90300 27.90300
C  21.60100 49.50600 25.36800
C  20.97100 49.68600 28.87200
O  21.90100 48.90200 29.11600
C  20.07100 50.26800 30.03300
C  19.48800 49.19500 30.85700
O  18.91800 48.20100 30.45600
O  19.61100 49.51500 32.19400
C  19.26800 48.44000 33.18400
H  14.01100 53.75000 29.97600
H  14.59100 54.47600 23.70200
H  19.88000 50.83900 23.65200
H  17.54000 50.85200 31.69200
H  15.92200 53.38900 31.79300
H  14.71800 51.85100 32.71100
H  15.34800 50.56900 31.57900
H  14.01400 51.61200 31.03300
H  18.57100 53.69500 31.09200
H  19.42200 52.33900 31.94900
H  17.80900 54.53500 33.06500
H  19.21300 53.83100 33.62100
H  12.48400 56.36200 28.51600
H  12.71300 55.05400 29.56000
H  11.37700 54.98000 28.30200
H  10.47000 55.56500 26.55800
H  10.41400 56.55100 25.11800
H  11.27000 57.13400 26.56400
H  16.84400 54.25600 22.34500
H  17.74600 51.28500 22.06400
H  14.82100 52.03500 22.25600
H  15.89500 51.78000 20.90800
H  14.99600 53.31200 21.01900
H  20.07400 52.51500 22.01800
H  19.13000 53.95500 21.92300
H  19.29900 53.46300 19.61300
H  18.09700 52.27000 19.86400
H  19.85200 51.80500 19.90200
H  21.01400 48.65000 25.03500
H  22.44200 49.06000 25.89800
H  21.89100 50.25600 24.63100
H  20.77300 50.66700 30.76600
H  19.58800 48.89400 34.12100
H  19.72000 47.46500 33.00200
H  18.18200 48.34300 33.19100

