158

Mg 26.24800 1.81900 29.17000
C  27.96300 1.43600 32.10500
C  23.26900 1.76000 31.09500
C  24.39300 1.73200 26.32100
C  29.17400 1.26800 27.36300
N  25.75200 1.65300 31.34600
C  26.60800 1.57700 32.37500
C  25.95300 1.55200 33.73100
C  24.42500 1.37200 33.38100
C  24.44900 1.60900 31.83700
C  23.85500 -0.02700 33.85900
C  26.30300 2.81700 34.61300
C  26.88100 2.48900 35.96600
H  26.85600 3.54900 37.10000
N  24.14500 1.88700 28.71700
C  23.11000 1.86800 29.66200
C  21.82500 1.88500 28.92600
C  22.14300 1.96700 27.54700
C  23.59000 1.87600 27.46900
C  20.50000 1.94900 29.63600
C  21.22100 2.09200 26.38400
O  21.61300 2.10900 25.21900
C  19.66600 2.22200 26.60300
N  26.68400 1.36300 27.10900
C  25.75600 1.55100 26.12800
C  26.38500 1.58300 24.71600
C  27.90200 1.67500 25.10800
C  27.94200 1.47700 26.63400
C  26.06100 0.33400 23.84800
C  28.57500 3.02000 24.57700
C  28.21000 4.37300 25.14400
N  28.15500 1.39600 29.55600
C  29.30300 1.24000 28.74100
C  30.47900 1.14700 29.57700
C  30.02800 1.20400 30.92200
C  28.58100 1.36200 30.83300
C  31.88300 0.90800 29.20300
C  30.44500 1.20300 32.22600
O  31.58900 1.03400 32.61900
C  29.20500 1.41600 33.08800
C  29.03500 0.20600 34.09500
O  28.39300 -0.85400 34.04200
O  29.81100 0.56800 35.19800
C  29.68600 -0.31700 36.41000
H  22.33000 1.78200 31.65300
H  23.82300 1.74300 25.39000
H  30.03100 1.20100 26.69000
H  26.34400 0.63000 34.16200
H  23.85600 2.08700 33.97600
H  24.51100 -0.48900 34.59600
H  23.85400 -0.64700 32.96200
H  22.87400 0.06300 34.32400
H  25.43000 3.45500 34.75300
H  26.99500 3.45600 34.06300
H  27.91800 2.15200 35.96000
H  26.22900 1.72800 36.39500
H  20.47600 2.04800 30.72100
H  19.98200 1.08000 29.22900
H  20.02600 2.85100 29.24900
H  19.27200 1.43600 27.24800
H  19.08200 2.13900 25.68600
H  19.63900 3.23200 27.01200
H  26.13000 2.46300 24.12500
H  28.51200 0.83400 24.77700
H  26.92200 -0.23600 23.50000
H  25.69200 0.74400 22.90800
H  25.28800 -0.22300 24.37900
H  28.41200 3.13300 23.50500
H  29.65800 2.90200 24.55100
H  27.98300 5.01000 24.29000
H  29.01200 4.79200 25.75200
H  27.37900 4.35500 25.84900
H  32.03700 -0.10300 29.57900
H  32.43500 1.67500 29.74700
H  32.07500 0.95400 28.13100
H  29.34500 2.23000 33.79900
H  28.69600 -0.40000 36.85800
H  30.41400 0.11500 37.09800
H  30.01800 -1.30800 36.10200
Mg 49.16600 45.83900 43.61700
C  45.85100 46.68300 42.57500
C  48.50500 42.65400 42.11600
C  52.41000 45.12300 43.58200
C  49.65700 49.00800 44.62600
N  47.37200 44.83200 42.51900
C  46.13400 45.40500 42.15700
C  45.25600 44.45800 41.29900
C  46.08000 43.11200 41.23900
C  47.38000 43.50800 42.04500
C  45.41200 41.76400 41.57600
C  44.94600 45.05500 39.91300
C  43.68200 44.54200 39.14800
H  43.97700 43.19500 38.29300
N  50.29300 44.03500 43.11200
C  49.84200 42.83500 42.54600
C  50.98000 41.87700 42.46100
C  52.12200 42.57900 42.95200
C  51.63500 43.99700 43.22100
C  50.66900 40.50900 41.94700
C  53.60600 41.93500 42.98400
O  53.81000 40.76300 42.61300
C  54.80300 42.80300 43.38400
N  50.86900 46.94500 43.83900
C  52.14300 46.47300 43.88200
C  53.14800 47.50300 44.40700
C  52.23100 48.76500 44.79000
C  50.82900 48.25500 44.42500
C  54.09700 47.01800 45.49500
C  52.66400 50.09200 44.18900
C  52.29600 51.35700 44.95000
N  47.99400 47.51000 43.72800
C  48.28600 48.72900 44.28700
C  47.07600 49.60000 44.24800
C  46.12200 48.78000 43.67700
C  46.72500 47.57400 43.25200
C  47.00800 51.00100 44.82600
C  44.73700 48.67800 43.35900
O  43.91200 49.55100 43.59300
C  44.43500 47.37400 42.55700
C  43.45400 46.52800 43.33900
O  43.61500 46.05700 44.45200
O  42.42500 46.24600 42.49300
C  41.49600 45.21800 42.95000
H  48.20400 41.69900 41.68100
H  53.46200 44.83100 43.58900
H  49.90400 50.00900 44.98600
H  44.25200 44.22000 41.65100
H  46.49300 43.06500 40.23200
H  45.57100 41.08000 40.74300
H  44.38200 41.91300 41.90000
H  45.93300 41.22100 42.36500
H  45.80300 44.88400 39.26200
H  44.84500 46.13100 40.05500
H  43.29600 45.39200 38.58500
H  42.99200 44.21400 39.92500
H  50.09800 40.47900 41.01900
H  50.34100 39.77700 42.68500
H  51.67000 40.14700 41.71200
H  54.67400 43.30100 44.34600
H  54.88400 43.58600 42.63000
H  55.71500 42.20900 43.33900
H  53.70000 47.74200 43.49800
H  52.27400 48.87700 45.87400
H  53.59700 46.76900 46.43200
H  54.87100 47.74100 45.75100
H  54.69700 46.15300 45.21100
H  52.18900 50.27600 43.22500
H  53.72500 50.07300 43.93800
H  51.58700 51.99600 44.42300
H  53.22100 51.92900 45.01800
H  51.85600 51.17600 45.93000
H  46.35600 51.56000 44.15500
H  48.00800 51.42900 44.75900
H  46.51700 50.97700 45.79900
H  43.94700 47.57300 41.60300
H  41.89400 44.29000 43.36000
H  40.84000 44.93300 42.12800
H  40.90000 45.72800 43.70700

