158

Mg 8.84500 3.35900 27.13200
C  9.93600 1.97600 30.11800
C  6.69300 5.27800 28.97100
C  7.92600 4.63400 24.37100
C  10.32400 0.59500 25.37300
N  8.27000 3.37600 29.28800
C  8.96700 2.88900 30.33500
C  8.35500 3.36900 31.65600
C  7.01500 4.04800 31.23300
C  7.38600 4.30500 29.74800
C  5.70900 3.25400 31.51800
C  9.40500 4.33000 32.32900
C  9.25900 4.56600 33.82600
H  10.45700 4.27500 34.85200
N  7.60100 4.83100 26.76500
C  6.88200 5.59800 27.58600
C  6.16500 6.63800 26.93100
C  6.48400 6.46600 25.55600
C  7.44500 5.30800 25.48700
C  5.17600 7.73200 27.57500
C  6.13200 7.50200 24.40700
O  6.59500 7.29300 23.29100
C  5.25000 8.63400 24.68800
N  8.92400 2.60100 25.16500
C  8.51700 3.40900 24.12900
C  8.83300 2.92700 22.73700
C  9.65900 1.62600 23.11300
C  9.58800 1.53300 24.62500
C  7.62600 2.70400 21.88400
C  11.12000 1.66300 22.65600
C  12.03900 2.71200 23.29300
N  10.00700 1.63500 27.63600
C  10.59500 0.68200 26.83800
C  11.46100 -0.11000 27.69300
C  11.28600 0.35700 28.98000
C  10.37000 1.39800 28.87900
C  12.38400 -1.28800 27.32000
C  11.66100 0.25500 30.35800
O  12.48100 -0.46100 30.88900
C  10.86100 1.28700 31.16300
C  10.12600 0.56400 32.22000
O  9.01000 0.00700 32.00900
O  10.76100 0.64100 33.44400
C  9.84600 0.09000 34.45500
H  6.09000 5.93700 29.60000
H  7.57000 5.12600 23.46300
H  10.87800 -0.20000 24.86900
H  8.24200 2.50400 32.31100
H  6.97500 5.02500 31.71300
H  5.34200 2.95200 30.53700
H  5.06900 3.90800 32.11000
H  5.90000 2.28300 31.97500
H  9.23100 5.25900 31.78600
H  10.41000 3.93600 32.17700
H  8.47200 3.84000 34.03100
H  8.97900 5.60400 34.00300
H  5.71600 8.67900 27.56100
H  4.97100 7.50500 28.62100
H  4.22900 7.81100 27.04100
H  4.23000 8.38400 24.97900
H  5.11600 9.19300 23.76200
H  5.65800 9.43200 25.30800
H  9.41100 3.75800 22.33300
H  9.21000 0.70400 22.74300
H  6.75100 3.04400 22.43800
H  7.47100 1.64400 21.68600
H  7.67900 3.19500 20.91200
H  11.10100 1.74200 21.56900
H  11.49600 0.64900 22.78700
H  12.62000 3.13800 22.47600
H  12.70900 2.21400 23.99400
H  11.43500 3.40100 23.88400
H  12.83000 -1.09900 26.34400
H  11.70700 -2.12400 27.14600
H  12.99300 -1.55600 28.18300
H  11.54800 2.00600 31.61000
H  9.03200 0.79800 34.61700
H  10.33500 0.05400 35.42800
H  9.41100 -0.87100 34.17900
Mg 16.80800 53.84200 26.46700
C  18.93600 52.06300 28.71900
C  14.75300 54.48400 29.15200
C  14.75800 55.33300 24.36700
C  18.96900 52.95900 23.89800
N  16.85400 53.33700 28.68200
C  17.83900 52.66000 29.33100
C  17.47900 52.57800 30.79600
C  15.97600 53.03600 30.86600
C  15.79000 53.63900 29.47000
C  14.93900 51.90400 31.22600
C  18.53700 53.49600 31.53800
C  18.83200 53.16500 32.98800
H  17.78000 52.36900 33.78100
N  15.05300 54.92400 26.67900
C  14.38300 55.10700 27.89700
C  13.27400 56.03600 27.67800
C  13.27300 56.35500 26.32700
C  14.42300 55.52200 25.66700
C  12.30800 56.40900 28.70300
C  12.26800 57.12900 25.55000
O  12.27300 57.16700 24.32600
C  11.22500 57.93000 26.24100
N  16.83600 54.05000 24.43800
C  15.82700 54.65400 23.72500
C  16.21700 54.79900 22.25200
C  17.74300 54.58400 22.30000
C  17.88500 53.79700 23.60300
C  15.29300 53.89000 21.39200
C  18.57400 55.91100 22.28800
C  19.91700 55.93000 21.49400
N  18.54700 52.66800 26.26400
C  19.31100 52.42000 25.16400
C  20.49200 51.66200 25.51700
C  20.29900 51.41300 26.88400
C  19.13500 52.11200 27.30400
C  21.66200 51.37000 24.76800
C  20.89900 50.74700 28.04600
O  21.89400 50.06400 28.19800
C  20.00400 51.17000 29.26900
C  19.36700 49.94700 29.92400
O  18.43800 49.23100 29.52100
O  19.98500 49.68800 31.13500
C  19.29800 48.81800 32.02900
H  14.14200 54.77000 30.01100
H  14.03900 55.72200 23.64300
H  19.63000 52.66600 23.08000
H  17.48000 51.55000 31.15800
H  15.91000 53.86700 31.57000
H  14.50200 52.23400 32.16900
H  15.46300 50.98200 31.47900
H  14.24200 51.81100 30.39400
H  18.17200 54.52200 31.48800
H  19.50100 53.66400 31.05800
H  19.06300 54.10200 33.49400
H  19.64700 52.44700 32.89600
H  11.34700 55.89600 28.73900
H  12.16100 57.48500 28.79700
H  12.76700 56.20500 29.67100
H  10.94100 58.74900 25.57900
H  11.63200 58.44900 27.10800
H  10.26300 57.42500 26.33200
H  16.12700 55.86000 22.02000
H  18.16500 53.89900 21.56400
H  14.66700 53.34300 22.09800
H  15.92100 53.20100 20.82800
H  14.69500 54.45100 20.67400
H  18.92600 56.18200 23.28400
H  18.02100 56.77200 21.91400
H  19.95700 56.67800 20.70200
H  20.04800 54.96100 21.01100
H  20.72400 55.97800 22.22500
H  22.54200 51.38800 25.41100
H  21.83900 52.09800 23.97600
H  21.59900 50.39100 24.29100
H  20.63200 51.69000 29.99300
H  19.69500 48.87600 33.04300
H  19.29700 47.81200 31.60800
H  18.23300 49.04100 32.09800

