158

Mg 26.95000 50.42500 26.17800
C  24.96700 51.38100 28.93000
C  29.20500 49.28000 28.43600
C  28.85100 49.90200 23.62200
C  24.38600 51.79900 24.10800
N  26.89200 50.10600 28.41700
C  26.02600 50.65100 29.33600
C  26.50900 50.43800 30.78200
C  27.98100 49.88400 30.56500
C  28.06700 49.64500 29.08100
C  29.16000 50.65000 31.17700
C  25.49000 49.43000 31.56000
C  24.96800 49.85900 32.92200
H  25.88400 50.27500 34.09500
N  28.76200 49.70500 26.04400
C  29.62800 49.32800 27.05300
C  30.91900 48.88200 26.50500
C  30.72600 48.93800 25.11700
C  29.41400 49.53600 24.85900
C  32.14200 48.39100 27.41800
C  31.61700 48.47800 24.00200
O  31.38400 48.48300 22.82000
C  32.99200 48.04800 24.43800
N  26.78400 51.08200 24.24100
C  27.68500 50.59300 23.33900
C  27.23300 50.90700 21.88800
C  25.74400 51.21200 22.09000
C  25.59500 51.30500 23.60000
C  28.04900 52.00500 21.31500
C  24.63900 50.29100 21.45600
C  23.50700 50.99700 20.62400
N  25.06100 51.39500 26.41500
C  24.14800 51.89500 25.46700
C  23.01900 52.45600 26.14600
C  23.26400 52.31200 27.50700
C  24.56300 51.68400 27.62300
C  21.79200 53.10000 25.55900
C  22.79700 52.63700 28.89800
O  21.77700 53.12600 29.30400
C  23.81800 51.95000 29.83100
C  24.22100 53.01400 30.77400
O  25.14800 53.82000 30.56400
O  23.41600 53.06100 31.85000
C  23.74900 54.02100 32.91600
H  30.03100 48.98800 29.08800
H  29.48000 49.73700 22.74500
H  23.52400 51.97400 23.46000
H  26.61100 51.36900 31.33900
H  28.00200 48.93500 31.10100
H  29.76900 51.01500 30.35000
H  29.75600 50.02000 31.83800
H  28.82300 51.50600 31.76200
H  25.76200 48.37400 31.57100
H  24.62100 49.51100 30.90700
H  24.38800 48.97700 33.19300
H  24.20100 50.61900 32.77500
H  31.76800 48.21700 28.42800
H  32.76400 49.28200 27.33600
H  32.71600 47.53600 27.06100
H  32.93300 47.04100 24.85100
H  33.34800 48.79500 25.14700
H  33.63200 47.88200 23.57000
H  27.53200 49.98900 21.38200
H  25.51200 52.24000 21.81200
H  28.76300 52.39200 22.04200
H  27.35100 52.81900 21.11800
H  28.59100 51.60400 20.45900
H  24.21600 49.53200 22.11300
H  25.22400 49.68900 20.76100
H  23.72800 52.05300 20.47000
H  22.51200 50.88700 21.05700
H  23.68800 50.56400 19.64100
H  20.96800 53.09700 26.27300
H  21.53200 52.54800 24.65600
H  21.96400 54.14000 25.28300
H  23.30200 51.11000 30.29500
H  24.15400 53.52100 33.79600
H  22.86300 54.56400 33.24200
H  24.53300 54.69600 32.57500
Mg -0.74900 34.11000 26.52700
C  -2.58200 32.50500 29.06500
C  0.75600 36.13600 28.93200
C  0.29500 36.12600 24.06800
C  -2.75500 32.35300 24.23500
N  -0.95100 34.33000 28.80100
C  -1.69800 33.48400 29.55900
C  -1.45500 33.87500 31.02200
C  -0.44100 35.15500 30.95600
C  -0.16200 35.24100 29.49100
C  -1.04400 36.41500 31.52900
C  -0.90300 32.62300 31.74500
C  -1.74700 32.14500 33.00900
H  -1.02300 32.03800 34.38900
N  0.41800 35.79600 26.44700
C  1.07500 36.46000 27.57000
C  2.05900 37.42600 27.06900
C  1.86300 37.48200 25.64900
C  0.82600 36.45800 25.35300
C  3.00700 38.08400 28.02800
C  2.50700 38.38700 24.56100
O  2.25700 38.34200 23.37100
C  3.54700 39.21100 25.05500
N  -1.19300 34.19500 24.46000
C  -0.62600 35.14000 23.65300
C  -0.94500 35.00500 22.18800
C  -1.70700 33.62300 22.19900
C  -1.85300 33.30400 23.71300
C  -1.72700 36.15500 21.57900
C  -1.04800 32.45200 21.47900
C  0.06500 31.62800 22.21100
N  -2.23500 32.57300 26.57500
C  -2.90400 31.95900 25.54600
C  -3.84900 31.00000 26.13600
C  -3.79300 31.19600 27.49900
C  -2.77800 32.15900 27.67000
C  -4.70900 30.07400 25.39000
C  -4.27400 30.83800 28.79900
O  -5.21900 30.13000 29.07800
C  -3.55000 31.72100 29.90100
C  -4.59300 32.54700 30.61500
O  -5.04100 33.61000 30.23100
O  -4.94500 31.80700 31.77100
C  -5.86700 32.53900 32.63800
H  1.33100 36.64500 29.70800
H  0.71500 36.74100 23.27000
H  -3.36100 31.80200 23.51300
H  -2.42500 34.30500 31.27000
H  0.49500 34.95700 31.47800
H  -1.63600 36.96500 30.79900
H  -0.25200 37.06200 31.90600
H  -1.57300 36.08400 32.42300
H  0.01700 32.91700 32.25200
H  -0.77100 31.81400 31.02600
H  -2.02200 31.12300 32.74700
H  -2.73300 32.60900 33.02800
H  3.34300 37.38700 28.79600
H  2.50100 38.89600 28.55100
H  3.95100 38.41200 27.59300
H  3.30500 39.93600 25.83100
H  3.90100 39.65400 24.12400
H  4.32600 38.51500 25.37000
H  0.02300 35.00100 21.68700
H  -2.70600 33.67700 21.76600
H  -1.50300 37.04400 22.17000
H  -2.79800 35.97500 21.48700
H  -1.39100 36.45200 20.58600
H  -0.62700 32.91100 20.58400
H  -1.91600 31.84700 21.21500
H  0.29200 32.05000 23.19000
H  0.87900 31.68800 21.48900
H  -0.26900 30.60900 22.40700
H  -5.34500 29.46200 26.03000
H  -4.11800 29.30200 24.89600
H  -5.31800 30.64900 24.69300
H  -3.02700 30.96600 30.48800
H  -6.52200 33.23300 32.11100
H  -5.29100 33.04000 33.41500
H  -6.50000 31.84000 33.18400

