158

Mg 43.80100 4.15600 47.52300
C  41.55600 6.91700 47.27300
C  41.01700 2.19200 48.03600
C  45.72700 1.48200 47.26400
C  46.36300 6.28500 46.87300
N  41.54400 4.57100 47.62100
C  40.90600 5.74700 47.44300
C  39.40000 5.55700 47.63800
C  39.22500 4.03600 47.90900
C  40.66600 3.53800 47.90600
C  38.28700 3.60500 49.10700
C  38.47800 6.11800 46.54900
C  38.96900 6.09300 45.13300
H  38.53900 7.21000 44.16900
N  43.43100 2.09900 47.70300
C  42.22500 1.50600 47.89200
C  42.51400 0.05800 48.02200
C  43.84900 -0.20100 47.69900
C  44.39800 1.14500 47.58700
C  41.48300 -1.00700 48.30200
C  44.52900 -1.55800 47.70700
O  43.89800 -2.55900 48.00300
C  45.89300 -1.84800 47.26700
N  45.69800 3.91200 46.84800
C  46.27800 2.67500 47.04300
C  47.81600 2.82400 47.08700
C  48.04700 4.39700 46.88800
C  46.63500 4.92000 46.85500
C  48.54800 2.18400 48.36400
C  48.87800 4.73200 45.56900
C  50.32500 4.99100 45.86100
N  43.96300 6.20800 46.97000
C  45.13600 7.00100 46.86500
C  44.76600 8.40700 46.76100
C  43.39400 8.39500 46.86600
C  42.90800 7.09900 46.98100
C  45.69700 9.58500 46.63800
C  42.29400 9.23700 47.06000
O  42.27800 10.46600 47.13900
C  40.98200 8.32200 47.14600
C  40.07900 8.72800 48.33000
O  40.24600 8.46900 49.47800
O  38.96600 9.39200 47.78900
C  38.07300 9.97300 48.73800
H  40.11700 1.57600 48.09400
H  46.40800 0.63100 47.20800
H  47.25000 6.90800 46.74500
H  39.10500 6.08800 48.54300
H  38.69700 3.59300 47.06400
H  37.91000 4.53700 49.52800
H  38.85800 3.05100 49.85200
H  37.48500 2.92900 48.80900
H  38.07700 7.10900 46.76200
H  37.53400 5.57800 46.47600
H  38.49200 5.22000 44.68900
H  40.02900 5.84300 45.07900
H  41.65400 -1.44500 49.28500
H  41.51700 -1.60900 47.39400
H  40.45700 -0.64000 48.26400
H  46.73500 -1.45700 47.83700
H  46.00700 -1.41900 46.27100
H  45.93800 -2.93500 47.19300
H  48.32300 2.28000 46.29000
H  48.51900 4.66700 47.83200
H  47.75800 1.94500 49.07600
H  49.26900 2.80700 48.89300
H  49.00000 1.25600 48.01600
H  48.54600 5.71400 45.23200
H  48.71600 4.03600 44.74700
H  50.89000 4.83700 44.94100
H  50.76100 4.40900 46.67300
H  50.38300 6.03600 46.16700
H  46.49400 9.29800 45.95100
H  46.18600 9.66800 47.60900
H  45.19600 10.51900 46.38400
H  40.35400 8.35100 46.25600
H  38.59000 10.32100 49.63200
H  37.39800 9.17000 49.03400
H  37.62700 10.79100 48.17300
Mg -10.60200 16.00200 42.13500
C  -7.27000 14.92400 41.52200
C  -9.88900 18.77900 40.23400
C  -14.01000 16.53400 41.93600
C  -11.29900 12.83300 43.59500
N  -8.77900 16.64900 40.83100
C  -7.54900 16.13800 40.84700
C  -6.59000 16.98900 40.07100
C  -7.41000 18.28200 39.74900
C  -8.82300 17.87800 40.29300
C  -6.78500 19.56100 40.32000
C  -5.80700 16.36600 38.87700
C  -4.59500 17.19100 38.49200
H  -4.80000 18.00200 37.21800
N  -11.71900 17.53500 41.31200
C  -11.24600 18.69100 40.70600
C  -12.37300 19.59500 40.45500
C  -13.58900 18.94400 40.86700
C  -13.16900 17.62000 41.38300
C  -12.18000 21.04200 39.87400
C  -14.92800 19.55400 40.84000
O  -15.02400 20.69600 40.40800
C  -16.14800 18.68300 41.20500
N  -12.43200 14.79100 42.60000
C  -13.66300 15.33100 42.57000
C  -14.73900 14.46500 43.31200
C  -13.84800 13.25300 43.86700
C  -12.41300 13.67100 43.32800
C  -15.28400 15.29900 44.46700
C  -14.30700 11.85300 43.31400
C  -13.71800 10.61000 43.96300
N  -9.54600 14.26100 42.50000
C  -9.95700 13.08300 43.18100
C  -8.88400 12.10400 43.16000
C  -7.81800 12.78800 42.52200
C  -8.30300 14.09500 42.15800
C  -8.87300 10.70300 43.70700
C  -6.43200 12.69500 42.16000
O  -5.70100 11.71200 42.31300
C  -5.96500 14.07000 41.55300
C  -4.88800 14.72400 42.32900
O  -5.00400 15.08900 43.50600
O  -3.81500 14.87800 41.48100
C  -2.67600 15.66800 41.99000
H  -9.61600 19.70400 39.72200
H  -15.06700 16.76800 42.07500
H  -11.62000 11.95100 44.15300
H  -5.87300 17.39900 40.78200
H  -7.60200 18.43600 38.68700
H  -6.97000 20.24900 39.49500
H  -5.71900 19.55600 40.54500
H  -7.34800 19.99100 41.14800
H  -6.48200 16.16700 38.04500
H  -5.44600 15.34900 39.02900
H  -3.72800 16.53100 38.47000
H  -4.39700 18.00000 39.19500
H  -12.70800 21.70600 40.55800
H  -12.61600 21.23500 38.89300
H  -11.15400 21.37500 39.71800
H  -17.06100 19.25400 41.03700
H  -16.25800 18.35700 42.23900
H  -16.06000 17.81100 40.55700
H  -15.51000 14.05000 42.66300
H  -13.84800 13.21100 44.95600
H  -16.20800 14.80400 44.76400
H  -15.58200 16.31300 44.19900
H  -14.66700 15.38100 45.36100
H  -14.22600 11.78800 42.22900
H  -15.38700 11.76800 43.44000
H  -13.11800 9.99300 43.29500
H  -14.58900 10.03900 44.28500
H  -13.17900 10.91500 44.86000
H  -8.93100 9.94800 42.92300
H  -9.68400 10.41300 44.37500
H  -7.94400 10.54300 44.25600
H  -5.48900 13.79900 40.61000
H  -2.56300 15.78600 43.06800
H  -2.85300 16.61300 41.47700
H  -1.75800 15.29500 41.53500

