158

Mg 30.10000 57.19100 41.39900
C  27.34300 55.35500 40.36400
C  32.08700 54.69500 40.37700
C  32.50700 59.43200 41.56500
C  27.88000 59.72700 42.66500
N  29.70300 55.39700 40.39000
C  28.51200 54.78200 40.04100
C  28.74800 53.44700 39.28700
C  30.14700 53.02000 39.82500
C  30.74100 54.46200 40.27300
C  30.14600 51.95300 40.91700
C  28.62300 53.52400 37.67000
C  27.63500 52.55400 36.94400
H  26.59700 53.12600 35.98100
N  32.02700 57.11100 40.95300
C  32.68100 55.92500 40.65400
C  34.11300 56.21000 40.63300
C  34.24400 57.59600 40.94600
C  32.92000 58.13800 41.18600
C  35.16800 55.18500 40.38100
C  35.55300 58.29400 41.00700
O  36.54700 57.68000 40.67600
C  35.69600 59.70700 41.39000
N  30.11700 59.40000 41.90600
C  31.24600 60.01200 41.84200
C  31.14400 61.54500 42.13200
C  29.73600 61.56600 42.87400
C  29.17800 60.12500 42.42600
C  32.33400 62.44000 42.68500
C  28.73300 62.72500 42.53700
C  28.10300 62.80900 41.05100
N  27.99700 57.44800 41.53000
C  27.26900 58.48100 42.17300
C  25.86500 58.03700 42.24700
C  25.82700 56.81000 41.44300
C  27.15900 56.51900 41.10600
C  24.63500 58.64000 42.87000
C  24.98300 55.75100 41.03100
O  23.79800 55.54600 41.14000
C  25.96000 54.76100 40.26600
C  25.87100 53.39300 40.90600
O  26.23700 53.10700 42.06200
O  25.27600 52.56100 39.98800
C  25.34800 51.14900 40.33400
H  32.77800 53.86300 40.22800
H  33.33600 60.14000 41.50200
H  27.17400 60.35800 43.20800
H  28.05600 52.73300 39.73400
H  30.70400 52.49200 39.05100
H  30.70700 52.40100 41.73700
H  30.59600 51.05200 40.50000
H  29.13000 51.73500 41.24600
H  29.62200 53.40100 37.25100
H  28.26900 54.47800 37.28000
H  27.07000 51.89900 37.60700
H  28.28300 51.96300 36.29700
H  35.89000 55.68000 39.73100
H  34.70800 54.39200 39.79100
H  35.68300 54.93500 41.30800
H  35.13000 59.98700 42.27900
H  35.23500 60.32900 40.62300
H  36.75600 59.88600 41.57200
H  30.95100 62.13000 41.23300
H  29.89500 61.51500 43.95100
H  32.74300 61.78300 43.45300
H  31.84700 63.27400 43.19000
H  32.93800 62.81800 41.86100
H  29.12100 63.68500 42.88000
H  27.87400 62.51500 43.17500
H  27.17400 62.24500 40.97500
H  28.81600 62.32700 40.38300
H  28.00200 63.84100 40.71400
H  24.08100 59.32200 42.22500
H  25.14200 59.29100 43.58200
H  23.99700 57.83300 43.22900
H  25.61900 54.78900 39.23100
H  26.37700 50.81700 40.20200
H  24.79500 50.62900 39.55200
H  24.84000 50.97600 41.28400
Mg -2.04100 34.13600 26.83200
C  -3.81300 32.37500 29.46700
C  -0.52200 36.06200 29.39700
C  -1.27500 36.43400 24.53500
C  -3.85700 32.28800 24.61100
N  -2.29400 34.29900 29.18900
C  -2.97500 33.42400 30.04200
C  -2.71900 33.75100 31.46300
C  -1.78500 35.01300 31.38100
C  -1.48600 35.12800 29.93600
C  -2.49900 36.36500 31.85800
C  -2.08700 32.44400 32.11200
C  -2.79200 31.80200 33.24100
H  -2.01900 31.72700 34.58400
N  -0.85700 35.86800 26.90700
C  -0.26100 36.41800 28.01800
C  0.57600 37.54600 27.53600
C  0.35200 37.61900 26.17200
C  -0.62000 36.64200 25.81200
C  1.50500 38.37100 28.46400
C  1.04800 38.50700 25.21100
O  0.99800 38.39900 23.96800
C  1.95500 39.60100 25.75400
N  -2.39900 34.31600 24.86600
C  -2.07900 35.43300 24.06300
C  -2.66500 35.22200 22.64000
C  -2.97600 33.68700 22.66200
C  -3.06900 33.36700 24.14000
C  -3.79100 36.17600 22.11600
C  -1.98700 32.74000 21.93300
C  -2.48500 32.08300 20.60500
N  -3.40500 32.51100 26.96700
C  -4.09600 31.87700 25.93600
C  -4.86200 30.74600 26.44800
C  -4.79000 30.93000 27.83700
C  -3.91400 32.01000 28.14700
C  -5.67100 29.73300 25.66100
C  -5.31700 30.41600 29.03300
O  -6.07900 29.46900 29.23600
C  -4.65900 31.29000 30.15800
C  -5.80500 31.89000 30.95100
O  -6.39600 32.95800 30.74300
O  -6.15600 31.07600 31.97000
C  -7.22400 31.41800 32.95800
H  0.03000 36.58600 30.18000
H  -1.16500 37.31200 23.89600
H  -4.37400 31.71000 23.84200
H  -3.64800 33.94100 32.00000
H  -0.89800 34.78300 31.97200
H  -3.51200 36.05700 32.11600
H  -2.48300 37.01300 30.98200
H  -2.07600 36.86800 32.72700
H  -1.13400 32.69900 32.57500
H  -1.81900 31.85400 31.23500
H  -3.01700 30.76900 32.97800
H  -3.76800 32.27400 33.35600
H  2.52600 38.28700 28.09100
H  1.36000 37.94400 29.45600
H  1.26600 39.43100 28.54200
H  1.39400 40.15800 26.50400
H  2.31800 40.18500 24.90800
H  2.86900 39.22300 26.21200
H  -1.81000 35.36600 21.98000
H  -4.01300 33.55900 22.35200
H  -4.28900 36.47200 23.03900
H  -4.49100 35.69100 21.43600
H  -3.31000 37.00700 21.60100
H  -1.75900 31.98100 22.68100
H  -1.04100 33.22000 21.68400
H  -1.66300 32.20300 19.90000
H  -3.45700 32.50200 20.34200
H  -2.66000 31.00800 20.63500
H  -5.77700 28.80000 26.21500
H  -5.33700 29.57200 24.63600
H  -6.67700 30.15400 25.64800
H  -4.09500 30.63100 30.81700
H  -6.78500 31.64000 33.93100
H  -7.77300 30.48400 33.08100
H  -7.83700 32.19300 32.49800

