158

Mg -2.00700 16.79800 26.91000
C  -2.55600 14.53200 29.61400
C  -2.60300 19.31600 29.00100
C  -1.79100 18.79600 24.26200
C  -2.24100 14.02000 24.73700
N  -2.55900 16.85600 29.09000
C  -2.53500 15.89500 30.01600
C  -2.59500 16.44200 31.43300
C  -2.58800 18.01700 31.20800
C  -2.61000 18.05200 29.64000
C  -3.61800 18.81600 32.06200
C  -1.53100 15.92300 32.35900
C  -0.92600 16.69400 33.51700
H  -0.66000 15.91900 34.92400
N  -2.21700 18.79800 26.69300
C  -2.39300 19.69900 27.72000
C  -2.36100 20.98800 27.12700
C  -2.09400 20.88100 25.74400
C  -1.99300 19.39300 25.49900
C  -2.77700 22.16900 27.99100
C  -1.90000 21.90100 24.64600
O  -1.75900 21.73100 23.40800
C  -1.70500 23.42500 25.03500
N  -1.82000 16.44500 24.78000
C  -1.81600 17.44600 23.90300
C  -1.91700 16.89500 22.49500
C  -1.73900 15.42600 22.64300
C  -1.99300 15.28900 24.11800
C  -3.29800 17.34900 21.92600
C  -0.33100 14.84900 22.26200
C  -0.31100 13.39300 21.73900
N  -2.24400 14.73900 27.04900
C  -2.32900 13.76000 26.07400
C  -2.59400 12.48100 26.68400
C  -2.64900 12.73400 28.03300
C  -2.42600 14.10700 28.21400
C  -2.76700 11.17300 25.95200
C  -2.85100 12.07900 29.29800
O  -3.21200 10.96600 29.54600
C  -2.82800 13.22000 30.44100
C  -1.80700 12.72100 31.31500
O  -0.58300 12.85600 31.18700
O  -2.40000 12.03300 32.33500
C  -1.42800 11.60000 33.31600
H  -2.76500 20.15600 29.68000
H  -1.90200 19.49400 23.43000
H  -2.50600 13.24300 24.01700
H  -3.50000 16.06800 31.91100
H  -1.65100 18.48700 31.50800
H  -3.14400 19.65500 32.57200
H  -4.03300 18.26300 32.90500
H  -4.47400 19.11300 31.45600
H  -0.71000 15.70800 31.67500
H  -1.79700 14.96900 32.81400
H  -1.50400 17.60800 33.65200
H  0.08200 16.93400 33.18000
H  -3.16800 22.91300 27.29600
H  -1.88100 22.51200 28.50800
H  -3.50700 21.94200 28.76800
H  -2.66200 23.91300 25.21600
H  -1.34400 23.96500 24.16000
H  -1.01500 23.44600 25.87900
H  -1.08900 17.20000 21.85500
H  -2.47800 14.97300 21.98200
H  -4.09800 17.12300 22.63100
H  -3.40700 16.80800 20.98600
H  -3.19700 18.41500 21.72500
H  0.28300 14.92200 23.16100
H  0.06300 15.53200 21.51000
H  0.19900 13.30500 20.77900
H  -1.31300 13.02100 21.52600
H  0.25100 12.73100 22.39800
H  -2.19300 11.07900 25.03000
H  -3.80200 11.12200 25.61500
H  -2.64500 10.30200 26.59700
H  -3.73800 13.52400 30.95800
H  -0.74300 10.90200 32.83400
H  -1.98600 11.09400 34.10300
H  -0.88400 12.39900 33.82000
Mg 24.99100 1.41300 29.81600
C  27.49800 1.29900 32.61600
C  22.60300 1.43100 32.06100
C  23.11400 1.21000 27.28200
C  27.94500 0.99100 27.67500
N  25.19200 1.23700 32.07900
C  26.16500 1.41500 32.96400
C  25.61500 1.50400 34.42400
C  24.10800 1.25000 34.16800
C  23.92800 1.40800 32.67400
C  23.41100 -0.11800 34.73700
C  25.98500 2.87000 35.16600
C  26.72700 2.67800 36.53400
H  26.43900 3.66600 37.69300
N  23.07400 1.29800 29.70100
C  22.17000 1.28200 30.70900
C  20.80900 1.10600 30.13200
C  21.03900 1.00500 28.76600
C  22.47100 1.15100 28.47100
C  19.56000 1.06900 31.07600
C  19.95200 0.82500 27.66100
O  20.19500 0.79800 26.48900
C  18.56600 0.71400 28.03700
N  25.50900 0.96600 27.72800
C  24.43000 1.26500 26.84600
C  24.84100 1.54000 25.34800
C  26.41700 1.38800 25.57100
C  26.70400 1.11700 27.10400
C  24.27700 0.44800 24.26900
C  27.17800 2.56800 25.10000
C  26.87700 3.91300 25.88000
N  27.28400 1.06800 30.02100
C  28.25800 0.90700 29.05300
C  29.53100 0.79200 29.72400
C  29.29900 0.95200 31.07400
C  27.89700 1.12200 31.24400
C  30.78300 0.56100 29.08800
C  29.83800 0.87300 32.43700
O  30.95400 0.56400 32.80300
C  28.73900 1.26100 33.44200
C  28.76000 0.26500 34.54700
O  28.31400 -0.83400 34.45200
O  29.43100 0.80600 35.61100
C  29.53000 -0.17600 36.79800
H  21.78400 1.44800 32.78300
H  22.49300 1.31800 26.39000
H  28.78900 0.90400 26.98700
H  26.05000 0.67800 34.98700
H  23.53100 2.06600 34.60200
H  23.20900 -0.73100 33.85900
H  22.43700 -0.05000 35.22200
H  24.22900 -0.57800 35.29100
H  25.14800 3.54500 35.34300
H  26.67500 3.47200 34.57400
H  27.80800 2.81000 36.58200
H  26.72800 1.70100 37.01600
H  18.95200 1.95800 30.90600
H  19.74400 1.06900 32.15000
H  18.80900 0.31100 30.85100
H  18.26100 1.62600 28.55100
H  18.36300 -0.15900 28.65700
H  17.94300 0.70900 27.14300
H  24.68700 2.55500 24.98300
H  26.75800 0.51700 25.01100
H  25.06700 0.00800 23.66100
H  23.51000 0.86400 23.61700
H  23.80700 -0.18700 25.02100
H  27.07800 2.85100 24.05200
H  28.24400 2.34900 25.16400
H  26.15100 3.76800 26.68100
H  26.52600 4.76200 25.29400
H  27.82000 4.12200 26.38500
H  31.17600 -0.45400 29.14400
H  31.55700 1.20300 29.50800
H  30.75200 0.82300 28.03000
H  29.02600 2.17400 33.96300
H  29.75500 -1.18200 36.44200
H  28.58900 -0.03600 37.33000
H  30.39000 -0.01900 37.45000

