158

Mg 1.02500 7.51400 26.13000
C  1.81400 9.78000 28.74300
C  1.40100 4.99700 28.32000
C  0.78600 5.58500 23.51900
C  1.51900 10.31500 23.92700
N  1.54400 7.47700 28.30900
C  1.68400 8.47800 29.20700
C  1.72500 7.92600 30.65800
C  1.94700 6.44100 30.40700
C  1.53600 6.28600 28.92500
C  3.36500 5.98300 30.71900
C  0.32800 8.20400 31.37100
C  0.50200 8.68000 32.84500
H  1.70400 8.04100 33.64100
N  0.94000 5.53200 25.94900
C  1.08900 4.66500 26.96900
C  0.77400 3.37200 26.51000
C  0.67300 3.43000 25.13000
C  0.76300 4.87900 24.74900
C  0.73100 2.19900 27.42500
C  0.43300 2.31500 24.05300
O  0.26900 2.53900 22.87100
C  0.48600 0.90100 24.43600
N  1.27900 7.87800 24.03700
C  0.90300 6.88500 23.17300
C  0.85300 7.40600 21.68900
C  1.17200 8.95800 21.80500
C  1.31900 9.06000 23.36400
C  1.90100 6.58500 20.81000
C  0.04900 9.99200 21.23100
C  0.51000 11.29600 20.71300
N  1.49200 9.62500 26.22800
C  1.54600 10.61700 25.27200
C  1.69400 11.91200 25.88900
C  1.73800 11.64200 27.25700
C  1.65800 10.21600 27.40000
C  1.68500 13.30000 25.19300
C  1.89800 12.22600 28.56200
O  2.08300 13.33400 28.93700
C  1.90800 11.04800 29.55900
C  2.99800 11.12200 30.49400
O  4.13800 10.73500 30.25800
O  2.57600 11.65300 31.67100
C  3.54400 11.68600 32.77700
H  1.42500 4.15000 29.00900
H  0.65900 4.90300 22.67600
H  1.67400 11.24600 23.37900
H  2.50700 8.44100 31.21600
H  1.23600 5.94100 31.06500
H  3.91000 6.90200 30.93600
H  3.78100 5.46700 29.85400
H  3.39900 5.28900 31.55800
H  -0.31400 7.32600 31.29400
H  -0.08500 9.04300 30.81100
H  -0.41900 8.47200 33.39000
H  0.61900 9.76400 32.84500
H  -0.12200 1.64100 27.03800
H  0.50700 2.44500 28.46300
H  1.71500 1.73100 27.40300
H  0.26500 0.35600 23.51800
H  -0.23700 0.57400 25.18300
H  1.39600 0.71600 25.00700
H  -0.18900 7.25000 21.41200
H  2.11300 9.26900 21.35100
H  2.49700 5.90100 21.41300
H  2.45700 7.35900 20.28000
H  1.40700 5.93300 20.09000
H  -0.78500 10.16400 21.91200
H  -0.37800 9.44700 20.38900
H  1.39900 11.16000 20.09700
H  0.78700 12.02800 21.47100
H  -0.33800 11.74700 20.19800
H  1.36200 14.12000 25.83300
H  1.05400 13.25600 24.30600
H  2.70600 13.49100 24.86100
H  0.98700 11.21100 30.11900
H  4.41900 12.23700 32.43400
H  3.85300 10.66800 33.01500
H  3.15600 12.14900 33.68400
Mg 36.46600 50.09500 25.80000
C  36.28800 48.30700 28.90700
C  35.10800 52.79500 27.52500
C  36.11300 51.72000 22.89700
C  36.99600 47.12300 24.06900
N  35.64000 50.45800 27.93800
C  35.89300 49.63400 29.04700
C  35.68600 50.45300 30.37800
C  35.27100 51.83000 29.86500
C  35.39400 51.67700 28.34300
C  33.94900 52.38800 30.47200
C  36.99400 50.46000 31.29000
C  36.81800 50.33400 32.85400
H  35.38200 50.50300 33.34300
N  35.86700 52.03400 25.22200
C  35.31100 52.95000 26.11100
C  35.01400 54.20300 25.36100
C  35.37100 53.96800 24.00200
C  35.77400 52.53300 23.95100
C  34.24400 55.32200 25.95100
C  35.20600 54.88000 22.70200
O  35.34800 54.45500 21.56300
C  34.94900 56.31800 22.87900
N  36.60400 49.57200 23.79100
C  36.50100 50.42100 22.81400
C  36.60300 49.77800 21.39800
C  36.92800 48.27200 21.74900
C  36.89200 48.29200 23.30200
C  35.28000 49.84500 20.58000
C  38.20400 47.66400 21.09500
C  39.56700 47.72600 21.70100
N  36.78300 48.11300 26.31000
C  36.99100 46.97800 25.54100
C  37.12800 45.80800 26.36600
C  36.85800 46.30900 27.69500
C  36.60600 47.72200 27.64400
C  37.35900 44.34100 25.88500
C  36.85700 45.96200 29.17900
O  36.97100 44.81300 29.63300
C  36.26800 47.17900 29.95000
C  34.74500 46.77100 30.21400
O  33.77200 47.00800 29.45700
O  34.61300 46.04700 31.40300
C  33.17900 45.71400 31.73100
H  34.82300 53.68000 28.09700
H  35.97400 52.10600 21.88500
H  37.11600 46.22900 23.45400
H  34.96800 49.86800 30.95300
H  36.07300 52.55000 30.02800
H  33.12300 52.34300 29.76300
H  34.14100 53.45400 30.59200
H  33.60700 51.85200 31.35800
H  37.56300 51.38900 31.26300
H  37.60700 49.60200 31.01400
H  37.51000 51.05100 33.29600
H  37.22200 49.37300 33.17200
H  34.05200 55.36500 27.02300
H  33.32400 55.43900 25.38000
H  34.94600 56.15400 25.88600
H  35.38500 56.66700 23.81500
H  33.86100 56.38100 22.89100
H  35.36600 56.92100 22.07300
H  37.44600 50.23800 20.88200
H  36.12500 47.63800 21.37400
H  34.39900 49.96600 21.21000
H  35.13000 48.95000 19.97500
H  35.25700 50.73400 19.95100
H  38.36500 47.91200 20.04600
H  37.92900 46.60900 21.08100
H  39.71200 48.58900 22.35100
H  40.34200 47.80500 20.93900
H  39.78800 46.84800 22.30700
H  38.02400 44.27700 25.02400
H  36.64300 43.51900 25.86800
H  38.09700 44.11900 26.65600
H  36.72900 47.40600 30.91200
H  33.29900 44.93200 32.48100
H  32.51800 45.35400 30.94300
H  32.74700 46.54500 32.28900

