158

Mg 25.20900 0.97400 28.85800
C  27.16000 0.70700 31.70600
C  22.41400 0.80500 31.15700
C  23.12200 1.15100 26.32200
C  27.92200 0.40200 26.86400
N  24.84500 0.61300 31.16200
C  25.85700 0.75100 32.11600
C  25.37300 0.76300 33.58100
C  23.78700 0.82800 33.35100
C  23.64700 0.68700 31.79400
C  22.89000 -0.17600 34.15700
C  25.83900 1.96600 34.42200
C  24.99300 2.44500 35.58400
H  25.61100 3.00900 36.86500
N  23.12000 0.94200 28.68300
C  22.19500 0.90100 29.71000
C  20.78300 1.04100 29.14000
C  20.94800 1.14300 27.72200
C  22.42400 1.09600 27.51400
C  19.53100 0.74700 29.88200
C  19.89500 1.14500 26.55400
O  20.20300 1.23100 25.37800
C  18.33600 0.99200 26.87600
N  25.43300 0.81300 26.88900
C  24.49700 1.01700 25.97500
C  25.05200 1.22200 24.60800
C  26.61900 1.19200 24.83700
C  26.68200 0.69100 26.25100
C  24.52200 0.21400 23.57300
C  27.37500 2.58100 24.67500
C  26.91900 3.70900 25.57000
N  27.19900 0.61000 29.13300
C  28.26000 0.40500 28.24000
C  29.50500 0.19600 28.97000
C  29.14300 0.35800 30.32200
C  27.70500 0.57100 30.36300
C  30.84400 0.06800 28.27500
C  29.64100 0.41000 31.68900
O  30.72000 0.25700 32.14200
C  28.36300 0.53200 32.56900
C  28.28600 -0.69400 33.39100
O  27.89500 -1.79100 33.09300
O  28.59500 -0.34800 34.68100
C  28.26400 -1.23000 35.84400
H  21.55300 0.81600 31.82900
H  22.57300 1.23400 25.38100
H  28.72000 0.16600 26.15700
H  25.73300 -0.14100 34.07400
H  23.41100 1.81300 33.62600
H  22.29100 -0.88200 33.58200
H  22.28100 0.40100 34.85200
H  23.56300 -0.86800 34.66300
H  25.90200 2.78900 33.71000
H  26.85800 1.91200 34.80500
H  24.28100 1.65400 35.82200
H  24.46400 3.36400 35.33400
H  18.73200 1.43900 29.61500
H  19.59200 0.77900 30.97000
H  19.16300 -0.20200 29.49300
H  17.74500 1.07300 25.96400
H  17.98600 1.65200 27.67000
H  18.29000 -0.00700 27.31000
H  24.73600 2.25700 24.47700
H  27.05900 0.37500 24.26400
H  23.99900 -0.69200 23.87900
H  25.35400 -0.00300 22.90400
H  23.75000 0.75500 23.02400
H  27.06700 3.04100 23.73600
H  28.43600 2.33600 24.63900
H  27.46500 3.52500 26.49500
H  25.83800 3.64900 25.69600
H  27.16800 4.68700 25.15800
H  30.88000 0.45700 27.25700
H  31.02400 -1.00700 28.30300
H  31.68200 0.39500 28.89100
H  28.42600 1.43800 33.17200
H  27.55700 -0.63100 36.41800
H  29.19600 -1.40400 36.38300
H  27.65400 -2.09500 35.58500
Mg 7.03500 53.09100 41.00700
C  6.50100 49.58100 40.99500
C  10.22600 52.66600 40.03000
C  7.05100 56.37600 40.27600
C  3.51600 53.37200 41.72600
N  8.12100 51.33600 40.24100
C  7.80300 49.98600 40.49500
C  9.09100 49.14300 40.37900
C  10.21900 50.23600 40.33300
C  9.48000 51.52800 40.14800
C  11.06000 50.17700 41.63500
C  9.12900 48.00200 39.27700
C  9.26300 48.57600 37.83200
H  8.22100 47.97900 36.77900
N  8.45700 54.39700 40.23700
C  9.75800 54.06800 39.93200
C  10.47000 55.22100 39.46800
C  9.57900 56.32600 39.57200
C  8.28000 55.77700 40.03100
C  11.92100 55.13700 39.08000
C  9.92600 57.73800 39.22900
O  11.07300 58.03400 38.96900
C  8.94500 58.84100 39.13300
N  5.51400 54.52600 40.87400
C  5.80000 55.82400 40.70900
C  4.57400 56.78100 41.01200
C  3.46500 55.72900 41.34600
C  4.23600 54.42200 41.38600
C  4.93400 57.75800 42.17100
C  2.34200 55.74700 40.29200
C  0.99600 56.20900 40.79200
N  5.25100 51.79800 41.31800
C  3.96900 52.04600 41.67900
C  3.25700 50.84900 41.92300
C  4.20100 49.80500 41.79000
C  5.40100 50.42700 41.31600
C  1.80500 50.68500 42.22400
C  4.45200 48.36500 41.83900
O  3.61700 47.51800 42.08100
C  5.96500 48.20400 41.27800
C  5.85500 47.37900 39.99600
O  5.71900 47.80000 38.85000
O  6.08900 46.06600 40.27000
C  6.09400 45.06200 39.13700
H  11.29200 52.46200 39.90800
H  7.01700 57.46500 40.20400
H  2.49000 53.59200 42.02800
H  9.14100 48.58800 41.31600
H  10.80800 49.96200 39.45700
H  10.72500 49.37500 42.29300
H  10.92300 51.09800 42.20100
H  12.12900 50.13000 41.42900
H  8.20600 47.42200 39.30100
H  10.06400 47.44300 39.31900
H  10.20800 48.39800 37.31900
H  9.27100 49.65700 37.97700
H  12.24600 54.10900 38.92100
H  12.52900 55.48200 39.91600
H  12.23900 55.74300 38.23100
H  8.87200 59.42000 40.05300
H  7.96500 58.58100 38.73400
H  9.35100 59.61500 38.48200
H  4.21400 57.37900 40.17500
H  2.93400 55.81500 42.29400
H  5.90500 57.70500 42.66300
H  4.02200 57.72900 42.76700
H  5.01500 58.78000 41.80000
H  2.08700 54.74500 39.94800
H  2.49900 56.42800 39.45600
H  1.04500 56.59000 41.81200
H  0.34600 55.33400 40.78800
H  0.42000 56.93200 40.21500
H  1.40900 51.59700 42.67100
H  1.77800 49.83700 42.90900
H  1.13400 50.37800 41.42300
H  6.47000 47.52700 41.96700
H  7.14000 44.76400 39.06300
H  6.01800 45.56300 38.17200
H  5.53600 44.12800 39.07800

