158

Mg 42.65200 41.11200 26.84000
C  42.08500 43.54700 29.35200
C  43.65800 38.99500 29.30100
C  43.47100 39.01800 24.36200
C  41.94400 43.59300 24.46900
N  43.02000 41.32800 29.11300
C  42.56700 42.35900 29.90700
C  42.55500 41.95400 31.44900
C  43.36300 40.57500 31.34400
C  43.37900 40.24400 29.82100
C  44.69200 40.47100 32.10300
C  41.15300 41.92000 32.05600
C  40.80000 42.64400 33.37600
H  40.09400 41.74500 34.41700
N  43.50000 39.23400 26.78000
C  43.76200 38.49400 27.94900
C  44.12000 37.12100 27.53500
C  44.15400 37.17300 26.03700
C  43.70700 38.48600 25.63200
C  44.37600 36.00700 28.60000
C  44.54700 36.07400 25.04700
O  44.48500 36.15000 23.86900
C  45.15300 34.89200 25.64100
N  42.77300 41.28400 24.76300
C  43.05500 40.23800 23.95600
C  42.64200 40.57200 22.50200
C  41.93800 41.97600 22.61400
C  42.26100 42.33300 24.03700
C  43.86600 40.45600 21.55900
C  40.43200 41.84800 22.33400
C  39.56000 41.05400 23.36500
N  42.08500 43.14700 26.83900
C  41.88800 44.00900 25.80300
C  41.41200 45.29300 26.28900
C  41.41600 45.12900 27.68100
C  41.79700 43.76900 27.99400
C  40.85700 46.44700 25.47700
C  41.25400 45.88000 28.92800
O  41.07500 47.05200 29.26700
C  41.44400 44.77800 30.08300
C  42.36500 45.30600 31.08300
O  43.36100 45.99600 30.76800
O  41.84300 45.33600 32.30000
C  42.56100 46.16100 33.34700
H  43.94700 38.32000 30.10900
H  43.66600 38.38400 23.49400
H  41.64500 44.32600 23.71700
H  43.08900 42.73000 31.99700
H  42.70500 39.80600 31.74800
H  45.44700 40.72500 31.35800
H  44.77300 39.49700 32.58400
H  44.70300 41.26500 32.84900
H  40.82700 40.88200 32.11700
H  40.52800 42.51600 31.39100
H  40.09500 43.46400 33.24000
H  41.73500 43.03200 33.78000
H  45.44700 35.84200 28.48200
H  43.84200 35.10500 28.30200
H  44.16800 36.37100 29.60600
H  45.96800 35.29600 26.24100
H  45.68900 34.27500 24.91900
H  44.60300 34.16100 26.23400
H  41.93600 39.79300 22.21300
H  42.42000 42.74500 22.01100
H  44.85400 40.63400 21.98500
H  43.82200 41.35200 20.94000
H  43.78300 39.50600 21.03000
H  40.26200 41.45100 21.33300
H  40.03200 42.85500 22.21600
H  39.99200 41.18000 24.35800
H  39.52500 40.01100 23.04800
H  38.54500 41.44900 23.34400
H  40.92500 46.36700 24.39200
H  41.27800 47.37200 25.87200
H  39.79400 46.52000 25.70700
H  40.43100 44.54300 30.40900
H  43.61200 46.34600 33.12400
H  42.49400 45.76700 34.36100
H  42.12700 47.14600 33.51900
Mg 4.70800 55.40400 40.52200
C  3.52100 52.09100 40.67800
C  7.57600 54.34400 38.89400
C  5.67400 58.56300 40.06400
C  1.58400 56.50200 41.81300
N  5.30100 53.40800 39.67200
C  4.74300 52.20900 39.92300
C  5.42500 51.11400 39.08600
C  6.81400 51.77900 38.95200
C  6.57900 53.32200 39.15600
C  7.98600 51.23100 39.88300
C  4.56700 50.91100 37.77200
C  4.55200 49.50500 37.06000
H  5.18500 49.35800 35.63300
N  6.51500 56.31400 39.75200
C  7.61900 55.67200 39.26100
C  8.64900 56.62200 39.07200
C  8.06600 57.93600 39.20600
C  6.71400 57.65100 39.72100
C  10.02800 56.34200 38.50300
C  8.66900 59.24400 38.99300
O  9.78800 59.33900 38.50800
C  8.07500 60.55400 39.43000
N  3.66800 57.26500 40.72300
C  4.37000 58.40900 40.61600
C  3.54000 59.65100 41.14200
C  2.22000 58.94100 41.47500
C  2.50000 57.47700 41.40500
C  4.27300 60.39900 42.28500
C  1.06200 59.28600 40.46500
C  -0.26500 59.83700 41.08900
N  2.80900 54.53000 41.03100
C  1.68900 55.07900 41.63000
C  0.88100 54.04600 42.06100
C  1.47500 52.81800 41.67200
C  2.71500 53.21800 41.12600
C  -0.43700 54.17700 42.75700
C  1.42700 51.38000 41.75900
O  0.51800 50.71600 42.22000
C  2.78700 50.84900 41.08300
C  2.49700 49.87900 40.03800
O  1.69200 50.07400 39.14200
O  3.19700 48.72400 40.31800
C  2.78700 47.53900 39.50800
H  8.48800 53.92600 38.46300
H  6.07200 59.57900 40.04400
H  0.72500 56.92900 42.33400
H  5.29900 50.28800 39.78600
H  7.19500 51.61500 37.94400
H  7.73600 50.29200 40.37700
H  8.28900 51.91100 40.67800
H  8.81300 51.06200 39.19300
H  5.00500 51.43900 36.92500
H  3.63100 51.45100 37.91000
H  3.53300 49.14000 36.93500
H  5.09700 48.75400 37.63300
H  10.12600 55.27000 38.32900
H  10.79700 56.69700 39.19000
H  10.24900 56.88900 37.58700
H  8.78600 61.38000 39.39100
H  7.95400 60.62300 40.51100
H  7.13500 60.74700 38.91300
H  3.49100 60.41200 40.36300
H  1.95000 59.17200 42.50600
H  5.35400 60.26700 42.30900
H  3.75300 60.14900 43.21100
H  4.23100 61.47500 42.11900
H  0.80300 58.31900 40.03400
H  1.38100 59.97400 39.68200
H  -0.95400 59.76300 40.24800
H  -0.27300 60.86100 41.46300
H  -0.68800 59.29100 41.93300
H  -0.65400 55.21900 42.99100
H  -0.40800 53.55300 43.65000
H  -1.26200 53.83800 42.13100
H  3.42800 50.33200 41.79800
H  2.67100 47.80200 38.45600
H  1.80800 47.22600 39.87200
H  3.53100 46.75400 39.64700

