158

Mg 24.30300 -5.47800 45.69800
C  26.52900 -3.25000 44.19100
C  21.88300 -4.52500 43.45200
C  22.46100 -8.13700 46.58400
C  27.10200 -6.74100 47.58400
N  24.18700 -3.98200 44.04400
C  25.30900 -3.29600 43.54000
C  24.87200 -2.46900 42.30700
C  23.32200 -2.78300 42.16600
C  23.07900 -3.85300 43.29200
C  22.36100 -1.63300 42.52000
C  25.68100 -2.82600 40.98000
C  26.27900 -1.57800 40.24500
H  25.79900 -1.19000 38.89500
N  22.35300 -6.06300 45.26600
C  21.52700 -5.60900 44.26900
C  20.25300 -6.40000 44.35400
C  20.40200 -7.29800 45.32100
C  21.74400 -7.16500 45.78200
C  19.10500 -6.20800 43.42100
C  19.32800 -8.29400 45.75600
O  18.22500 -8.29300 45.22300
C  19.49400 -9.39600 46.88500
N  24.76000 -7.20000 46.88700
C  23.83100 -8.23100 47.00500
C  24.46900 -9.48000 47.60600
C  25.78800 -8.90300 48.25300
C  25.96600 -7.58900 47.49700
C  23.64300 -10.16800 48.80500
C  27.04600 -9.86800 48.11200
C  27.65100 -10.40600 49.40700
N  26.36700 -5.06600 46.00000
C  27.33700 -5.51000 46.87000
C  28.58000 -4.86300 46.57200
C  28.26300 -3.98000 45.54400
C  26.91500 -4.11500 45.24600
C  29.86100 -5.22900 47.12200
C  28.84400 -3.00300 44.68900
O  30.06100 -2.69700 44.60100
C  27.68700 -2.44200 43.83900
C  27.69400 -0.94600 44.12000
O  27.20000 -0.42400 45.10400
O  28.38600 -0.25700 43.14200
C  28.80900 1.12900 43.29600
H  21.15400 -4.29900 42.67100
H  21.86700 -9.04400 46.71300
H  28.02500 -7.06000 48.07200
H  25.06000 -1.42300 42.55000
H  23.10600 -3.15200 41.16300
H  22.69400 -0.69500 42.07400
H  22.41500 -1.38400 43.57900
H  21.40000 -1.92300 42.09600
H  25.08900 -3.37800 40.25000
H  26.48700 -3.45400 41.36000
H  27.35900 -1.70400 40.16900
H  26.02500 -0.78600 40.95100
H  18.99500 -7.11900 42.83400
H  19.43500 -5.38400 42.78800
H  18.26500 -5.87000 44.02700
H  18.47500 -9.48000 47.26200
H  20.07700 -8.92800 47.67900
H  19.84900 -10.37300 46.55800
H  24.81200 -10.09200 46.77200
H  25.61600 -8.70600 49.31100
H  23.15800 -11.10700 48.53700
H  22.96200 -9.37900 49.12500
H  24.33700 -10.31400 49.63200
H  27.80900 -9.41500 47.48000
H  26.75200 -10.71900 47.49800
H  27.45300 -9.79000 50.28400
H  28.70200 -10.67500 49.30600
H  27.20800 -11.32300 49.79500
H  29.85700 -4.87300 48.15200
H  30.66800 -4.62400 46.70900
H  30.14100 -6.26700 46.93900
H  28.04900 -2.59000 42.82100
H  27.95900 1.74200 42.99300
H  29.62400 1.43100 42.63900
H  29.17800 1.61100 44.20000
Mg 45.44300 3.78000 46.98900
C  43.37400 6.48700 46.62900
C  42.65800 1.60200 46.58100
C  47.40400 1.01800 47.07200
C  48.23200 5.88500 46.82600
N  43.31200 4.02600 46.43400
C  42.65400 5.25300 46.42700
C  41.16500 5.11500 46.31000
C  40.94200 3.58200 46.41800
C  42.43900 3.01000 46.44700
C  40.16600 3.22100 47.67900
C  40.72600 5.63500 44.93800
C  39.69400 6.74700 44.87000
H  39.92500 7.83200 43.80700
N  45.05000 1.52200 46.94300
C  43.86000 0.91500 46.76500
C  44.07200 -0.52000 46.89500
C  45.47500 -0.78300 46.93700
C  46.04200 0.58400 46.98900
C  42.92900 -1.45500 46.66000
C  46.19400 -2.09400 46.82500
O  45.54500 -3.09600 46.84500
C  47.68900 -2.18000 46.89000
N  47.53400 3.47400 46.62400
C  48.08000 2.24900 46.99900
C  49.59800 2.41400 47.28300
C  49.83500 3.96700 47.00000
C  48.44300 4.51500 46.76800
C  50.08200 1.85200 48.60900
C  50.63900 4.25800 45.66100
C  51.71200 5.40100 45.66400
N  45.82400 5.81300 46.79800
C  47.01800 6.53300 46.81800
C  46.63600 7.98700 46.91900
C  45.22400 8.03500 46.77900
C  44.75300 6.67400 46.76500
C  47.57100 9.14600 47.09400
C  44.08700 8.87200 46.75000
O  44.00900 10.11700 46.81800
C  42.86800 7.93400 46.61600
C  41.89400 8.28400 47.61300
O  41.93200 7.90000 48.74600
O  40.82800 9.01300 47.03100
C  39.73200 9.29100 48.00200
H  41.75000 1.00100 46.49800
H  48.18300 0.32100 47.38700
H  49.19100 6.34500 47.07300
H  40.58900 5.69000 47.03500
H  40.48500 3.09900 45.55500
H  39.23200 2.74400 47.38300
H  39.75300 4.07600 48.21300
H  40.67100 2.50200 48.32400
H  40.33700 4.88300 44.25100
H  41.58500 5.96100 44.35100
H  39.71800 7.30000 45.81000
H  38.67200 6.42600 44.66800
H  42.29800 -1.66500 47.52300
H  43.21500 -2.47100 46.38900
H  42.22600 -0.97100 45.98100
H  47.97200 -3.20000 46.63100
H  48.06600 -1.92900 47.88100
H  48.10300 -1.57700 46.08200
H  50.01300 1.91300 46.40900
H  50.38500 4.33500 47.86600
H  50.79600 1.04800 48.43400
H  49.26000 1.60200 49.27900
H  50.71800 2.54500 49.16000
H  49.91100 4.48500 44.88200
H  51.21300 3.37400 45.38400
H  51.51200 6.18900 44.93800
H  52.70800 4.98400 45.51200
H  51.75700 5.76700 46.69000
H  47.04400 10.09600 47.00200
H  48.25100 9.05700 46.24600
H  48.10300 8.98900 48.03300
H  42.41200 8.12300 45.64400
H  39.95600 10.10400 48.69200
H  39.31900 8.41500 48.50200
H  38.93400 9.77300 47.43800

