158

Mg 1.00800 7.64400 26.45000
C  1.64000 9.81500 29.19600
C  1.31700 4.99800 28.65500
C  0.50100 5.63600 23.90900
C  1.46300 10.38700 24.32700
N  1.32200 7.43300 28.69000
C  1.54800 8.46100 29.56200
C  1.39000 7.88700 30.96500
C  1.66000 6.39100 30.79000
C  1.43300 6.23500 29.27300
C  3.00500 5.77000 31.19500
C  0.13100 8.36300 31.73100
C  0.44000 8.65900 33.20300
H  1.53600 7.88700 33.84600
N  0.77900 5.64700 26.30700
C  0.95400 4.69200 27.35200
C  0.59200 3.38000 26.84400
C  0.36300 3.50100 25.43000
C  0.58300 4.92000 25.16100
C  0.47200 2.09300 27.75000
C  0.16800 2.45500 24.24000
O  -0.01200 2.76000 23.06900
C  0.24800 0.96000 24.68000
N  1.20200 7.91100 24.39600
C  0.68300 6.98800 23.61500
C  0.48900 7.55500 22.19900
C  0.60500 9.05900 22.40100
C  1.15100 9.12900 23.83500
C  1.42200 6.98900 21.10900
C  -0.74800 9.88400 22.22700
C  -0.66700 11.07100 21.14200
N  1.50000 9.71100 26.62500
C  1.65900 10.71900 25.67500
C  2.12300 11.92100 26.27800
C  2.02200 11.63200 27.67800
C  1.65000 10.30700 27.85900
C  2.30200 13.25700 25.58800
C  2.24900 12.22400 29.00000
O  2.71600 13.31700 29.31000
C  1.96600 11.03700 30.00700
C  3.13200 10.97700 30.95800
O  4.12500 10.33100 30.71600
O  2.92300 11.79600 32.11500
C  4.03400 11.77000 33.09300
H  1.47200 4.19400 29.37800
H  0.32900 5.10100 22.97300
H  1.44900 11.23000 23.63300
H  2.24800 8.24600 31.53400
H  0.85100 5.77600 31.18500
H  3.54300 6.46300 31.84100
H  3.62400 5.54100 30.32800
H  2.81400 4.85000 31.74600
H  -0.56900 7.52700 31.76000
H  -0.23000 9.32800 31.37600
H  -0.42100 8.28500 33.75700
H  0.38800 9.70800 33.49600
H  1.39800 1.52500 27.84300
H  -0.24700 1.35800 27.38900
H  0.06800 2.50100 28.67700
H  0.32300 0.50100 23.69500
H  -0.63200 0.70300 25.26900
H  1.10900 0.71000 25.30000
H  -0.50300 7.33500 21.80400
H  1.43000 9.43500 21.79700
H  1.67400 5.94500 21.29200
H  2.24900 7.62700 20.79600
H  0.82100 6.87700 20.20700
H  -1.03700 10.33200 23.17800
H  -1.61800 9.24000 22.09200
H  -1.16800 10.96900 20.18000
H  0.37000 11.34700 20.94900
H  -1.20300 11.93800 21.52800
H  1.43500 13.88400 25.37600
H  2.69500 12.91500 24.63000
H  2.96200 13.87000 26.20200
H  1.10600 11.22900 30.64800
H  4.86600 11.10800 32.85300
H  3.70300 11.60400 34.11900
H  4.46000 12.76500 32.96800
Mg 53.76800 24.18000 43.99900
C  51.05700 26.20300 43.08200
C  52.39100 21.64700 42.13700
C  56.77100 22.54100 44.14000
C  55.19900 26.96900 45.59900
N  52.10500 24.07300 42.44400
C  51.11800 25.05700 42.33500
C  49.93800 24.49100 41.42400
C  50.24900 22.91800 41.37500
C  51.66400 22.85700 42.04700
C  49.21900 22.00600 41.99700
C  49.75700 25.07700 39.94400
C  51.09800 25.46000 39.38000
H  51.16200 25.99600 37.94600
N  54.38800 22.27400 43.41000
C  53.61100 21.34400 42.76400
C  54.26400 20.06900 42.86400
C  55.59100 20.33600 43.45300
C  55.61800 21.78600 43.66000
C  53.62000 18.77300 42.29400
C  56.64000 19.28400 43.65500
O  56.33600 18.08800 43.49100
C  58.08600 19.60000 44.23900
N  55.78200 24.81900 44.44900
C  56.82000 23.94300 44.51800
C  58.07200 24.64800 45.16900
C  57.46700 25.92700 45.80900
C  56.05700 25.89300 45.31100
C  58.98600 23.84500 46.17900
C  58.20200 27.27400 45.46400
C  58.29100 28.31000 46.59400
N  53.18700 26.14700 44.37500
C  53.82700 27.08900 45.19100
C  52.89800 28.21400 45.40000
C  51.83200 27.89600 44.55000
C  52.06600 26.66600 43.96400
C  53.19800 29.52000 46.16800
C  50.60600 28.43400 44.03100
O  50.10800 29.52700 44.35300
C  49.98200 27.30500 43.30500
C  49.54500 27.87600 42.05800
O  50.27800 28.39100 41.20200
O  48.15700 27.83900 41.95600
C  47.66000 28.49900 40.73200
H  51.92100 20.77700 41.67300
H  57.68900 21.97100 44.29300
H  55.59800 27.66700 46.33700
H  48.96000 24.65000 41.87700
H  50.26700 22.68600 40.31000
H  48.42600 22.64300 42.39000
H  49.65000 21.53900 42.88300
H  48.91900 21.21100 41.31500
H  49.05600 25.90800 39.88200
H  49.30700 24.30600 39.31700
H  51.63800 24.51300 39.39200
H  51.60900 26.15200 40.04900
H  54.23700 18.57200 41.41800
H  52.55100 18.88000 42.10900
H  53.84600 18.05100 43.07900
H  57.91900 20.13300 45.17500
H  58.63700 20.13900 43.46900
H  58.55600 18.63800 44.43800
H  58.60200 25.10800 44.33500
H  57.39200 25.82100 46.89100
H  59.92400 23.70000 45.64300
H  58.38100 22.99700 46.50100
H  59.08100 24.33000 47.15000
H  57.64700 27.84600 44.72000
H  59.20400 27.09300 45.07500
H  59.30600 28.66900 46.76100
H  58.02400 27.99400 47.60300
H  57.64900 29.16800 46.39500
H  52.31900 29.64800 46.79900
H  53.45000 30.28300 45.43200
H  54.13400 29.33800 46.69600
H  49.14800 26.87900 43.86400
H  47.79500 29.57400 40.85400
H  46.57500 28.42200 40.65400
H  48.19700 28.13700 39.85600

