158

Mg 8.30900 3.33300 27.73400
C  9.65300 2.15800 30.70900
C  6.47300 5.69200 29.67700
C  6.95200 4.46600 24.93800
C  9.88300 0.83800 26.01200
N  7.94000 3.62700 30.02600
C  8.78700 3.18700 30.99800
C  8.53500 3.84300 32.37400
C  7.34200 4.77600 31.97600
C  7.23000 4.69800 30.47200
C  5.96000 4.77200 32.73200
C  9.69500 4.52700 33.09600
C  10.04600 4.04100 34.56100
H  10.46700 5.06200 35.60400
N  6.90600 4.82800 27.41300
C  6.24500 5.66100 28.27700
C  5.45000 6.61400 27.41800
C  5.61500 6.27800 26.04000
C  6.56500 5.18700 26.09800
C  4.65000 7.75800 28.12800
C  5.02100 6.88200 24.87300
O  5.28100 6.64100 23.65600
C  3.85300 7.89100 25.04300
N  8.47900 2.76700 25.65600
C  7.76300 3.34400 24.74600
C  8.16000 2.80500 23.38900
C  9.40400 1.92400 23.67000
C  9.24500 1.79100 25.20100
C  7.00500 2.17700 22.59400
C  10.70200 2.67000 23.29300
C  11.04600 2.48400 21.83800
N  9.48700 1.67900 28.22400
C  10.09700 0.85000 27.39800
C  10.92800 -0.02400 28.21700
C  10.81400 0.49300 29.55200
C  9.89700 1.48700 29.47500
C  11.85400 -1.01700 27.60000
C  11.26300 0.29200 30.86500
O  12.00300 -0.52400 31.37900
C  10.61900 1.43900 31.64500
C  9.78900 0.79700 32.75100
O  8.56100 0.62100 32.79900
O  10.65000 0.60200 33.82600
C  9.95800 0.28500 35.06200
H  6.19300 6.42100 30.44100
H  6.48000 4.79600 24.01100
H  10.51200 0.16700 25.42200
H  8.05300 3.07300 32.97600
H  7.68500 5.79000 32.18200
H  5.16300 4.21600 32.23900
H  5.55700 5.77300 32.88200
H  6.06500 4.25700 33.68700
H  9.49300 5.59500 33.01500
H  10.58900 4.33500 32.50300
H  10.92300 3.42900 34.34700
H  9.19700 3.50200 34.98100
H  3.65200 7.32000 28.10200
H  4.60000 8.62200 27.46400
H  5.09800 7.96900 29.09900
H  3.09300 7.73400 25.80900
H  3.35500 7.85900 24.07400
H  4.40700 8.81700 25.20000
H  8.37600 3.53400 22.60700
H  9.34500 0.98900 23.11300
H  6.04800 2.24500 23.11100
H  7.25900 1.15600 22.30800
H  6.78200 2.75800 21.69900
H  11.46100 2.36000 24.01100
H  10.48000 3.70600 23.55100
H  10.78400 3.33800 21.21400
H  10.66600 1.55800 21.40600
H  12.12300 2.31900 21.78900
H  12.31200 -0.65100 26.68100
H  11.31600 -1.90700 27.27400
H  12.55600 -1.13600 28.42500
H  11.40300 2.12700 31.96000
H  10.58900 0.43000 35.93900
H  9.63700 -0.75600 35.10000
H  9.11800 0.97400 35.14800
Mg -5.93100 25.77500 25.71700
C  -4.21200 26.88300 28.69100
C  -7.64200 23.54800 27.85800
C  -6.76400 23.80500 23.06000
C  -3.56100 27.53600 23.87500
N  -5.94500 25.38700 27.99700
C  -5.26900 26.00100 28.95400
C  -5.69700 25.53400 30.39700
C  -6.63400 24.33000 30.11900
C  -6.80200 24.43500 28.53100
C  -5.97000 23.01600 30.53700
C  -6.45000 26.67900 31.12600
C  -6.59800 26.68600 32.67800
H  -5.93500 25.47300 33.41400
N  -7.16100 23.99300 25.49300
C  -7.80900 23.27400 26.46700
C  -8.59200 22.24600 25.87200
C  -8.31200 22.21800 24.52200
C  -7.40500 23.35300 24.28200
C  -9.59200 21.32300 26.61000
C  -8.96700 21.38100 23.40800
O  -8.53100 21.44200 22.29500
C  -10.10900 20.39000 23.61400
N  -5.32000 25.72800 23.74500
C  -5.80800 24.82500 22.86100
C  -5.11000 24.98100 21.49500
C  -4.07400 26.13000 21.75800
C  -4.40200 26.60400 23.20300
C  -4.43700 23.59100 21.12400
C  -4.06600 27.26900 20.67800
C  -2.66100 27.60900 20.08400
N  -4.36300 27.15900 26.15700
C  -3.49100 27.80300 25.27000
C  -2.60100 28.66200 26.01100
C  -2.82200 28.32100 27.33900
C  -3.88600 27.36800 27.39100
C  -1.46900 29.50100 25.38200
C  -2.32600 28.50500 28.77100
O  -1.38000 29.20900 29.20600
C  -3.27000 27.61000 29.65800
C  -2.25300 26.73600 30.24200
O  -1.51600 25.99000 29.60600
O  -2.32000 26.81800 31.56700
C  -1.79500 25.78300 32.38100
H  -8.22200 22.82000 28.42900
H  -7.07400 23.25300 22.17000
H  -2.81800 28.03400 23.24700
H  -4.88100 25.30000 31.08100
H  -7.59200 24.39800 30.63300
H  -5.01400 23.20900 31.02400
H  -5.79000 22.43900 29.63000
H  -6.63400 22.44500 31.18600
H  -7.44500 26.84100 30.71200
H  -5.97400 27.63700 30.91500
H  -7.64900 26.75300 32.95900
H  -6.04600 27.58900 32.93700
H  -10.55500 21.76700 26.36000
H  -9.25700 21.34500 27.64800
H  -9.72500 20.29500 26.27400
H  -10.54000 20.10200 22.65500
H  -10.89400 20.82200 24.23500
H  -9.78700 19.50800 24.16800
H  -5.94900 25.31700 20.88600
H  -3.10200 25.64300 21.83600
H  -4.71900 23.30800 20.11000
H  -4.83500 22.80500 21.76600
H  -3.35000 23.63800 21.05700
H  -4.60700 28.09500 21.13900
H  -4.72400 26.95900 19.86600
H  -1.81400 27.09500 20.53800
H  -2.52900 28.68000 19.93100
H  -2.51500 27.20900 19.08100
H  -0.62900 29.62100 26.06600
H  -1.87900 30.45400 25.04900
H  -1.09500 28.91900 24.53900
H  -3.69100 28.19200 30.47800
H  -2.53000 24.99900 32.56200
H  -1.65000 26.33100 33.31200
H  -0.80500 25.37800 32.17000

