158

Mg 48.25900 34.16800 26.13900
C  46.75800 32.94500 29.02900
C  48.90300 37.18400 27.89900
C  49.89100 35.31800 23.43400
C  47.37100 31.25500 24.43600
N  47.93500 34.90400 28.27900
C  47.34600 34.20700 29.27400
C  47.57200 34.97500 30.63300
C  47.98700 36.43800 30.12700
C  48.28400 36.17500 28.70900
C  46.86200 37.48800 30.30300
C  48.70600 34.48300 31.56000
C  48.68200 34.78200 33.03800
H  47.37200 35.32800 33.62000
N  49.13800 36.03900 25.69500
C  49.32100 37.14200 26.51200
C  49.98800 38.25500 25.84500
C  50.23700 37.75100 24.53700
C  49.74700 36.29200 24.45100
C  50.32400 39.53800 26.52000
C  50.76500 38.51200 23.36900
O  50.78500 38.06600 22.25700
C  51.31100 39.87200 23.51700
N  48.39200 33.43700 24.06100
C  49.33400 34.02600 23.22000
C  49.48900 33.21100 21.98700
C  48.59400 31.89800 22.26600
C  48.03200 32.22700 23.66700
C  49.20100 33.94100 20.63100
C  49.23100 30.49800 22.04100
C  48.91100 29.72000 20.75100
N  47.25000 32.44300 26.61700
C  46.95200 31.39300 25.81000
C  46.11900 30.42300 26.55200
C  46.00400 31.00700 27.79300
C  46.68900 32.22800 27.82900
C  45.62400 29.11400 26.00500
C  45.44000 30.83300 29.02900
O  44.67700 29.97300 29.49000
C  45.98800 31.97900 29.98000
C  46.83500 31.33700 30.99000
O  47.93800 30.91700 30.70400
O  46.23000 31.35200 32.25100
C  47.00200 30.63500 33.24100
H  49.09900 38.09800 28.46300
H  50.54700 35.60200 22.60800
H  46.96800 30.35200 23.97400
H  46.61300 34.97500 31.15100
H  48.87400 36.78700 30.65500
H  46.57500 37.99400 29.38100
H  47.19000 38.32400 30.92100
H  45.95100 37.06400 30.72600
H  49.65500 34.88800 31.21000
H  48.92100 33.42800 31.39500
H  49.51600 35.45700 33.23100
H  48.88300 33.78900 33.43900
H  50.46800 39.53800 27.60000
H  49.71100 40.37300 26.18000
H  51.33900 39.86300 26.28900
H  50.56700 40.60200 23.83600
H  51.91200 40.12500 22.64300
H  52.09900 39.86900 24.27100
H  50.55300 32.99900 21.88400
H  47.72400 31.95100 21.61100
H  48.61400 33.22400 20.05500
H  50.11500 34.11500 20.06200
H  48.70600 34.89100 20.83200
H  49.03100 29.77100 22.82800
H  50.32100 30.50900 22.04900
H  48.38300 30.49900 20.20200
H  48.30900 28.85400 21.02700
H  49.86100 29.44100 20.29300
H  46.35900 28.33600 26.21000
H  45.39900 29.10600 24.93800
H  44.64500 28.96600 26.45900
H  45.18200 32.48100 30.51500
H  46.68000 30.91700 34.24400
H  48.02800 30.95700 33.06700
H  46.83200 29.57900 33.03000
Mg 41.77200 40.49400 26.90800
C  41.02200 42.77300 29.56400
C  42.96700 38.39200 29.34600
C  42.68700 38.47100 24.39600
C  41.32400 43.06800 24.60700
N  42.05400 40.64400 29.16300
C  41.53900 41.57200 30.07500
C  41.56000 41.15400 31.56100
C  42.19300 39.73400 31.30400
C  42.54000 39.60500 29.86800
C  43.33200 39.38000 32.28000
C  40.22400 41.22000 32.33000
C  40.27000 41.71600 33.81200
H  39.65000 40.84200 34.95600
N  42.73000 38.69400 26.84600
C  43.08100 37.92200 27.98300
C  43.64500 36.69000 27.48900
C  43.63000 36.69200 26.13500
C  43.01500 37.99400 25.71000
C  44.15200 35.56000 28.44200
C  43.97900 35.58100 25.09300
O  43.79800 35.64400 23.90600
C  44.51700 34.26000 25.57500
N  42.19000 40.83600 24.84100
C  42.31800 39.79500 24.02900
C  42.12000 40.06200 22.54800
C  41.73000 41.57500 22.57300
C  41.78700 41.86300 24.11500
C  43.31400 39.66400 21.53900
C  40.37200 41.90400 21.82300
C  39.00600 41.66200 22.44900
N  41.19200 42.51200 26.95900
C  41.01300 43.39800 25.94500
C  40.44100 44.61900 26.55900
C  40.44400 44.41700 27.91100
C  40.96200 43.11300 28.17500
C  40.13100 45.89800 25.83800
C  40.12400 45.04200 29.13600
O  39.73800 46.19600 29.35000
C  40.42200 43.99100 30.22700
C  41.28500 44.66000 31.16100
O  42.35000 45.25400 30.90600
O  40.87100 44.49300 32.44300
C  41.68200 45.11900 33.52300
H  43.23300 37.61200 30.06300
H  42.69900 37.81200 23.52500
H  41.06300 43.84700 23.88800
H  42.30000 41.83400 31.98300
H  41.47200 38.97200 31.60200
H  43.33700 40.00700 33.17100
H  44.31000 39.40300 31.79800
H  43.23100 38.36400 32.66100
H  39.92400 40.18000 32.45200
H  39.41700 41.63500 31.72700
H  39.68600 42.63100 33.70900
H  41.24400 42.13200 34.07100
H  45.21000 35.49500 28.19100
H  43.61300 34.63800 28.22400
H  44.14700 35.83000 29.49800
H  45.36500 34.22600 26.26000
H  44.68400 33.78300 24.60900
H  43.64900 33.75200 25.99500
H  41.21000 39.57500 22.19700
H  42.56200 42.15300 22.17000
H  43.71200 40.47900 20.93400
H  42.88000 38.87900 20.91900
H  44.04200 39.37200 22.29600
H  40.29200 41.18700 21.00600
H  40.46000 42.92300 21.44900
H  38.68700 42.63800 22.81700
H  39.15000 40.89800 23.21200
H  38.27300 41.21900 21.77500
H  39.44700 45.54000 25.06900
H  41.02500 46.27700 25.34400
H  39.72200 46.67100 26.49000
H  39.51100 43.62200 30.69700
H  41.01800 45.62400 34.22400
H  42.36900 45.91600 33.23800
H  42.13300 44.26200 34.02400

