158

Mg 9.34800 48.08800 25.96500
C  7.49900 47.71900 28.80200
C  12.07500 49.08400 27.70700
C  10.99800 48.39800 22.93400
C  6.38300 47.59800 24.07800
N  9.68700 48.42400 27.97600
C  8.83000 48.12800 29.01200
C  9.54100 48.28100 30.40600
C  10.90800 48.79700 29.92300
C  10.90300 48.71700 28.40300
C  11.29700 50.22200 30.58000
C  9.55000 46.98600 31.22400
C  10.48700 46.92300 32.41000
H  9.93400 46.38000 33.72800
N  11.23700 48.79900 25.40500
C  12.24000 49.05200 26.28300
C  13.50300 49.15700 25.57300
C  13.23800 48.96700 24.16600
C  11.73400 48.70100 24.14000
C  14.75000 49.43200 26.38700
C  14.14900 48.96700 22.98800
O  13.73800 48.86400 21.82700
C  15.59900 49.29600 23.12000
N  8.70000 48.14100 23.77100
C  9.61800 48.18800 22.79500
C  8.92100 47.85500 21.42300
C  7.41800 47.58200 21.77500
C  7.50000 47.76100 23.28400
C  9.10500 48.88000 20.20400
C  6.80500 46.28500 21.20200
C  7.41400 44.96200 21.75600
N  7.30000 47.83800 26.32500
C  6.23200 47.64500 25.48400
C  5.02800 47.39700 26.20300
C  5.46700 47.34200 27.59200
C  6.83700 47.69900 27.60600
C  3.64400 46.99200 25.75400
C  5.01000 47.15300 28.93900
O  3.90200 46.95400 29.38900
C  6.35400 47.31200 29.78200
C  6.52100 46.00100 30.45600
O  6.97000 44.99000 30.02200
O  6.09100 46.09200 31.80800
C  6.35800 44.96000 32.71900
H  13.01400 49.20400 28.25100
H  11.53300 48.40700 21.98200
H  5.44200 47.34500 23.58400
H  8.95200 48.96400 31.01900
H  11.76300 48.20800 30.25700
H  11.36700 51.07900 29.91100
H  12.29400 50.15100 31.01300
H  10.62000 50.50300 31.38600
H  9.76400 46.16600 30.53900
H  8.55500 46.90900 31.66400
H  10.68400 47.98000 32.58900
H  11.41700 46.39600 32.20000
H  15.42800 48.61500 26.14000
H  14.73400 49.56400 27.46900
H  15.17000 50.34600 25.96700
H  15.63100 50.19100 23.74100
H  16.04700 49.38600 22.13000
H  15.95600 48.34900 23.52400
H  9.46400 46.93500 21.20600
H  6.83400 48.37500 21.30900
H  9.09900 48.31400 19.27300
H  10.01000 49.45400 20.40500
H  8.25200 49.55800 20.22200
H  7.00600 46.29900 20.13100
H  5.73400 46.19600 21.38100
H  6.72100 44.12200 21.78200
H  7.77100 45.12900 22.77300
H  8.32200 44.68900 21.21700
H  3.20900 46.04300 26.06600
H  3.67800 46.90100 24.66800
H  3.01300 47.86400 25.92500
H  6.35000 48.05700 30.57700
H  7.24500 44.38100 32.45700
H  5.46600 44.34200 32.61600
H  6.30800 45.50000 33.66400
Mg -1.96000 33.35900 26.69500
C  -3.63200 31.76700 29.20800
C  -0.75200 35.68100 28.96300
C  -0.75100 35.11900 24.17300
C  -3.62700 31.25400 24.39400
N  -2.21000 33.76600 28.86300
C  -2.84100 32.87400 29.65500
C  -2.76800 33.34500 31.16500
C  -1.84800 34.67400 31.09400
C  -1.69100 34.84100 29.52000
C  -2.46400 35.92400 31.76400
C  -2.31300 32.19400 32.06600
C  -1.61000 32.53400 33.39600
H  -1.93200 31.62000 34.54300
N  -0.66200 35.05200 26.53200
C  -0.30300 35.83900 27.58700
C  0.63000 36.83400 27.03700
C  0.59000 36.74900 25.66100
C  -0.31800 35.58800 25.39700
C  1.34200 37.71700 28.01600
C  1.26300 37.58700 24.58700
O  1.16700 37.39100 23.35900
C  2.10000 38.81200 25.02300
N  -2.47800 33.43400 24.65100
C  -1.60500 34.14000 23.82300
C  -1.71000 33.70500 22.37000
C  -2.23500 32.21000 22.58000
C  -2.80900 32.27600 23.97300
C  -2.35300 34.66600 21.36400
C  -1.24900 31.03900 22.27600
C  -0.59300 30.25200 23.40500
N  -3.40300 31.78600 26.73900
C  -3.97000 31.03800 25.72700
C  -4.82600 30.09700 26.26900
C  -4.74100 30.29800 27.66200
C  -3.88100 31.41500 27.85200
C  -5.68100 29.07400 25.48200
C  -5.22900 29.94300 28.98800
O  -5.85500 28.98200 29.31900
C  -4.38100 30.79700 30.02300
C  -5.34700 31.45900 30.92600
O  -5.97000 32.47500 30.74500
O  -5.69100 30.57900 31.93600
C  -6.69300 31.19300 32.85200
H  -0.38400 36.48800 29.59900
H  -0.31100 35.67100 23.34000
H  -3.80900 30.42600 23.70600
H  -3.75000 33.72700 31.44400
H  -0.83900 34.37800 31.38300
H  -1.63700 36.35500 32.32800
H  -3.23500 35.47700 32.39200
H  -2.93300 36.59100 31.04100
H  -1.82500 31.34600 31.58600
H  -3.30200 31.85700 32.37800
H  -1.70900 33.55800 33.75500
H  -0.55100 32.37100 33.19500
H  2.35500 37.81800 27.62700
H  1.20800 37.37600 29.04300
H  0.82600 38.67500 27.95900
H  1.39600 39.43000 25.58000
H  2.54400 39.27800 24.14400
H  2.98300 38.49600 25.57900
H  -0.72100 33.66900 21.91300
H  -3.06800 32.22100 21.87700
H  -2.58800 35.57500 21.91700
H  -3.23100 34.27000 20.85300
H  -1.62500 34.83500 20.57100
H  -0.49100 31.40700 21.58500
H  -1.87800 30.29900 21.78000
H  0.49200 30.20400 23.30700
H  -0.85100 29.19600 23.32800
H  -0.84800 30.62500 24.39600
H  -5.20000 28.70500 24.57600
H  -6.59200 29.63400 25.27000
H  -5.79500 28.24400 26.17900
H  -3.64500 30.21800 30.58100
H  -7.24600 30.45000 33.42500
H  -7.55800 31.62900 32.35300
H  -6.29400 31.91100 33.57000

