158

Mg 54.79100 23.38400 45.29100
C  52.34400 25.71600 44.27300
C  52.65600 20.90300 44.32700
C  57.23400 21.22200 45.89300
C  56.87400 26.03200 46.26300
N  52.87500 23.35300 44.12000
C  51.95400 24.42300 44.03900
C  50.58500 23.89000 43.40400
C  50.58500 22.43700 43.94500
C  52.13800 22.21700 44.09600
C  49.87400 22.18900 45.22100
C  50.39900 24.13000 41.87200
C  49.05200 24.63600 41.40000
H  48.50700 23.98100 40.14200
N  54.88800 21.29600 45.09000
C  53.93500 20.39600 44.72900
C  54.44100 19.05200 44.80200
C  55.76200 19.11800 45.17700
C  56.01700 20.58400 45.45600
C  53.58900 17.86400 44.55100
C  56.73500 17.95400 45.46900
O  56.38000 16.75700 45.38600
C  58.18300 18.15300 45.84700
N  56.79400 23.64100 45.74600
C  57.53400 22.53600 46.09200
C  58.93600 22.92600 46.50500
C  58.83500 24.48500 46.47000
C  57.39800 24.78500 46.25500
C  59.39700 22.41900 47.92700
C  59.75300 25.23900 45.45500
C  60.79800 26.24200 46.06900
N  54.70000 25.50700 45.22900
C  55.59100 26.37300 45.74900
C  54.99400 27.73100 45.62600
C  53.69700 27.47200 44.99700
C  53.62000 26.09800 44.79500
C  55.54600 29.06400 46.04000
C  52.45100 28.11700 44.58100
O  52.09800 29.26400 44.72100
C  51.67000 26.97400 43.91500
C  51.69100 27.21300 42.48600
O  52.54800 26.90200 41.67700
O  50.57000 27.98100 42.22200
C  50.44900 28.35900 40.80900
H  51.90200 20.11400 44.30300
H  58.05200 20.54900 46.16000
H  57.55500 26.86200 46.45900
H  49.82400 24.40400 43.99200
H  50.23200 21.73600 43.18900
H  48.98100 22.79400 45.37400
H  50.50200 22.39200 46.08900
H  49.46600 21.18000 45.27200
H  50.72300 23.16400 41.48500
H  51.16300 24.82400 41.52000
H  49.17100 25.67100 41.08000
H  48.34500 24.52200 42.22200
H  52.69300 18.04800 45.14400
H  54.03300 16.98500 45.01800
H  53.38000 17.76000 43.48600
H  58.77600 18.77700 45.17900
H  58.68300 17.22000 46.10800
H  58.15900 18.57400 46.85200
H  59.58500 22.56600 45.70700
H  59.12200 24.60400 47.51400
H  59.29100 23.12800 48.74800
H  60.40200 22.01000 47.82800
H  58.78900 21.53900 48.13700
H  59.14800 25.73500 44.69600
H  60.31100 24.44700 44.95400
H  61.78600 26.08000 45.63600
H  60.74400 26.09100 47.14700
H  60.46400 27.24200 45.79200
H  56.57300 29.21700 45.71100
H  55.48000 29.17700 47.12200
H  54.94200 29.87900 45.64000
H  50.66200 27.01200 44.32700
H  50.33100 29.43200 40.65600
H  49.60600 27.77800 40.43400
H  51.32500 28.29600 40.16300
Mg 47.81200 25.03000 28.06600
C  48.96700 27.27500 30.64800
C  47.35600 22.79600 30.66200
C  46.92100 22.98500 25.67300
C  49.30100 27.17000 25.67400
N  48.23100 25.11600 30.41200
C  48.42600 26.20100 31.20400
C  48.09600 25.94100 32.68100
C  47.58200 24.48100 32.63700
C  47.76300 24.02200 31.11700
C  48.26900 23.57300 33.68700
C  47.07200 26.95300 33.14900
C  46.50400 26.59600 34.55600
H  46.87300 27.43400 35.77200
N  47.23700 23.19200 28.13000
C  46.99200 22.42800 29.25800
C  46.41300 21.15500 28.83100
C  46.19400 21.24000 27.44200
C  46.75200 22.51200 27.01700
C  45.93600 20.06700 29.85900
C  45.43100 20.31100 26.45600
O  45.44600 20.44200 25.22300
C  44.86300 19.06400 27.02700
N  47.90500 25.12300 25.98100
C  47.46600 24.12900 25.12500
C  47.94300 24.35800 23.65700
C  48.47800 25.82300 23.72400
C  48.55300 26.05400 25.19200
C  49.08100 23.46700 23.13100
C  47.61300 26.90600 22.97100
C  48.27800 27.85100 21.87900
N  48.83300 26.81500 28.04900
C  49.49700 27.53700 27.06100
C  50.09200 28.67200 27.55200
C  49.89700 28.64200 28.96000
C  49.13800 27.52100 29.22600
C  50.90900 29.59800 26.73400
C  50.23900 29.35800 30.15900
O  50.84400 30.46500 30.19800
C  49.56300 28.56600 31.31300
C  50.58000 28.25600 32.29100
O  51.45100 27.46100 32.20000
O  50.32300 28.92300 33.42700
C  51.05200 28.48100 34.64500
H  46.96700 22.11600 31.42300
H  46.70600 22.33400 24.82300
H  49.72400 27.74900 24.85000
H  49.04800 26.13300 33.17700
H  46.52000 24.56400 32.87100
H  48.99100 22.87100 33.27000
H  47.59600 22.92500 34.24800
H  48.76800 24.24500 34.38600
H  46.24100 26.83100 32.45400
H  47.46400 27.96900 33.18100
H  46.82200 25.58400 34.80500
H  45.42300 26.47300 34.48500
H  44.88000 19.80700 29.79500
H  45.97100 20.41300 30.89200
H  46.66200 19.26800 29.70700
H  45.57000 18.50100 27.63600
H  44.72600 18.42400 26.15600
H  43.95400 19.31400 27.57400
H  47.12400 24.28700 22.94200
H  49.50600 25.97500 23.39500
H  48.78300 22.53600 22.65000
H  49.74500 23.29000 23.97800
H  49.71100 23.95100 22.38500
H  47.20900 27.55500 23.74900
H  46.84900 26.33300 22.44600
H  47.71700 27.87300 20.94500
H  49.28900 27.47700 21.71200
H  48.51600 28.82700 22.30200
H  50.32900 29.75000 25.82300
H  51.93500 29.29000 26.53100
H  50.98100 30.54800 27.26300
H  48.84500 29.23300 31.78800
H  51.04200 29.30700 35.35600
H  52.06300 28.08400 34.54800
H  50.38700 27.73300 35.07600

