158

Mg 16.90400 -1.60700 27.70300
C  16.57700 0.73300 30.31100
C  19.02000 -3.48600 30.03500
C  18.19700 -3.28100 25.25400
C  15.56900 0.79900 25.52400
N  17.78100 -1.36700 29.88400
C  17.31200 -0.41500 30.73600
C  17.73800 -0.71000 32.17700
C  18.84100 -1.89300 31.93600
C  18.50300 -2.32400 30.53600
C  20.42100 -1.45600 32.14700
C  16.47100 -1.04100 33.01200
C  16.35300 -0.38900 34.46600
H  17.53900 0.39100 35.11300
N  18.31100 -3.26200 27.60300
C  18.96800 -3.91900 28.68100
C  19.59900 -5.08200 28.07200
C  19.37000 -4.99900 26.69800
C  18.59400 -3.79800 26.48400
C  20.24400 -6.14800 28.89000
C  19.90900 -5.98400 25.61200
O  19.63900 -5.88200 24.42200
C  20.72000 -7.22800 26.08000
N  16.81800 -1.27900 25.60500
C  17.50300 -2.16400 24.87800
C  17.37400 -1.71600 23.38500
C  16.42600 -0.52400 23.41000
C  16.23600 -0.29800 24.93100
C  18.67500 -1.56500 22.54800
C  15.11500 -0.57400 22.53000
C  15.11700 0.34900 21.31200
N  16.13900 0.24100 27.86300
C  15.52500 1.11700 26.87800
C  14.83500 2.23800 27.55200
C  15.22100 2.11100 28.86200
C  16.03200 0.93700 29.00100
C  14.17100 3.29100 26.77800
C  15.15500 2.77700 30.11900
O  14.54200 3.81500 30.49300
C  16.04800 1.86600 31.14200
C  17.13900 2.56800 31.82500
O  18.32500 2.70400 31.55900
O  16.50300 3.36500 32.86600
C  17.39600 4.31500 33.53900
H  19.66800 -4.01500 30.73800
H  18.64300 -3.79100 24.39700
H  15.01500 1.46700 24.86200
H  18.21300 0.18200 32.58500
H  18.70800 -2.73100 32.61900
H  20.87100 -1.38600 31.15600
H  20.90700 -2.24900 32.71400
H  20.53900 -0.45300 32.55700
H  16.41100 -2.12900 33.05700
H  15.59000 -0.61000 32.53400
H  16.01400 -1.12200 35.19800
H  15.46100 0.23600 34.43500
H  21.30500 -5.91000 28.81300
H  19.98500 -7.15400 28.55800
H  19.95300 -6.14700 29.94000
H  20.10600 -8.02900 26.49100
H  21.54700 -7.01400 26.75800
H  21.10200 -7.71600 25.18300
H  16.86600 -2.48700 22.80600
H  16.94800 0.33200 22.98200
H  18.37100 -0.78500 21.85100
H  18.83800 -2.50100 22.01400
H  19.55900 -1.28100 23.11900
H  14.22400 -0.44200 23.14400
H  14.94900 -1.56800 22.11400
H  15.90200 -0.02500 20.65500
H  15.33100 1.36000 21.65800
H  14.23800 0.37000 20.66800
H  13.28600 2.90800 26.27000
H  14.93600 3.71600 26.12800
H  13.96500 4.08300 27.49700
H  15.41000 1.54100 31.96300
H  18.43000 3.99200 33.65700
H  16.98900 4.31800 34.55000
H  17.37000 5.34800 33.19200
Mg 6.65300 54.22200 41.36000
C  6.04100 50.75800 41.39700
C  9.63900 53.52200 39.62800
C  6.89200 57.46800 40.44400
C  3.47300 54.73800 42.64300
N  7.75900 52.34900 40.56600
C  7.27600 51.04600 40.72400
C  8.22100 50.05700 40.09600
C  9.55200 50.89300 40.00100
C  8.92200 52.32800 39.95900
C  10.58000 50.79500 41.13800
C  7.64200 49.40300 38.76100
C  6.82600 50.27400 37.80900
H  6.09400 49.58400 36.70600
N  8.08400 55.27700 40.38300
C  9.20000 54.83500 39.77200
C  10.00600 55.91000 39.28500
C  9.37900 57.11500 39.68900
C  8.05200 56.69600 40.17400
C  11.29700 55.76500 38.59500
C  10.05800 58.48900 39.56600
O  11.24500 58.60000 39.18500
C  9.40200 59.70100 40.11600
N  5.26900 55.87800 41.32400
C  5.70500 57.14500 41.07800
C  4.67800 58.16400 41.49400
C  3.55800 57.32100 42.17000
C  4.17000 55.87300 42.16300
C  5.26200 59.30900 42.47400
C  2.09500 57.28400 41.44300
C  1.05900 58.20700 42.22300
N  5.09400 53.01400 41.94500
C  3.92800 53.45100 42.57800
C  3.27900 52.24200 42.91500
C  4.01100 51.13800 42.51500
C  5.09900 51.69400 41.86800
C  1.95400 52.14400 43.62700
C  4.12500 49.70200 42.49800
O  3.42300 48.85200 42.97100
C  5.41700 49.39800 41.70500
C  5.04800 48.53800 40.56500
O  4.57300 48.89900 39.48300
O  5.38000 47.23300 40.81800
C  5.13200 46.27100 39.74400
H  10.56800 53.36800 39.07500
H  7.05800 58.51500 40.18500
H  2.52100 54.87400 43.16000
H  8.42700 49.23200 40.77800
H  9.97900 50.73700 39.01000
H  10.52200 49.74700 41.43000
H  10.28200 51.40600 41.99000
H  11.58900 51.08300 40.84500
H  7.09800 48.47000 38.90900
H  8.56900 49.10900 38.26900
H  7.38000 51.00900 37.22500
H  6.22800 50.99900 38.36100
H  11.35300 56.58100 37.87500
H  11.39200 54.82700 38.04700
H  12.15300 55.77800 39.26900
H  9.04700 59.33700 41.08000
H  8.51400 59.99800 39.55800
H  10.08300 60.55100 40.16200
H  4.26700 58.52600 40.55200
H  3.30500 57.55300 43.20500
H  5.28400 60.30700 42.03600
H  6.28700 58.99100 42.66600
H  4.76000 59.35700 43.44000
H  1.86300 56.22800 41.30600
H  2.13500 57.51000 40.37700
H  1.54100 59.17600 42.34800
H  0.80700 57.70700 43.15800
H  0.09100 58.31600 41.73200
H  1.68900 51.09300 43.51100
H  1.28000 52.87600 43.18200
H  2.03600 52.42000 44.67800
H  6.06100 48.87400 42.41200
H  4.14000 45.91300 40.02000
H  5.81100 45.43200 39.89100
H  5.16600 46.63500 38.71700

