158

Mg 47.93900 16.89700 28.56000
C  45.70600 16.59200 31.36800
C  50.18400 18.16800 30.63700
C  49.53600 17.48800 25.86900
C  45.16500 15.67900 26.55600
N  47.88400 17.43200 30.69900
C  46.95600 17.17600 31.71700
C  47.42300 17.50100 33.13800
C  48.72800 18.25500 32.77300
C  48.97200 17.92500 31.26000
C  48.83400 19.77100 33.10300
C  47.67400 16.18700 33.87500
C  47.44800 16.15700 35.33300
H  47.41900 17.38200 36.25600
N  49.68900 17.63800 28.29800
C  50.50300 18.07200 29.25600
C  51.78200 18.35900 28.68100
C  51.62500 18.10700 27.24600
C  50.27800 17.67100 27.10300
C  53.00700 18.91100 29.49600
C  52.60100 18.10900 26.07000
O  52.26900 17.93000 24.89200
C  54.10000 18.34300 26.26600
N  47.28500 16.90700 26.39700
C  48.25900 17.14900 25.52200
C  47.83900 16.79500 24.06200
C  46.49800 16.04000 24.35200
C  46.23300 16.25800 25.91300
C  47.71700 17.94000 23.09400
C  46.49800 14.53900 24.01800
C  45.25100 14.00400 23.25000
N  45.86800 16.18900 28.85200
C  44.89700 15.72700 27.97600
C  43.71900 15.44200 28.72700
C  43.97800 15.72600 30.09700
C  45.27900 16.24400 30.05800
C  42.56000 14.70200 28.16100
C  43.44800 15.62100 31.41500
O  42.47100 15.14400 31.87300
C  44.59400 16.12900 32.38000
C  43.95400 17.18000 33.21800
O  43.42100 18.18800 32.80100
O  43.89400 16.70100 34.51300
C  43.19100 17.53700 35.43900
H  51.01500 18.38600 31.31000
H  50.06900 17.61400 24.92500
H  44.37500 15.27100 25.92200
H  46.70800 18.16900 33.61900
H  49.53300 17.83900 33.37800
H  47.87200 20.11500 33.48400
H  48.96900 20.34800 32.18800
H  49.65400 20.06200 33.76000
H  48.69000 15.84100 33.68800
H  47.06500 15.42200 33.39400
H  48.22000 15.57300 35.83300
H  46.52300 15.62000 35.54700
H  53.59700 19.60600 28.89900
H  53.40000 17.89600 29.56500
H  52.52200 19.45700 30.30500
H  54.65300 17.60700 25.68300
H  54.31500 18.09300 27.30500
H  54.36100 19.37600 26.03800
H  48.49300 16.00300 23.69800
H  45.56500 16.47700 23.99800
H  46.91000 17.77000 22.38100
H  48.69100 17.95700 22.60500
H  47.56400 18.86200 23.65400
H  46.71500 14.04600 24.96600
H  47.37800 14.30400 23.41800
H  45.70000 13.48400 22.40400
H  44.54600 14.80800 23.03800
H  44.82700 13.23800 23.89900
H  42.13400 15.13100 27.25400
H  41.78000 14.43300 28.87300
H  43.01900 13.75300 27.88600
H  44.86700 15.27900 33.00600
H  42.31200 18.14700 35.22900
H  43.83800 18.14200 36.07400
H  42.70900 16.74200 36.00800
Mg 16.80800 51.46800 26.99900
C  18.88100 49.85800 29.26900
C  14.76000 52.31300 29.54200
C  14.80500 52.92700 24.64800
C  18.93000 50.37300 24.25800
N  16.83600 51.12800 29.22100
C  17.91300 50.58900 29.96000
C  17.66800 50.76100 31.48800
C  16.15600 51.13300 31.48900
C  15.83600 51.55600 30.01500
C  15.17800 50.04300 32.01600
C  18.52800 51.95100 31.95500
C  18.44500 52.18000 33.40500
H  17.74700 51.20400 34.33800
N  15.00800 52.43700 27.08200
C  14.30700 52.68100 28.29100
C  13.21800 53.56900 27.96300
C  13.11200 53.78600 26.51500
C  14.33200 53.01000 26.01300
C  12.33900 54.14200 29.12200
C  12.14300 54.56600 25.63700
O  12.14900 54.52800 24.42100
C  11.05100 55.23600 26.40800
N  16.96600 51.80200 24.82200
C  16.00900 52.40300 24.15400
C  16.29000 52.42600 22.61100
C  17.69200 51.72700 22.54600
C  17.88900 51.24200 23.99600
C  15.28000 51.78300 21.65100
C  18.81400 52.61700 21.96600
C  19.74500 51.97500 20.96800
N  18.42000 50.26400 26.78100
C  19.19600 49.96600 25.60900
C  20.34500 49.24200 26.08700
C  20.27600 49.09900 27.51000
C  19.13200 49.79100 27.83400
C  21.33800 48.59500 25.19700
C  20.84400 48.39400 28.65800
O  21.81800 47.60900 28.70600
C  20.03500 49.09900 29.91400
C  19.68900 48.08700 30.85200
O  19.07300 47.05900 30.64900
O  20.28400 48.39000 32.06200
C  20.06100 47.51700 33.21600
H  14.08900 52.47100 30.38900
H  14.18800 53.37800 23.86800
H  19.55100 49.97900 23.45000
H  17.88900 49.82000 31.99300
H  16.00600 52.03500 32.08200
H  15.69100 49.11800 32.27800
H  14.48300 49.70900 31.24600
H  14.56200 50.33300 32.86700
H  18.25900 52.91300 31.51800
H  19.57800 51.75300 31.73700
H  17.99800 53.17400 33.39200
H  19.45000 52.15500 33.82800
H  11.31900 53.86000 28.86200
H  12.38500 55.22100 28.97500
H  12.53000 53.90900 30.16900
H  10.24200 55.53800 25.74200
H  11.45900 56.15400 26.83200
H  10.58700 54.68600 27.22700
H  16.34800 53.46100 22.27400
H  17.73700 50.81100 21.95800
H  15.36400 50.69600 21.64300
H  15.40800 52.22200 20.66100
H  14.28900 52.12900 21.94400
H  19.38700 52.89000 22.85300
H  18.41100 53.54900 21.57100
H  20.77100 51.87500 21.32200
H  19.72400 52.57100 20.05500
H  19.40900 50.98000 20.67700
H  20.68500 48.18700 24.42500
H  21.91000 47.85600 25.75800
H  22.04500 49.35700 24.87100
H  20.74000 49.83300 30.30200
H  19.62500 48.17700 33.96600
H  21.00000 47.08400 33.56200
H  19.33900 46.72900 33.00000

