158

Mg 28.52300 58.17200 41.56600
C  25.99000 56.18000 40.14500
C  30.81700 56.40200 39.73800
C  30.75400 60.49200 42.36000
C  25.91300 60.44300 42.76500
N  28.41800 56.52100 40.17800
C  27.29700 55.86500 39.74000
C  27.58400 54.91000 38.63400
C  29.18400 54.78000 38.66800
C  29.53600 56.01500 39.52600
C  29.85000 53.54400 39.35500
C  27.06800 55.43200 37.21600
C  26.72300 54.23000 36.33100
H  27.26300 54.16700 34.86800
N  30.58900 58.36500 41.27400
C  31.30500 57.52700 40.46200
C  32.69900 58.07200 40.49300
C  32.64300 59.35500 41.07600
C  31.25200 59.44100 41.63400
C  33.75700 57.33600 39.84300
C  33.87500 60.31000 41.03400
O  34.91200 59.75900 40.68100
C  33.88000 61.71300 41.53200
N  28.28700 60.21600 42.35900
C  29.41400 60.94400 42.70800
C  29.04000 62.34700 43.23300
C  27.49000 62.25000 43.43200
C  27.18700 60.86900 42.81000
C  29.89700 62.92400 44.38600
C  26.77300 63.46100 42.73200
C  25.59300 64.04700 43.53600
N  26.45100 58.22200 41.63500
C  25.53700 59.17200 42.17600
C  24.19200 58.65500 42.10200
C  24.27900 57.55200 41.24400
C  25.65400 57.28700 40.96800
C  22.97800 59.36000 42.64100
C  23.50300 56.58600 40.46800
O  22.33100 56.36800 40.30300
C  24.67300 55.66900 39.72400
C  24.35600 54.17900 40.00100
O  24.47000 53.62300 41.08800
O  23.99900 53.52200 38.88900
C  23.40100 52.16600 38.99400
H  31.61200 55.93400 39.15300
H  31.41000 61.30600 42.67400
H  25.14600 61.11000 43.16400
H  27.22000 53.92500 38.92600
H  29.52800 54.77300 37.63400
H  30.31400 53.82800 40.30000
H  30.63000 53.14700 38.70500
H  29.10900 52.78900 39.61700
H  27.82700 56.08500 36.78500
H  26.25300 56.14400 37.34400
H  25.63400 54.18800 36.32800
H  27.02800 53.32900 36.86400
H  33.60500 57.43100 38.76800
H  33.62000 56.27200 40.03800
H  34.82900 57.45100 40.00000
H  33.07500 62.06100 40.88400
H  34.79800 62.21900 41.23400
H  33.73300 61.79200 42.61000
H  29.27600 63.04700 42.43100
H  27.27500 62.35100 44.49600
H  29.41700 62.89200 45.36400
H  30.21600 63.92300 44.08600
H  30.84600 62.40000 44.49700
H  26.45300 63.12300 41.74600
H  27.51200 64.19700 42.41800
H  25.68300 63.56800 44.51100
H  24.71900 63.68200 42.99800
H  25.64200 65.13500 43.49800
H  22.20400 59.00200 41.96300
H  23.05100 60.44400 42.56400
H  22.95600 59.08000 43.69500
H  24.36100 55.88400 38.70200
H  24.24000 51.47000 39.00900
H  22.72700 51.85900 38.19500
H  22.88600 52.13300 39.95400
Mg 16.53700 52.09000 26.20100
C  18.90200 50.67500 28.56600
C  14.59200 52.72500 28.96600
C  14.30500 53.38700 24.10700
C  18.79600 51.43600 23.70800
N  16.82200 51.84200 28.39100
C  17.79400 51.21400 29.14200
C  17.51400 51.15600 30.59700
C  16.03500 51.54100 30.68300
C  15.82800 52.12100 29.28200
C  14.98300 50.46100 31.09600
C  18.42900 51.96200 31.52000
C  18.60800 51.42500 32.98100
H  17.76900 52.12500 34.07200
N  14.64800 53.03300 26.54700
C  14.04300 53.12800 27.73000
C  12.72500 53.75700 27.50300
C  12.62700 54.01200 26.05300
C  13.91500 53.47000 25.47100
C  11.65000 54.03100 28.64500
C  11.43000 54.63500 25.26200
O  11.43900 54.74000 24.02100
C  10.13600 55.10800 26.01100
N  16.54100 52.27300 24.20400
C  15.44600 52.78400 23.52500
C  15.65300 52.56700 22.06500
C  17.18300 52.31700 21.91600
C  17.58800 52.05200 23.36000
C  14.86000 51.32100 21.39500
C  18.03000 53.44300 21.38600
C  18.90700 53.08900 20.15300
N  18.48700 51.26800 26.08900
C  19.20200 51.00300 24.99200
C  20.35300 50.23700 25.31700
C  20.35200 50.11300 26.73000
C  19.15500 50.76900 27.17000
C  21.35500 49.71900 24.41600
C  21.04000 49.56600 27.89300
O  22.06300 48.89300 27.97200
C  20.18000 49.99900 29.19900
C  19.93500 48.76800 30.07900
O  19.13300 47.85800 29.88500
O  20.68200 48.85200 31.18900
C  20.30800 47.90600 32.26600
H  13.96200 52.85000 29.84900
H  13.49700 53.57200 23.39600
H  19.44600 51.26100 22.84800
H  17.56000 50.11300 30.90900
H  15.88000 52.35100 31.39600
H  13.95000 50.75500 31.27700
H  15.33600 50.38200 32.12500
H  15.18300 49.56400 30.50900
H  18.05100 52.98400 31.50100
H  19.47200 51.98600 31.20100
H  19.66400 51.58200 33.20000
H  18.47700 50.34400 32.93000
H  11.99400 53.62800 29.59600
H  10.69600 53.62400 28.31000
H  11.59200 55.10600 28.81600
H  10.42400 55.79500 26.80600
H  9.53700 54.27700 26.38200
H  9.54700 55.61400 25.24600
H  15.21000 53.45400 21.61200
H  17.38300 51.44600 21.29300
H  14.52200 51.60500 20.39800
H  13.93800 51.19300 21.96200
H  15.46400 50.41600 21.33300
H  18.65300 53.94300 22.12700
H  17.27700 54.15200 21.04100
H  19.81000 53.69600 20.22400
H  18.46400 53.45400 19.22600
H  19.15800 52.03000 20.08900
H  20.97700 50.02500 23.44000
H  21.36900 48.63000 24.46200
H  22.38400 50.07500 24.44300
H  20.89400 50.67800 29.66400
H  20.74500 46.94300 32.00200
H  19.22600 47.88300 32.39100
H  20.66100 48.32200 33.21000

