158

Mg 43.95000 5.08700 46.82500
C  42.10900 7.99100 46.90900
C  41.20000 3.20100 46.65600
C  45.95200 2.35800 46.32000
C  46.91900 7.08300 46.99900
N  41.88500 5.59300 46.75800
C  41.34400 6.83500 46.79400
C  39.78600 6.74200 46.76800
C  39.48200 5.19800 46.75100
C  40.87000 4.59600 46.73400
C  38.49400 4.69700 47.86000
C  39.04000 7.62800 45.69300
C  39.74300 7.40300 44.25000
H  38.96200 6.74400 43.12800
N  43.61900 3.04500 46.49600
C  42.42100 2.41900 46.47700
C  42.56600 1.00900 46.21700
C  43.92200 0.74600 46.00600
C  44.56300 2.11500 46.21600
C  41.37600 0.01200 46.02600
C  44.54000 -0.50800 45.45400
O  43.84600 -1.42700 45.22200
C  45.91700 -0.72100 45.15900
N  46.12900 4.77200 46.76000
C  46.61100 3.56300 46.49700
C  48.17600 3.61100 46.43000
C  48.48000 5.00300 47.01800
C  47.10500 5.68000 46.93700
C  48.92000 2.48900 47.03000
C  49.64700 5.77300 46.23300
C  50.93400 6.10400 46.98900
N  44.43900 7.09800 46.74000
C  45.67400 7.76100 46.92100
C  45.51500 9.16700 47.11700
C  44.12600 9.32400 47.15300
C  43.50300 8.07600 46.83700
C  46.64000 10.20500 47.33600
C  43.01300 10.26300 47.35300
O  42.98000 11.47000 47.59800
C  41.72500 9.42800 47.10100
C  40.83700 9.56400 48.23100
O  40.89700 8.98500 49.31300
O  39.95000 10.55800 47.96200
C  38.99100 10.99700 48.96200
H  40.26600 2.63600 46.63200
H  46.36800 1.36800 46.11900
H  47.83600 7.64500 47.18500
H  39.48700 7.14000 47.73700
H  39.22000 4.80100 45.77000
H  37.51200 4.53500 47.41600
H  38.40400 5.48700 48.60600
H  38.84600 3.87400 48.48200
H  39.02500 8.65100 46.07100
H  38.05100 7.17300 45.73200
H  40.78400 7.08600 44.31100
H  39.86400 8.40200 43.83100
H  41.53800 -0.57600 45.12200
H  40.40000 0.49600 46.00700
H  41.44200 -0.79200 46.75900
H  46.06200 -1.72700 44.76600
H  46.44900 -0.58100 46.10000
H  46.26200 -0.00800 44.40900
H  48.39600 3.42600 45.37900
H  48.70400 4.99900 48.08400
H  48.28400 1.99300 47.76200
H  49.75800 2.91800 47.57900
H  49.20300 1.82700 46.21200
H  49.28000 6.66500 45.72500
H  49.78200 5.05800 45.42000
H  51.00000 7.19200 46.95600
H  51.71700 5.56800 46.45300
H  50.91800 5.75800 48.02200
H  46.37300 11.26100 47.28800
H  47.40500 10.08800 46.56900
H  47.09400 10.07900 48.31900
H  41.27400 10.01300 46.29900
H  38.05100 10.73100 48.47900
H  38.97800 12.07200 49.14600
H  39.07100 10.54000 49.94800
Mg 49.54800 47.06600 44.09000
C  46.33600 47.20300 42.95500
C  50.01300 44.20100 42.28700
C  52.84100 47.32600 44.65700
C  49.30800 50.41300 45.09200
N  48.33800 45.96300 42.65100
C  47.04700 46.06900 42.49700
C  46.47400 44.94300 41.61300
C  47.60200 43.92800 41.57300
C  48.73200 44.72400 42.20000
C  47.36900 42.57200 42.23700
C  45.97700 45.50200 40.22800
C  44.73900 44.80200 39.69900
H  44.33200 44.69700 38.18600
N  51.20300 45.78200 43.64200
C  51.18800 44.63800 42.97700
C  52.51400 44.11000 42.93600
C  53.28500 44.89700 43.81900
C  52.44900 46.07500 44.06000
C  52.96200 43.01400 42.03100
C  54.71400 44.59800 44.31400
O  55.27500 43.56800 43.86700
C  55.51200 45.35700 45.33800
N  50.97100 48.72900 44.56500
C  52.23600 48.51200 44.85000
C  53.00500 49.73400 45.33400
C  51.83400 50.72700 45.64300
C  50.60700 49.94200 45.03000
C  53.91100 49.61100 46.62000
C  52.07600 52.10900 44.97100
C  52.08200 53.35800 45.86900
N  48.09900 48.52000 44.18700
C  48.19900 49.82800 44.59300
C  46.86900 50.41100 44.51400
C  46.06100 49.38900 43.88800
C  46.95100 48.29500 43.69600
C  46.52200 51.79400 44.95300
C  44.80200 49.01000 43.37500
O  43.69500 49.58500 43.44400
C  44.92000 47.61000 42.71500
C  43.98000 46.73800 43.42300
O  44.24500 46.17300 44.47500
O  42.86800 46.43900 42.65800
C  41.94600 45.45100 43.27000
H  50.08500 43.18000 41.90600
H  53.90500 47.36100 44.90000
H  49.10400 51.40800 45.49300
H  45.64600 44.59800 42.23300
H  47.87100 43.69200 40.54300
H  46.36400 42.22400 41.99900
H  47.48900 42.52100 43.31900
H  48.02100 41.82100 41.79200
H  46.84300 45.38300 39.57700
H  45.82900 46.58200 40.23600
H  43.87300 45.14600 40.26500
H  44.72800 43.75100 39.98700
H  53.94700 43.24000 41.62100
H  52.23200 42.83900 41.24100
H  53.14900 42.10600 42.60400
H  56.07000 46.17000 44.87300
H  56.12200 44.62100 45.86200
H  54.73000 45.67800 46.02600
H  53.41400 50.06000 44.37800
H  51.57800 50.95600 46.67800
H  53.91400 50.48700 47.26800
H  54.94800 49.49200 46.30700
H  53.68200 48.72100 47.20700
H  51.34900 52.36400 44.20000
H  52.98400 52.04000 44.37200
H  52.25600 53.14000 46.92300
H  51.28300 54.05600 45.62100
H  53.04300 53.79500 45.59800
H  46.93600 52.63200 44.39200
H  46.97100 51.89800 45.94100
H  45.44200 51.67700 44.86400
H  44.61500 47.67800 41.67100
H  41.59600 44.81900 42.45400
H  41.11500 45.96200 43.75700
H  42.44100 44.74600 43.93800

