158

Mg -1.09400 18.10700 26.81000
C  -1.64200 15.76000 29.52500
C  -1.44000 20.62400 29.25800
C  -0.59100 20.19000 24.41800
C  -0.96300 15.29000 24.75900
N  -1.39600 18.12700 29.19600
C  -1.58700 17.10400 30.03500
C  -1.77400 17.62800 31.43400
C  -1.93800 19.16100 31.19200
C  -1.46200 19.38000 29.79800
C  -3.40900 19.58500 31.50400
C  -0.64100 17.30800 32.45200
C  -1.18500 16.99000 33.85300
H  -0.07100 16.72500 34.92300
N  -0.92100 20.12600 26.87500
C  -1.11100 20.95300 27.93900
C  -0.98200 22.33800 27.38300
C  -0.66700 22.23000 25.98000
C  -0.79400 20.80100 25.68100
C  -0.93200 23.57400 28.25400
C  -0.50800 23.26900 24.89100
O  -0.33200 23.08000 23.69200
C  -0.44100 24.66800 25.41600
N  -0.72800 17.77900 24.84500
C  -0.59600 18.83700 24.01300
C  -0.58600 18.40200 22.49900
C  -0.49500 16.82000 22.64500
C  -0.74500 16.56300 24.13500
C  -1.84800 18.93400 21.72500
C  0.78000 16.22700 22.03200
C  1.94600 15.85200 22.96400
N  -1.30900 16.01300 27.04500
C  -1.25100 15.02800 26.05200
C  -1.58800 13.77500 26.60400
C  -1.75400 14.01600 27.93900
C  -1.54300 15.38100 28.17200
C  -1.92500 12.56600 25.74100
C  -2.04300 13.34900 29.21600
O  -2.27200 12.21300 29.45100
C  -1.95400 14.48600 30.32900
C  -0.95100 14.09500 31.45800
O  0.28300 14.11900 31.42700
O  -1.60300 13.75400 32.67600
C  -0.75200 13.25000 33.68300
H  -1.75500 21.48600 29.84900
H  -0.49600 20.82700 23.53700
H  -0.89200 14.53300 23.97500
H  -2.65200 17.22100 31.93400
H  -1.29700 19.67600 31.90700
H  -3.83800 20.25400 30.75800
H  -3.41200 20.17500 32.42000
H  -4.16400 18.83000 31.72500
H  0.09600 18.09100 32.63100
H  -0.01700 16.49500 32.08300
H  -1.83100 16.12600 33.70000
H  -1.77500 17.83100 34.21700
H  0.06300 23.99800 28.38800
H  -1.33900 23.37500 29.24500
H  -1.61600 24.29200 27.79900
H  -1.36300 25.08800 25.81700
H  -0.23000 25.33900 24.58300
H  0.34100 24.73700 26.17200
H  0.34400 18.78000 22.07400
H  -1.30700 16.33300 22.10500
H  -2.34000 18.24600 21.03700
H  -1.45500 19.76200 21.13500
H  -2.64900 19.32900 22.34900
H  1.20100 16.86000 21.25100
H  0.49200 15.29200 21.55300
H  1.92100 16.52800 23.81900
H  2.85300 16.13000 22.42700
H  2.09900 14.80300 23.21800
H  -2.69000 12.78500 24.99700
H  -2.41900 11.85000 26.39800
H  -1.08700 12.05500 25.26700
H  -2.91600 14.63800 30.81800
H  -0.42500 14.13600 34.22800
H  0.14500 12.71800 33.36600
H  -1.19500 12.52500 34.36500
Mg 36.50100 49.77900 25.69400
C  36.84300 47.66700 28.33800
C  35.48400 52.36100 27.60200
C  36.11700 51.70200 22.79300
C  37.39500 47.07600 23.51500
N  36.10000 49.96400 27.76200
C  36.52000 49.05200 28.67400
C  36.37700 49.67800 30.07800
C  35.71200 51.08900 29.80000
C  35.76000 51.15600 28.27900
C  34.42000 51.28000 30.60800
C  37.74700 49.67700 30.83000
C  37.76700 49.71900 32.32600
H  36.53100 49.85900 33.27200
N  35.91200 51.76400 25.28700
C  35.60800 52.70200 26.24100
C  35.53000 53.95600 25.63800
C  35.74800 53.80200 24.25800
C  35.96300 52.33400 24.03600
C  35.30900 55.17900 26.51300
C  35.78900 54.92200 23.16000
O  36.06100 54.73800 21.96100
C  35.38700 56.22900 23.47400
N  36.70800 49.43300 23.48300
C  36.47600 50.36000 22.48400
C  36.58700 49.76800 21.07100
C  37.08900 48.27300 21.30700
C  37.00500 48.23800 22.81600
C  35.31300 49.81000 20.21900
C  38.54100 47.98400 20.78600
C  38.81700 46.60100 20.27900
N  37.08300 47.76800 25.84700
C  37.44700 46.76900 24.93800
C  37.66800 45.55400 25.55700
C  37.45300 45.79900 26.95700
C  37.08800 47.17400 27.04300
C  37.86300 44.26300 24.81400
C  37.33400 45.24500 28.29300
O  37.45600 44.08000 28.69300
C  37.09000 46.48400 29.30300
C  35.83500 46.09200 29.98400
O  34.70000 46.10100 29.51200
O  36.07500 45.94900 31.31500
C  34.91500 45.80100 32.22100
H  35.14700 53.17600 28.24700
H  36.09600 52.29200 21.87500
H  37.76100 46.29300 22.84800
H  35.77400 48.96600 30.64100
H  36.36100 51.88600 30.16300
H  34.39000 50.69800 31.52900
H  33.57100 51.29100 29.92500
H  34.46600 52.30300 30.98300
H  38.35200 50.49300 30.43500
H  38.36300 48.81800 30.56400
H  38.53900 50.44600 32.57900
H  38.25100 48.78300 32.60600
H  36.02900 55.96700 26.29400
H  35.55000 55.06300 27.57000
H  34.32300 55.59100 26.29600
H  35.95700 56.50900 24.36000
H  34.32500 56.12900 23.69600
H  35.56800 56.90500 22.63800
H  37.39400 50.24000 20.51100
H  36.43200 47.52000 20.87000
H  34.98800 48.93200 19.66200
H  35.31100 50.73100 19.63600
H  34.46200 50.01800 20.86700
H  39.13000 47.97600 21.70300
H  38.90400 48.68300 20.03300
H  38.96000 46.66500 19.20000
H  38.03900 45.86800 20.49300
H  39.71300 46.33200 20.83900
H  38.17300 44.35100 23.77300
H  36.96400 43.65200 24.73100
H  38.50700 43.66000 25.45400
H  37.91000 46.69000 29.99100
H  35.21900 45.56600 33.24100
H  34.29200 44.97800 31.87100
H  34.43200 46.77800 32.23400

