158

Mg 34.94800 2.28500 29.24600
C  33.03100 3.41200 32.06200
C  37.74800 2.77300 31.15800
C  36.78700 2.05000 26.43300
C  32.02800 2.57000 27.37100
N  35.29400 3.00300 31.31100
C  34.42100 3.29800 32.30600
C  35.10100 3.54800 33.63700
C  36.62100 3.52200 33.29400
C  36.57700 3.10400 31.85400
C  37.40500 4.85600 33.59900
C  34.72600 2.42700 34.71300
C  34.30000 2.95100 36.08400
H  35.30300 3.97400 36.80100
N  37.00500 2.07900 28.83700
C  38.00400 2.27000 29.78900
C  39.34500 1.96200 29.17000
C  39.06000 1.76700 27.78700
C  37.59200 1.91100 27.59900
C  40.67900 2.09600 29.89600
C  40.07400 1.52800 26.65300
O  39.83400 1.58700 25.44800
C  41.45700 1.26300 26.97500
N  34.46200 2.39400 27.26700
C  35.42800 2.16100 26.32400
C  34.83400 1.97400 24.95100
C  33.32100 1.88100 25.31200
C  33.24500 2.27300 26.76600
C  35.14600 3.21200 24.10000
C  32.74100 0.49500 25.18900
C  31.45000 0.43500 24.30700
N  32.90700 2.85400 29.58100
C  31.85400 2.90400 28.72400
C  30.67200 3.30900 29.44900
C  31.08400 3.54200 30.79700
C  32.45800 3.19800 30.78300
C  29.35500 3.37200 28.85800
C  30.61400 3.83700 32.20400
O  29.54600 4.11500 32.75200
C  31.95600 3.83400 33.01000
C  32.14000 5.16300 33.63200
O  32.41200 6.19200 33.13200
O  31.71600 5.02000 34.94900
C  31.70900 6.23000 35.75200
H  38.67100 2.75000 31.74000
H  37.27000 2.22300 25.46900
H  31.19200 2.47700 26.67500
H  34.86000 4.52900 34.04500
H  37.12000 2.69800 33.80500
H  38.15800 4.68500 34.36800
H  36.71200 5.62300 33.94500
H  37.84700 5.19100 32.66100
H  35.58100 1.90400 35.14200
H  33.97700 1.73300 34.33100
H  34.20300 2.06600 36.71400
H  33.26300 3.25200 35.94200
H  41.14500 3.06200 29.70400
H  41.29100 1.26100 29.55600
H  40.45100 1.96200 30.95400
H  41.96200 0.89600 26.08100
H  41.43200 0.42500 27.67200
H  41.87700 2.12000 27.50100
H  35.12700 1.16500 24.28100
H  32.74100 2.68600 24.86200
H  35.74100 3.90200 24.69900
H  34.23900 3.65900 23.69500
H  35.71800 2.94700 23.21100
H  32.40900 0.15000 26.16800
H  33.48500 -0.25800 24.92700
H  30.58800 0.14700 24.90900
H  31.67100 -0.38800 23.62800
H  31.29400 1.38200 23.78900
H  28.75000 4.10400 29.39300
H  28.92400 2.37100 28.89300
H  29.48500 3.75200 27.84500
H  31.91600 3.12800 33.84000
H  30.86600 6.33400 36.43600
H  31.70700 7.15100 35.17000
H  32.58200 6.15400 36.40000
Mg 40.19400 9.61700 29.55200
C  42.33000 11.23400 31.95000
C  38.17700 8.75000 31.95800
C  38.35600 8.35200 27.08000
C  42.64900 10.38000 27.11200
N  40.43100 9.77300 31.86700
C  41.21700 10.57700 32.55300
C  40.69000 10.81900 33.98900
C  39.51400 9.74000 34.06600
C  39.29900 9.30700 32.55500
C  39.72000 8.50500 35.02200
C  40.22600 12.26100 34.28000
C  39.60700 12.47000 35.64100
H  40.38200 13.32900 36.75200
N  38.50700 8.58000 29.53300
C  37.76400 8.35000 30.67500
C  36.58200 7.62400 30.29500
C  36.68600 7.39700 28.86500
C  37.84300 8.21300 28.42200
C  35.51600 7.22000 31.24800
C  35.83000 6.58800 27.94600
O  35.92400 6.64000 26.73600
C  34.69100 5.80100 28.61400
N  40.54700 9.27400 27.36700
C  39.55900 8.78900 26.55200
C  39.85300 8.98300 25.05600
C  41.33500 9.37800 25.13100
C  41.57400 9.71900 26.60700
C  39.40100 7.76500 24.05200
C  41.72500 10.52300 24.17500
C  41.33400 11.88600 24.63600
N  42.11000 10.53700 29.46600
C  42.93700 10.75900 28.40300
C  44.17300 11.47900 28.91200
C  43.88800 11.68200 30.27900
C  42.62400 11.14000 30.54600
C  45.36700 11.97700 28.15200
C  44.45800 12.29500 31.44400
O  45.53400 12.88600 31.44100
C  43.46700 12.02100 32.63100
C  44.18100 11.32000 33.74800
O  44.78400 10.22000 33.65300
O  43.98700 12.02700 34.92900
C  44.56500 11.31600 36.11700
H  37.36300 8.77800 32.68500
H  37.67900 8.01500 26.29200
H  43.47700 10.50700 26.41200
H  41.52200 10.54000 34.63500
H  38.56800 10.16000 34.40500
H  39.63100 7.59200 34.43300
H  38.93000 8.68300 35.75200
H  40.71600 8.49300 35.46400
H  39.67600 12.63400 33.41700
H  41.15200 12.83100 34.36400
H  39.56200 11.44400 36.00600
H  38.59500 12.84500 35.49100
H  34.56700 7.63300 30.90500
H  35.83500 7.45700 32.26300
H  35.27900 6.15900 31.33600
H  35.08900 5.12300 29.36900
H  34.29300 5.26500 27.75300
H  33.97600 6.46800 29.09400
H  39.27300 9.88200 24.84700
H  41.96200 8.52100 24.88700
H  39.00700 6.87500 24.54200
H  40.24900 7.56000 23.39900
H  38.57600 8.09500 23.42100
H  41.22600 10.38900 23.21500
H  42.79700 10.62700 24.00700
H  40.55400 11.83500 25.39700
H  41.03500 12.49100 23.78000
H  42.26200 12.25200 25.07500
H  45.28700 11.55800 27.14900
H  46.22700 11.45500 28.57100
H  45.52200 13.05600 28.10900
H  43.04900 12.97300 32.95700
H  45.63900 11.45700 36.23700
H  44.42000 10.24100 36.00800
H  44.15400 11.72600 37.03900

