158

Mg -0.15100 6.74300 26.06100
C  1.00800 9.08500 28.53600
C  -0.36100 4.31700 28.56100
C  -1.41900 4.65100 23.82800
C  0.70900 8.97500 23.52500
N  0.12800 6.80400 28.31100
C  0.68000 7.82700 29.12200
C  0.84200 7.39500 30.60600
C  0.73100 5.80600 30.44000
C  0.18300 5.55700 28.98000
C  2.10500 5.06400 30.73800
C  -0.18900 8.28700 31.52600
C  -0.60300 7.53000 32.83800
H  0.34600 7.61700 34.02500
N  -0.98200 4.77700 26.24300
C  -0.89600 3.96200 27.27600
C  -1.70200 2.81100 27.02800
C  -2.06600 2.83800 25.70400
C  -1.47300 4.09400 25.19000
C  -1.95400 1.73300 28.05900
C  -3.04900 1.91100 25.04500
O  -3.40500 2.08300 23.87100
C  -3.55400 0.66700 25.62400
N  -0.15500 6.71900 23.96000
C  -0.86900 5.79700 23.28000
C  -1.04300 6.16700 21.81600
C  -0.27700 7.54500 21.72300
C  0.15000 7.77500 23.14700
C  -0.48700 5.00400 20.90800
C  -1.16600 8.81100 21.18800
C  -0.45400 9.67500 20.14200
N  0.72700 8.57600 26.01400
C  0.91000 9.40700 24.91000
C  1.27100 10.73700 25.40000
C  1.44800 10.62800 26.76100
C  1.01600 9.30400 27.12000
C  1.54500 11.98400 24.47900
C  1.83600 11.31200 28.00200
O  2.28400 12.43600 28.17600
C  1.49600 10.31400 29.19900
C  2.78700 10.13500 29.87300
O  3.69200 9.39400 29.51800
O  2.81300 10.99000 30.97000
C  4.13000 11.23100 31.48500
H  -0.41700 3.53000 29.31600
H  -1.99400 4.04700 23.12400
H  0.90000 9.74000 22.77000
H  1.88100 7.67400 30.77800
H  -0.03300 5.42600 31.11800
H  2.10100 4.62400 31.73500
H  2.95400 5.74500 30.67800
H  2.29800 4.26000 30.02800
H  -1.00800 8.65600 30.90800
H  0.41500 9.14100 31.83300
H  -0.81500 6.46700 32.72300
H  -1.58100 7.94400 33.08600
H  -1.09200 1.59600 28.71100
H  -2.04600 0.75500 27.58700
H  -2.80200 1.93300 28.71300
H  -4.24400 0.21300 24.91300
H  -4.05800 0.79000 26.58300
H  -2.78400 -0.10300 25.67600
H  -2.08700 6.22300 21.50600
H  0.65000 7.42000 21.16400
H  -0.27700 4.10000 21.48000
H  0.45000 5.37000 20.48900
H  -1.12200 4.79800 20.04600
H  -1.46100 9.41300 22.04800
H  -2.02600 8.33500 20.71600
H  -0.98000 9.65600 19.18800
H  0.59700 9.39900 20.05800
H  -0.33500 10.67800 20.55200
H  0.72200 12.46000 23.94600
H  2.20900 11.62800 23.69100
H  2.10800 12.68900 25.09100
H  0.82100 10.86900 29.85100
H  4.92300 10.60900 31.07000
H  4.13000 11.06800 32.56200
H  4.31500 12.26800 31.20400
Mg 8.34200 2.17900 27.49900
C  9.78000 0.97000 30.25200
C  6.41500 4.42200 29.35900
C  6.77700 3.17700 24.64900
C  9.86500 -0.39400 25.63100
N  8.20400 2.71400 29.55400
C  8.93200 2.04900 30.50400
C  8.62200 2.67800 31.93300
C  7.41000 3.67900 31.53400
C  7.26900 3.60500 30.02200
C  6.13400 3.35000 32.30000
C  9.84500 3.27100 32.57200
C  9.70500 3.50500 34.12300
H  10.61400 2.67300 35.16900
N  6.85300 3.65000 27.08600
C  6.21400 4.41900 27.96800
C  5.26900 5.29700 27.23100
C  5.34000 4.93600 25.87600
C  6.45100 3.96200 25.76800
C  4.41400 6.29400 27.93400
C  4.52700 5.47500 24.72300
O  4.71800 5.25300 23.55000
C  3.40200 6.44800 25.04000
N  8.28900 1.48600 25.45200
C  7.57800 2.03400 24.48700
C  7.78600 1.32000 23.17100
C  8.96500 0.35500 23.50100
C  9.03700 0.46600 24.92800
C  6.53100 0.53600 22.83400
C  10.33900 0.86500 22.85500
C  11.35900 -0.25800 22.30500
N  9.61100 0.49700 27.81200
C  10.13600 -0.47000 26.98300
C  11.08000 -1.25400 27.71200
C  11.05100 -0.70600 29.01000
C  10.07100 0.29200 29.04100
C  11.99800 -2.25700 27.05800
C  11.60300 -0.80100 30.25900
O  12.46100 -1.55900 30.69400
C  10.76700 0.22500 31.17900
C  10.03900 -0.59700 32.18300
O  9.35100 -1.60600 32.07500
O  10.23000 -0.05600 33.45700
C  9.66200 -0.77100 34.60000
H  5.79300 5.07800 29.97100
H  6.22300 3.40200 23.73500
H  10.40200 -1.16800 25.07800
H  8.26900 1.91600 32.62700
H  7.83800 4.64900 31.78900
H  5.79500 2.39300 31.90200
H  5.45300 4.19500 32.20400
H  6.42200 3.17200 33.33600
H  10.12100 4.24500 32.16900
H  10.70400 2.60800 32.46900
H  8.65300 3.47300 34.40900
H  9.99500 4.53100 34.35100
H  3.42400 5.86400 28.08900
H  4.35300 7.20400 27.33800
H  4.97100 6.64900 28.80100
H  2.97400 6.75000 24.08400
H  3.78100 7.40800 25.39100
H  2.68200 6.05800 25.76000
H  7.97800 1.99200 22.33400
H  8.78100 -0.66600 23.16700
H  6.00000 0.25500 23.74300
H  6.74400 -0.37600 22.27500
H  5.79800 1.20100 22.37700
H  10.76700 1.56900 23.56800
H  10.08400 1.50000 22.00600
H  11.13800 -1.27300 22.63600
H  12.40100 -0.11700 22.59400
H  11.36700 -0.26200 21.21500
H  12.69400 -1.70900 26.42400
H  11.47500 -2.90200 26.35200
H  12.48400 -2.82100 27.85400
H  11.43900 0.88500 31.72900
H  9.97900 -1.80800 34.70200
H  8.58400 -0.66400 34.72200
H  10.17300 -0.38900 35.48400

