158

Mg 48.41400 34.80800 27.48800
C  46.47100 33.51500 30.00600
C  48.99900 37.58200 29.20100
C  50.03800 36.15900 24.71300
C  47.82400 31.85100 25.69900
N  47.74100 35.42900 29.41100
C  47.06500 34.76300 30.31800
C  47.29300 35.44500 31.72100
C  47.70200 36.88900 31.30900
C  48.17700 36.65700 29.89600
C  46.59600 37.97100 31.47800
C  48.46300 34.67100 32.46200
C  48.41100 34.70300 33.99000
H  47.62800 35.90200 34.64200
N  49.54500 36.61200 27.04600
C  49.61600 37.66900 27.88900
C  50.44100 38.74300 27.27300
C  50.80400 38.24000 26.00000
C  50.14000 36.94300 25.83700
C  50.67100 40.10400 27.95900
C  51.68800 38.94900 24.98900
O  51.87600 38.54200 23.81100
C  52.51400 39.99000 25.40000
N  48.76700 34.11200 25.47600
C  49.42900 34.90800 24.56600
C  49.46400 34.16700 23.25600
C  48.89300 32.70700 23.60200
C  48.46800 32.86200 24.97500
C  48.75800 34.91200 22.08700
C  49.94200 31.50300 23.58500
C  49.53100 30.26900 22.86000
N  47.25900 33.00500 27.71600
C  47.16700 31.91000 26.92100
C  46.38100 30.90700 27.62900
C  46.18200 31.52800 28.86500
C  46.69100 32.80900 28.86400
C  46.06300 29.45800 27.27900
C  45.58700 31.27200 30.13000
O  45.07000 30.25600 30.55100
C  45.57400 32.64600 30.88300
C  45.86800 32.56800 32.29800
O  46.71600 31.86000 32.89300
O  44.78500 33.23500 32.91200
C  44.38600 32.98700 34.32800
H  49.29000 38.41700 29.84100
H  50.45600 36.66200 23.83800
H  47.68800 30.93300 25.12300
H  46.31700 35.38400 32.20100
H  48.64200 37.07800 31.82800
H  45.68200 37.55900 31.05000
H  46.94400 38.81700 30.88500
H  46.41000 38.27100 32.50900
H  49.43600 35.10700 32.23700
H  48.48200 33.61700 32.18500
H  49.39900 34.90100 34.40400
H  47.95000 33.81900 34.43100
H  50.44200 40.89000 27.24100
H  51.64800 40.18300 28.43600
H  49.97800 40.29200 28.78000
H  52.01100 40.95700 25.37100
H  53.42400 39.85000 24.81700
H  52.86100 39.84800 26.42400
H  50.51300 34.22700 22.96500
H  47.97900 32.49900 23.04700
H  47.95100 35.61500 22.29300
H  48.34800 34.20600 21.36500
H  49.36400 35.60500 21.50400
H  50.16000 31.14800 24.59200
H  50.87000 31.90300 23.17700
H  50.21000 30.01000 22.04700
H  48.56900 30.38800 22.36300
H  49.42100 29.40300 23.51300
H  44.98600 29.29100 27.29900
H  46.42400 28.62600 27.88400
H  46.34900 29.25400 26.24700
H  44.58300 33.08700 30.77800
H  44.78100 32.04800 34.71700
H  43.30900 32.82600 34.34600
H  44.60300 33.80700 35.01200
Mg -10.54100 17.27800 42.69600
C  -7.08600 16.64700 42.53000
C  -9.95800 20.40100 41.39200
C  -13.78600 17.83900 42.65200
C  -11.14000 13.82000 43.09600
N  -8.71600 18.26200 41.90800
C  -7.40800 17.91600 42.19500
C  -6.32300 19.05100 41.91000
C  -7.35500 20.30900 41.72900
C  -8.75800 19.66500 41.63600
C  -7.20700 21.54100 42.66100
C  -5.34200 18.85900 40.70400
C  -5.77500 18.10100 39.43700
H  -5.54400 18.86600 38.11100
N  -11.69900 18.92500 42.04500
C  -11.29700 20.11000 41.56000
C  -12.39700 20.97400 41.39200
C  -13.59100 20.24300 41.69200
C  -13.08200 18.96200 42.13500
C  -12.18900 22.38700 40.96900
C  -15.01300 20.78800 41.56200
O  -15.18600 21.96100 41.22100
C  -16.12100 19.96400 42.04200
N  -12.24900 15.99200 42.61900
C  -13.47100 16.55100 42.92500
C  -14.48000 15.50400 43.43600
C  -13.71900 14.15000 43.12900
C  -12.24300 14.65800 42.93100
C  -14.93000 15.73400 44.92200
C  -14.21800 13.40400 41.89200
C  -15.19600 12.22500 42.25900
N  -9.38000 15.55000 42.91400
C  -9.73000 14.22600 43.03900
C  -8.49600 13.42600 43.36200
C  -7.42800 14.32300 43.11700
C  -8.02200 15.59900 42.82700
C  -8.46400 11.96400 43.76200
C  -5.99100 14.53600 43.14600
O  -5.02200 13.76100 43.34000
C  -5.73300 16.02100 42.65400
C  -4.80300 16.65200 43.75200
O  -3.61100 17.00700 43.53100
O  -5.47500 16.74900 44.88200
C  -4.74300 17.48000 45.96100
H  -9.66100 21.43100 41.18800
H  -14.85400 17.81500 42.88100
H  -11.29800 12.77400 43.36800
H  -5.68400 19.14300 42.78800
H  -7.25100 20.78600 40.75500
H  -8.19000 21.82400 43.03800
H  -6.83400 22.38900 42.08700
H  -6.53400 21.38800 43.50400
H  -4.37400 18.52800 41.08000
H  -5.20600 19.90300 40.42100
H  -6.78000 17.68800 39.52900
H  -5.16700 17.21200 39.27300
H  -13.04900 23.00300 41.23000
H  -12.09400 22.39900 39.88300
H  -11.38300 22.96100 41.42400
H  -15.97200 18.94000 41.69900
H  -16.96000 20.37100 41.47700
H  -16.21700 20.16100 43.10900
H  -15.36700 15.58700 42.80700
H  -13.68600 13.60100 44.07000
H  -15.93200 16.16100 44.88600
H  -14.24200 16.44500 45.37900
H  -15.00600 14.75800 45.40100
H  -13.38500 12.97500 41.33500
H  -14.75600 14.10000 41.24800
H  -14.79200 11.28300 41.88700
H  -16.16000 12.44100 41.79800
H  -15.21900 12.03300 43.33200
H  -7.63900 11.94200 44.47400
H  -8.28100 11.32800 42.89600
H  -9.33400 11.57000 44.28700
H  -5.25800 15.95100 41.67500
H  -3.77600 17.96300 45.81500
H  -4.51100 16.79300 46.77400
H  -5.44000 18.17400 46.43200

