158

Mg 44.77600 3.04500 47.17800
C  42.36400 5.53100 46.75200
C  42.10900 0.78600 47.09900
C  46.97300 0.59700 47.01000
C  47.28300 5.45300 46.68900
N  42.54000 3.16500 47.09500
C  41.81200 4.26900 46.94700
C  40.36000 3.89700 46.69700
C  40.28300 2.50400 47.41600
C  41.72000 2.11500 47.19500
C  39.79900 2.42700 48.94700
C  40.12000 3.96000 45.18300
C  38.68800 4.34700 44.78600
H  38.56300 5.47000 43.81000
N  44.55600 0.96200 47.07700
C  43.42700 0.21400 47.01900
C  43.73300 -1.18800 46.96600
C  45.17700 -1.27700 46.95200
C  45.66400 0.13000 46.99200
C  42.78700 -2.26500 46.80400
C  45.96000 -2.57800 46.92200
O  45.29900 -3.57400 47.04000
C  47.43200 -2.77900 46.63600
N  46.85800 3.00000 46.70300
C  47.59900 1.82300 46.95200
C  49.12500 2.21600 47.14900
C  49.10300 3.75900 47.14500
C  47.63600 4.14400 46.84100
C  49.84900 1.63800 48.43200
C  50.13400 4.30100 46.14300
C  51.27000 5.09300 46.89300
N  44.86600 5.06200 46.87300
C  45.94100 5.93100 46.61400
C  45.39200 7.29200 46.39100
C  44.02100 7.08900 46.52300
C  43.74900 5.75400 46.72300
C  46.15400 8.58000 46.13900
C  42.80200 7.86300 46.50400
O  42.61400 9.08500 46.41900
C  41.67500 6.85200 46.68900
C  40.96500 7.23300 47.94100
O  41.38800 7.31400 49.08300
O  39.65800 7.43600 47.59500
C  38.63400 7.70100 48.61300
H  41.25300 0.11500 47.19400
H  47.70200 -0.16200 47.30100
H  47.98900 6.26300 46.88400
H  39.82200 4.72600 47.15600
H  39.69500 1.82500 46.79800
H  40.60000 2.05900 49.58800
H  38.96100 1.73100 48.97600
H  39.48300 3.43900 49.19900
H  40.46400 3.00100 44.79700
H  40.74100 4.75500 44.77000
H  38.01800 4.41700 45.64300
H  38.35900 3.48700 44.20200
H  42.85200 -2.67100 45.79400
H  41.78000 -1.92000 47.04100
H  43.00500 -3.12100 47.44300
H  48.11700 -2.42200 47.40500
H  47.77200 -2.25200 45.74500
H  47.55400 -3.81600 46.32300
H  49.56000 1.79400 46.24300
H  49.23100 4.16700 48.14800
H  50.68000 1.06400 48.02100
H  49.18300 0.98300 48.99500
H  50.27400 2.37700 49.11100
H  49.77000 4.92100 45.32400
H  50.65600 3.51200 45.60200
H  52.03500 5.19900 46.12300
H  51.75600 4.63700 47.75600
H  50.91900 6.10900 47.07000
H  45.51700 9.37000 45.74100
H  47.03200 8.37900 45.52600
H  46.43600 9.04800 47.08200
H  41.00200 6.78600 45.83400
H  38.67400 7.01200 49.45600
H  37.62900 7.60000 48.20200
H  38.77600 8.68300 49.06500
Mg -2.39500 34.82100 26.45600
C  -3.41100 32.89800 29.35600
C  -1.26600 37.29800 28.54700
C  -2.36900 36.95100 23.83000
C  -4.27500 32.62600 24.46400
N  -2.41700 35.11200 28.70900
C  -2.79100 34.19500 29.66800
C  -2.36800 34.72000 31.14700
C  -1.71900 36.07600 30.78700
C  -1.71900 36.11800 29.25200
C  -2.29600 37.34100 31.47400
C  -1.44400 33.73200 32.02400
C  -1.97800 33.32600 33.44400
H  -0.97900 33.29200 34.51900
N  -1.75300 36.80400 26.23700
C  -1.35100 37.64700 27.20100
C  -0.76300 38.90200 26.56300
C  -1.20200 38.71100 25.14500
C  -1.87900 37.43500 24.99200
C  0.01900 39.99300 27.32400
C  -1.06000 39.74400 24.07600
O  -1.60200 39.75500 23.01200
C  -0.13400 40.87600 24.25300
N  -3.32200 34.90100 24.37700
C  -3.01200 35.81300 23.52500
C  -3.40000 35.38400 22.10900
C  -3.81400 33.83900 22.33400
C  -3.82700 33.75000 23.83200
C  -4.40000 36.36000 21.47200
C  -2.98500 32.86900 21.41500
C  -1.58100 32.49500 22.04400
N  -3.55900 33.05300 26.75100
C  -4.18100 32.23300 25.84100
C  -4.68600 31.07300 26.57400
C  -4.41400 31.32700 27.91400
C  -3.77900 32.56700 27.98200
C  -5.57600 30.03700 26.09900
C  -4.59600 30.87700 29.25900
O  -5.14100 29.87300 29.72100
C  -3.97800 31.89600 30.27800
C  -5.06200 32.34900 31.27700
O  -6.11900 32.96500 30.97700
O  -4.81100 31.88600 32.51100
C  -5.84200 31.97700 33.54100
H  -0.77800 38.08100 29.13200
H  -2.37000 37.53400 22.90700
H  -4.83500 31.90500 23.86500
H  -3.22000 34.88200 31.80700
H  -0.68100 36.17000 31.10800
H  -2.84600 37.02600 32.36100
H  -3.09900 37.90600 31.00100
H  -1.55200 38.07400 31.78300
H  -0.44600 34.15700 32.13300
H  -1.17300 32.83000 31.47500
H  -2.31900 32.29200 33.48000
H  -2.89000 33.89000 33.63900
H  -0.60600 40.88200 27.40800
H  0.98100 40.31400 26.92300
H  0.26500 39.68500 28.34000
H  -0.56600 41.54700 24.99500
H  0.07800 41.45200 23.35200
H  0.85000 40.49600 24.52700
H  -2.53200 35.37800 21.45000
H  -4.85900 33.73300 22.04200
H  -5.09900 35.78900 20.86100
H  -3.88800 37.00200 20.75500
H  -4.98100 36.83800 22.26000
H  -2.80300 33.43900 20.50400
H  -3.51300 31.92700 21.26400
H  -0.87200 33.18600 21.58600
H  -1.33500 31.49900 21.67700
H  -1.49000 32.69800 23.11100
H  -5.30400 29.82800 25.06400
H  -6.60400 30.39300 26.16800
H  -5.54200 29.06900 26.59800
H  -3.04300 31.50700 30.68000
H  -5.63100 31.24500 34.32000
H  -6.83400 31.78800 33.13200
H  -5.81000 32.94000 34.04900

