158

Mg 0.40500 7.09400 26.31300
C  1.13600 8.99000 29.05100
C  0.57000 4.28400 28.26000
C  -0.28200 5.25800 23.53100
C  0.72900 9.89800 24.30300
N  0.91200 6.71000 28.42100
C  0.91100 7.60400 29.36200
C  0.67400 7.09700 30.72200
C  0.82000 5.62000 30.49100
C  0.77300 5.46900 28.99500
C  2.16900 5.07500 31.05200
C  -0.62500 7.60200 31.38000
C  -0.63200 8.15800 32.80700
H  0.50800 7.65900 33.71100
N  0.08300 5.06300 25.93500
C  0.13900 4.12100 26.89100
C  -0.29200 2.85800 26.35000
C  -0.53000 3.10700 24.99500
C  -0.23100 4.52100 24.77500
C  -0.40200 1.61000 27.08500
C  -1.06500 2.13500 24.00600
O  -1.13600 2.40600 22.81700
C  -1.42100 0.66100 24.33600
N  0.38000 7.41600 24.19400
C  0.01900 6.53600 23.25700
C  -0.15000 7.18900 21.80500
C  -0.04500 8.68900 22.15600
C  0.40600 8.69000 23.62100
C  0.88500 6.61400 20.79500
C  -1.44700 9.46300 22.06100
C  -1.49000 10.86200 21.50300
N  0.94800 9.09700 26.61800
C  0.96200 10.09000 25.69100
C  1.34200 11.25500 26.33900
C  1.43900 10.92900 27.71400
C  1.14700 9.54000 27.78800
C  1.57500 12.61400 25.67100
C  1.77700 11.47700 29.00300
O  2.24500 12.58700 29.27900
C  1.30600 10.24500 29.97300
C  2.29300 10.13000 31.04000
O  3.25100 9.36100 31.09100
O  1.87200 11.02100 32.00400
C  2.72500 11.09100 33.21900
H  0.63800 3.37400 28.85900
H  -0.81200 4.71500 22.74500
H  0.77700 10.73000 23.59700
H  1.55900 7.44900 31.25100
H  -0.02000 5.06600 30.91100
H  1.93700 4.36900 31.84900
H  2.88700 5.79000 31.45400
H  2.72600 4.62900 30.22800
H  -1.42400 6.87700 31.22800
H  -0.86400 8.42200 30.70200
H  -1.62700 7.97900 33.21500
H  -0.60800 9.24600 32.74300
H  -0.20500 1.76200 28.14700
H  0.24700 0.86200 26.63100
H  -1.42900 1.24600 27.12300
H  -2.19100 0.43200 25.07300
H  -0.49700 0.08500 24.36800
H  -1.88600 0.26700 23.43200
H  -1.14500 6.85700 21.50900
H  0.76400 9.13900 21.58000
H  1.59900 7.41400 20.60300
H  0.28000 6.42600 19.90700
H  1.36200 5.72100 21.20000
H  -1.91400 9.44400 23.04500
H  -2.19300 8.86400 21.53800
H  -2.53600 11.15400 21.41000
H  -0.96800 10.91400 20.54800
H  -1.02900 11.45100 22.29700
H  2.05600 13.36600 26.29600
H  0.63600 12.91000 25.20200
H  2.20600 12.40400 24.80800
H  0.35100 10.62200 30.33800
H  3.57600 10.41100 33.22300
H  2.02200 10.59000 33.88500
H  3.12900 12.05500 33.53100
Mg -12.05700 37.91200 42.30000
C  -9.31200 35.85500 42.01900
C  -9.96900 40.73300 41.93100
C  -14.72600 39.91300 42.28300
C  -14.08600 35.07100 43.01500
N  -9.86900 38.18400 41.82100
C  -8.97700 37.19400 41.82500
C  -7.58300 37.81700 41.51800
C  -7.69500 39.32000 41.95300
C  -9.24000 39.49100 41.88900
C  -7.26600 39.57800 43.45800
C  -7.06200 37.70300 39.99100
C  -5.78600 36.86500 39.66900
H  -5.93800 35.80100 38.58400
N  -12.25500 40.03500 41.89900
C  -11.33300 41.02000 41.91800
C  -11.95500 42.35700 41.73400
C  -13.36400 42.15400 41.66700
C  -13.52300 40.59900 41.89600
C  -11.14400 43.72000 41.43600
C  -14.42200 43.20500 41.44300
O  -14.11200 44.35900 41.33200
C  -15.94300 42.91100 41.16700
N  -14.10000 37.60100 42.42700
C  -15.03000 38.57100 42.48900
C  -16.40400 38.09400 42.82500
C  -16.19800 36.56900 42.79500
C  -14.71300 36.37100 42.77800
C  -16.88100 38.63500 44.21100
C  -16.99700 35.71000 41.70300
C  -16.28100 35.14800 40.42500
N  -11.84000 35.84400 42.53800
C  -12.70300 34.83500 42.89000
C  -11.93700 33.62900 43.00600
C  -10.59400 33.95800 42.64900
C  -10.62200 35.31300 42.39400
C  -12.45700 32.29900 43.48300
C  -9.30100 33.46500 42.47200
O  -8.94400 32.31900 42.60300
C  -8.33600 34.66200 42.02900
C  -7.21800 34.79000 42.93300
O  -7.28300 35.17800 44.13400
O  -6.05100 34.15400 42.45200
C  -4.94400 33.87600 43.39300
H  -9.27100 41.57000 42.00500
H  -15.45000 40.67400 42.58000
H  -14.76700 34.27200 43.31500
H  -6.87900 37.36100 42.21400
H  -7.26200 40.02800 41.24600
H  -6.59800 38.81600 43.86200
H  -8.16700 39.73500 44.05000
H  -6.67000 40.48200 43.58600
H  -6.93300 38.71100 39.59700
H  -7.86400 37.22300 39.42900
H  -5.36800 36.31000 40.50900
H  -4.97300 37.54800 39.42400
H  -11.75600 44.43100 40.88000
H  -10.18700 43.52300 40.95300
H  -10.98100 44.17400 42.41300
H  -16.13700 41.88900 40.84100
H  -16.25300 43.52500 40.32200
H  -16.49000 43.20300 42.06300
H  -17.04800 38.40700 42.00300
H  -16.62500 36.12700 43.69500
H  -16.02400 38.88200 44.83800
H  -17.45000 37.80300 44.62600
H  -17.60100 39.45400 44.21100
H  -17.83900 36.29300 41.32900
H  -17.34900 34.84500 42.26500
H  -16.58800 34.10200 40.44100
H  -15.19700 35.24500 40.47900
H  -16.48800 35.65800 39.48400
H  -12.16700 32.15100 44.52300
H  -12.01500 31.43700 42.98500
H  -13.54400 32.24200 43.42600
H  -7.90100 34.47900 41.04700
H  -4.12500 33.44900 42.81300
H  -5.29500 33.02000 43.96900
H  -4.67600 34.67900 44.08000

