158

Mg -1.73900 17.78500 27.53200
C  -2.40100 15.50500 30.15000
C  -2.00100 20.23800 29.67300
C  -1.56100 19.74400 24.82100
C  -2.39000 14.94900 25.33200
N  -2.02400 17.78100 29.64400
C  -2.22600 16.78900 30.57600
C  -2.20700 17.32900 32.02700
C  -2.27800 18.90500 31.84100
C  -2.14400 19.00400 30.29600
C  -3.47300 19.70700 32.46300
C  -1.04500 16.82400 32.90400
C  -0.71000 17.70700 34.08100
H  -0.37800 16.91000 35.32100
N  -1.47800 19.69800 27.26000
C  -1.66600 20.62500 28.29800
C  -1.37100 21.93800 27.73300
C  -1.24700 21.79000 26.27000
C  -1.39900 20.37300 26.02900
C  -1.44000 23.21000 28.58500
C  -0.96000 22.97400 25.24300
O  -0.94600 22.75800 24.05400
C  -0.61000 24.33500 25.75200
N  -2.07400 17.43400 25.35800
C  -1.83000 18.41700 24.46400
C  -2.13100 17.89900 22.96700
C  -2.23400 16.32900 23.18600
C  -2.17600 16.16400 24.69300
C  -3.42700 18.54100 22.27900
C  -1.02000 15.53600 22.55100
C  0.25400 15.36600 23.34500
N  -2.22400 15.65900 27.64000
C  -2.41700 14.66700 26.67400
C  -2.83400 13.48700 27.34200
C  -2.77400 13.72000 28.67100
C  -2.42000 15.06600 28.84300
C  -3.09200 12.12400 26.80100
C  -2.96000 13.08200 30.00400
O  -3.28900 11.97200 30.31900
C  -2.67900 14.27200 31.01600
C  -1.37800 13.93200 31.60500
O  -0.32700 14.13300 31.04000
O  -1.53200 13.43500 32.88700
C  -0.37600 13.07000 33.71500
H  -1.98900 21.10000 30.34300
H  -1.56500 20.45400 23.99200
H  -2.46800 14.01700 24.76900
H  -3.13800 16.97500 32.46900
H  -1.33500 19.37400 32.11800
H  -3.06700 20.63900 32.85400
H  -3.96700 19.19300 33.28800
H  -4.11000 19.97800 31.62100
H  -0.19500 16.47100 32.31900
H  -1.44900 15.93600 33.38900
H  -1.38600 18.55000 34.22800
H  0.21800 18.14700 33.71600
H  -0.52300 23.78400 28.44900
H  -1.55400 23.02300 29.65300
H  -2.30900 23.73000 28.18100
H  -1.41100 24.78100 26.34200
H  -0.41500 24.92300 24.85500
H  0.28500 24.33300 26.37500
H  -1.23200 18.13500 22.39900
H  -3.18600 15.97500 22.78900
H  -3.85700 19.32200 22.90600
H  -4.19500 17.79500 22.07200
H  -3.13800 19.00200 21.33400
H  -0.50100 16.10500 21.77900
H  -1.45200 14.55100 22.37500
H  0.12700 15.59700 24.40300
H  1.18300 15.72100 22.90100
H  0.52000 14.31000 23.39800
H  -2.13700 11.75500 26.42700
H  -3.73400 12.11700 25.92000
H  -3.48300 11.47400 27.58400
H  -3.46700 14.45000 31.74800
H  -0.40200 11.98000 33.71200
H  -0.59200 13.38500 34.73600
H  0.60400 13.43100 33.40200
Mg 17.06700 51.94500 26.57500
C  19.37000 50.38500 28.86400
C  15.15900 52.56000 29.31900
C  14.96900 53.31700 24.46500
C  19.20900 50.86400 23.93200
N  17.31600 51.57600 28.85200
C  18.33500 51.01600 29.58200
C  18.17500 51.21800 31.15600
C  16.63100 51.63800 31.19400
C  16.30900 51.97300 29.69700
C  15.69100 50.50500 31.67500
C  19.11400 52.33100 31.76900
C  19.44400 52.15300 33.19300
H  18.36500 51.71000 34.17700
N  15.34600 52.80600 26.87500
C  14.63600 52.91400 28.02400
C  13.42600 53.74700 27.83600
C  13.31600 53.90400 26.39100
C  14.53600 53.32800 25.83500
C  12.51400 54.08300 28.93200
C  12.26100 54.64700 25.51800
O  12.29900 54.70700 24.31400
C  11.11500 55.33100 26.16900
N  17.07500 52.03200 24.45200
C  16.09400 52.67500 23.85800
C  16.33200 52.68700 22.29800
C  17.65700 51.95600 22.17500
C  18.06200 51.61100 23.61200
C  15.13400 51.95900 21.51700
C  18.73400 52.80800 21.39500
C  19.23100 54.17800 21.89900
N  18.86500 50.85800 26.35100
C  19.58800 50.54500 25.20600
C  20.67300 49.70200 25.50200
C  20.63300 49.56400 26.94300
C  19.52000 50.35000 27.42100
C  21.52800 48.97700 24.47100
C  21.23000 48.91200 28.09800
O  22.08800 48.06200 28.16700
C  20.63300 49.69300 29.28700
C  20.39900 48.73000 30.37200
O  19.62900 47.83500 30.34900
O  21.15700 49.00100 31.50600
C  20.81400 48.22800 32.63700
H  14.53500 52.76800 30.19100
H  14.50500 53.95000 23.70500
H  19.81100 50.35400 23.17700
H  18.34400 50.25800 31.64400
H  16.40700 52.46700 31.86500
H  14.72400 50.74500 32.11700
H  16.29900 49.75600 32.18400
H  15.30300 49.89900 30.85600
H  18.60000 53.29100 31.71800
H  20.00300 52.37500 31.14000
H  19.90300 53.11600 33.41500
H  20.28900 51.46600 33.14400
H  12.46200 55.11700 29.27200
H  12.69600 53.48100 29.82300
H  11.49200 53.86900 28.62000
H  10.66100 54.64600 26.88500
H  10.36400 55.75100 25.50000
H  11.54100 56.15600 26.74000
H  16.42400 53.69700 21.90000
H  17.50900 51.04400 21.59600
H  15.51300 51.17700 20.86000
H  14.57900 52.65600 20.88900
H  14.32600 51.54400 22.11900
H  18.34100 53.05100 20.40800
H  19.63400 52.19400 21.34400
H  20.29000 54.04300 22.11900
H  18.58900 54.60700 22.66900
H  19.07200 54.83200 21.04200
H  21.31100 48.94900 23.40300
H  21.39600 47.90000 24.57800
H  22.56100 49.29200 24.61300
H  21.33400 50.45100 29.63900
H  20.64500 47.23600 32.21900
H  19.84600 48.41700 33.10100
H  21.58900 48.22100 33.40500

