158

Mg 17.83600 -1.70500 28.51100
C  16.57000 0.15100 31.16300
C  19.62700 -3.62100 30.66500
C  19.40100 -3.05400 25.85500
C  15.89300 0.23000 26.35800
N  18.04500 -1.73700 30.67900
C  17.45000 -0.83600 31.55100
C  17.95300 -1.06700 32.97100
C  19.03700 -2.17400 32.76100
C  18.94500 -2.54000 31.29600
C  20.50500 -1.80900 33.21200
C  16.75600 -1.53600 33.91400
C  16.60300 -0.74600 35.29200
H  17.84000 -0.55200 36.15800
N  19.06900 -3.39400 28.30500
C  19.71300 -4.05000 29.29400
C  20.59600 -5.01100 28.72800
C  20.64900 -4.85500 27.29900
C  19.69000 -3.70400 27.07900
C  21.25100 -6.03700 29.63800
C  21.43900 -5.59500 26.28500
O  21.17400 -5.40300 25.10600
C  22.48400 -6.64600 26.61300
N  17.62800 -1.47100 26.37000
C  18.37400 -2.10400 25.50100
C  18.15900 -1.57600 24.04800
C  16.90100 -0.73800 24.27000
C  16.80500 -0.62300 25.73700
C  19.41300 -0.83800 23.41600
C  15.68400 -1.49300 23.59900
C  14.54800 -0.69400 22.87600
N  16.52400 -0.03000 28.64400
C  15.81400 0.63900 27.70800
C  14.96600 1.61800 28.33800
C  15.30500 1.48500 29.70900
C  16.21000 0.47300 29.81900
C  14.05200 2.60700 27.63200
C  15.10500 2.11600 31.03900
O  14.47200 3.14700 31.35700
C  15.86500 1.17100 32.04400
C  16.75400 2.12100 32.88900
O  17.89100 2.49800 32.62000
O  16.01100 2.67200 33.81800
C  16.73300 3.72000 34.57700
H  20.22400 -4.33800 31.23100
H  20.03100 -3.30800 25.00000
H  15.36100 0.76300 25.56700
H  18.39900 -0.13700 33.32500
H  18.69800 -3.08400 33.25600
H  20.57700 -0.78600 33.58300
H  21.04100 -1.87100 32.26500
H  20.90200 -2.48300 33.97100
H  16.97700 -2.57200 34.17000
H  15.81100 -1.45900 33.37700
H  15.89000 -1.22600 35.96100
H  16.22800 0.26400 35.12100
H  20.74000 -6.22900 30.58100
H  22.23700 -5.64800 29.89400
H  21.35000 -7.00300 29.14400
H  23.01300 -6.99600 25.72600
H  22.05000 -7.47700 27.16900
H  23.34100 -6.26500 27.16700
H  18.00000 -2.53200 23.54900
H  16.90400 0.26100 23.83400
H  20.10000 -0.73400 24.25500
H  19.11600 0.12500 23.00100
H  19.84000 -1.50200 22.66400
H  15.23000 -2.14000 24.34900
H  16.03500 -2.22900 22.87500
H  14.83700 0.34500 22.71800
H  13.64100 -0.80500 23.47100
H  14.25300 -1.09200 21.90500
H  14.00700 3.56800 28.14300
H  13.01900 2.28300 27.50100
H  14.32400 2.84700 26.60500
H  15.10500 0.81300 32.73800
H  15.90100 4.01000 35.21800
H  16.99800 4.50900 33.87400
H  17.53800 3.22800 35.12300
Mg 40.25600 9.36200 29.59500
C  42.35300 10.47900 32.27500
C  38.31900 7.94200 32.00000
C  38.56400 8.06200 27.13200
C  42.88800 10.14800 27.41600
N  40.39300 9.16200 32.00800
C  41.21400 9.82000 32.79400
C  40.67100 9.69900 34.28000
C  39.46700 8.68000 34.13400
C  39.32700 8.62600 32.67300
C  39.71000 7.31300 34.74500
C  40.29700 11.04600 34.99100
C  39.71000 10.96300 36.35800
H  40.36100 11.79300 37.53500
N  38.53900 8.25600 29.53700
C  37.87300 7.76700 30.63600
C  36.72000 7.06700 30.17100
C  36.75700 7.05500 28.71600
C  37.96300 7.77600 28.40900
C  35.77200 6.45900 31.13400
C  35.83500 6.34000 27.74000
O  36.16700 6.21600 26.55200
C  34.70700 5.65300 28.23000
N  40.63200 9.23500 27.54200
C  39.79300 8.52600 26.71500
C  40.07700 8.74500 25.24000
C  41.35100 9.62200 25.38600
C  41.73200 9.59600 26.82900
C  40.20600 7.56300 24.30000
C  41.04900 11.09300 25.06000
C  42.31200 11.93200 24.62300
N  42.25600 10.27900 29.70400
C  43.15700 10.53500 28.71200
C  44.26000 11.25400 29.24700
C  43.97600 11.28000 30.63100
C  42.76900 10.60000 30.88500
C  45.42300 11.76600 28.55800
C  44.36200 11.79000 31.96200
O  45.21700 12.53700 32.39500
C  43.34300 11.31100 33.02700
C  43.97200 10.54900 34.08200
O  44.37900 9.35700 33.96600
O  44.00000 11.28700 35.25600
C  44.53900 10.67200 36.49500
H  37.59500 7.57900 32.73300
H  37.92200 7.72200 26.31700
H  43.70200 10.50900 26.78400
H  41.54700 9.28000 34.77600
H  38.54900 9.06600 34.57700
H  39.76800 6.49200 34.03000
H  38.96000 7.01100 35.47600
H  40.70800 7.35500 35.18300
H  39.77400 11.67200 34.26700
H  41.19500 11.63900 35.16200
H  39.55400 9.89200 36.48600
H  38.67700 11.28000 36.22000
H  35.86900 6.99800 32.07600
H  35.95700 5.40900 31.36400
H  34.74000 6.64600 30.83700
H  34.13700 5.20900 27.41500
H  33.98300 6.33200 28.68000
H  35.04000 4.83500 28.87000
H  39.28800 9.35600 24.80100
H  42.23900 9.25200 24.87400
H  39.77900 6.70000 24.81100
H  41.23400 7.36000 23.99900
H  39.59500 7.72600 23.41200
H  40.51600 11.60800 25.85900
H  40.34500 11.13100 24.22800
H  42.05300 12.33800 23.64600
H  43.17200 11.26500 24.67500
H  42.48200 12.77900 25.28900
H  45.30800 12.31000 27.62100
H  46.07300 10.90500 28.40400
H  45.87100 12.45800 29.27000
H  42.89000 12.18700 33.49000
H  43.79500 10.29100 37.19500
H  45.15500 11.34600 37.09100
H  45.13200 9.81400 36.18100

