158

Mg 47.00600 17.21500 29.08400
C  44.76300 16.44300 31.74900
C  48.93300 18.90300 31.40700
C  48.92500 18.06600 26.59200
C  44.72100 15.61800 26.91800
N  46.80100 17.62200 31.31000
C  45.90100 17.08300 32.21000
C  46.37900 17.24800 33.64100
C  47.46300 18.35100 33.54100
C  47.79600 18.31300 32.02000
C  46.90100 19.77200 33.81200
C  46.68900 15.83200 34.29800
C  47.07900 15.89300 35.75300
H  46.82100 17.21700 36.44100
N  48.67400 18.42100 28.98900
C  49.43800 18.91600 30.06800
C  50.65200 19.51400 29.61500
C  50.65700 19.26100 28.15600
C  49.39000 18.50800 27.84300
C  51.68700 20.13800 30.47600
C  51.71900 19.59600 27.18400
O  51.61000 19.30600 25.99800
C  52.93000 20.34300 27.68900
N  46.96100 16.65100 27.09500
C  47.90200 17.20000 26.23500
C  47.53800 16.84000 24.72300
C  46.25100 15.84600 24.96800
C  45.98900 15.99200 26.43800
C  47.06600 18.19600 23.96500
C  46.60100 14.34400 24.50400
C  46.42600 14.00300 22.99600
N  45.12100 16.30400 29.14500
C  44.32400 15.71100 28.23300
C  43.02400 15.21300 28.83200
C  43.22300 15.52900 30.15700
C  44.46400 16.17000 30.36200
C  41.81600 14.47100 28.19700
C  42.57500 15.29200 31.40300
O  41.54400 14.65300 31.59100
C  43.51800 15.90300 32.51300
C  42.86100 16.93500 33.31900
O  42.35200 17.97900 32.91600
O  42.88800 16.53500 34.68200
C  42.42300 17.32400 35.81900
H  49.56100 19.36500 32.17100
H  49.40000 18.39900 25.66700
H  43.96400 15.19100 26.25700
H  45.54100 17.68200 34.18500
H  48.41500 18.13900 34.02700
H  46.12100 19.72800 34.57300
H  46.47200 20.20000 32.90700
H  47.72500 20.41700 34.11700
H  47.46300 15.35100 33.70000
H  45.76800 15.25100 34.27200
H  48.12600 15.58900 35.77800
H  46.55500 15.13900 36.34000
H  52.62200 19.57800 30.45900
H  51.29600 20.21100 31.49100
H  51.80700 21.16400 30.12600
H  52.74300 21.30800 28.16000
H  53.53700 20.46700 26.79200
H  53.40500 19.67500 28.40700
H  48.40700 16.38300 24.24900
H  45.42600 16.26800 24.39400
H  46.35100 17.98500 23.16900
H  48.00400 18.55500 23.54100
H  46.68600 19.00400 24.59000
H  46.19300 13.53600 25.11100
H  47.68300 14.34000 24.63600
H  47.19100 13.24800 22.81500
H  46.81700 14.80300 22.36600
H  45.37000 13.75900 22.87900
H  41.74300 14.75300 27.14700
H  40.88100 14.90400 28.55300
H  41.69900 13.39100 28.27900
H  43.69600 15.02400 33.13200
H  43.13300 17.18800 36.63500
H  41.42800 17.06000 36.17800
H  42.49000 18.36100 35.49100
Mg 41.39700 41.23000 27.27100
C  40.49900 43.71000 29.60500
C  42.56800 39.33200 29.81300
C  42.31700 38.91400 25.04000
C  40.88700 43.54300 24.70300
N  41.53600 41.49000 29.46600
C  40.98500 42.51500 30.23900
C  41.06800 42.23000 31.77900
C  41.87500 40.92800 31.81600
C  42.08800 40.55700 30.27800
C  43.18200 40.76100 32.68200
C  39.65200 42.10500 32.49400
C  39.48500 43.03800 33.76400
H  38.76800 42.35600 34.97200
N  42.27300 39.38000 27.43900
C  42.62800 38.74500 28.57500
C  42.91000 37.40100 28.29900
C  42.88600 37.20500 26.90100
C  42.44700 38.49000 26.38400
C  43.14800 36.42500 29.38900
C  43.29900 35.96200 26.10300
O  43.44700 35.98100 24.86000
C  43.76100 34.66600 26.78300
N  41.53400 41.15800 25.10300
C  41.81400 40.07500 24.40600
C  41.59100 40.39300 22.94000
C  41.07000 41.82200 22.93000
C  41.11000 42.22000 24.35600
C  42.75500 40.01100 21.94500
C  39.61500 41.99100 22.30100
C  38.43900 41.28500 23.03800
N  40.83700 43.21400 27.10000
C  40.78700 44.00800 25.99800
C  40.36200 45.35000 26.43900
C  40.24600 45.26000 27.86900
C  40.57300 43.94900 28.20600
C  40.12400 46.52300 25.53900
C  40.02000 46.02000 29.09100
O  39.80700 47.17300 29.29900
C  40.10400 44.94700 30.23700
C  41.09200 45.42800 31.19500
O  42.29200 45.42200 31.06800
O  40.45000 45.72100 32.34000
C  41.33000 46.25300 33.36500
H  42.69400 38.72900 30.71400
H  42.53600 38.07800 24.37300
H  40.73100 44.23500 23.87200
H  41.64000 43.00100 32.29500
H  41.15400 40.19800 32.18400
H  42.94400 40.14300 33.54800
H  43.40600 41.75000 33.08200
H  44.03600 40.33700 32.15400
H  39.44300 41.08700 32.82200
H  38.94100 42.48100 31.75800
H  38.96900 43.90400 33.34700
H  40.44900 43.39900 34.12100
H  42.51800 35.54200 29.28200
H  43.03900 36.75300 30.42300
H  44.13400 36.00500 29.19400
H  43.02800 34.28300 27.49300
H  44.74800 34.64500 27.24500
H  43.55800 33.97400 25.96600
H  40.71400 39.75900 22.81100
H  41.76900 42.42700 22.35300
H  43.71400 39.90600 22.45300
H  42.82000 40.64200 21.05900
H  42.48900 39.06300 21.47700
H  39.62900 41.57800 21.29300
H  39.51000 43.06400 22.13900
H  38.82800 41.04300 24.02700
H  38.10200 40.36600 22.55900
H  37.52300 41.82600 23.27400
H  40.63700 46.39500 24.58600
H  40.50300 47.38300 26.09100
H  39.06900 46.74000 25.37100
H  39.15800 44.77000 30.74900
H  42.28000 46.62700 32.98400
H  41.51600 45.50100 34.13300
H  40.74500 47.05400 33.81700

