158

Mg -2.51400 17.09100 26.11200
C  -2.96500 14.90800 28.84800
C  -2.96500 19.74200 28.05700
C  -2.17400 18.88400 23.26700
C  -2.72200 14.12100 23.91200
N  -3.00500 17.29000 28.27700
C  -3.02500 16.24800 29.18900
C  -3.30400 16.85100 30.60500
C  -3.28100 18.41400 30.32700
C  -3.05600 18.50300 28.77900
C  -4.49600 19.20100 30.78200
C  -2.42300 16.30100 31.77000
C  -2.20600 17.28000 32.94200
H  -2.27000 16.70500 34.36500
N  -2.55800 19.04300 25.78300
C  -2.74300 20.02900 26.69500
C  -2.81400 21.33300 26.10600
C  -2.50300 21.04900 24.67600
C  -2.32900 19.57400 24.52500
C  -3.08800 22.67000 26.73800
C  -2.53000 22.06100 23.49300
O  -2.09400 21.79300 22.39700
C  -2.78500 23.52900 23.73700
N  -2.53800 16.53800 23.80400
C  -2.23600 17.50500 22.94600
C  -2.08700 16.98200 21.56300
C  -2.01400 15.42100 21.76900
C  -2.49200 15.30800 23.28600
C  -3.18700 17.43500 20.55100
C  -0.58300 14.86900 21.33200
C  0.62000 15.25900 22.26100
N  -2.61100 15.00100 26.33000
C  -2.77100 13.98600 25.32800
C  -3.09800 12.68800 26.01500
C  -3.08500 13.08200 27.37000
C  -2.81000 14.43500 27.50400
C  -3.40000 11.34900 25.38200
C  -3.28500 12.56300 28.73700
O  -3.53900 11.37500 29.07100
C  -3.10300 13.70300 29.71300
C  -1.97300 13.39000 30.64000
O  -0.78400 13.50900 30.44800
O  -2.53400 12.82700 31.73300
C  -1.61600 12.43700 32.81500
H  -2.97000 20.58900 28.74500
H  -1.91100 19.47400 22.38700
H  -2.71400 13.24400 23.26100
H  -4.35000 16.57600 30.73800
H  -2.41500 18.95500 30.70800
H  -4.24800 20.18300 31.18400
H  -5.06500 18.54500 31.44000
H  -5.25100 19.22500 29.99600
H  -1.43500 16.16600 31.32800
H  -2.88600 15.35300 32.04600
H  -2.93500 18.09000 32.94600
H  -1.26800 17.82500 32.82900
H  -2.18100 23.18700 27.05000
H  -3.54400 22.59400 27.72500
H  -3.64700 23.31400 26.05900
H  -3.85200 23.46400 23.94800
H  -2.63200 23.93900 22.73800
H  -2.19200 24.00700 24.51700
H  -1.07000 17.26700 21.29100
H  -2.71200 14.78800 21.22000
H  -3.76100 18.24400 21.00400
H  -3.92400 16.66900 20.30800
H  -2.80700 17.81300 19.60200
H  -0.33900 15.39500 20.40900
H  -0.56800 13.77900 21.32000
H  1.06000 14.29500 22.51600
H  0.29600 15.80700 23.14600
H  1.39500 15.69400 21.63000
H  -4.22600 10.86700 25.90600
H  -2.52400 10.72900 25.57300
H  -3.75100 11.40500 24.35200
H  -4.01300 13.78600 30.30700
H  -0.93100 13.24800 33.05900
H  -1.05600 11.56900 32.46700
H  -2.26500 12.09200 33.62000
Mg 31.23600 58.78400 41.29700
C  28.22100 57.41500 40.01000
C  32.88000 56.10600 39.97000
C  33.99400 60.50800 41.82800
C  29.25100 61.73900 42.02400
N  30.63100 57.06900 39.94300
C  29.31800 56.64900 39.63100
C  29.37600 55.23500 39.00800
C  30.86700 54.75700 39.33200
C  31.55400 56.06700 39.79000
C  30.98200 53.62200 40.37500
C  28.96800 55.38900 37.49900
C  27.63900 54.74400 36.98900
H  27.50400 54.48900 35.49900
N  33.15300 58.33500 41.05100
C  33.59400 57.17600 40.43800
C  35.02100 57.23700 40.46400
C  35.44100 58.50000 40.97400
C  34.14800 59.17500 41.25800
C  35.80800 56.08600 39.83300
C  36.87000 59.00800 41.16700
O  37.76100 58.19200 40.95000
C  37.20100 60.28000 41.74600
N  31.59800 60.85700 41.91400
C  32.86500 61.29100 42.13200
C  32.84100 62.81200 42.37800
C  31.32600 63.18100 42.63000
C  30.67300 61.84500 42.19100
C  33.74200 63.36000 43.44600
C  30.80800 64.36600 41.79900
C  29.87800 65.33500 42.55200
N  29.18100 59.53000 41.17300
C  28.51400 60.66800 41.52800
C  27.09800 60.54700 41.33900
C  26.94800 59.28700 40.85200
C  28.22300 58.66100 40.70400
C  26.00700 61.49200 41.78100
C  25.95500 58.42100 40.39400
O  24.73400 58.55600 40.31100
C  26.69000 57.10400 39.85800
C  26.29500 55.88800 40.53300
O  26.87600 55.30900 41.48300
O  25.16300 55.32500 40.01100
C  24.61000 54.01200 40.54300
H  33.45100 55.29500 39.51500
H  34.88400 61.13800 41.89200
H  28.67400 62.59400 42.38400
H  28.62200 54.67100 39.55700
H  31.31500 54.37900 38.41300
H  30.07300 53.36500 40.91900
H  31.82600 53.82500 41.03400
H  31.31100 52.78200 39.76300
H  29.81300 55.35700 36.81100
H  28.74900 56.45000 37.37900
H  26.95400 55.57000 37.17500
H  27.20000 53.92400 37.55800
H  35.62200 56.00300 38.76200
H  35.44200 55.18300 40.32100
H  36.83900 56.21800 40.16100
H  36.70600 60.48000 42.69600
H  36.84600 61.05900 41.07100
H  38.24400 60.39400 42.04100
H  33.12700 63.33000 41.46300
H  30.99100 63.32700 43.65700
H  34.11700 62.61400 44.14600
H  33.22200 64.08800 44.06800
H  34.56400 63.82400 42.90000
H  30.25900 64.01200 40.92700
H  31.66600 64.89900 41.38900
H  28.91500 64.82400 42.56400
H  29.72300 66.30400 42.07800
H  30.32800 65.53400 43.52500
H  25.83400 62.19800 40.96900
H  26.32900 61.93400 42.72400
H  25.08900 60.96800 42.04600
H  26.47400 56.90800 38.80800
H  23.91300 54.13700 41.37200
H  25.36500 53.28700 40.84700
H  24.08200 53.54600 39.71100

