158

Mg 39.80400 9.83400 29.20300
C  41.76100 11.30200 31.65100
C  37.85000 8.31100 31.75200
C  38.03200 8.44200 26.89400
C  42.25200 10.58900 26.92000
N  39.91900 9.74000 31.49000
C  40.70500 10.57400 32.25400
C  40.35700 10.51600 33.69900
C  39.20400 9.42700 33.72500
C  38.95400 9.09800 32.18500
C  39.42800 8.12400 34.62400
C  39.99400 11.88700 34.37600
C  40.72500 12.23400 35.73500
H  39.78000 12.65700 36.92500
N  38.14100 8.54100 29.30200
C  37.51400 8.03800 30.41600
C  36.28800 7.33600 29.87700
C  36.26600 7.32400 28.43800
C  37.55500 8.12000 28.18400
C  35.24800 6.75900 30.82600
C  35.23400 6.80000 27.44700
O  35.19900 7.15100 26.29000
C  34.22000 5.80000 27.88700
N  40.03000 9.67400 27.15600
C  39.13500 9.05700 26.40300
C  39.30000 9.42500 24.94200
C  40.69100 10.12800 24.93600
C  41.05400 10.05700 26.44400
C  39.11800 8.13900 24.05100
C  40.67900 11.59700 24.47000
C  39.75800 12.60600 25.19100
N  41.60100 10.72200 29.19500
C  42.46600 10.98100 28.19500
C  43.58700 11.66700 28.73300
C  43.32300 11.82000 30.06800
C  42.15200 11.21900 30.35300
C  44.81000 12.16100 28.12500
C  43.82600 12.45900 31.26200
O  44.86700 13.02800 31.41500
C  42.80100 12.11700 32.37100
C  43.40600 11.22400 33.38400
O  43.76700 10.05200 33.15400
O  43.66000 11.84800 34.58600
C  44.41400 11.09000 35.67900
H  37.17300 7.77200 32.41800
H  37.41600 7.87200 26.19500
H  43.01700 10.62900 26.14100
H  41.06600 10.06100 34.39100
H  38.27700 9.88700 34.07000
H  39.36200 7.21400 34.02700
H  38.66800 8.03800 35.40100
H  40.33600 7.98200 35.21100
H  38.93100 11.92600 34.61600
H  40.28500 12.59300 33.59800
H  41.31800 13.11200 35.48100
H  41.42500 11.49000 36.11600
H  35.42700 5.71400 31.08000
H  34.23600 6.91000 30.45000
H  35.27500 7.39900 31.70700
H  34.59600 5.10300 28.63500
H  33.87600 5.19900 27.04500
H  33.38700 6.39700 28.25900
H  38.50000 10.13300 24.72300
H  41.33200 9.49300 24.32400
H  38.09700 8.08600 23.67200
H  39.44900 7.25700 24.59900
H  39.78400 8.37200 23.22100
H  40.30500 11.65100 23.44700
H  41.71200 11.94400 24.50500
H  39.32500 12.26800 26.13300
H  38.93900 12.94800 24.55900
H  40.30500 13.51500 25.44100
H  44.61600 12.50000 27.10800
H  45.57600 11.39400 28.01200
H  45.20000 12.86400 28.86000
H  42.30300 13.03100 32.69500
H  44.68000 11.79600 36.46600
H  45.32800 10.87400 35.12600
H  43.86100 10.28500 36.16200
Mg 7.24100 53.39800 41.70400
C  6.55900 49.93800 40.86800
C  10.44000 52.88500 40.27200
C  7.73000 56.61000 41.71000
C  3.86100 53.69500 42.63500
N  8.27300 51.63500 40.45000
C  7.82300 50.34200 40.38500
C  8.88600 49.53600 39.69400
C  10.18800 50.32000 39.90300
C  9.61600 51.71300 40.16200
C  11.11900 49.89000 41.08700
C  8.46000 49.46800 38.14100
C  8.76100 48.13100 37.35800
H  7.78200 47.78200 36.27300
N  8.90800 54.59800 41.15400
C  10.09400 54.20800 40.67700
C  10.98400 55.31700 40.61500
C  10.25700 56.38300 41.18100
C  8.93200 55.88100 41.41000
C  12.38100 55.25000 40.08200
C  10.67700 57.86700 41.43400
O  11.76200 58.23500 40.92000
C  9.93500 58.67700 42.32400
N  5.97300 54.88500 42.02600
C  6.39400 56.20000 41.91500
C  5.24900 57.17300 42.20200
C  4.14100 56.23300 42.78000
C  4.63000 54.83300 42.38300
C  5.52700 58.48700 43.06000
C  2.69800 56.54300 42.38300
C  2.11000 56.14500 41.06900
N  5.59600 52.08800 41.88400
C  4.26600 52.36400 42.27100
C  3.53500 51.07500 42.36900
C  4.46200 50.14500 41.84800
C  5.60400 50.75300 41.54000
C  2.11600 50.78900 42.82600
C  4.60000 48.77400 41.36300
O  3.79600 47.83200 41.39400
C  6.02100 48.54000 40.91700
C  5.99200 47.75600 39.64200
O  5.59100 48.08800 38.54100
O  6.28800 46.46500 40.01000
C  6.18700 45.38100 39.05500
H  11.49300 52.66000 40.08900
H  7.84700 57.69300 41.78500
H  2.84900 53.86100 43.01100
H  8.90300 48.49500 40.01600
H  10.74300 50.39600 38.96900
H  10.97800 50.63700 41.86700
H  12.17300 49.80800 40.82100
H  10.79200 48.94000 41.50900
H  8.92700 50.26600 37.56300
H  7.39200 49.68100 38.17700
H  8.86600 47.41400 38.17200
H  9.66800 48.29400 36.77600
H  12.96600 55.42300 40.98500
H  12.65600 55.98700 39.32700
H  12.71500 54.24100 39.84000
H  9.49100 58.12800 43.15500
H  9.15400 59.21700 41.78800
H  10.56700 59.43700 42.78200
H  4.90700 57.46800 41.21000
H  4.08300 56.21900 43.86800
H  5.30100 59.41800 42.54100
H  6.56300 58.52100 43.39600
H  4.85500 58.51300 43.91900
H  2.80400 57.62500 42.45600
H  2.02400 56.28800 43.20200
H  2.06400 56.90600 40.29000
H  1.07700 55.80300 41.14100
H  2.57500 55.28400 40.59000
H  2.04900 50.81700 43.91400
H  1.88000 49.77600 42.49800
H  1.40900 51.52300 42.43900
H  6.42700 47.89200 41.69400
H  5.61700 44.56800 39.50300
H  7.09800 45.09400 38.52900
H  5.59000 45.53000 38.15500

