158

Mg 29.52700 57.90800 41.28300
C  26.76500 56.21800 40.01400
C  31.42300 55.37700 39.92800
C  32.14900 59.85800 41.73600
C  27.40600 60.46000 42.37800
N  29.13600 55.96000 40.06500
C  27.96500 55.62500 39.57900
C  28.04600 54.29200 38.83400
C  29.53300 53.81900 39.29000
C  30.07800 55.09400 39.76000
C  29.59100 52.67600 40.42000
C  27.93300 54.41400 37.24400
C  26.56600 53.99200 36.61600
H  26.00700 54.77300 35.40400
N  31.53500 57.61700 41.01400
C  32.10800 56.57800 40.36800
C  33.55100 56.75900 40.26700
C  33.79900 58.04200 40.91900
C  32.47500 58.59500 41.34800
C  34.43600 55.79400 39.65400
C  35.21100 58.67000 40.98900
O  36.19700 58.19200 40.42100
C  35.43400 59.89900 41.79000
N  29.78700 60.06300 41.82700
C  31.02100 60.57100 42.04300
C  30.97400 62.04900 42.59300
C  29.41700 62.14100 42.94100
C  28.78500 60.79800 42.39900
C  31.88600 62.36400 43.78600
C  28.71100 63.46800 42.49700
C  27.92200 64.28500 43.57900
N  27.47800 58.33900 41.27500
C  26.72100 59.36700 41.80600
C  25.33600 59.04500 41.67900
C  25.33400 57.88000 40.98300
C  26.63500 57.43100 40.74300
C  24.14300 59.74400 42.21200
C  24.43100 56.86900 40.38500
O  23.22300 56.80700 40.37200
C  25.27400 55.69000 39.82800
C  24.98500 54.45100 40.60500
O  25.12100 54.28500 41.81400
O  24.70300 53.43200 39.71200
C  24.61300 52.07700 40.23900
H  32.00300 54.57100 39.47400
H  33.09800 60.38400 41.85100
H  26.71500 61.18500 42.81400
H  27.35600 53.56400 39.26100
H  30.16200 53.51500 38.45300
H  29.86600 52.97300 41.43200
H  30.31000 51.95400 40.03400
H  28.60700 52.20900 40.46700
H  28.81400 53.99100 36.76300
H  27.97100 55.48200 37.03000
H  25.77400 53.91400 37.36100
H  26.69600 53.02000 36.14000
H  34.04100 55.18700 38.83900
H  34.79200 55.06800 40.38400
H  35.35400 56.31900 39.38800
H  35.10300 60.79400 41.26300
H  36.49900 60.03400 41.97900
H  34.99600 59.79400 42.78300
H  31.11200 62.73800 41.76100
H  29.34300 62.00800 44.02000
H  31.29400 62.70800 44.63300
H  32.67400 63.08600 43.57300
H  32.44100 61.45500 44.02000
H  27.97600 63.21200 41.73500
H  29.40900 64.16600 42.03600
H  28.04600 63.71400 44.50000
H  26.90500 64.40800 43.20700
H  28.40600 65.25700 43.67200
H  24.03300 60.77800 41.88400
H  24.28300 59.89600 43.28300
H  23.21200 59.22600 41.98200
H  25.05000 55.53100 38.77300
H  24.93700 51.92700 41.26900
H  25.11200 51.50600 39.45600
H  23.59100 51.72200 40.10800
Mg 16.70300 52.17000 25.78900
C  18.30600 50.70000 28.42400
C  14.36600 53.49400 27.86700
C  14.98600 53.51500 23.07100
C  19.18900 51.04700 23.47200
N  16.48900 52.25700 27.90900
C  17.23600 51.51000 28.83900
C  16.73300 51.82400 30.29300
C  15.35800 52.46100 30.07100
C  15.37500 52.74500 28.53200
C  14.15200 51.47200 30.46200
C  17.75200 52.74600 31.01200
C  18.31700 52.15200 32.31500
H  17.83300 52.87700 33.55300
N  14.93200 53.29000 25.49300
C  14.15400 53.69600 26.47400
C  13.01300 54.44600 25.89800
C  13.06100 54.41300 24.55700
C  14.30600 53.67400 24.26800
C  11.97100 55.08600 26.83900
C  12.15900 54.97300 23.49400
O  12.37100 54.85200 22.31600
C  10.84000 55.63400 23.90800
N  16.95900 52.11300 23.54900
C  16.14400 52.83400 22.68400
C  16.70900 52.73000 21.23100
C  18.15800 52.20700 21.45800
C  18.14500 51.79400 22.92800
C  15.82100 51.92100 20.26300
C  19.40600 53.09300 21.03400
C  20.59800 52.30400 20.62900
N  18.41700 51.05400 25.89300
C  19.29100 50.66100 24.90900
C  20.28900 49.78000 25.59100
C  19.93600 49.80200 26.96600
C  18.80300 50.59800 27.07800
C  21.38100 49.14100 24.90100
C  20.41700 49.39700 28.20600
O  21.45900 48.87800 28.59300
C  19.41900 50.02000 29.28200
C  19.03100 48.96400 30.25700
O  18.05200 48.25000 30.10300
O  19.84000 49.00200 31.34400
C  19.40500 48.25000 32.49900
H  13.56700 53.79500 28.54800
H  14.49200 53.96100 22.20500
H  19.96100 50.71100 22.77600
H  16.64600 50.89900 30.86400
H  15.21100 53.35100 30.68300
H  13.53300 52.18000 31.01300
H  14.44800 50.60800 31.05800
H  13.65200 51.23300 29.52400
H  17.29000 53.72100 31.16400
H  18.63400 52.95400 30.40600
H  19.40700 52.13600 32.27600
H  18.00600 51.16200 32.65000
H  11.94800 56.14300 26.57200
H  12.18500 55.08900 27.90700
H  10.98400 54.62500 26.79400
H  10.18600 54.99600 24.50300
H  10.33300 55.95100 22.99700
H  10.97000 56.51700 24.53400
H  16.68900 53.77900 20.93600
H  18.40600 51.29100 20.92200
H  16.45600 51.05500 20.08100
H  15.62200 52.38200 19.29500
H  14.84200 51.69600 20.68600
H  19.69400 53.59800 21.95600
H  19.19800 53.87900 20.30800
H  21.25900 52.34600 21.49400
H  21.05400 52.82400 19.78600
H  20.35100 51.30500 20.26900
H  21.16600 49.16600 23.83200
H  21.38900 48.07700 25.13600
H  22.34400 49.57400 25.17100
H  20.02100 50.75000 29.82300
H  18.56500 48.79400 32.93200
H  20.17200 48.09700 33.25700
H  19.01900 47.24000 32.35700

