158

Mg 2.01700 -1.24900 44.07800
C  5.27600 -0.69800 43.32400
C  1.08500 1.46600 42.01000
C  -1.12300 -2.37900 44.02600
C  3.06800 -4.31900 45.57500
N  3.01700 0.13700 42.68700
C  4.40000 0.23800 42.73400
C  4.84500 1.53000 42.07400
C  3.51700 2.25200 41.75900
C  2.45200 1.25200 42.16400
C  3.30400 3.74200 42.14200
C  5.69200 1.15200 40.79900
C  6.95900 2.06800 40.67800
H  6.89500 3.10500 39.48000
N  0.13000 -0.47300 43.23100
C  -0.01300 0.63200 42.41400
C  -1.40100 0.82700 42.17700
C  -2.09100 -0.32600 42.77000
C  -1.01700 -1.09100 43.47800
C  -1.99300 2.05500 41.43900
C  -3.56300 -0.46600 42.66200
O  -4.31400 0.11800 41.85100
C  -4.22000 -1.61800 43.45800
N  1.09100 -3.16300 44.56600
C  -0.21500 -3.29300 44.59200
C  -0.52800 -4.66900 45.27600
C  0.75700 -5.01100 46.07200
C  1.72100 -4.16800 45.37500
C  -1.80100 -4.62000 46.12400
C  1.05200 -6.52400 46.15400
C  1.04500 -7.05000 47.58900
N  3.83500 -2.29200 44.39900
C  4.04800 -3.42500 45.18000
C  5.39600 -3.60200 45.33600
C  6.02800 -2.49400 44.69300
C  4.99900 -1.78700 44.11500
C  6.00800 -4.87900 45.77900
C  7.25700 -1.89100 44.35100
O  8.37100 -2.25000 44.70200
C  6.81500 -0.64100 43.48400
C  7.23400 0.54300 44.13900
O  6.76700 0.89300 45.22100
O  8.24000 1.29000 43.50100
C  8.55500 2.54300 44.21500
H  0.88400 2.38100 41.44900
H  -2.15300 -2.73700 44.09400
H  3.45600 -5.06600 46.27100
H  5.38800 2.03500 42.87300
H  3.43900 2.31600 40.67300
H  2.40700 3.96700 42.71900
H  3.22600 4.43500 41.30500
H  4.15200 4.16400 42.68200
H  5.07100 1.18500 39.90300
H  6.10800 0.14500 40.76100
H  7.86200 1.47200 40.54400
H  7.15600 2.71300 41.53400
H  -2.10100 1.76700 40.39300
H  -1.28200 2.87800 41.50700
H  -2.96200 2.31700 41.86400
H  -4.01400 -1.52600 44.52400
H  -3.87800 -2.55300 43.01300
H  -5.29600 -1.56100 43.29400
H  -0.68800 -5.34500 44.43600
H  0.79700 -4.53300 47.05100
H  -2.33900 -5.53200 45.86700
H  -2.39200 -3.70700 46.19600
H  -1.54100 -4.82900 47.16200
H  2.03100 -6.77000 45.74200
H  0.32600 -7.03800 45.52500
H  0.61500 -6.24100 48.17900
H  2.05100 -7.30600 47.92200
H  0.50500 -7.98200 47.75300
H  5.60100 -5.06200 46.77300
H  7.09100 -4.90100 45.89800
H  5.58900 -5.63900 45.12000
H  7.29400 -0.67900 42.50600
H  8.96000 3.15900 43.41200
H  9.27200 2.44000 45.03000
H  7.68100 3.03700 44.63900
Mg 42.18400 41.75800 25.93300
C  41.47700 44.11400 28.47100
C  43.21900 39.62600 28.55900
C  43.04700 39.53200 23.69700
C  41.77800 44.22200 23.59200
N  42.25300 41.88200 28.24400
C  41.71300 42.89700 29.02900
C  41.78100 42.49500 30.53000
C  42.39200 41.10700 30.51300
C  42.74000 40.88400 29.03100
C  43.51800 40.87400 31.43800
C  40.41700 42.55700 31.39200
C  40.54100 43.22500 32.78300
H  40.02100 42.44800 34.00100
N  42.95500 39.87100 26.08100
C  43.25400 39.15600 27.22500
C  43.56900 37.85600 26.83800
C  43.46600 37.75200 25.44500
C  43.20400 39.09300 24.99700
C  44.12000 36.85800 27.84000
C  43.70600 36.55300 24.55100
O  43.91400 36.64900 23.30100
C  43.72200 35.10600 25.18000
N  42.45900 41.88700 23.89400
C  42.74100 40.76800 23.14600
C  42.86800 41.19800 21.67500
C  42.10100 42.53100 21.65600
C  42.07400 42.92400 23.14000
C  44.30800 41.25700 21.10500
C  40.68500 42.63400 21.12800
C  39.48600 42.29500 22.02500
N  41.50800 43.72800 25.90700
C  41.54000 44.62600 24.88400
C  41.26900 45.97400 25.33700
C  41.10500 45.79100 26.73600
C  41.33100 44.40700 27.08100
C  41.11700 47.13400 24.54500
C  40.77200 46.43000 27.97600
O  40.42900 47.61300 28.13800
C  40.98300 45.37700 29.16600
C  42.02000 45.90500 30.10800
O  43.20900 46.00100 29.89800
O  41.36500 46.33400 31.28000
C  42.31800 46.98500 32.27200
H  43.46000 39.00300 29.42300
H  43.31800 38.79000 22.94300
H  41.56300 44.96600 22.82100
H  42.46200 43.22300 30.97100
H  41.57600 40.42100 30.73700
H  43.62700 41.62000 32.22500
H  44.49500 40.82100 30.95800
H  43.27800 39.89900 31.86300
H  40.09000 41.54000 31.60700
H  39.64300 43.10100 30.85100
H  39.88700 44.09700 32.79100
H  41.53900 43.59300 33.02200
H  43.52300 35.94600 27.87600
H  44.25400 37.32000 28.81800
H  45.08800 36.54400 27.44900
H  43.58300 34.45400 24.31800
H  42.89100 34.98800 25.87600
H  44.63900 34.82000 25.69600
H  42.29700 40.51000 21.05200
H  42.63600 43.34500 21.16600
H  44.95800 40.77400 21.83500
H  44.68700 42.27000 20.97100
H  44.40100 40.63200 20.21600
H  40.57200 41.97100 20.27000
H  40.52600 43.68400 20.88300
H  39.78200 41.93900 23.01200
H  38.92800 41.51400 21.50900
H  38.84000 43.16900 22.10000
H  40.57500 46.79800 23.66100
H  42.15500 47.35200 24.29400
H  40.57000 47.88300 25.11800
H  40.11100 45.10100 29.75900
H  42.66200 46.16200 32.89800
H  41.67400 47.55600 32.94100
H  43.12700 47.52900 31.78500

