158

Mg -0.21000 7.65900 27.36000
C  0.47500 9.98800 29.83700
C  -0.64200 5.28500 29.59300
C  -0.74100 5.58600 24.66800
C  0.81800 10.14000 25.04500
N  0.11500 7.69500 29.54500
C  0.06600 8.74500 30.38000
C  -0.17400 8.33100 31.77100
C  -0.39400 6.77700 31.68900
C  -0.27500 6.54400 30.17400
C  0.64400 5.93700 32.35700
C  -1.29800 9.06200 32.47400
C  -1.35800 8.94100 34.01900
H  -0.16700 8.47900 34.82300
N  -0.53300 5.73200 27.14700
C  -0.81600 4.92600 28.21800
C  -1.10900 3.59400 27.71800
C  -1.09500 3.60900 26.31800
C  -0.80100 5.05600 26.01600
C  -1.36100 2.40500 28.69300
C  -1.34300 2.47700 25.22200
O  -1.39100 2.64700 23.99900
C  -1.63700 1.02600 25.85400
N  0.10600 7.83100 25.12500
C  -0.28800 6.84900 24.28800
C  -0.29600 7.39200 22.85000
C  -0.08600 8.88500 22.97100
C  0.36200 8.95500 24.43800
C  0.65800 6.46200 22.03100
C  -1.46300 9.63900 22.84000
C  -1.79300 10.29800 21.41900
N  0.55100 9.63100 27.40100
C  0.98200 10.50300 26.40000
C  1.37700 11.82100 26.95400
C  1.22300 11.68000 28.33400
C  0.86500 10.28800 28.52100
C  1.80300 13.01400 26.15900
C  1.33900 12.28100 29.58100
O  1.61400 13.43600 29.93000
C  0.92400 11.20900 30.61100
C  1.92800 11.18300 31.64600
O  3.02300 10.65500 31.48800
O  1.48300 11.82800 32.75100
C  2.38400 11.81000 33.86700
H  -0.80100 4.58100 30.41300
H  -0.90400 4.87400 23.85700
H  0.96900 10.90000 24.27600
H  0.73100 8.41500 32.37300
H  -1.36000 6.40200 32.02800
H  1.45400 5.73500 31.65700
H  0.27300 4.95000 32.63700
H  1.07600 6.38800 33.25000
H  -2.17500 8.50700 32.14000
H  -1.39300 10.13500 32.30600
H  -2.25700 8.36200 34.22800
H  -1.62200 9.91300 34.43600
H  -2.41600 2.32600 28.95600
H  -0.87600 2.69000 29.62600
H  -0.99900 1.42500 28.38100
H  -1.99800 0.45100 25.00100
H  -2.42800 1.11700 26.59800
H  -0.73000 0.59300 26.27800
H  -1.32000 7.30600 22.48900
H  0.72200 9.19600 22.30900
H  0.95700 5.52100 22.49300
H  1.46300 7.00700 21.53700
H  0.04300 6.03200 21.24000
H  -1.40600 10.49200 23.51700
H  -2.35400 9.09500 23.15300
H  -2.79600 10.00100 21.11300
H  -1.00200 10.16200 20.68200
H  -1.74000 11.36800 21.62300
H  0.86600 13.33000 25.70100
H  2.55800 12.75100 25.41800
H  2.32100 13.69300 26.83700
H  0.02900 11.63900 31.06000
H  2.53600 10.76200 34.12400
H  2.07100 12.36300 34.75200
H  3.41400 12.11800 33.68600
Mg 29.79700 58.10300 41.23700
C  26.85200 56.55800 39.81100
C  31.53400 55.37100 39.92000
C  32.39700 59.98700 41.33800
C  27.60500 60.78200 42.21600
N  29.22200 56.22700 39.80100
C  27.96800 55.78000 39.49400
C  28.03800 54.54500 38.66000
C  29.46900 53.95800 39.09100
C  30.16000 55.19800 39.75000
C  29.31800 52.85200 40.25100
C  27.83600 54.88700 37.12900
C  27.12400 53.88700 36.31700
H  27.60300 53.90800 34.82900
N  31.75200 57.70800 40.78000
C  32.29300 56.52200 40.27200
C  33.75700 56.64000 40.28300
C  34.05900 58.02100 40.54000
C  32.74300 58.66000 40.89400
C  34.75800 55.55400 39.92800
C  35.39100 58.69100 40.36700
O  36.30900 58.05300 39.91200
C  35.49700 60.21200 40.65700
N  29.98700 60.09100 41.74700
C  31.19600 60.64300 41.65900
C  31.23300 62.02300 42.30600
C  29.74300 62.28200 42.52300
C  29.03900 60.99000 42.11400
C  32.15400 62.18900 43.52400
C  29.25500 63.36900 41.61900
C  28.14700 64.26400 42.26400
N  27.72400 58.60000 41.12500
C  27.00300 59.63900 41.67400
C  25.61400 59.42600 41.42300
C  25.53000 58.23400 40.74400
C  26.82300 57.78200 40.53000
C  24.42100 60.26900 41.76900
C  24.62700 57.36500 40.08600
O  23.42600 57.34400 39.95200
C  25.46000 56.23100 39.39100
C  24.88700 54.99100 39.91000
O  25.35000 54.37900 40.83000
O  23.78500 54.59100 39.17400
C  23.02900 53.42200 39.62900
H  32.09900 54.50900 39.55800
H  33.23700 60.65400 41.53800
H  27.04600 61.69200 42.44600
H  27.28600 53.81700 38.96400
H  30.10000 53.51300 38.32200
H  29.52300 53.15000 41.28000
H  29.99900 52.03600 40.00900
H  28.35000 52.36000 40.16000
H  28.79600 55.03300 36.63300
H  27.34300 55.85600 37.05200
H  26.11200 54.28800 36.28200
H  26.99300 52.91500 36.79300
H  35.04300 55.53200 38.87600
H  34.31800 54.60400 40.23100
H  35.61600 55.70700 40.58300
H  36.53300 60.48700 40.46100
H  35.26300 60.35900 41.71100
H  34.77200 60.77000 40.06400
H  31.73000 62.70200 41.61300
H  29.51300 62.53300 43.55800
H  32.49800 61.25800 43.97400
H  31.74200 62.82700 44.30600
H  32.99700 62.72000 43.08200
H  28.90700 62.98400 40.66000
H  29.94800 64.18000 41.39400
H  28.44200 65.29300 42.05900
H  28.06200 64.09000 43.33700
H  27.22600 64.02000 41.73500
H  23.95500 59.83000 42.65100
H  23.70500 60.34200 40.94900
H  24.60100 61.31400 42.02200
H  25.33700 56.38500 38.32000
H  22.60500 52.80200 38.83800
H  22.21400 53.76700 40.26600
H  23.61800 52.72400 40.22300

