158

Mg -0.46000 7.30200 26.30000
C  0.37600 9.64700 28.80800
C  -0.16700 4.88900 28.73900
C  -0.73000 5.16800 23.76400
C  -0.32000 9.96500 23.90400
N  -0.03800 7.28100 28.52400
C  0.34600 8.32500 29.29400
C  0.34800 7.94600 30.77500
C  0.44200 6.34400 30.70300
C  0.11900 6.13300 29.20300
C  1.84300 5.73800 31.13500
C  -0.88500 8.55700 31.49500
C  -0.56100 9.29700 32.85000
H  0.70900 9.01600 33.59800
N  -0.49500 5.39400 26.29300
C  -0.35900 4.51100 27.37100
C  -0.59000 3.18400 26.90000
C  -0.78600 3.23300 25.46000
C  -0.70800 4.65300 25.10400
C  -0.60700 1.91200 27.76400
C  -1.03400 2.05500 24.41800
O  -1.15700 2.21700 23.18100
C  -1.34900 0.62600 24.88500
N  -0.47500 7.61900 24.05700
C  -0.71400 6.50600 23.28500
C  -0.92700 6.88800 21.87900
C  -1.10000 8.47100 21.93800
C  -0.64300 8.74500 23.37100
C  0.24500 6.41600 20.96000
C  -2.52200 9.00000 21.55200
C  -3.28700 9.82500 22.63900
N  -0.03700 9.36400 26.28600
C  -0.03300 10.29500 25.26600
C  0.47100 11.60500 25.82000
C  0.55100 11.41100 27.16000
C  0.26700 10.01900 27.44500
C  0.72600 12.85200 25.09500
C  0.75600 12.04200 28.41400
O  0.94900 13.22000 28.70300
C  0.58100 10.94400 29.60900
C  1.92500 10.95800 30.26600
O  3.04200 10.63300 29.83600
O  1.77800 11.40400 31.57800
C  3.02500 11.73600 32.31100
H  -0.10100 4.10600 29.49700
H  -0.91800 4.41000 23.00200
H  -0.40200 10.80700 23.21400
H  1.33500 8.33200 31.03100
H  -0.32000 5.80000 31.26200
H  2.54300 5.81100 30.30300
H  1.79300 4.70500 31.48000
H  2.04700 6.36900 32.00000
H  -1.62700 7.79300 31.72700
H  -1.36600 9.27800 30.83400
H  -1.48100 9.32000 33.43400
H  -0.46800 10.34200 32.55400
H  -1.62900 1.56400 27.91700
H  -0.33500 2.04000 28.81100
H  0.04300 1.15200 27.33100
H  -2.14700 0.61200 25.62700
H  -0.46400 0.12800 25.28100
H  -1.66500 -0.02500 24.07000
H  -1.83300 6.40600 21.50900
H  -0.31000 8.86200 21.29700
H  1.02400 6.03900 21.62200
H  0.61200 7.22500 20.32900
H  -0.04800 5.54800 20.36800
H  -3.11500 8.13000 21.27000
H  -2.46800 9.67400 20.69700
H  -3.13100 9.30400 23.58400
H  -4.35700 9.67300 22.49600
H  -3.00400 10.87700 22.65200
H  1.17100 12.72000 24.10900
H  1.34400 13.53800 25.67400
H  -0.28300 13.25600 25.01000
H  -0.18400 11.25500 30.32000
H  2.83700 12.30300 33.22300
H  3.60400 12.38700 31.65600
H  3.68200 10.88600 32.49500
Mg 47.80500 25.58500 29.76500
C  48.38500 28.03500 32.32400
C  46.79200 23.42700 32.33100
C  47.44800 23.20000 27.44200
C  49.27100 27.72200 27.45200
N  47.59100 25.67800 31.98200
C  47.84200 26.81400 32.79600
C  47.47600 26.54200 34.32700
C  47.36000 24.93500 34.30200
C  47.25400 24.64200 32.75700
C  48.45100 24.13400 35.00400
C  46.13400 27.17500 34.78900
C  46.08100 28.15000 35.90300
H  46.74700 27.78100 37.29700
N  47.06000 23.63000 29.86000
C  46.61100 22.99000 30.95900
C  46.03500 21.72900 30.57400
C  46.19600 21.61700 29.12700
C  46.92000 22.86300 28.74600
C  45.35100 20.78300 31.51100
C  45.71900 20.52400 28.22600
O  45.78800 20.67800 27.03600
C  44.99000 19.32700 28.78800
N  48.41200 25.38300 27.78900
C  48.15000 24.27600 27.00100
C  48.74300 24.44900 25.60100
C  49.21900 26.00200 25.61700
C  48.95700 26.44100 27.00300
C  49.90600 23.45400 25.29700
C  48.53400 26.92300 24.56500
C  48.76000 26.49000 23.10300
N  48.61400 27.51000 29.80400
C  49.19300 28.21300 28.79500
C  49.70900 29.43300 29.30000
C  49.42000 29.47200 30.64800
C  48.81000 28.18800 30.95900
C  50.50900 30.46400 28.54000
C  49.49600 30.32700 31.93800
O  49.89300 31.48900 32.09200
C  48.92600 29.30800 33.13900
C  50.00600 28.88800 34.12000
O  51.16500 28.56200 33.77100
O  49.58600 28.83400 35.45100
C  50.64800 28.57300 36.52000
H  46.40200 22.68400 33.03000
H  47.32200 22.53200 26.58700
H  49.61700 28.50300 26.77200
H  48.36400 26.67800 34.94500
H  46.44600 24.57200 34.77200
H  48.99700 24.56100 35.84600
H  49.21700 23.93300 34.25500
H  47.98200 23.25500 35.44700
H  45.40200 26.37700 34.91800
H  45.84200 27.72300 33.89400
H  45.00700 28.22400 36.07500
H  46.32400 29.15300 35.55100
H  44.36300 20.52500 31.12700
H  45.35900 21.18600 32.52300
H  45.92300 19.86800 31.66200
H  45.40900 18.89600 29.69800
H  44.73100 18.58000 28.03700
H  44.06200 19.83800 29.04200
H  47.95900 24.29200 24.86100
H  50.27700 26.13500 25.38900
H  50.04600 22.83700 26.18500
H  50.86900 23.94300 25.14900
H  49.69600 22.70500 24.53300
H  48.92200 27.94000 24.63000
H  47.46500 26.97500 24.77200
H  47.77200 26.22800 22.72400
H  49.41500 25.62000 23.08000
H  49.21300 27.37200 22.64900
H  50.05000 30.68800 27.57700
H  51.45200 29.95800 28.33500
H  50.54300 31.37200 29.14200
H  48.17100 29.67300 33.83500
H  51.27400 27.76500 36.14000
H  50.04700 28.34100 37.39900
H  51.20600 29.45400 36.83700

