158

Mg 40.49900 9.34700 29.61900
C  42.16100 10.45800 32.37000
C  38.27000 7.52300 31.65300
C  38.90900 8.17700 26.90600
C  43.03200 10.61800 27.57500
N  40.29900 8.94300 31.76900
C  41.04200 9.66600 32.65100
C  40.54700 9.38500 34.08000
C  39.42000 8.30000 33.81900
C  39.29100 8.25300 32.33500
C  39.67900 6.84700 34.41100
C  39.90100 10.71500 34.77700
C  39.41800 10.49100 36.26700
H  39.99400 11.29000 37.41800
N  38.82100 8.03200 29.29900
C  38.00300 7.52000 30.22000
C  36.88700 6.85100 29.61500
C  37.00100 7.14800 28.19800
C  38.29400 7.78400 28.07900
C  35.84800 6.17400 30.43900
C  36.00000 6.90300 27.06600
O  36.14800 7.22600 25.89400
C  34.56700 6.27700 27.44700
N  41.07200 9.07200 27.55900
C  40.19000 8.76400 26.63300
C  40.70000 9.04400 25.26500
C  41.78100 10.14800 25.51900
C  41.96600 9.95800 27.02900
C  41.27100 7.77400 24.54000
C  41.32000 11.49600 24.99600
C  40.70800 12.55900 25.91700
N  42.34100 10.25700 29.85500
C  43.21500 10.73700 28.95800
C  44.26300 11.51500 29.67700
C  43.89100 11.35500 30.97400
C  42.72700 10.58800 31.06000
C  45.29600 12.39400 29.02200
C  44.21000 11.85300 32.30800
O  45.02600 12.72200 32.68100
C  43.11600 11.19700 33.24200
C  43.78500 10.42600 34.27400
O  44.68400 9.65600 34.06700
O  43.09800 10.69900 35.48900
C  43.75300 10.12300 36.65400
H  37.56700 7.09600 32.37100
H  38.44100 7.82400 25.98500
H  43.83500 11.07000 26.98900
H  41.30100 8.94900 34.73500
H  38.43200 8.52600 34.21900
H  38.83700 6.59600 35.05700
H  40.54000 6.92900 35.07500
H  39.73200 6.06200 33.65700
H  39.00700 10.93700 34.19400
H  40.63000 11.51400 34.64100
H  39.43200 9.41800 36.46100
H  38.36400 10.76600 36.22700
H  35.30000 5.41100 29.88700
H  35.06300 6.83900 30.79800
H  36.38100 5.64600 31.23000
H  33.83700 6.62300 26.71600
H  34.31300 6.81800 28.35800
H  34.61400 5.22700 27.73800
H  39.89600 9.49200 24.68000
H  42.81800 10.03100 25.20500
H  40.93000 6.83800 24.98200
H  42.35900 7.72400 24.58800
H  40.89100 7.76900 23.51800
H  40.58400 11.31600 24.21200
H  42.19200 11.96800 24.54400
H  40.88200 12.34700 26.97200
H  39.63000 12.70900 25.85300
H  41.15000 13.54800 25.79800
H  45.04100 12.89500 28.08800
H  46.11200 11.72600 28.74700
H  45.65400 13.15300 29.71700
H  42.48100 12.01500 33.58300
H  43.53700 9.05500 36.64100
H  43.58200 10.64200 37.59800
H  44.84100 10.17500 36.62100
Mg 43.22000 42.57700 26.42000
C  41.96200 44.93500 28.98100
C  44.72600 40.82100 28.98300
C  44.32000 40.59600 24.10800
C  41.93100 44.86500 24.04100
N  43.41000 42.86200 28.70800
C  42.68600 43.80000 29.53600
C  42.68300 43.32500 31.06700
C  43.70100 42.08900 31.01800
C  43.97400 41.91100 29.51300
C  44.94900 42.17400 31.93400
C  41.28200 43.07200 31.54900
C  41.11800 42.33400 32.85200
H  40.49000 42.91500 34.03300
N  44.38300 40.97600 26.50700
C  44.94000 40.39800 27.61400
C  45.65000 39.20300 27.19300
C  45.61300 39.17700 25.79600
C  44.75000 40.33100 25.43800
C  46.30700 38.18300 28.16600
C  46.28900 38.17500 24.83800
O  46.22700 38.22800 23.61700
C  47.10800 37.02000 25.36500
N  43.21900 42.79100 24.34000
C  43.59800 41.71700 23.64600
C  43.37300 41.96200 22.23800
C  42.33000 43.13800 22.20600
C  42.50600 43.65200 23.61200
C  44.66700 42.36300 21.48100
C  40.92100 42.63100 21.93500
C  40.43700 41.58500 22.87900
N  42.38500 44.58100 26.40900
C  41.91900 45.36600 25.38500
C  41.44900 46.64500 25.85200
C  41.35500 46.44800 27.22200
C  42.00500 45.21900 27.58700
C  40.96400 47.86100 25.08500
C  40.91700 47.08600 28.45300
O  40.39000 48.20900 28.59900
C  41.30000 46.12300 29.66000
C  42.21500 46.77300 30.67900
O  43.20900 47.46200 30.47000
O  41.66400 46.58400 31.91700
C  42.46200 47.11100 33.01400
H  45.12600 40.18400 29.77400
H  44.46900 39.80800 23.36700
H  41.35200 45.48700 23.35500
H  43.16600 44.09800 31.66600
H  43.17000 41.17100 31.27100
H  45.00900 43.19000 32.32400
H  45.80400 41.89100 31.32000
H  44.77600 41.44400 32.72500
H  40.72700 42.52500 30.78700
H  40.96100 44.11300 31.57700
H  42.14900 42.15300 33.15500
H  40.69700 41.35700 32.61700
H  45.77100 37.23400 28.15700
H  46.22200 38.49700 29.20600
H  47.35700 38.06600 27.89800
H  46.56000 36.31600 25.99200
H  47.95800 37.48000 25.86900
H  47.40800 36.43400 24.49600
H  42.80100 41.10500 21.88400
H  42.69400 43.93200 21.55500
H  45.50300 41.98900 22.07200
H  44.88800 43.41300 21.28900
H  44.75300 41.85400 20.52000
H  40.91700 42.41700 20.86700
H  40.26800 43.50300 21.95200
H  39.71800 42.04400 23.55700
H  41.15100 41.01800 23.47700
H  39.88500 40.80700 22.35300
H  41.31900 48.06200 24.07500
H  41.26300 48.72300 25.68200
H  39.88500 47.90300 24.93900
H  40.39800 45.65900 30.05900
H  42.15300 46.72300 33.98400
H  42.37500 48.18700 33.16100
H  43.48900 46.78800 32.84200

