158

Mg 30.03500 57.72400 40.20500
C  27.22000 55.67800 39.23000
C  32.01000 55.25000 38.91800
C  32.54900 59.86800 40.50200
C  27.69600 60.32200 40.96400
N  29.56800 55.70600 38.93400
C  28.41900 54.98900 38.89000
C  28.64100 53.56700 38.38100
C  30.16700 53.56900 38.09900
C  30.64400 54.86700 38.69500
C  31.01100 52.34500 38.63500
C  27.80900 53.06600 37.10600
C  27.58200 54.10000 35.99300
H  28.19900 53.85600 34.63200
N  32.08000 57.47600 39.96800
C  32.71900 56.38500 39.37400
C  34.15400 56.69400 39.31500
C  34.30800 58.08000 39.71900
C  32.93700 58.57100 40.07800
C  35.14100 55.61300 38.82800
C  35.63900 58.88200 39.79200
O  36.66800 58.41000 39.38600
C  35.70700 60.26900 40.31700
N  30.07400 59.81900 40.66200
C  31.28200 60.44500 40.91200
C  31.13100 61.97900 41.19900
C  29.55500 62.00600 41.54700
C  29.03600 60.64900 40.94700
C  32.04100 62.39300 42.36000
C  28.83900 63.22100 40.95000
C  28.00400 63.91500 42.08700
N  27.89600 57.99300 40.20900
C  27.13900 59.09200 40.54600
C  25.78800 58.79500 40.44700
C  25.77600 57.41600 39.94100
C  27.08800 57.02600 39.74200
C  24.51300 59.72100 40.77400
C  24.83800 56.31000 39.68700
O  23.64100 56.17800 39.81200
C  25.76800 55.13900 39.17900
C  25.50400 53.94500 40.00200
O  25.96500 53.61900 41.13000
O  24.62700 53.13400 39.37500
C  24.54700 51.73500 39.84700
H  32.61600 54.53500 38.35800
H  33.35800 60.58600 40.34700
H  26.96500 61.09700 41.20400
H  28.48100 52.93900 39.25700
H  30.23400 53.82300 37.04200
H  30.30100 51.55100 38.86800
H  31.53200 52.52400 39.57600
H  31.63700 52.05200 37.79200
H  26.81400 52.72500 37.39300
H  28.23200 52.14200 36.71200
H  27.96600 55.04500 36.37600
H  26.50800 54.26300 35.89900
H  35.54600 55.82800 37.83900
H  34.59000 54.67700 38.74100
H  35.91400 55.39200 39.56400
H  36.72200 60.65500 40.41200
H  35.42100 60.19200 41.36600
H  35.26800 61.06800 39.72000
H  31.39700 62.48200 40.26900
H  29.46300 61.95000 42.63200
H  32.36900 61.45100 42.79900
H  31.54300 62.92900 43.16800
H  32.89000 62.99200 42.02900
H  28.19900 62.83200 40.15900
H  29.52000 63.91000 40.45000
H  28.08100 63.61900 43.13300
H  26.97100 63.82800 41.75100
H  28.09800 65.00100 42.08500
H  23.68800 59.29500 40.20300
H  24.78200 60.72100 40.43400
H  24.23800 59.59900 41.82200
H  25.55000 54.89200 38.14000
H  25.43600 51.16000 39.58900
H  23.78700 51.27600 39.21500
H  24.34700 51.68800 40.91800
Mg 6.75900 54.72900 41.03800
C  5.57400 51.33500 40.57600
C  9.52800 53.75800 39.29600
C  7.70300 58.00800 41.07900
C  3.68100 55.54500 42.32200
N  7.30100 52.78700 39.76900
C  6.78300 51.56600 39.89700
C  7.61600 50.53900 39.12800
C  9.02300 51.24400 39.20700
C  8.61400 52.68100 39.49000
C  9.95400 50.76700 40.31700
C  6.98000 50.46400 37.66400
C  7.17200 49.17000 36.91200
H  6.48400 49.05700 35.53900
N  8.42800 55.70300 40.38200
C  9.50400 55.10900 39.68100
C  10.42200 56.14700 39.34500
C  10.00100 57.29800 39.93700
C  8.66900 57.04500 40.53200
C  11.73300 55.79800 38.52900
C  10.78500 58.62900 39.81700
O  11.65600 58.75800 38.94200
C  10.37700 59.85000 40.64600
N  5.86800 56.48100 41.66000
C  6.44900 57.66100 41.59700
C  5.48200 58.74700 42.17800
C  4.19500 57.96900 42.73400
C  4.55400 56.59900 42.09600
C  5.97100 59.83600 43.16300
C  2.85900 58.52000 42.26500
C  1.76500 58.69600 43.34200
N  4.98000 53.73300 41.37100
C  3.81500 54.22100 41.87900
C  2.95400 53.15000 42.19300
C  3.57600 51.99200 41.70700
C  4.82200 52.39700 41.17100
C  1.63500 53.23800 42.83900
C  3.39700 50.54100 41.44800
O  2.48800 49.80800 41.70400
C  4.74100 50.07400 40.89900
C  4.51800 49.06900 39.85600
O  3.67100 49.16700 38.91300
O  5.38300 47.98900 39.97500
C  4.96800 46.75800 39.23200
H  10.46000 53.38100 38.87000
H  7.82700 59.08500 40.94900
H  2.65800 55.66000 42.68600
H  7.58400 49.59600 39.67300
H  9.45900 51.17600 38.21100
H  9.35800 50.26200 41.07600
H  10.44500 51.66900 40.68200
H  10.74700 50.09800 39.98300
H  7.47400 51.25900 37.10600
H  5.90900 50.66400 37.62500
H  6.79400 48.33200 37.49700
H  8.24700 49.12000 36.74000
H  11.97300 54.75200 38.34000
H  12.59700 56.12900 39.10400
H  11.86600 56.18500 37.51900
H  11.19600 60.56600 40.58000
H  10.17400 59.62900 41.69400
H  9.59200 60.41000 40.13800
H  5.11500 59.28900 41.30700
H  4.22600 57.89900 43.82200
H  5.76600 60.81700 42.73200
H  7.05400 59.86300 43.28400
H  5.57300 59.74000 44.17300
H  2.43100 57.88500 41.48900
H  3.04600 59.50100 41.82900
H  1.62000 59.72900 43.65500
H  2.03400 58.13000 44.23400
H  0.74900 58.39300 43.08800
H  1.74200 53.41600 43.90900
H  1.10900 52.28900 42.73900
H  1.07500 54.10000 42.47500
H  5.20200 49.47200 41.68400
H  3.88800 46.66200 39.34100
H  5.47100 45.96800 39.79000
H  5.24800 46.76800 38.17900

