158

Mg 16.90900 -1.88100 28.05100
C  16.18000 0.35300 30.54700
C  19.00600 -3.66300 30.13800
C  18.37000 -3.56100 25.46200
C  15.29700 0.30800 25.81800
N  17.64700 -1.62400 30.03300
C  17.08200 -0.71400 30.93900
C  17.58700 -1.06300 32.32300
C  18.69100 -2.18700 32.09800
C  18.35600 -2.56800 30.64600
C  20.17000 -1.69100 32.17600
C  16.40900 -1.44900 33.22800
C  16.47500 -0.99900 34.69400
H  17.64800 -0.11100 35.21900
N  18.31800 -3.61900 27.84600
C  19.04400 -4.15300 28.80800
C  19.80100 -5.25900 28.31000
C  19.56200 -5.27200 26.89700
C  18.68100 -4.16200 26.69000
C  20.52900 -6.28900 29.21900
C  20.17300 -6.13000 25.78100
O  19.85100 -6.00300 24.60900
C  21.20500 -7.22700 26.15600
N  16.72900 -1.75200 25.99700
C  17.60800 -2.42600 25.17600
C  17.42100 -1.97100 23.73000
C  16.21700 -0.96300 23.76300
C  15.98400 -0.83600 25.25500
C  18.71200 -1.37800 23.17800
C  14.96900 -1.47900 22.99900
C  13.96100 -0.45400 22.56800
N  15.80200 -0.13300 28.14800
C  15.20100 0.59000 27.16000
C  14.44700 1.65500 27.77700
C  14.75800 1.60500 29.12800
C  15.70700 0.55500 29.23800
C  13.45100 2.58300 27.08400
C  14.50400 2.22100 30.41300
O  13.88800 3.22000 30.74700
C  15.57300 1.47400 31.38900
C  16.56800 2.41000 32.16500
O  17.83500 2.30200 32.09900
O  15.87900 3.28300 33.04000
C  16.79000 3.76900 34.12400
H  19.63600 -4.22600 30.83000
H  18.84200 -3.95800 24.56100
H  14.78800 0.93800 25.08500
H  18.01900 -0.17000 32.77400
H  18.54000 -2.99800 32.81000
H  20.46000 -1.69500 33.22600
H  20.28400 -0.64500 31.89100
H  20.87500 -2.26300 31.57400
H  16.39000 -2.53900 33.24700
H  15.45300 -1.16900 32.78600
H  16.55200 -1.90700 35.29100
H  15.46500 -0.67500 34.94100
H  21.60900 -6.14200 29.22800
H  20.28100 -7.31700 28.95500
H  20.22500 -6.17300 30.26000
H  21.27100 -7.85700 25.26900
H  20.80200 -7.88500 26.92600
H  22.17300 -6.83600 26.46800
H  17.19800 -2.92600 23.25500
H  16.59200 -0.08000 23.24400
H  19.35400 -1.16800 24.03400
H  18.56000 -0.38400 22.75900
H  19.17400 -2.13400 22.54400
H  14.42700 -2.15400 23.66200
H  15.33000 -2.05900 22.15000
H  14.34100 0.52900 22.84600
H  12.98900 -0.67500 23.01000
H  13.90900 -0.43900 21.47900
H  13.31500 2.41100 26.01600
H  13.86900 3.58800 27.15500
H  12.54200 2.61400 27.68400
H  15.01000 1.11800 32.25100
H  16.38400 4.74100 34.40400
H  17.86000 3.82600 33.92500
H  16.66200 3.15100 35.01300
Mg 26.11700 51.26000 25.55400
C  23.78700 52.13200 27.98800
C  28.35000 50.61600 27.89000
C  28.45400 50.93800 23.11400
C  23.83400 52.32300 23.04000
N  26.11600 51.49600 27.72200
C  24.99400 51.80100 28.55100
C  25.31500 51.49600 29.98500
C  26.88300 51.20100 29.92000
C  27.17500 51.04900 28.45100
C  27.87000 52.23200 30.47000
C  24.42100 50.37700 30.60500
C  23.61300 50.79900 31.83400
H  23.92900 50.11000 33.13900
N  28.02100 50.68400 25.48300
C  28.74700 50.42600 26.57100
C  30.11300 50.05800 26.15800
C  30.17400 50.18100 24.76900
C  28.84300 50.60500 24.40300
C  31.19000 49.69800 27.08400
C  31.35500 49.96000 23.79900
O  31.35100 50.02800 22.54500
C  32.68700 49.41900 24.33000
N  26.22200 51.75400 23.40100
C  27.23700 51.37800 22.64100
C  27.11500 51.97400 21.25400
C  25.57200 52.09500 21.11500
C  25.18900 52.18900 22.60000
C  28.03000 53.17800 20.99900
C  24.82900 50.90400 20.46500
C  24.15400 51.20500 19.10400
N  24.22600 52.03600 25.43800
C  23.37100 52.30700 24.35900
C  22.05900 52.78300 24.84800
C  22.24600 52.77900 26.23000
C  23.48900 52.21100 26.58200
C  20.95400 53.28200 24.00200
C  21.49600 53.00500 27.38400
O  20.37700 53.51400 27.59800
C  22.51600 52.55900 28.56900
C  22.67600 53.65500 29.57500
O  23.26500 54.71900 29.45500
O  22.04200 53.37900 30.71300
C  21.88000 54.42600 31.75200
H  29.08400 50.36500 28.65900
H  29.23100 50.72800 22.37600
H  23.17400 52.41600 22.17500
H  25.30100 52.42500 30.55600
H  27.02300 50.24700 30.42900
H  27.50000 53.25000 30.34300
H  28.88900 52.19600 30.08600
H  27.73200 52.06300 31.53800
H  25.11500 49.56900 30.83500
H  23.68600 50.03000 29.87900
H  22.56400 50.69900 31.55500
H  23.83900 51.85800 31.96400
H  31.33600 48.61900 27.13800
H  30.99400 49.98200 28.11800
H  32.14700 50.17700 26.87600
H  32.49400 48.49100 24.86900
H  32.99900 50.30700 24.88000
H  33.37600 49.31200 23.49300
H  27.37100 51.15300 20.58500
H  25.37400 53.02000 20.57400
H  27.45500 54.05500 20.70500
H  28.66400 52.88000 20.16400
H  28.64200 53.49200 21.84500
H  24.07800 50.48400 21.13500
H  25.48000 50.03200 20.40300
H  23.25400 50.59300 19.03600
H  24.84900 51.01000 18.28700
H  23.79500 52.22000 19.26700
H  20.73800 52.56700 23.20800
H  21.35000 54.12500 23.43500
H  20.06600 53.56100 24.56900
H  22.10800 51.71600 29.12700
H  22.44900 54.13200 32.63400
H  20.81300 54.51400 31.95700
H  22.21500 55.42000 31.45600

