158

Mg 0.49700 7.65900 26.45300
C  1.39000 9.93300 29.09000
C  0.89000 5.13900 28.63200
C  0.37500 5.49100 23.83700
C  1.11500 10.32700 24.24500
N  0.90200 7.61100 28.70800
C  1.17200 8.60700 29.55300
C  1.33900 8.06000 30.95500
C  1.33900 6.50900 30.70400
C  1.07000 6.37000 29.22400
C  2.70400 5.77300 31.09400
C  0.34700 8.67600 32.03100
C  0.96000 9.18000 33.33500
H  2.15900 8.53400 33.86000
N  0.35400 5.65200 26.27700
C  0.51500 4.75100 27.31700
C  0.44600 3.44800 26.79600
C  0.33500 3.50500 25.38500
C  0.36900 4.92400 25.06700
C  0.33700 2.29600 27.81600
C  0.22200 2.41700 24.31800
O  -0.01000 2.64300 23.11100
C  0.50100 0.98900 24.69200
N  0.78000 7.87500 24.41400
C  0.57400 6.82100 23.52500
C  0.61900 7.34100 22.09600
C  0.54700 8.87800 22.25300
C  0.85800 9.05300 23.71900
C  1.97100 6.90100 21.42000
C  -0.85700 9.37400 21.84700
C  -0.78100 10.64600 20.97200
N  1.19000 9.71300 26.58700
C  1.38400 10.65900 25.59900
C  1.81200 11.95200 26.22500
C  1.79000 11.64800 27.55900
C  1.45700 10.29400 27.76500
C  1.82400 13.22100 25.51100
C  1.86400 12.32200 28.85000
O  2.18700 13.46600 29.00600
C  1.65700 11.15700 29.91100
C  2.95500 11.21500 30.75900
O  3.92500 10.49600 30.51100
O  2.72300 12.07500 31.84500
C  3.87500 12.28100 32.76200
H  1.08200 4.22700 29.20000
H  0.35200 4.79000 23.00100
H  1.24200 11.18600 23.58200
H  2.33400 8.38700 31.25700
H  0.57900 5.96400 31.26200
H  3.42400 6.37500 31.64800
H  3.22100 5.28200 30.27000
H  2.38300 4.96900 31.75600
H  -0.43100 7.95900 32.29700
H  -0.26000 9.39200 31.47600
H  0.19300 9.03400 34.09600
H  1.14200 10.24800 33.21600
H  0.14700 1.35500 27.30100
H  -0.47400 2.46800 28.52300
H  1.29300 2.24000 28.33700
H  -0.47400 0.63400 25.02800
H  1.28700 1.06500 25.44200
H  0.73800 0.39300 23.81000
H  -0.23400 6.90600 21.57600
H  1.33800 9.40600 21.72000
H  2.62300 7.74400 21.19200
H  1.77200 6.40100 20.47300
H  2.47200 6.20000 22.08800
H  -1.35900 9.67100 22.76800
H  -1.49600 8.64700 21.34600
H  -1.68800 10.84200 20.40000
H  0.09000 10.75500 20.32600
H  -0.69800 11.51200 21.62800
H  0.92800 13.43800 24.93000
H  2.61400 13.29100 24.76300
H  1.94600 14.01300 26.25000
H  0.77500 11.37500 30.51300
H  3.51800 12.89600 33.58800
H  4.65100 12.82200 32.21900
H  4.19400 11.35900 33.24700
Mg 26.13200 -0.31000 29.15800
C  28.01900 -0.48600 32.19200
C  23.33900 0.34400 31.27200
C  24.26100 -0.18400 26.42300
C  28.93600 -0.94100 27.38000
N  25.73400 -0.18200 31.55700
C  26.71400 -0.08500 32.46300
C  26.16200 0.37800 33.80900
C  24.55800 0.48600 33.52900
C  24.47800 0.18100 32.02500
C  23.69300 -0.59600 34.30100
C  26.70400 1.69000 34.46800
C  26.03000 2.10700 35.79700
H  27.00800 2.24600 37.00100
N  24.03800 -0.12100 28.88600
C  23.11000 0.14200 29.88400
C  21.78600 0.15600 29.16400
C  22.00400 0.04600 27.76500
C  23.46100 -0.06900 27.60400
C  20.46700 0.28600 29.86400
C  21.02100 0.06600 26.67200
O  21.39800 0.00900 25.51100
C  19.47300 0.15500 26.85100
N  26.56000 -0.61500 27.17600
C  25.62400 -0.44000 26.21600
C  26.26500 -0.29500 24.84900
C  27.78700 -0.66800 25.12800
C  27.78800 -0.78800 26.63000
C  25.65100 -1.09800 23.70700
C  28.81300 0.34400 24.55300
C  30.06200 -0.35600 23.91900
N  28.04200 -0.75300 29.60300
C  29.12500 -1.00300 28.77800
C  30.30500 -1.25600 29.60400
C  29.90900 -1.14600 30.90800
C  28.51600 -0.81400 30.91000
C  31.63100 -1.50400 29.04000
C  30.41000 -1.10200 32.23800
O  31.56600 -1.42400 32.67300
C  29.18200 -0.65900 33.10100
C  28.95300 -1.76500 34.14600
O  28.11000 -2.64800 34.04100
O  29.65400 -1.46000 35.32900
C  29.71800 -2.44300 36.42000
H  22.46900 0.65200 31.85600
H  23.70500 -0.26000 25.48700
H  29.92000 -1.07800 26.92700
H  26.40000 -0.47800 34.43900
H  24.23700 1.50600 33.74000
H  23.77900 -0.58200 35.38800
H  23.95500 -1.61100 34.00300
H  22.63800 -0.39900 34.11100
H  26.38600 2.48700 33.79500
H  27.78600 1.71600 34.59900
H  25.25700 1.36800 36.01000
H  25.66300 3.08400 35.48100
H  19.94400 1.22700 29.69800
H  20.74600 0.26000 30.91700
H  19.79600 -0.53300 29.60400
H  18.98400 -0.53800 27.53500
H  19.02900 -0.06800 25.88100
H  19.28100 1.18200 27.16300
H  26.18100 0.75000 24.55200
H  27.95200 -1.70900 24.85000
H  24.87800 -1.70800 24.17500
H  26.25500 -1.81500 23.15100
H  25.20800 -0.38700 23.01000
H  29.24500 1.05800 25.25300
H  28.31500 0.90200 23.75900
H  30.99700 -0.05800 24.39400
H  30.07700 -0.29900 22.83100
H  29.93900 -1.41400 24.15100
H  32.22200 -0.61400 29.25800
H  31.58300 -1.60600 27.95600
H  32.06400 -2.34400 29.58300
H  29.44400 0.23600 33.66700
H  29.64300 -3.47500 36.07600
H  28.91600 -2.19500 37.11500
H  30.64200 -2.33600 36.98800

