158

Mg 54.14900 24.41300 45.16700
C  51.30100 26.35400 44.08600
C  52.57400 21.75000 43.56700
C  57.01200 22.79100 45.34700
C  55.55000 27.36400 46.14500
N  52.12400 24.08300 43.98100
C  51.25500 25.05800 43.58400
C  50.19900 24.40800 42.66900
C  50.30900 22.91600 43.07700
C  51.74900 22.87100 43.59400
C  49.19400 22.44800 44.06500
C  50.49900 24.76800 41.21600
C  49.36100 25.38900 40.42300
H  49.10300 24.79200 39.02800
N  54.71500 22.43900 44.58800
C  53.95600 21.52800 43.99100
C  54.64200 20.30300 43.89900
C  55.93400 20.49200 44.42900
C  55.99200 21.94300 44.77400
C  54.05800 18.98300 43.34000
C  56.93700 19.43800 44.68800
O  56.77100 18.26600 44.39600
C  58.29500 19.78900 45.13300
N  56.06200 25.04200 45.46200
C  57.07900 24.11600 45.63600
C  58.35100 24.88300 46.09600
C  57.86100 26.31800 46.49500
C  56.36800 26.24100 46.01500
C  59.32300 24.13100 47.17500
C  58.70200 27.42500 45.87800
C  58.98900 28.67900 46.66900
N  53.55900 26.42400 45.21000
C  54.18500 27.50200 45.79000
C  53.29900 28.66900 45.87000
C  52.16500 28.27000 45.20000
C  52.34300 26.93900 44.81300
C  53.58900 30.03700 46.37000
C  50.82300 28.61400 44.74100
O  50.18600 29.68000 44.74600
C  50.18600 27.38400 44.11500
C  49.78800 27.89900 42.73900
O  50.52200 28.36500 41.94100
O  48.45100 27.92900 42.66700
C  47.93800 28.68700 41.50200
H  51.95900 20.90500 43.25000
H  57.87700 22.26800 45.76100
H  55.89400 28.27900 46.63300
H  49.23100 24.82900 42.94100
H  50.18900 22.39900 42.12500
H  49.08600 21.37600 43.89900
H  48.34300 23.12500 43.99600
H  49.51400 22.56600 45.10100
H  50.79700 23.84500 40.71700
H  51.35800 25.43900 41.21900
H  49.50700 26.44600 40.20200
H  48.45700 25.27400 41.02200
H  53.00200 19.02100 43.07200
H  54.19700 18.08900 43.94800
H  54.61300 18.64300 42.46600
H  58.98300 18.94500 45.17900
H  58.31600 20.03200 46.19500
H  58.76200 20.55400 44.51200
H  59.01300 24.93200 45.23100
H  57.79400 26.33400 47.58300
H  60.29800 24.09900 46.69000
H  59.10000 23.11300 47.49400
H  59.41300 24.83600 48.00200
H  58.12700 27.78100 45.02400
H  59.68500 27.01000 45.65500
H  60.06800 28.72100 46.81300
H  58.42100 28.81100 47.59000
H  58.77900 29.61400 46.15100
H  53.64100 30.80200 45.59500
H  54.50900 30.06900 46.95300
H  52.76800 30.32500 47.02600
H  49.31500 27.02400 44.66300
H  46.88800 28.86800 41.73200
H  48.06700 28.18500 40.54300
H  48.37000 29.68700 41.45900
Mg 35.46500 48.83100 25.13000
C  36.06700 46.94800 28.12300
C  34.46000 51.40200 27.26900
C  34.66000 50.67900 22.30400
C  36.34500 46.13600 23.23900
N  35.41900 49.13400 27.46900
C  35.67500 48.23200 28.48000
C  35.52000 48.89100 29.82100
C  34.66500 50.19200 29.44800
C  34.86800 50.30000 27.96100
C  33.18100 50.03200 29.80500
C  36.85500 49.09300 30.47600
C  36.87000 49.00900 32.06600
H  35.49100 48.83100 32.78500
N  34.71000 50.72500 24.78400
C  34.42600 51.60600 25.79200
C  34.04900 52.82100 25.17500
C  33.93900 52.63800 23.77000
C  34.51900 51.31300 23.57600
C  33.82700 54.10300 25.90200
C  33.30100 53.61500 22.76300
O  33.29000 53.40000 21.58500
C  32.76900 54.91000 23.15800
N  35.25700 48.44300 23.17200
C  35.03600 49.33000 22.16000
C  35.08200 48.72700 20.75900
C  35.75000 47.33000 21.01900
C  35.75600 47.26100 22.60000
C  33.69600 48.65300 20.08300
C  37.26800 47.19200 20.37100
C  38.44900 47.88800 21.15300
N  35.98700 46.91000 25.47300
C  36.40400 45.91900 24.62900
C  36.90300 44.79700 25.34700
C  36.71300 45.10700 26.72600
C  36.20200 46.42000 26.79200
C  37.31000 43.49400 24.80900
C  37.03600 44.70300 28.09500
O  37.70500 43.74600 28.55300
C  36.46200 45.83100 29.01400
C  35.25900 45.34300 29.72500
O  34.17300 45.05200 29.22700
O  35.60600 45.33400 31.09100
C  34.54900 44.93600 32.00300
H  34.09600 52.25400 27.84700
H  34.46200 51.32200 21.44400
H  36.74500 45.31400 22.64100
H  34.91600 48.15100 30.34600
H  35.03800 51.11900 29.88300
H  32.52000 50.09200 28.94100
H  32.87500 50.91100 30.37200
H  33.05500 49.09700 30.35100
H  37.12800 50.11300 30.20800
H  37.61200 48.41700 30.08000
H  37.33800 49.89400 32.49800
H  37.50900 48.18700 32.38900
H  34.27000 54.95500 25.38500
H  34.22500 54.11700 26.91600
H  32.75700 54.24200 26.05700
H  32.11900 54.91000 24.03300
H  32.14300 55.24300 22.33000
H  33.58600 55.60900 23.34100
H  35.67800 49.43100 20.17900
H  35.10300 46.58400 20.55700
H  33.47600 49.47700 19.40400
H  32.91600 48.45400 20.81700
H  33.63000 47.76700 19.45100
H  37.27500 47.53500 19.33600
H  37.46000 46.12400 20.47600
H  38.88900 48.53800 20.39600
H  39.20200 47.10600 21.24500
H  38.23600 48.30700 22.13700
H  36.74000 42.80500 25.43200
H  38.39900 43.47500 24.84600
H  36.89300 43.43900 23.80300
H  37.18300 46.14300 29.77000
H  34.99800 44.92900 32.99600
H  34.15000 43.95600 31.74300
H  33.85700 45.77400 31.91100

