158

Mg -1.27300 16.74500 26.17000
C  -1.50100 14.59600 28.98300
C  -1.88200 19.36600 28.25100
C  -1.57100 18.71200 23.40500
C  -0.68700 14.01200 24.12700
N  -1.48600 17.00800 28.40700
C  -1.48800 15.96900 29.32400
C  -1.84000 16.48900 30.80200
C  -2.18800 18.02700 30.50400
C  -1.87500 18.13500 28.95900
C  -3.60700 18.44100 30.77200
C  -0.73500 16.40900 31.90100
C  -1.09300 15.72100 33.21700
H  -1.92500 16.34600 34.34800
N  -1.45600 18.79400 25.91000
C  -1.76000 19.74100 26.89200
C  -1.73900 21.00700 26.30100
C  -1.56600 20.85000 24.93700
C  -1.55400 19.37400 24.65700
C  -1.92700 22.29300 27.12500
C  -1.35500 21.87700 23.85300
O  -1.37500 21.60400 22.63800
C  -0.99100 23.34400 24.23300
N  -1.24400 16.41000 24.05600
C  -1.24000 17.37200 23.14500
C  -1.15000 16.79000 21.79500
C  -0.53600 15.39400 21.99500
C  -0.86400 15.24000 23.52000
C  -2.49000 16.95000 20.98900
C  1.01500 15.19900 21.62100
C  2.08200 15.57100 22.57900
N  -1.21300 14.68200 26.43500
C  -1.00700 13.67300 25.50000
C  -1.00700 12.43100 26.15600
C  -1.28300 12.72000 27.49500
C  -1.33600 14.09300 27.65400
C  -0.89000 11.10900 25.53200
C  -1.52500 12.14600 28.78900
O  -1.56900 10.96400 29.13500
C  -1.77600 13.35500 29.81700
C  -0.95200 13.00900 30.96900
O  0.18700 13.27500 31.14100
O  -1.71000 12.30900 31.86100
C  -1.09500 12.12600 33.18300
H  -2.36800 20.10800 28.88800
H  -1.64000 19.38000 22.54500
H  -0.43100 13.12200 23.54800
H  -2.74600 15.95200 31.08300
H  -1.60100 18.74700 31.07300
H  -4.01100 17.89500 31.62500
H  -4.20700 18.25100 29.88200
H  -3.67400 19.48900 31.06400
H  -0.47200 17.42000 32.21400
H  0.20700 15.99000 31.54700
H  -0.22600 15.13200 33.51600
H  -1.71800 14.85500 32.99800
H  -2.62600 22.94100 26.59500
H  -1.08200 22.93700 27.37000
H  -2.24000 21.95600 28.11300
H  -0.15100 23.36300 24.92800
H  -1.89700 23.83100 24.59100
H  -0.67600 23.85500 23.32300
H  -0.42400 17.45500 21.32800
H  -1.19100 14.62200 21.59200
H  -3.21100 17.45900 21.62800
H  -2.93500 16.02300 20.62800
H  -2.22300 17.72000 20.26500
H  1.32300 15.77300 20.74700
H  1.03400 14.14300 21.35200
H  1.72300 16.00500 23.51300
H  2.74300 16.32700 22.15500
H  2.74700 14.71600 22.70000
H  -0.23200 11.26200 24.67600
H  -1.87200 10.72900 25.25100
H  -0.29900 10.49400 26.21000
H  -2.83200 13.37200 30.08700
H  -1.41300 12.98100 33.78000
H  -0.02900 11.91500 33.10200
H  -1.45400 11.20300 33.63700
Mg 25.42000 52.03200 26.64400
C  23.31800 53.14200 29.34700
C  27.94800 51.58600 28.80400
C  27.48600 51.81900 23.84000
C  22.86400 53.17400 24.42200
N  25.60900 52.29400 28.78600
C  24.63000 52.70100 29.73200
C  25.11700 52.53900 31.20400
C  26.64800 52.15900 30.96400
C  26.75800 52.01500 29.39400
C  27.72000 53.11000 31.61500
C  24.28500 51.46900 32.05100
C  24.00800 51.75300 33.53800
H  25.01200 52.25900 34.45900
N  27.35400 51.73700 26.35400
C  28.28100 51.47900 27.40000
C  29.59100 51.26400 26.75400
C  29.54300 51.40000 25.35000
C  28.07500 51.62500 25.12900
C  30.78900 51.13700 27.71000
C  30.65900 51.34300 24.28300
O  30.51300 51.45800 23.06800
C  32.06400 51.03000 24.87200
N  25.17000 52.24500 24.49300
C  26.18000 52.11400 23.54000
C  25.72800 52.46700 22.13600
C  24.20300 52.58200 22.24300
C  24.05300 52.64600 23.83300
C  26.49500 53.59100 21.48000
C  23.36500 51.50800 21.62400
C  23.17800 51.69200 20.07700
N  23.45900 52.93600 26.76500
C  22.54100 53.28900 25.80900
C  21.32500 53.67900 26.46200
C  21.65000 53.66400 27.80600
C  22.89300 53.18900 28.00100
C  20.00600 54.23600 25.83300
C  21.01200 53.86300 29.07200
O  19.85800 54.20100 29.39100
C  22.10600 53.44500 30.14200
C  22.39200 54.68100 30.96500
O  22.63200 55.78600 30.54000
O  22.39700 54.39300 32.26800
C  22.49500 55.56200 33.14800
H  28.59200 51.29500 29.63700
H  28.15600 51.68800 22.98800
H  22.12100 53.53300 23.70600
H  25.10200 53.49000 31.73500
H  26.87500 51.21400 31.45800
H  28.36600 52.57900 32.31400
H  27.21200 53.92800 32.12700
H  28.40900 53.43800 30.83700
H  24.80600 50.51200 32.03600
H  23.30700 51.29200 31.60500
H  23.72700 50.81100 34.00800
H  23.12300 52.37800 33.65900
H  30.54900 50.99100 28.76300
H  31.33600 52.08000 27.69700
H  31.38300 50.25100 27.48800
H  32.80300 50.96100 24.07300
H  32.11000 50.08500 25.41300
H  32.34700 51.82900 25.55700
H  25.92100 51.55600 21.56900
H  23.98800 53.56000 21.81300
H  27.53900 53.41400 21.73700
H  26.18200 54.62100 21.64900
H  26.40400 53.61100 20.39400
H  22.34700 51.42800 22.00600
H  23.88600 50.59900 21.92500
H  23.66100 50.81500 19.64400
H  23.75500 52.56400 19.77100
H  22.12300 51.73800 19.80900
H  20.01300 54.01700 24.76500
H  20.01300 55.32300 25.91500
H  19.11400 53.88700 26.35400
H  21.76000 52.58400 30.71400
H  21.67000 56.24200 32.93600
H  23.52500 55.91800 33.16700
H  22.34000 55.22800 34.17400

