158

Mg 48.80700 34.03000 26.83400
C  47.07000 32.89100 29.60600
C  49.14300 37.14000 28.61000
C  50.02800 35.48800 24.07600
C  47.80700 31.29500 25.03300
N  48.23400 34.90900 28.93400
C  47.57400 34.14700 29.88800
C  47.61500 34.89100 31.18400
C  47.90400 36.40300 30.80300
C  48.53900 36.17100 29.40900
C  46.69400 37.41500 30.73400
C  48.88200 34.32400 31.89600
C  49.19400 34.59500 33.41500
H  48.12100 35.34000 34.17100
N  49.80000 35.87400 26.49800
C  49.76400 37.01500 27.31300
C  50.32200 38.14000 26.57000
C  50.68800 37.69000 25.31500
C  50.09600 36.33400 25.21100
C  50.37400 39.58400 27.05100
C  51.41800 38.39400 24.17000
O  51.82300 37.79900 23.17600
C  51.71200 39.82800 24.09400
N  48.92800 33.48100 24.89800
C  49.61300 34.19600 23.91500
C  49.75300 33.35400 22.56300
C  49.20800 31.94100 23.02700
C  48.54500 32.25400 24.35500
C  49.03800 33.99500 21.33400
C  50.13500 30.75600 22.91500
C  50.69900 30.16100 24.23100
N  47.70400 32.41000 27.16600
C  47.35400 31.29900 26.36900
C  46.55000 30.38100 27.03200
C  46.36200 30.99800 28.29500
C  47.16000 32.16900 28.33400
C  45.92600 29.02600 26.64900
C  45.71900 30.79600 29.53400
O  45.02200 29.87100 29.99000
C  46.02900 32.07400 30.36600
C  46.45800 31.62200 31.78700
O  47.52500 31.12000 32.15800
O  45.33900 31.74500 32.60400
C  45.49100 31.51800 34.01700
H  49.25700 38.13400 29.04700
H  50.37300 35.92300 23.13500
H  47.50000 30.35600 24.56700
H  46.72700 34.76900 31.80500
H  48.72400 36.86500 31.35300
H  46.64400 38.04000 31.62500
H  45.76500 36.89700 30.49500
H  46.73900 38.16600 29.94600
H  49.79400 34.69100 31.42700
H  48.84200 33.24200 31.76500
H  50.16300 35.09400 33.43500
H  49.23700 33.63000 33.91800
H  51.34800 39.98000 26.76400
H  50.35500 39.68900 28.13600
H  49.55900 40.17000 26.62600
H  50.92500 40.43500 24.54300
H  51.81100 40.21400 23.07900
H  52.67900 39.83000 24.59700
H  50.81100 33.27600 22.31200
H  48.38700 31.77500 22.33000
H  48.91900 35.07800 21.31800
H  48.03400 33.59900 21.18300
H  49.67600 33.73500 20.48900
H  50.98600 30.88300 22.24700
H  49.58700 29.90600 22.50800
H  50.04000 29.30700 24.39000
H  50.60600 30.82400 25.09100
H  51.75400 29.91900 24.10300
H  46.30500 28.71500 25.67500
H  44.84000 29.11800 26.64400
H  46.31500 28.36200 27.42100
H  45.23200 32.81500 30.43500
H  44.77400 32.19300 34.48500
H  46.49500 31.73800 34.37800
H  45.33400 30.47900 34.31000
Mg 29.90800 58.30800 39.69000
C  27.30200 56.02200 38.97300
C  32.11600 55.96900 38.57300
C  32.31200 60.71400 40.01300
C  27.39200 60.67100 40.25300
N  29.71600 56.27000 39.03600
C  28.60400 55.57700 38.71000
C  28.99400 54.24600 38.10200
C  30.46100 54.07500 38.47900
C  30.82300 55.50300 38.73300
C  30.79700 53.04600 39.64500
C  28.70100 54.22000 36.62500
C  27.65800 53.30200 36.05800
H  26.83600 54.00100 34.96700
N  31.95900 58.32100 39.55000
C  32.66700 57.28900 38.95300
C  34.04100 57.65800 38.84400
C  34.16100 58.93300 39.38900
C  32.77600 59.40000 39.65400
C  35.12900 56.73000 38.12400
C  35.52100 59.68400 39.54300
O  36.60300 59.25300 39.13300
C  35.60000 61.02700 40.19100
N  29.83600 60.35900 40.18400
C  30.97600 61.16900 40.20400
C  30.54300 62.60900 40.42600
C  29.00700 62.59000 40.48800
C  28.74500 61.10600 40.22600
C  31.25400 63.32800 41.56800
C  28.20600 63.48200 39.52200
C  26.82600 63.99800 40.10000
N  27.70000 58.41800 39.56900
C  26.87900 59.40500 39.88100
C  25.49000 58.91400 39.80800
C  25.66500 57.63000 39.38300
C  27.01100 57.32300 39.31500
C  24.26300 59.64200 40.03900
C  24.84700 56.41600 39.07000
O  23.60700 56.29300 39.10300
C  25.91600 55.40000 38.67800
C  25.61500 54.09100 39.32500
O  25.96800 53.80900 40.46100
O  24.85800 53.32900 38.45300
C  24.36000 52.12700 39.07200
H  32.83700 55.27100 38.14200
H  33.04800 61.52000 40.02000
H  26.61500 61.42300 40.40500
H  28.45900 53.46100 38.63800
H  30.93900 53.70100 37.57300
H  30.09900 52.23200 39.84200
H  30.92200 53.62000 40.56300
H  31.73100 52.55800 39.36600
H  29.62300 54.07800 36.06100
H  28.38700 55.26000 36.52600
H  26.89500 52.94500 36.74900
H  28.19000 52.46500 35.60800
H  35.73800 56.24300 38.88600
H  35.76300 57.37000 37.51200
H  34.85400 55.93800 37.42800
H  35.10600 61.75700 39.54900
H  36.58500 61.26200 40.59200
H  35.02000 60.91600 41.10700
H  30.80100 63.22900 39.56800
H  28.80300 62.81100 41.53600
H  31.88200 62.58500 42.05900
H  30.54100 63.83200 42.22100
H  31.83200 64.13400 41.11400
H  27.90900 62.90900 38.64400
H  28.69900 64.39200 39.18200
H  26.09700 63.59800 39.39500
H  26.71800 65.08300 40.10300
H  26.56500 63.62900 41.09200
H  24.39900 60.72100 39.96200
H  23.92900 59.39400 41.04600
H  23.54800 59.42200 39.24600
H  25.68500 55.20500 37.63000
H  25.00100 51.75800 39.87200
H  24.10600 51.31900 38.38600
H  23.46000 52.34200 39.64700

