158

Mg 35.60800 49.40600 24.01000
C  35.46000 47.62900 27.16000
C  34.31800 52.21700 25.76100
C  35.33600 50.79700 21.19200
C  36.57400 46.35800 22.50500
N  34.88300 49.85900 26.21400
C  35.16200 49.00600 27.27500
C  34.81900 49.81700 28.57300
C  34.40400 51.21500 28.12600
C  34.53100 51.13800 26.61800
C  33.09400 51.78600 28.57700
C  36.12600 49.84800 29.51900
C  35.82000 49.69700 30.99300
H  34.49200 50.15400 31.50400
N  35.09600 51.33200 23.52400
C  34.49800 52.31800 24.35600
C  34.21500 53.44000 23.50500
C  34.61700 53.18900 22.13100
C  35.07000 51.76600 22.21500
C  33.85400 54.74700 24.10300
C  34.61500 53.96400 20.94500
O  35.13000 53.54900 19.94000
C  34.04200 55.28200 20.99900
N  35.50300 48.54000 22.02400
C  35.62700 49.48500 21.08100
C  36.02000 48.86600 19.73000
C  36.71900 47.55200 20.27200
C  36.24400 47.45400 21.70900
C  34.81700 48.58000 18.64800
C  38.29900 47.61400 20.21500
C  39.02100 46.27200 19.85500
N  35.77700 47.32100 24.63100
C  36.26900 46.27100 23.86900
C  36.29300 45.10300 24.74400
C  35.93000 45.59200 26.01900
C  35.66600 46.95200 25.90900
C  36.74700 43.72400 24.32500
C  35.95900 45.23300 27.45800
O  36.19600 44.16400 28.01900
C  35.45200 46.55300 28.25600
C  34.14200 46.27600 28.76500
O  33.22000 45.82600 28.13700
O  34.21900 46.42600 30.12500
C  33.07300 46.08000 30.93600
H  33.94000 53.07900 26.31400
H  35.29200 51.18500 20.17200
H  36.94300 45.42400 22.07700
H  33.95800 49.35700 29.05600
H  35.04300 51.92800 28.64700
H  33.37700 52.74800 29.00400
H  32.46700 51.16800 29.22000
H  32.34900 52.01600 27.81600
H  36.74100 50.73400 29.36600
H  36.77800 49.02400 29.23000
H  36.54600 50.30000 31.53800
H  35.83800 48.64000 31.25700
H  34.56600 55.51000 23.78800
H  33.73000 54.75300 25.18600
H  32.82400 54.84000 23.75900
H  33.05000 55.08700 21.40700
H  34.09600 55.74700 20.01500
H  34.74100 55.96200 21.48700
H  36.70400 49.59200 19.29000
H  36.29500 46.78200 19.62800
H  33.82600 48.65600 19.09400
H  34.86100 47.58200 18.21200
H  34.93400 49.18400 17.74800
H  38.61000 47.98800 21.19100
H  38.65900 48.33500 19.48000
H  38.42700 45.35900 19.85900
H  39.80300 46.00600 20.56700
H  39.58000 46.44400 18.93600
H  37.76200 43.88200 23.95800
H  36.26300 43.13300 23.54900
H  36.78800 43.10200 25.21900
H  36.12000 46.63100 29.11400
H  32.58300 46.98000 31.30800
H  33.31700 45.32100 31.67900
H  32.30600 45.54900 30.37300
Mg -11.49200 16.52200 42.58300
C  -8.10600 17.48800 42.89500
C  -12.24900 19.74000 41.84800
C  -14.58000 15.52900 41.74000
C  -10.50800 13.14200 42.78500
N  -10.23600 18.30400 42.14600
C  -8.90200 18.51300 42.38200
C  -8.46600 19.97500 42.13800
C  -9.83200 20.69300 42.25500
C  -10.88900 19.57200 42.07300
C  -10.05700 21.58100 43.47400
C  -7.73000 20.18900 40.79100
C  -6.24300 20.48700 40.81600
H  -5.36200 19.55300 39.95000
N  -13.26000 17.54300 41.99700
C  -13.33100 18.89500 41.75700
C  -14.70100 19.15200 41.29400
C  -15.39900 17.94500 41.12000
C  -14.42600 16.92400 41.58900
C  -15.14000 20.57600 41.30900
C  -16.93400 17.67400 40.79500
O  -17.62000 18.56900 40.39400
C  -17.69800 16.30100 40.65600
N  -12.37700 14.63400 42.28900
C  -13.73400 14.53500 42.18200
C  -14.28500 13.15400 42.37500
C  -13.01500 12.36900 42.62500
C  -11.84100 13.45300 42.56500
C  -15.35900 13.16200 43.54800
C  -12.76900 11.13600 41.73800
C  -13.83400 10.49800 40.90500
N  -9.63300 15.47000 42.73900
C  -9.45200 14.08400 42.88400
C  -8.03800 13.90900 43.26000
C  -7.48900 15.20600 43.31600
C  -8.51100 16.14100 42.98100
C  -7.47800 12.63400 43.51300
C  -6.24800 16.01400 43.54800
O  -5.10000 15.65100 43.89800
C  -6.66000 17.51900 43.27900
C  -6.69700 18.19400 44.61000
O  -7.29300 17.89700 45.63600
O  -5.78000 19.16600 44.49300
C  -5.48900 19.92900 45.77200
H  -12.49400 20.76400 41.55900
H  -15.59100 15.19700 41.49500
H  -10.19700 12.10200 42.90300
H  -7.95100 20.36800 43.01500
H  -9.94600 21.21000 41.30300
H  -9.23900 21.56600 44.19400
H  -10.93200 21.20700 44.00500
H  -10.30300 22.58500 43.13000
H  -8.29100 20.92800 40.21800
H  -7.89700 19.32200 40.15200
H  -5.87600 20.35100 41.83300
H  -6.08900 21.48400 40.40400
H  -15.04300 20.79000 40.24500
H  -14.43300 21.23200 41.81900
H  -16.11100 20.65500 41.79900
H  -18.66800 16.42700 40.17600
H  -18.01100 15.95300 41.64100
H  -17.11000 15.48500 40.23700
H  -14.80600 12.92500 41.44500
H  -13.19800 11.97400 43.62400
H  -16.03400 13.99900 43.36500
H  -14.87700 13.17600 44.52500
H  -15.89500 12.21300 43.53900
H  -12.54400 10.33200 42.43900
H  -11.93100 11.36600 41.07900
H  -13.82900 10.96100 39.91800
H  -14.77500 10.47000 41.45300
H  -13.69400 9.43000 40.73600
H  -6.46200 12.80400 43.86800
H  -7.46400 11.85800 42.74800
H  -8.00500 12.32500 44.41500
H  -5.87900 17.94500 42.65000
H  -6.41200 20.03200 46.34200
H  -4.93600 20.85600 45.62300
H  -4.76900 19.25100 46.23000

