158

Mg 16.85000 -1.04100 27.29100
C  16.04700 1.18400 29.91400
C  18.90500 -2.68200 29.47500
C  18.30100 -2.61800 24.68900
C  15.52800 1.49300 25.01200
N  17.57400 -0.68900 29.43600
C  16.91800 0.15400 30.33700
C  17.39600 -0.10900 31.80500
C  18.44200 -1.24700 31.61600
C  18.35400 -1.59700 30.09500
C  19.91300 -0.86900 31.99700
C  16.16200 -0.42000 32.73600
C  16.25600 0.01600 34.27000
H  17.62100 0.57000 34.77200
N  18.17600 -2.64400 27.10800
C  18.83000 -3.13600 28.13200
C  19.69300 -4.25800 27.61000
C  19.45900 -4.29000 26.25900
C  18.60900 -3.16000 25.92700
C  20.48600 -5.19700 28.42800
C  19.95400 -5.30800 25.22500
O  19.67300 -5.28200 24.00000
C  20.66800 -6.50800 25.69900
N  16.97800 -0.51200 25.22100
C  17.46600 -1.46200 24.30700
C  17.29700 -1.00800 22.89200
C  16.27400 0.13100 23.05000
C  16.26300 0.39600 24.51100
C  18.60400 -0.46200 22.23800
C  14.87100 -0.23900 22.43900
C  13.68400 -0.58300 23.42900
N  15.87100 0.91200 27.44000
C  15.32800 1.77100 26.42800
C  14.58100 2.86800 27.01400
C  14.80900 2.67900 28.43700
C  15.61400 1.50100 28.61900
C  13.87000 3.94300 26.19700
C  14.59300 3.17400 29.72900
O  13.90000 4.18000 30.09200
C  15.38300 2.29100 30.74500
C  16.42200 3.13600 31.38100
O  17.62600 3.09200 31.28200
O  15.79100 3.80400 32.35000
C  16.62000 4.61000 33.29300
H  19.61500 -3.15200 30.15900
H  18.74500 -3.06900 23.79900
H  15.13300 2.35100 24.46500
H  17.85400 0.75500 32.28700
H  18.04100 -2.14600 32.08300
H  19.82800 0.03300 32.60300
H  20.52600 -0.65500 31.12200
H  20.32500 -1.62800 32.66300
H  15.90000 -1.47700 32.75000
H  15.32400 0.11600 32.29100
H  15.98900 -0.79200 34.95100
H  15.41900 0.68800 34.45500
H  20.20800 -6.23500 28.24500
H  20.46200 -4.87200 29.46800
H  21.50600 -4.90800 28.17300
H  21.58100 -6.15400 26.17800
H  21.01100 -7.18700 24.91700
H  20.15900 -7.25000 26.31400
H  16.84000 -1.77400 22.26600
H  16.66700 1.03800 22.59200
H  18.34000 0.28800 21.49200
H  19.05500 -1.32200 21.74400
H  19.37200 -0.07700 22.90900
H  14.96500 -0.87400 21.55700
H  14.42600 0.69700 22.10100
H  14.06600 -1.17900 24.25800
H  12.98200 -1.26000 22.94300
H  13.15900 0.33400 23.69600
H  13.74200 3.60500 25.16900
H  14.42800 4.87800 26.24000
H  12.94900 4.23600 26.70000
H  14.65600 1.93800 31.47600
H  15.84400 5.30900 33.60400
H  17.41500 5.12500 32.75500
H  17.00100 4.04100 34.14200
Mg 41.06600 8.31400 29.93200
C  43.06200 9.24500 32.66100
C  38.65000 7.19700 31.99400
C  39.53400 7.02600 27.23200
C  43.72600 9.21200 27.89300
N  41.00100 8.05900 32.02400
C  41.84900 8.64400 33.00200
C  41.24300 8.48900 34.44400
C  39.86600 7.64300 34.20100
C  39.83800 7.52700 32.66300
C  39.54200 6.40700 35.01900
C  40.98300 9.97300 35.06800
C  40.24700 9.94800 36.39100
H  40.81200 10.73600 37.49500
N  39.34200 7.25600 29.63000
C  38.48500 7.00400 30.61100
C  37.37900 6.15200 30.08200
C  37.49300 6.07800 28.67100
C  38.80200 6.88500 28.39700
C  36.28500 5.49300 30.95600
C  36.64200 5.42100 27.59900
O  36.76200 5.62000 26.38200
C  35.49700 4.64700 28.02700
N  41.51000 8.18000 27.80100
C  40.70500 7.61200 26.91300
C  41.26000 7.64800 25.45800
C  42.57600 8.54800 25.72200
C  42.59100 8.69500 27.22900
C  41.63600 6.29900 24.85700
C  42.67200 9.88400 25.04100
C  41.80700 11.06900 25.55400
N  43.03900 9.12200 30.18900
C  44.00500 9.48300 29.28400
C  45.22800 9.92800 29.94800
C  44.83800 10.01300 31.28900
C  43.55200 9.42900 31.37300
C  46.45400 10.35400 29.23500
C  45.28100 10.46000 32.59600
O  46.28800 11.04000 32.98100
C  44.19100 9.87100 33.56800
C  44.91400 8.89200 34.40700
O  45.00000 7.71800 34.18400
O  45.50100 9.53000 35.45600
C  46.35800 8.80100 36.36700
H  37.84100 6.92800 32.67600
H  39.00600 6.56400 26.39600
H  44.59900 9.46300 27.28800
H  42.01700 7.98200 35.02000
H  39.06700 8.36000 34.39000
H  38.51600 6.13200 35.26100
H  40.13400 6.35900 35.93400
H  39.93600 5.52900 34.50700
H  40.34700 10.52400 34.37500
H  41.95300 10.39200 35.33500
H  40.22700 8.89500 36.67100
H  39.25500 10.36600 36.22100
H  35.30200 5.74800 30.56000
H  36.31900 5.66300 32.03200
H  36.24900 4.40700 30.87200
H  34.79700 5.34900 28.48000
H  35.83300 3.84100 28.67900
H  35.09100 4.36200 27.05700
H  40.57000 8.14100 24.77300
H  43.42800 7.94100 25.41500
H  42.63000 6.41800 24.42700
H  40.93100 6.01600 24.07600
H  41.62700 5.69000 25.76100
H  42.44400 9.57300 24.02200
H  43.73400 10.12400 25.07900
H  42.40800 11.93300 25.83800
H  41.07200 10.81000 26.31600
H  41.17600 11.37900 24.72100
H  46.80000 9.66400 28.46500
H  47.18700 10.20500 30.02800
H  46.47900 11.32400 28.73800
H  43.79200 10.56900 34.30400
H  46.64800 7.84000 35.94300
H  45.84500 8.67800 37.32100
H  47.27800 9.38100 36.43800

