158

Mg 47.67800 35.09200 26.48900
C  45.59600 33.72300 28.92800
C  48.12200 37.82800 28.31400
C  49.23900 36.46700 23.75700
C  46.46600 32.53500 24.27900
N  47.09800 35.56500 28.39400
C  46.39000 34.82200 29.35900
C  46.44300 35.45200 30.71900
C  46.90200 36.88300 30.41200
C  47.40600 36.79900 28.94300
C  45.77300 37.95500 30.49000
C  47.47800 34.73800 31.64700
C  47.30400 34.86000 33.09700
H  46.22100 35.81000 33.60300
N  48.65900 36.87100 26.13400
C  48.66500 37.88900 27.02200
C  49.31300 38.99900 26.39800
C  49.68400 38.60400 25.03700
C  49.16400 37.21100 24.89900
C  49.52500 40.30700 27.17500
C  50.27500 39.44000 23.88100
O  50.48500 39.06100 22.72300
C  50.55300 40.83100 24.30200
N  48.00500 34.44300 24.38800
C  48.78000 35.18400 23.54700
C  48.85900 34.57400 22.17900
C  48.03800 33.25300 22.39500
C  47.42800 33.37400 23.75900
C  48.40500 35.41300 20.97500
C  48.73500 31.88900 22.04600
C  47.95200 30.82200 21.23900
N  46.34800 33.55900 26.53600
C  45.94900 32.61500 25.55800
C  45.01000 31.63100 26.13100
C  44.77700 32.10000 27.46700
C  45.63400 33.22900 27.65700
C  44.37000 30.46200 25.47800
C  43.99700 31.81300 28.68700
O  43.31100 30.85500 28.97800
C  44.40700 32.96800 29.67800
C  44.79300 32.34900 30.99600
O  45.85700 31.78300 31.15500
O  43.80500 32.51800 32.02500
C  44.20200 32.08600 33.38400
H  48.29300 38.68000 28.97400
H  49.72600 36.87800 22.87000
H  46.12500 31.72400 23.63200
H  45.42200 35.41200 31.09800
H  47.65700 37.25800 31.10200
H  46.18800 38.87500 30.90100
H  45.02900 37.60300 31.20500
H  45.40700 38.20400 29.49400
H  48.49400 34.99700 31.35100
H  47.23100 33.68000 31.55200
H  48.25000 35.26300 33.45900
H  47.12800 33.92000 33.62000
H  50.56700 40.59300 27.03600
H  49.31800 40.09300 28.22400
H  48.86100 41.11700 26.87400
H  50.96300 41.46500 23.51600
H  51.47100 40.69900 24.87400
H  49.64700 41.25200 24.73600
H  49.90000 34.36100 21.93900
H  47.24800 33.21700 21.64500
H  47.64800 36.11900 21.31700
H  48.00200 34.73600 20.22200
H  49.31900 35.85300 20.57700
H  48.93500 31.50700 23.04700
H  49.69500 32.01400 21.54600
H  46.93200 31.15700 21.04900
H  47.92200 29.83900 21.71000
H  48.36400 30.67000 20.24200
H  43.44400 30.20600 25.99200
H  45.00300 29.58400 25.34800
H  44.05000 30.73700 24.47300
H  43.50000 33.53800 29.87900
H  43.46400 32.60600 33.99400
H  45.22300 32.25700 33.72700
H  44.15500 30.99700 33.39000
Mg -10.62600 16.66200 41.03100
C  -7.20800 16.80100 41.58200
C  -10.58500 19.94500 40.19500
C  -13.97400 16.41000 40.31400
C  -10.54100 13.13700 41.40900
N  -9.07800 18.09400 40.85800
C  -7.75900 17.96200 41.06000
C  -7.01600 19.27300 40.59600
C  -8.14900 20.28500 40.76500
C  -9.40000 19.38700 40.64300
C  -8.25300 21.07300 42.10500
C  -6.47600 19.16400 39.19400
C  -5.00300 18.87700 39.04700
H  -4.65000 17.85900 38.04800
N  -12.07500 18.00700 40.30400
C  -11.87000 19.31800 40.04500
C  -13.10000 19.91100 39.73400
C  -14.02400 18.85600 39.65900
C  -13.37800 17.64300 40.04500
C  -13.30000 21.42400 39.43500
C  -15.41300 19.05300 39.15400
O  -15.76800 20.22200 38.93100
C  -16.45200 17.95700 38.87600
N  -12.00300 14.91700 40.57000
C  -13.34000 15.13600 40.56200
C  -14.16800 13.86200 40.91200
C  -12.99800 12.75900 41.02800
C  -11.73900 13.62500 40.98700
C  -14.98000 14.05700 42.26000
C  -13.07000 11.59800 39.94200
C  -12.31800 11.83600 38.57700
N  -9.18800 15.20200 41.45000
C  -9.26500 13.81500 41.61200
C  -7.95400 13.29100 42.08700
C  -7.10200 14.48300 42.08500
C  -7.86300 15.53500 41.64300
C  -7.56900 11.84100 42.26700
C  -5.79900 15.00500 42.39800
O  -4.80800 14.42800 42.77000
C  -5.89700 16.55900 42.15500
C  -5.72200 17.40500 43.40400
O  -4.95700 18.35900 43.49500
O  -6.52600 16.95800 44.40800
C  -6.15900 17.39300 45.78900
H  -10.49900 21.01600 40.00100
H  -15.06500 16.36500 40.35300
H  -10.57200 12.07300 41.65300
H  -6.09400 19.40600 41.16100
H  -8.24800 21.05600 40.00200
H  -7.30600 20.81900 42.58200
H  -9.03400 20.82400 42.82300
H  -8.24900 22.14500 41.91100
H  -6.57800 20.15700 38.75700
H  -7.01200 18.38000 38.65900
H  -4.64800 18.40700 39.96400
H  -4.54300 19.83000 38.78500
H  -13.74000 21.47700 38.43900
H  -12.33800 21.93600 39.47200
H  -13.94000 21.87100 40.19600
H  -15.94500 17.22500 38.24700
H  -17.20600 18.40400 38.22800
H  -16.93900 17.50500 39.74000
H  -14.88700 13.63800 40.12500
H  -12.84600 12.31900 42.01400
H  -14.69000 14.96000 42.79800
H  -14.96700 13.11900 42.81500
H  -16.01900 14.21800 41.97300
H  -14.13900 11.50500 39.75300
H  -12.67500 10.76900 40.52900
H  -13.06000 11.98600 37.79400
H  -11.72200 10.94300 38.38900
H  -11.67000 12.71200 38.60600
H  -7.83400 11.28200 41.37000
H  -8.13200 11.40600 43.09300
H  -6.49800 11.87200 42.46900
H  -5.06200 16.73200 41.47600
H  -6.80300 18.20200 46.13300
H  -5.19100 17.89500 45.80000
H  -5.95300 16.57600 46.48100

