158

Mg 47.76200 35.16200 27.69600
C  45.90000 33.45600 30.16000
C  47.78000 37.92500 29.87700
C  49.15700 36.79500 25.38900
C  46.98800 32.51900 25.52600
N  47.05700 35.55100 29.78400
C  46.56600 34.58800 30.63500
C  46.70900 35.07000 32.09900
C  46.79400 36.60500 31.95100
C  47.24000 36.72500 30.45200
C  45.42300 37.31800 32.21300
C  47.96000 34.42600 32.85300
C  48.07500 34.56800 34.37100
H  47.35000 35.78100 35.06500
N  48.46400 37.12700 27.74100
C  48.43300 38.06700 28.66100
C  49.30900 39.16900 28.22100
C  49.83200 38.77400 26.97000
C  49.12700 37.53400 26.67000
C  49.61900 40.45900 28.99300
C  50.86100 39.46100 26.04500
O  51.26700 38.88600 25.05300
C  51.57600 40.69400 26.38000
N  48.06400 34.68600 25.70200
C  48.67800 35.55900 24.88600
C  48.59900 35.13600 23.41000
C  48.04600 33.71100 23.56400
C  47.69700 33.64500 25.05400
C  47.83100 36.08700 22.41800
C  49.13800 32.68200 23.12700
C  48.65400 31.54300 22.23600
N  46.83500 33.28000 27.78900
C  46.49400 32.33600 26.80900
C  45.78900 31.20100 27.42200
C  45.48300 31.67500 28.69200
C  46.12500 32.92800 28.87800
C  45.34500 29.92400 26.78800
C  44.77400 31.38700 29.88400
O  44.10200 30.43700 30.10700
C  44.87800 32.59500 30.82800
C  45.08500 32.20700 32.30200
O  46.06200 31.63900 32.75200
O  44.07500 32.71500 33.15000
C  44.45800 32.56500 34.59300
H  47.73900 38.83800 30.47500
H  49.66000 37.38000 24.61600
H  46.64900 31.80800 24.77100
H  45.79400 34.77600 32.61400
H  47.56100 36.91200 32.66200
H  45.40500 37.85300 33.16300
H  44.58300 36.63300 32.10400
H  45.25300 38.05800 31.43100
H  48.86900 34.70000 32.31600
H  47.85500 33.36900 32.60900
H  49.06800 34.62300 34.81600
H  47.70200 33.64800 34.82200
H  50.70300 40.51000 29.09700
H  49.27200 40.35000 30.02100
H  49.30600 41.42400 28.59500
H  52.14900 40.59400 27.30200
H  50.83300 41.47000 26.56400
H  52.27400 40.97000 25.58900
H  49.61600 35.03200 23.03100
H  47.15400 33.76400 22.94100
H  48.53900 36.80600 22.00600
H  47.33900 36.75800 23.12200
H  47.04600 35.61500 21.82600
H  49.45900 32.19700 24.04900
H  50.11000 33.11600 22.89100
H  47.89000 30.92900 22.71300
H  49.54500 30.94600 22.04400
H  48.31600 31.97600 21.29400
H  45.77400 29.88900 25.78700
H  44.25600 29.90500 26.76400
H  45.62700 29.02800 27.34200
H  43.88500 33.04500 30.81500
H  45.37700 33.09100 34.85100
H  44.57800 31.52700 34.90300
H  43.79100 33.11400 35.25700
Mg 6.90800 52.59100 42.12800
C  6.50100 49.04400 41.74300
C  10.26400 52.18200 41.02800
C  7.08100 55.82300 41.84900
C  3.52700 52.75200 42.75000
N  8.22700 50.81500 41.46800
C  7.80300 49.46500 41.34600
C  9.04000 48.59900 40.93100
C  10.25400 49.64600 41.12700
C  9.55800 50.99000 41.22100
C  11.33600 49.32500 42.22500
C  8.99400 47.86900 39.56700
C  8.82800 48.73400 38.25300
H  7.95100 48.17300 37.12700
N  8.50800 53.85000 41.58300
C  9.78100 53.55000 41.16800
C  10.55100 54.73200 41.02800
C  9.61200 55.84200 41.28400
C  8.31000 55.20500 41.52000
C  12.06600 54.65200 40.74300
C  10.02100 57.28200 41.12900
O  11.22000 57.56200 40.93200
C  9.03800 58.37700 41.42900
N  5.49100 54.06100 42.13700
C  5.83300 55.31900 42.22900
C  4.73200 56.22300 42.62600
C  3.56400 55.32300 43.05600
C  4.17900 53.94100 42.61000
C  5.03600 57.22400 43.79400
C  2.14900 55.60100 42.46600
C  2.01300 55.21000 40.98200
N  5.32900 51.23500 42.17600
C  4.01700 51.48600 42.48000
C  3.39400 50.23300 42.77100
C  4.31700 49.25000 42.37300
C  5.47400 49.89100 42.02600
C  1.94900 50.11800 43.28800
C  4.50200 47.84700 42.18300
O  3.76900 46.86700 42.30100
C  5.92200 47.68900 41.65800
C  5.71300 47.13300 40.29000
O  5.40400 47.72800 39.24300
O  6.09500 45.88700 40.37700
C  5.93900 44.98800 39.34500
H  11.32100 52.00900 40.81400
H  7.02400 56.90100 41.68400
H  2.47800 52.75600 43.05200
H  9.07700 47.84900 41.72200
H  10.86600 49.68800 40.22600
H  11.09600 48.48000 42.87100
H  11.59600 50.15900 42.87700
H  12.30500 49.05500 41.80300
H  8.32100 47.01700 39.46400
H  10.01600 47.49200 39.53100
H  9.85100 48.87100 37.90300
H  8.46700 49.73000 38.50900
H  12.55000 55.61100 40.92600
H  12.22800 54.41200 39.69200
H  12.51300 53.94000 41.43700
H  8.22300 58.28300 40.71100
H  9.61800 59.29300 41.32100
H  8.74800 58.14400 42.45400
H  4.49100 56.86700 41.78000
H  3.47800 55.16000 44.13000
H  4.14300 57.81200 44.00800
H  5.76100 57.91300 43.36100
H  5.37700 56.81900 44.74700
H  1.91700 56.66400 42.53300
H  1.49800 55.10100 43.18400
H  0.97900 55.40900 40.70200
H  2.14900 54.13400 40.87500
H  2.70100 55.75800 40.33800
H  1.77300 49.24000 43.91000
H  1.33800 50.06800 42.38600
H  1.67600 50.92400 43.96900
H  6.30800 46.91700 42.32400
H  6.88500 44.51100 39.08600
H  5.50200 45.42900 38.44900
H  5.34100 44.17700 39.76200

