158

Mg 55.41400 24.45800 45.41000
C  52.91700 26.58000 44.22700
C  53.98100 21.84300 43.73300
C  58.26700 22.75200 45.66200
C  56.99600 27.28100 46.81800
N  53.77600 24.37400 43.84900
C  52.77600 25.30100 43.67700
C  51.47800 24.60600 43.10400
C  51.82300 23.07500 43.22300
C  53.26900 23.04800 43.64400
C  50.79600 22.31900 44.14100
C  51.23100 24.97300 41.64300
C  49.71100 24.88300 41.21500
H  49.36400 24.24700 39.82800
N  56.00100 22.49800 44.96400
C  55.26100 21.56600 44.28100
C  55.89800 20.33500 44.24500
C  57.19000 20.51500 44.90700
C  57.20500 21.98800 45.16100
C  55.20900 19.12000 43.75000
C  58.17500 19.46600 45.14400
O  58.08600 18.28700 44.73400
C  59.41900 19.73500 45.94500
N  57.33700 24.97000 46.09100
C  58.37900 24.08000 46.05300
C  59.67800 24.73700 46.66100
C  59.16600 26.12500 47.13100
C  57.78400 26.19100 46.53000
C  60.56000 23.98400 47.69400
C  60.15300 27.25500 46.69300
C  60.27800 27.69800 45.26700
N  55.00700 26.54900 45.64100
C  55.68400 27.55400 46.33200
C  54.86000 28.75000 46.30700
C  53.79300 28.42100 45.45800
C  53.95200 27.09800 45.07800
C  55.17500 30.08400 46.88600
C  52.59100 28.93000 44.87700
O  52.03600 29.97900 45.15900
C  51.99600 27.81700 44.01000
C  51.62500 28.29000 42.60900
O  52.36000 28.77400 41.69400
O  50.22700 28.30500 42.40000
C  49.82600 28.81700 41.07700
H  53.39700 20.96100 43.46600
H  59.20000 22.20700 45.81900
H  57.44900 28.18900 47.22100
H  50.68900 24.96900 43.76300
H  51.78900 22.57600 42.25500
H  51.32600 21.66700 44.83600
H  50.02300 21.76100 43.61400
H  50.24100 23.05600 44.72300
H  51.75800 24.28300 40.98400
H  51.56600 25.99700 41.47700
H  49.34900 25.88600 41.44100
H  49.23700 24.25800 41.97300
H  55.85500 18.30200 43.43100
H  54.70900 19.41200 42.82600
H  54.50100 18.61200 44.40500
H  60.15900 20.27100 45.35200
H  59.85300 18.74700 46.10100
H  59.14000 20.14600 46.91500
H  60.36400 24.91800 45.83400
H  59.05200 26.15100 48.21400
H  60.85200 24.70200 48.46100
H  61.45700 23.57200 47.23000
H  60.09100 23.11400 48.15200
H  61.15000 26.92800 46.98900
H  59.78800 28.04400 47.35000
H  59.64700 27.14500 44.57100
H  61.26200 27.57600 44.81400
H  60.04800 28.76300 45.28800
H  54.86500 30.11800 47.93100
H  54.67800 30.85500 46.29700
H  56.25300 30.24600 46.86700
H  51.03300 27.51900 44.42600
H  49.58600 29.87600 41.17000
H  49.04200 28.20500 40.63100
H  50.57700 28.64900 40.30500
Mg 36.79600 49.66500 25.67300
C  37.21200 47.48200 28.37700
C  35.41000 51.97700 27.87300
C  35.78700 51.52400 23.13800
C  38.07100 47.35900 23.52100
N  36.26900 49.58500 27.88000
C  36.67000 48.66300 28.81000
C  36.32300 49.14900 30.23400
C  35.65100 50.53800 30.00300
C  35.63300 50.71900 28.45600
C  34.18600 50.64700 30.61300
C  37.61800 49.23100 31.08300
C  37.57200 48.68700 32.51000
H  36.29200 49.13500 33.25700
N  35.79200 51.55000 25.50200
C  35.48900 52.38500 26.52000
C  35.15000 53.80100 25.97800
C  35.33700 53.64900 24.55800
C  35.63100 52.20600 24.32800
C  34.68400 54.92400 26.87400
C  35.13200 54.65600 23.49500
O  35.21600 54.47700 22.30400
C  34.78900 56.04800 23.81700
N  36.90400 49.43200 23.64800
C  36.21400 50.24000 22.79200
C  36.33200 49.77000 21.37500
C  37.39600 48.65400 21.42200
C  37.49800 48.47500 22.92500
C  34.97900 49.44700 20.61900
C  38.72100 48.94400 20.80700
C  39.55500 47.77100 20.07500
N  37.53100 47.81000 25.82500
C  38.01600 46.99600 24.85800
C  38.53200 45.82200 25.46100
C  38.25900 45.97000 26.82200
C  37.52900 47.15100 27.03100
C  39.14400 44.59400 24.82800
C  38.39200 45.32700 28.08600
O  38.96800 44.33100 28.53900
C  37.73200 46.31800 29.14500
C  36.65700 45.64900 29.90900
O  35.49300 45.51300 29.59400
O  37.19300 45.37300 31.13900
C  36.31100 45.07100 32.24100
H  34.98500 52.80000 28.45100
H  35.42300 52.13100 22.30600
H  38.51500 46.63200 22.83700
H  35.50700 48.53000 30.60700
H  36.28800 51.29200 30.46600
H  33.55500 50.18300 29.85500
H  33.97900 51.71400 30.70000
H  34.04900 50.20000 31.59700
H  38.06300 50.22400 31.02700
H  38.33400 48.68500 30.46800
H  38.43700 49.18900 32.94300
H  37.74500 47.61300 32.57500
H  35.46300 55.64400 27.12300
H  34.40800 54.61900 27.88400
H  33.90200 55.49900 26.37800
H  33.71200 56.18800 23.91200
H  35.06900 56.71000 22.99700
H  35.25500 56.42800 24.72600
H  36.80900 50.61400 20.87700
H  36.93100 47.78200 20.96200
H  34.90400 50.10900 19.75600
H  34.12500 49.66900 21.25900
H  34.93500 48.42700 20.23600
H  39.40800 49.23100 21.60300
H  38.69800 49.68700 20.00900
H  40.06500 47.13600 20.79800
H  40.38200 48.13900 19.46700
H  38.83600 47.14800 19.54200
H  38.53900 44.47500 23.92900
H  39.25900 43.74100 25.49700
H  40.14000 44.83400 24.45500
H  38.63200 46.61700 29.68300
H  35.46000 44.50600 31.85700
H  35.79600 45.94900 32.62900
H  36.80200 44.52500 33.04700

