158

Mg 25.16400 -7.81400 48.62300
C  27.52100 -5.53200 47.16500
C  23.14700 -7.04700 45.99400
C  23.53500 -10.31200 49.56800
C  27.90800 -8.69000 50.92400
N  25.34000 -6.34800 46.80900
C  26.32400 -5.49300 46.40600
C  25.91500 -4.66700 45.23100
C  24.39700 -5.00500 45.08500
C  24.28400 -6.21200 46.01800
C  23.36000 -3.96500 45.36800
C  26.74500 -5.13400 44.01000
C  27.48000 -4.02700 43.27300
H  27.28800 -3.80000 41.76900
N  23.56600 -8.62300 47.74800
C  22.83600 -8.17600 46.71900
C  21.63700 -9.01700 46.61800
C  21.81600 -10.09700 47.56600
C  22.98000 -9.74200 48.31900
C  20.58400 -8.77500 45.61600
C  20.98700 -11.25900 47.83600
O  20.01600 -11.48400 47.13700
C  21.24500 -12.40400 48.86900
N  25.77600 -9.31500 50.03200
C  24.70800 -10.16900 50.34800
C  25.07400 -11.00400 51.55900
C  26.56900 -10.73300 51.72500
C  26.79800 -9.49400 50.85700
C  24.18000 -10.68000 52.77400
C  27.56900 -11.83400 51.35300
C  28.73100 -12.03800 52.31000
N  27.25700 -7.21300 49.06400
C  28.20600 -7.68000 50.00000
C  29.41600 -6.88000 49.81300
C  29.15500 -6.01500 48.71100
C  27.84500 -6.26100 48.32100
C  30.67900 -7.01200 50.44800
C  29.74900 -5.00600 47.84300
O  30.87100 -4.53900 47.83600
C  28.68100 -4.56300 46.94000
C  28.27900 -3.25700 47.38300
O  27.87300 -2.95000 48.49900
O  28.37400 -2.28900 46.45000
C  28.04100 -0.95200 46.91300
H  22.28700 -6.67900 45.43100
H  22.77600 -10.85600 50.13400
H  28.79500 -8.97700 51.49300
H  26.04600 -3.66000 45.62600
H  24.28800 -5.37700 44.06700
H  22.74600 -3.89400 44.47000
H  23.92200 -3.03200 45.39800
H  22.88300 -4.22300 46.31400
H  26.10200 -5.64200 43.29100
H  27.49500 -5.87500 44.28600
H  28.52800 -4.30800 43.36700
H  27.20000 -3.12400 43.81600
H  20.51400 -7.71400 45.37600
H  19.58700 -8.92000 46.03400
H  20.72100 -9.38600 44.72500
H  22.22900 -12.86600 48.79600
H  20.53900 -13.16700 48.54100
H  20.87900 -12.07100 49.84000
H  24.90400 -12.07000 51.41000
H  26.81500 -10.50000 52.76100
H  23.97300 -11.59700 53.32500
H  23.22000 -10.38400 52.35000
H  24.64900 -9.90100 53.37500
H  28.11900 -11.48000 50.48100
H  26.99300 -12.75900 51.32800
H  29.39200 -12.80000 51.89900
H  28.18600 -12.34300 53.20300
H  29.27300 -11.10700 52.47600
H  31.33700 -6.37300 49.85800
H  30.97200 -8.05900 50.37700
H  30.63400 -6.76100 51.50700
H  28.90500 -4.42700 45.88200
H  28.82500 -0.54000 47.54800
H  27.05700 -0.86800 47.37500
H  28.14800 -0.34800 46.01300
Mg 41.05100 40.89900 26.87500
C  40.40400 43.39700 29.11400
C  42.16500 38.79900 29.33700
C  41.83100 38.74500 24.44200
C  40.71200 43.35700 24.18700
N  41.26700 41.04900 29.00800
C  40.80900 42.15400 29.74900
C  41.05000 41.90600 31.26900
C  41.58900 40.46200 31.28100
C  41.74500 40.06700 29.82300
C  42.90200 40.30200 31.98800
C  39.74800 42.10200 32.21100
C  39.99100 42.01700 33.78000
H  39.18400 42.93500 34.65600
N  41.81300 38.98700 26.93100
C  42.22500 38.29000 28.03300
C  42.59200 36.94600 27.60500
C  42.56000 36.98800 26.16400
C  42.00600 38.28800 25.77000
C  43.01200 35.83000 28.49000
C  43.00600 35.81800 25.22100
O  43.04800 35.98400 23.96600
C  43.27400 34.45100 25.75600
N  40.97300 40.95600 24.60600
C  41.39300 39.91100 23.89000
C  41.39500 40.04000 22.36600
C  40.88200 41.58200 22.33800
C  40.83700 42.01800 23.78100
C  42.70700 39.64300 21.62000
C  39.45200 41.76400 21.65700
C  38.31300 41.37300 22.55700
N  40.67700 42.99500 26.61700
C  40.58800 43.85400 25.52900
C  40.31600 45.15100 26.06000
C  40.18900 45.03500 27.43500
C  40.40700 43.71700 27.70100
C  40.24200 46.43000 25.23800
C  39.94400 45.70200 28.66800
O  39.67300 46.85200 29.00900
C  40.13600 44.69000 29.83500
C  41.38600 45.18600 30.52700
O  42.47900 45.23600 29.98900
O  41.16700 45.47900 31.89800
C  42.29000 45.89400 32.72900
H  42.35400 38.13200 30.18000
H  41.97000 37.95100 23.70500
H  40.63800 44.11300 23.40100
H  41.76500 42.69600 31.50000
H  40.80700 39.88200 31.77100
H  42.70200 39.66500 32.85000
H  43.22000 41.29500 32.30400
H  43.69700 39.87800 31.37500
H  39.06500 41.32000 31.88000
H  39.21900 42.98100 31.84300
H  41.06900 42.00100 33.94400
H  39.66200 40.99000 33.93800
H  42.30800 35.00200 28.57700
H  43.09000 36.21900 29.50500
H  43.97000 35.34800 28.29400
H  42.60200 34.09300 26.53500
H  44.16900 34.57600 26.36500
H  43.33300 33.74800 24.92500
H  40.62600 39.43800 21.88300
H  41.61200 42.11200 21.72600
H  43.51900 39.24500 22.22800
H  43.07900 40.54200 21.13000
H  42.49200 38.91300 20.83900
H  39.57400 41.11400 20.79000
H  39.31700 42.81700 21.41100
H  38.60900 41.04400 23.55300
H  37.73400 40.61700 22.02700
H  37.72300 42.28700 22.62100
H  39.93000 46.25200 24.20900
H  41.24800 46.85000 25.23600
H  39.55400 47.03100 25.83300
H  39.19100 44.84400 30.35700
H  42.27200 45.39300 33.69700
H  42.21700 46.97800 32.82000
H  43.22000 45.49800 32.32100

