158

Mg 25.68100 -0.75900 29.16400
C  27.61900 -1.12900 32.05100
C  23.02400 -0.02900 31.21000
C  23.74100 -0.83500 26.40800
C  28.44500 -1.60400 27.29300
N  25.44100 -0.45700 31.33300
C  26.37600 -0.61600 32.33100
C  25.80300 -0.27400 33.73900
C  24.32100 0.06400 33.43900
C  24.18600 -0.21200 31.90100
C  23.42800 -0.79200 34.40900
C  26.58400 0.88300 34.48100
C  27.08800 0.53500 35.91000
H  26.45200 1.29400 37.06100
N  23.73800 -0.39800 28.86900
C  22.78100 -0.04100 29.80300
C  21.52500 0.21900 29.13400
C  21.67900 0.05500 27.70900
C  23.10600 -0.47600 27.60800
C  20.26100 0.50100 29.88600
C  20.65500 0.19300 26.55900
O  20.96400 -0.01500 25.42300
C  19.29100 0.80900 26.76900
N  26.00900 -1.30300 27.16200
C  25.09500 -1.08600 26.22900
C  25.62200 -1.68300 24.93500
C  27.13700 -1.63300 25.10000
C  27.20600 -1.48000 26.62000
C  25.08900 -3.13100 24.51500
C  27.90700 -0.59000 24.32000
C  29.03800 -1.03900 23.43200
N  27.65000 -1.31700 29.53200
C  28.65900 -1.62700 28.68400
C  29.85300 -1.96700 29.45000
C  29.46300 -1.74200 30.77800
C  28.13200 -1.33100 30.77700
C  31.16600 -2.34800 29.00100
C  29.94900 -1.70900 32.16600
O  31.06000 -1.82000 32.70600
C  28.78300 -1.29300 33.03800
C  28.51800 -2.35100 34.03900
O  27.93300 -3.37100 33.76700
O  29.00400 -2.02000 35.30400
C  28.69700 -2.98200 36.39800
H  22.27400 0.31800 31.92500
H  23.12400 -1.07300 25.53900
H  29.29500 -1.79100 26.63300
H  25.94800 -1.23400 34.23600
H  24.10700 1.12200 33.59300
H  23.95900 -0.88500 35.35600
H  23.16900 -1.71800 33.89600
H  22.53500 -0.20700 34.62400
H  25.90600 1.73600 34.51300
H  27.37800 1.31900 33.87300
H  28.09400 0.94000 35.80200
H  26.96500 -0.54000 36.03900
H  20.34500 0.61300 30.96700
H  19.52700 -0.27300 29.66400
H  19.78700 1.38700 29.46300
H  19.40400 1.86100 27.03100
H  18.69000 0.26000 27.49400
H  18.76100 0.62000 25.83600
H  25.33500 -1.01700 24.12200
H  27.53000 -2.61100 24.82000
H  25.79700 -3.78900 25.02000
H  25.04900 -3.32100 23.44200
H  24.12800 -3.32200 24.99100
H  28.28000 0.08600 25.09000
H  27.20200 -0.00900 23.72600
H  29.17200 -0.49500 22.49600
H  28.81000 -2.07600 23.18500
H  29.99500 -1.14000 23.94300
H  31.62900 -3.04300 29.70200
H  31.69000 -1.39300 29.03400
H  31.21500 -2.76400 27.99500
H  29.07200 -0.38100 33.56000
H  27.88100 -2.69900 37.06400
H  29.54400 -2.93700 37.08200
H  28.60700 -4.02900 36.10600
Mg 53.68100 22.59700 45.12400
C  51.49400 25.12400 43.98800
C  51.52500 20.32200 43.52700
C  56.03500 20.28600 45.53000
C  55.85700 25.06100 46.15900
N  51.76900 22.68600 44.06300
C  51.15500 23.84000 43.63600
C  49.95800 23.54200 42.76900
C  49.61700 22.07700 43.22300
C  51.03400 21.60500 43.61000
C  48.61700 21.99900 44.41400
C  50.23700 23.65800 41.23900
C  49.04900 24.15100 40.38800
H  48.49700 23.14100 39.32600
N  53.87600 20.69200 44.42600
C  52.85600 19.94400 43.93400
C  53.29300 18.52100 43.87600
C  54.60500 18.48800 44.41800
C  54.92000 19.84800 44.78800
C  52.36700 17.44500 43.35000
C  55.49900 17.21900 44.53200
O  55.01300 16.09400 44.24000
C  56.96700 17.39700 44.62400
N  55.76400 22.71200 45.72000
C  56.51400 21.56300 45.85400
C  57.84800 21.86800 46.41400
C  57.73800 23.34400 46.80000
C  56.41700 23.77500 46.11000
C  58.32100 20.95400 47.69200
C  58.91900 24.26200 46.25900
C  59.71000 25.13100 47.24700
N  53.70600 24.68100 45.18700
C  54.62000 25.51100 45.66900
C  54.22700 26.86800 45.73900
C  52.97500 26.80800 45.01400
C  52.71800 25.48000 44.67300
C  54.87900 28.08400 46.33400
C  51.82400 27.56800 44.57700
O  51.61300 28.78100 44.71100
C  50.83000 26.53600 43.84100
C  50.39500 26.90800 42.44800
O  51.17900 27.06600 41.54600
O  49.00100 27.00200 42.41200
C  48.59400 27.38100 41.04900
H  50.71000 19.71900 43.12100
H  56.71100 19.48500 45.83600
H  56.65900 25.74000 46.45600
H  49.13000 24.18600 43.06500
H  49.15600 21.46100 42.45100
H  47.76300 21.39800 44.10200
H  48.14900 22.96000 44.62700
H  49.01300 21.64800 45.36600
H  50.45900 22.64700 40.89700
H  51.09100 24.30300 41.03400
H  49.44600 24.98700 39.81300
H  48.23000 24.48300 41.02700
H  52.55400 16.38400 43.51400
H  52.37700 17.52000 42.26200
H  51.32700 17.68900 43.56900
H  57.39600 18.25100 44.09900
H  57.47200 16.53500 44.18800
H  57.18900 17.48700 45.68700
H  58.48600 21.71400 45.54400
H  57.57200 23.46000 47.87100
H  59.01900 20.20500 47.31700
H  57.41500 20.52100 48.11400
H  58.78500 21.57600 48.45800
H  58.68400 24.96300 45.45800
H  59.72300 23.59300 45.95300
H  60.79300 25.25700 47.21400
H  59.48200 24.75000 48.24300
H  59.42400 26.18200 47.23100
H  55.80300 27.86300 46.86800
H  54.18900 28.56000 47.03100
H  55.07000 28.81000 45.54400
H  49.93800 26.56600 44.46700
H  49.18800 26.91600 40.26300
H  48.51800 28.46900 41.02800
H  47.64200 26.86600 40.92200

