158

Mg 16.80900 -1.26600 27.28300
C  15.60700 0.69900 30.13200
C  18.91700 -2.86800 29.34700
C  17.90700 -2.87700 24.56800
C  14.70200 0.76500 25.33000
N  17.16600 -1.09000 29.52900
C  16.50400 -0.36700 30.45100
C  17.06100 -0.60000 31.87500
C  18.22400 -1.70800 31.58900
C  18.11400 -1.95400 30.08400
C  19.60700 -1.38500 32.14500
C  15.91900 -1.04000 32.94100
C  16.03800 -0.46700 34.36400
H  17.40700 0.13600 34.86700
N  18.28400 -2.60800 26.99400
C  18.99400 -3.23200 27.96300
C  19.83000 -4.15700 27.42500
C  19.54400 -4.16200 26.05300
C  18.54400 -3.21300 25.81200
C  20.81200 -5.07700 28.26400
C  20.11500 -5.01300 25.03900
O  19.73800 -5.07100 23.86400
C  21.22900 -6.01300 25.39100
N  16.39400 -0.99100 25.23000
C  16.93900 -1.84800 24.29300
C  16.47400 -1.51400 22.88400
C  15.42000 -0.36900 23.17400
C  15.50000 -0.19200 24.63200
C  17.50800 -1.10200 21.93600
C  14.05800 -0.72300 22.60800
C  13.15900 -1.70000 23.41900
N  15.39400 0.32700 27.57700
C  14.70000 1.08200 26.71400
C  13.90100 2.10100 27.35200
C  14.24100 2.01500 28.66300
C  15.09500 0.91000 28.80700
C  12.95800 3.03500 26.67100
C  14.04000 2.57700 29.95500
O  13.30900 3.51100 30.29200
C  14.92700 1.69800 30.98800
C  15.75700 2.74900 31.62400
O  16.70300 3.36800 31.24900
O  15.05900 3.06600 32.73600
C  15.46700 4.20600 33.62000
H  19.64800 -3.34600 30.00300
H  18.02500 -3.40800 23.62000
H  14.07100 1.33400 24.64300
H  17.44000 0.38200 32.15900
H  17.93200 -2.64600 32.06100
H  19.92500 -2.18200 32.81700
H  19.64000 -0.46100 32.72300
H  20.26100 -1.37500 31.27300
H  16.12100 -2.09600 33.12000
H  15.01000 -0.76800 32.40500
H  15.62300 -1.17100 35.08600
H  15.39900 0.41500 34.31500
H  20.51500 -6.12400 28.20100
H  20.67900 -4.88700 29.32900
H  21.83500 -4.88500 27.94100
H  20.90300 -6.72900 26.14500
H  21.98200 -5.31100 25.74900
H  21.68800 -6.48800 24.52400
H  15.94600 -2.41800 22.57900
H  15.73700 0.57600 22.73300
H  18.47100 -1.07100 22.44400
H  17.22700 -0.13900 21.50900
H  17.61100 -1.88000 21.17900
H  14.19000 -1.14700 21.61300
H  13.52200 0.21000 22.43900
H  12.34200 -1.14500 23.88100
H  13.77000 -2.22100 24.15700
H  12.78300 -2.38600 22.66100
H  12.29000 3.52000 27.38200
H  12.27500 2.46200 26.04300
H  13.40000 3.88800 26.15600
H  14.20800 1.25300 31.67600
H  15.12300 4.11300 34.65000
H  15.22800 5.20000 33.24000
H  16.55700 4.22700 33.64300
Mg 40.87100 9.75300 30.43900
C  42.98200 11.51800 32.90800
C  39.04800 8.61000 32.94300
C  39.12300 8.17100 28.17500
C  42.91600 11.08200 28.07800
N  41.05700 9.99900 32.61200
C  41.84900 10.85400 33.41100
C  41.46300 10.74100 34.88500
C  40.41700 9.64100 34.86200
C  40.14100 9.40900 33.38900
C  40.66200 8.34200 35.70800
C  40.88400 12.12300 35.39700
C  40.12300 12.16900 36.72800
H  40.68600 13.05400 37.92300
N  39.39900 8.54800 30.53700
C  38.71600 8.21900 31.68400
C  37.59700 7.32400 31.25700
C  37.79200 7.02600 29.92700
C  38.82400 7.88300 29.50900
C  36.51800 6.78100 32.22300
C  37.02600 6.02900 29.01000
O  37.41400 5.67600 27.87300
C  35.69500 5.38600 29.57100
N  41.02200 9.62300 28.36400
C  40.10000 9.01600 27.62200
C  40.15300 9.38800 26.15100
C  41.48200 10.20200 26.12600
C  41.86300 10.32800 27.57600
C  40.05500 8.26500 25.08200
C  41.29500 11.65000 25.52700
C  42.37200 12.08300 24.53700
N  42.60600 11.01200 30.39900
C  43.29000 11.39900 29.34600
C  44.47900 12.17000 29.73100
C  44.39500 12.28000 31.20000
C  43.20100 11.54200 31.49900
C  45.60200 12.58600 28.86700
C  45.05900 12.81300 32.40100
O  46.08800 13.41200 32.53600
C  44.06600 12.43400 33.59300
C  44.69100 11.70500 34.70100
O  45.34300 10.62800 34.67600
O  44.34300 12.33400 35.89000
C  44.70000 11.56300 37.08500
H  38.38100 8.29400 33.74900
H  38.51500 7.63700 27.44100
H  43.36600 11.52800 27.18900
H  42.28000 10.49300 35.56200
H  39.45800 10.07600 35.14200
H  41.65700 8.30100 36.15100
H  40.53300 7.42100 35.13900
H  39.89500 8.21900 36.47300
H  40.24900 12.46200 34.57900
H  41.75300 12.76100 35.55700
H  39.93700 11.19100 37.17200
H  39.21700 12.73400 36.50800
H  36.43300 5.69600 32.18000
H  35.48200 6.97100 31.94100
H  36.74300 7.01100 33.26500
H  34.83600 5.99200 29.86000
H  35.94400 4.63200 30.31700
H  35.33400 4.82300 28.71000
H  39.41300 10.18000 26.03300
H  42.25400 9.68000 25.56200
H  39.08600 8.34500 24.58900
H  40.16800 7.26700 25.50600
H  40.77600 8.41100 24.27800
H  41.35100 12.31400 26.39000
H  40.26400 11.79300 25.20200
H  42.67600 13.07800 24.86100
H  41.98600 12.27600 23.53600
H  43.23800 11.42500 24.47000
H  46.44500 11.92000 29.05300
H  45.88400 13.59500 29.16600
H  45.36600 12.41400 27.81700
H  43.52100 13.32700 33.89900
H  43.86300 11.89200 37.70100
H  45.62800 11.97800 37.47800
H  44.58800 10.49000 37.24400

