158

Mg 35.37000 0.40700 29.63900
C  33.42200 1.35300 32.33400
C  38.02700 0.01100 31.88300
C  37.40300 0.21200 27.05700
C  32.72500 0.94800 27.46200
N  35.68200 0.72700 31.90200
C  34.70800 1.07400 32.80400
C  35.21000 0.95800 34.25200
C  36.83700 0.81400 34.10700
C  36.84700 0.49500 32.54700
C  37.71300 2.00800 34.56400
C  34.38600 -0.18600 35.05700
C  33.82300 0.26100 36.48500
H  34.54600 1.40400 37.19800
N  37.41900 -0.04400 29.50300
C  38.32700 -0.22000 30.49900
C  39.59200 -0.64400 29.89200
C  39.41100 -0.50800 28.49800
C  38.05200 -0.02400 28.31400
C  40.80900 -0.92300 30.72500
C  40.41700 -0.76400 27.35700
O  40.20700 -0.70000 26.18100
C  41.90700 -0.96600 27.72900
N  35.08000 0.41900 27.59500
C  36.06000 0.40800 26.69100
C  35.60000 0.40200 25.22000
C  34.02500 0.47400 25.35900
C  33.90500 0.55900 26.88700
C  36.17500 1.59200 24.37800
C  33.29400 -0.74000 24.66000
C  33.18600 -1.96600 25.54700
N  33.48800 0.96500 29.78500
C  32.46800 0.99100 28.88400
C  31.21200 1.36400 29.47700
C  31.55700 1.59800 30.82500
C  32.87000 1.27400 30.99400
C  29.91400 1.59000 28.72500
C  31.05600 1.93200 32.08300
O  29.89000 2.20600 32.40000
C  32.19400 1.71000 33.14400
C  32.39100 2.93300 33.94100
O  33.27000 3.74600 33.77300
O  31.39200 3.08400 34.93000
C  31.40900 4.33300 35.66500
H  38.86800 -0.02700 32.57900
H  37.90100 0.11600 26.08900
H  31.86100 1.11400 26.81600
H  34.93100 1.90700 34.71100
H  37.21500 -0.08800 34.58900
H  37.10300 2.69100 35.15400
H  37.92000 2.57300 33.65500
H  38.55400 1.83400 35.23600
H  35.08400 -0.98100 35.32100
H  33.61100 -0.72000 34.50700
H  33.98600 -0.48500 37.26300
H  32.77100 0.53500 36.41100
H  41.39300 -1.73300 30.28800
H  40.58400 -1.11600 31.77400
H  41.27300 0.06100 30.66600
H  41.99700 -0.30300 28.59000
H  42.64500 -0.65000 26.99200
H  42.22000 -1.99800 27.89200
H  35.81800 -0.60400 24.86100
H  33.59100 1.40800 25.00100
H  37.02400 1.97400 24.94500
H  35.46800 2.37100 24.09400
H  36.55100 1.19300 23.43600
H  33.90400 -0.92200 23.77400
H  32.35300 -0.35500 24.26800
H  33.48800 -2.76400 24.86900
H  32.13300 -2.22500 25.66600
H  33.84500 -2.11300 26.40300
H  29.59000 0.67500 28.23000
H  30.12000 2.31200 27.93400
H  29.15900 1.94200 29.42800
H  31.88800 0.92600 33.83700
H  30.70700 4.26700 36.49600
H  31.00600 5.14700 35.06200
H  32.39400 4.65700 36.00000
Mg 41.35200 41.09600 27.23600
C  41.22300 43.72900 29.58900
C  41.98100 38.93300 29.83100
C  42.02800 38.61500 25.01500
C  40.75400 43.29000 24.70000
N  41.72200 41.33800 29.48700
C  41.48400 42.43300 30.20600
C  41.43700 42.08700 31.70200
C  41.82700 40.61500 31.70800
C  41.84400 40.24500 30.24300
C  43.15300 40.25000 32.52000
C  40.17600 42.57400 32.39600
C  39.63700 41.89300 33.63800
H  39.24100 42.75200 34.86900
N  41.81400 39.05500 27.41200
C  42.08800 38.38600 28.59300
C  42.49200 37.00700 28.18800
C  42.41700 36.82500 26.80100
C  42.01700 38.19600 26.34300
C  42.84000 36.01000 29.18000
C  42.53300 35.61800 25.94500
O  42.33500 35.72600 24.73500
C  42.68700 34.25600 26.56100
N  41.41400 40.97400 25.18600
C  41.67100 39.86200 24.47800
C  41.44700 40.13300 22.95400
C  40.72300 41.55500 22.90700
C  40.96500 41.97300 24.36400
C  42.73600 40.14400 22.02700
C  39.21400 41.57800 22.51300
C  38.22600 40.58800 23.13400
N  40.99100 43.02100 27.12800
C  40.82100 43.83900 25.98500
C  40.69600 45.23300 26.42100
C  40.82400 45.18400 27.84300
C  41.06000 43.83600 28.20500
C  40.51700 46.36200 25.43900
C  40.92100 45.98700 28.97400
O  40.85500 47.23800 29.06500
C  41.08000 45.04000 30.21600
C  42.24100 45.41200 31.03800
O  43.40000 45.14800 30.79100
O  41.83500 45.97800 32.23100
C  42.74900 45.96100 33.35500
H  42.14800 38.34500 30.73600
H  42.40900 37.99900 24.19800
H  40.46900 43.95200 23.87900
H  42.23500 42.69200 32.13000
H  40.96100 40.04500 32.04500
H  42.90800 39.43600 33.20100
H  43.63400 41.04000 33.09700
H  43.93600 39.82000 31.89500
H  39.49000 42.39200 31.56800
H  40.21500 43.63600 32.63800
H  40.46100 41.27100 33.98800
H  38.88700 41.26200 33.16100
H  42.19900 35.12900 29.19400
H  42.75500 36.45000 30.17400
H  43.83500 35.57900 29.06800
H  42.56300 33.46500 25.82200
H  41.91300 34.17600 27.32400
H  43.69400 34.41300 26.94800
H  40.66900 39.42900 22.65800
H  41.27000 42.22600 22.24400
H  42.34600 39.78800 21.07400
H  43.41000 39.45000 22.52900
H  43.15900 41.13500 21.85800
H  39.16200 41.50800 21.42700
H  38.85100 42.53400 22.89000
H  37.72400 40.20400 22.24500
H  37.62400 41.09900 23.88500
H  38.74200 39.73000 23.56500
H  40.16400 47.18400 26.06200
H  39.91000 46.12100 24.56600
H  41.51700 46.56300 25.05500
H  40.16500 45.05000 30.80900
H  42.50900 45.24400 34.13900
H  42.81200 46.99900 33.68200
H  43.74900 45.57000 33.16300

