158

Mg 34.42400 3.15100 29.81500
C  32.27500 4.17600 32.41100
C  36.91700 3.24400 32.22100
C  36.53700 3.02000 27.26500
C  31.74700 3.56300 27.52200
N  34.64200 3.91000 32.05800
C  33.54200 4.11100 32.89700
C  33.93400 4.04100 34.36500
C  35.51400 4.23900 34.28200
C  35.72400 3.61700 32.79700
C  36.16900 5.69900 34.51900
C  33.53900 2.74800 35.10100
C  33.32300 2.92600 36.60000
H  33.94900 4.12700 37.34900
N  36.44900 2.98600 29.75100
C  37.32100 3.02000 30.83400
C  38.66100 2.87300 30.42100
C  38.57100 2.80900 28.96700
C  37.14900 2.86100 28.58200
C  39.84700 2.82300 31.34400
C  39.69100 2.65700 27.98400
O  39.54700 2.64900 26.77000
C  41.09300 2.42600 28.42800
N  34.21400 3.51800 27.74100
C  35.24900 3.28300 26.84300
C  34.70100 3.22300 25.33700
C  33.15900 3.21200 25.48900
C  33.02600 3.42900 26.98500
C  35.29400 4.33600 24.52000
C  32.44000 2.05800 24.88400
C  32.30100 0.70500 25.61300
N  32.46900 3.72200 29.90400
C  31.50900 3.76800 28.91500
C  30.25400 4.13900 29.52100
C  30.46600 4.20600 30.82900
C  31.87000 4.02500 31.03500
C  29.00300 4.44000 28.73900
C  29.83400 4.39400 32.11400
O  28.63100 4.62000 32.44700
C  30.95400 4.41100 33.16500
C  30.92800 5.69300 33.97900
O  31.34600 6.78500 33.64200
O  30.33000 5.47500 35.24200
C  30.47600 6.48800 36.31800
H  37.64600 3.07200 33.01500
H  37.20500 2.86500 26.41500
H  30.89600 3.44100 26.84800
H  33.41300 4.84600 34.88400
H  35.98400 3.52700 34.96200
H  36.65500 5.74300 35.49400
H  35.25300 6.22600 34.78900
H  36.65300 6.21500 33.69000
H  34.05400 1.81800 34.86000
H  32.50100 2.57900 34.81500
H  33.68600 2.01000 37.06500
H  32.28000 2.81500 36.89600
H  39.62300 2.74400 32.40800
H  40.47800 3.68900 31.14300
H  40.41100 1.90800 31.15800
H  41.35800 3.17900 29.17000
H  41.77600 2.62200 27.60200
H  41.08900 1.41600 28.83900
H  35.03100 2.25500 24.95800
H  32.70700 4.13300 25.12200
H  35.74300 4.97000 25.28400
H  34.59500 4.96200 23.96400
H  36.12000 4.03500 23.87600
H  32.91100 1.67800 23.97700
H  31.50000 2.48000 24.52700
H  31.22800 0.77500 25.79300
H  32.87100 0.83800 26.53200
H  32.50800 -0.17200 24.99900
H  28.32100 5.10400 29.27000
H  28.51400 3.53100 28.38800
H  29.25500 4.99400 27.83500
H  30.80600 3.52700 33.78600
H  29.90200 7.35700 35.99700
H  31.50600 6.66400 36.62800
H  30.00600 6.09700 37.22000
Mg 53.78800 24.92800 44.81800
C  51.08900 26.99300 44.05100
C  52.04900 22.29900 43.39900
C  56.64800 23.21600 44.39700
C  55.57500 27.83000 45.51400
N  51.79600 24.69900 43.91000
C  50.80500 25.71600 43.75300
C  49.55100 25.13800 43.08700
C  49.83200 23.65800 43.27800
C  51.32100 23.50000 43.49800
C  49.00300 22.90900 44.36900
C  49.46600 25.55700 41.62200
C  48.02500 25.78700 41.07700
H  47.81100 25.42500 39.62500
N  54.32200 23.03100 44.05800
C  53.46100 22.07500 43.57400
C  54.14600 20.78000 43.42200
C  55.46400 20.96400 43.81000
C  55.53800 22.43300 44.08900
C  53.42400 19.52000 42.98900
C  56.58300 19.97400 43.81000
O  56.35700 18.83500 43.40700
C  57.92300 20.28600 44.27900
N  55.74400 25.50200 44.80700
C  56.80000 24.56000 44.69800
C  58.10000 25.16300 44.97700
C  57.83300 26.66700 45.12200
C  56.31500 26.74500 45.03100
C  58.89700 24.47800 46.18700
C  58.54400 27.61700 44.10000
C  59.49900 28.63400 44.70600
N  53.44800 27.03700 44.90700
C  54.20900 28.04300 45.36600
C  53.44300 29.25800 45.55800
C  52.22500 28.89900 44.89100
C  52.26800 27.53600 44.58400
C  53.82400 30.44300 46.27600
C  50.91500 29.42100 44.56900
O  50.47300 30.54400 44.81100
C  50.26800 28.30700 43.76000
C  50.44600 28.69300 42.31500
O  51.50700 28.76200 41.78700
O  49.25900 28.99300 41.79100
C  49.21700 29.54200 40.42900
H  51.41100 21.44600 43.16000
H  57.61500 22.77500 44.14900
H  56.13400 28.70700 45.84600
H  48.65800 25.35800 43.67300
H  49.47700 23.12900 42.39300
H  48.32500 22.23300 43.84800
H  48.38200 23.55600 44.98900
H  49.73200 22.37600 44.98000
H  49.85100 24.71500 41.04600
H  50.13500 26.37800 41.36500
H  47.72700 26.83200 41.16600
H  47.28200 25.22100 41.63800
H  53.52100 19.43900 41.90700
H  52.43100 19.45000 43.43200
H  53.96400 18.65400 43.37300
H  58.33200 20.93800 43.50600
H  58.57600 19.42600 44.13400
H  57.90600 20.63500 45.31200
H  58.70600 24.92300 44.10300
H  58.18200 26.89800 46.12800
H  58.76600 25.13600 47.04600
H  59.95600 24.43000 45.93600
H  58.55400 23.50500 46.54000
H  57.90800 28.19100 43.42700
H  59.04400 26.92800 43.42000
H  60.51800 28.47800 44.35300
H  59.35500 28.71400 45.78400
H  59.13500 29.57000 44.28300
H  54.73100 30.22000 46.83800
H  52.99200 30.83500 46.86000
H  53.97700 31.27900 45.59300
H  49.24000 28.25100 44.12000
H  50.24700 29.75400 40.14400
H  48.78700 30.53800 40.31600
H  48.68100 28.93800 39.69700

