158

Mg 1.29400 -1.77000 43.47100
C  4.67300 -1.17400 42.82600
C  0.55400 1.11900 41.81800
C  -1.93100 -2.67000 43.57500
C  2.13800 -4.74000 45.07000
N  2.48400 -0.29600 42.37200
C  3.84100 -0.21700 42.27300
C  4.32000 0.97100 41.41700
C  2.96700 1.78800 41.27700
C  1.88700 0.81300 41.91900
C  2.95600 3.13500 42.04800
C  4.92300 0.36300 40.04500
C  6.00900 1.13900 39.51900
H  6.02500 1.71000 38.11500
N  -0.47500 -0.86500 42.73700
C  -0.57700 0.38200 42.15700
C  -1.95600 0.63000 41.85200
C  -2.67000 -0.42900 42.43000
C  -1.67800 -1.40200 43.00800
C  -2.39800 1.88900 41.08400
C  -4.15900 -0.50300 42.40600
O  -4.89100 0.33700 41.83700
C  -4.86400 -1.65500 43.07200
N  0.33700 -3.45200 44.17900
C  -1.01300 -3.62100 44.04000
C  -1.43600 -5.00200 44.59300
C  -0.12100 -5.68200 44.97300
C  0.84600 -4.51200 44.79100
C  -2.47500 -4.87100 45.73800
C  0.26500 -6.91000 44.15000
C  0.32500 -8.18800 45.01300
N  3.04200 -2.85700 43.85000
C  3.26800 -3.96600 44.58300
C  4.69700 -4.20600 44.65900
C  5.33400 -3.06600 44.09200
C  4.30500 -2.35400 43.51300
C  5.25600 -5.41700 45.43100
C  6.60800 -2.40400 43.80100
O  7.83700 -2.63000 44.07100
C  6.17500 -1.15000 42.85200
C  6.83000 0.14100 43.23000
O  7.59900 0.79600 42.51000
O  6.54000 0.55900 44.53700
C  6.99800 1.95700 44.88700
H  0.39600 2.12300 41.41900
H  -2.88200 -3.20200 43.50500
H  2.48200 -5.65100 45.56500
H  5.07000 1.62600 41.85800
H  2.59300 1.84800 40.25500
H  2.33500 3.06700 42.94100
H  2.59600 3.97700 41.45700
H  3.98200 3.29600 42.37800
H  4.18300 0.57300 39.27300
H  5.13600 -0.70200 39.94900
H  6.84600 0.44100 39.52800
H  6.25100 1.98400 40.16300
H  -1.65400 2.66200 40.89400
H  -3.05100 2.43900 41.76200
H  -2.82900 1.58300 40.13000
H  -4.36000 -1.71100 44.03700
H  -4.77100 -2.58600 42.51200
H  -5.92100 -1.42500 43.20600
H  -1.91500 -5.56200 43.79000
H  -0.12300 -5.93500 46.03300
H  -2.62500 -3.82200 45.99700
H  -2.24200 -5.53300 46.57200
H  -3.45300 -5.16800 45.35700
H  1.16500 -6.78500 43.54700
H  -0.53300 -7.09500 43.43100
H  0.02100 -8.99400 44.34400
H  -0.30100 -8.07200 45.89700
H  1.30600 -8.32400 45.46900
H  5.97800 -5.02000 46.14500
H  5.78800 -6.10600 44.77500
H  4.62000 -5.90900 46.16700
H  6.42300 -1.38100 41.81600
H  6.48600 2.66900 44.23900
H  8.07800 2.04600 44.77700
H  6.73500 2.18800 45.91900
Mg 36.50400 49.29500 26.21500
C  37.23100 47.31600 29.15900
C  35.22800 51.70300 28.28700
C  35.70800 51.02500 23.52400
C  37.35500 46.47900 24.22600
N  36.30100 49.41500 28.52200
C  36.78200 48.59300 29.46600
C  36.65600 49.18700 30.83200
C  35.86900 50.56100 30.55800
C  35.71600 50.58600 29.02900
C  34.54000 50.86400 31.30000
C  38.09100 49.51600 31.56300
C  38.29500 49.33800 33.15700
H  36.95000 49.39400 33.94000
N  35.54400 51.10900 25.95000
C  35.14000 51.98200 26.93200
C  34.58200 53.22900 26.27300
C  34.65500 52.99800 24.85400
C  35.34500 51.68700 24.68600
C  33.91700 54.31700 27.00500
C  34.27100 53.83500 23.69400
O  34.46000 53.55900 22.54100
C  33.46300 55.02400 23.94500
N  36.59200 48.83000 24.15000
C  36.26200 49.74300 23.23200
C  36.56900 49.28000 21.79600
C  37.04800 47.79700 22.01900
C  37.06100 47.66000 23.54500
C  35.36400 49.40900 20.78200
C  38.39300 47.44200 21.37100
C  38.41200 47.22100 19.80600
N  37.10300 47.31200 26.53600
C  37.43900 46.32400 25.63400
C  37.91400 45.18600 26.30400
C  37.89800 45.52400 27.69900
C  37.35600 46.77500 27.82900
C  38.19500 43.84100 25.70200
C  38.22100 45.00600 29.01300
O  38.66400 43.88300 29.34700
C  37.78000 46.18700 29.98200
C  36.84500 45.65100 30.94900
O  35.85200 45.00800 30.63500
O  37.30300 45.89600 32.20000
C  36.89500 45.01700 33.31300
H  34.77800 52.43000 28.96600
H  35.61500 51.57900 22.58800
H  37.78300 45.61800 23.70800
H  36.00300 48.52600 31.40400
H  36.52700 51.41900 30.69300
H  33.73300 51.11000 30.61000
H  34.66400 51.71600 31.96800
H  34.19200 49.97000 31.81900
H  38.51800 50.49400 31.33900
H  38.81500 48.77000 31.23300
H  38.76100 50.28300 33.43800
H  38.85800 48.45000 33.44400
H  33.91100 55.24900 26.43900
H  34.39400 54.49700 27.96800
H  32.87000 54.08200 27.19500
H  32.65900 54.75100 24.62800
H  33.00800 55.38800 23.02400
H  34.09700 55.82000 24.33600
H  37.45900 49.85900 21.55300
H  36.28600 47.09100 21.68700
H  34.47400 49.81500 21.26200
H  35.11300 48.45700 20.31300
H  35.76900 50.00600 19.96500
H  38.84700 46.57100 21.84600
H  39.03400 48.31400 21.49500
H  37.46600 46.73700 19.56400
H  39.29800 46.63800 19.55400
H  38.45800 48.21500 19.36100
H  39.18500 43.54300 26.04800
H  38.15400 43.74300 24.61700
H  37.41900 43.24400 26.18000
H  38.65500 46.38300 30.60200
H  37.75800 44.49200 33.72200
H  36.25100 44.23200 32.91600
H  36.39600 45.44600 34.18200

