158

Mg 1.14600 42.37500 25.69000
C  3.25500 42.32800 28.50500
C  -1.56600 41.66900 27.69900
C  -0.55900 41.46800 22.88000
C  3.99900 42.91900 23.82500
N  0.85500 42.17700 28.00400
C  1.84300 42.28100 28.90000
C  1.15700 42.21200 30.34100
C  -0.34700 41.94300 30.04800
C  -0.39500 42.07000 28.51000
C  -0.85500 40.60200 30.65100
C  1.33600 43.59600 31.05200
C  1.79300 43.54400 32.50800
H  0.61800 43.45200 33.50400
N  -0.79500 41.77400 25.31600
C  -1.75600 41.56100 26.27600
C  -2.98000 40.98600 25.67500
C  -2.67600 40.83000 24.27400
C  -1.29600 41.32900 24.08100
C  -4.17100 40.65900 26.54300
C  -3.59000 40.20700 23.14600
O  -3.10700 40.10300 21.99900
C  -5.04300 39.83600 23.37300
N  1.63600 42.19500 23.62500
C  0.77600 41.92400 22.65600
C  1.36300 42.12100 21.24100
C  2.74000 42.79700 21.57100
C  2.82800 42.66800 23.09500
C  1.48800 40.68300 20.48300
C  2.91000 44.25900 21.13400
C  2.66000 44.49600 19.64200
N  3.16900 42.52300 26.04900
C  4.22400 42.76900 25.18400
C  5.48200 42.93400 25.84400
C  5.19800 42.67400 27.16600
C  3.75000 42.44000 27.24000
C  6.78700 42.95700 25.17700
C  5.76800 42.55900 28.47500
O  6.92800 42.62400 28.81600
C  4.57000 42.45100 29.39500
C  4.67800 41.45400 30.57200
O  4.60000 40.22200 30.55100
O  4.92400 42.23500 31.69100
C  5.07100 41.44600 32.88300
H  -2.46500 41.54100 28.30500
H  -1.01200 41.07300 21.96800
H  4.83500 43.29200 23.23000
H  1.68900 41.44800 30.90700
H  -0.92100 42.81000 30.37500
H  -0.14800 39.95600 31.17200
H  -1.31200 40.09400 29.80200
H  -1.67700 40.77100 31.34600
H  0.43000 44.19000 30.92900
H  2.13300 44.15100 30.55700
H  2.41600 44.41800 32.69900
H  2.43200 42.66900 32.62500
H  -4.27900 41.42600 27.31100
H  -4.10000 39.63400 26.90600
H  -5.11400 40.89700 26.05000
H  -5.44000 39.60500 22.38500
H  -5.55900 40.75000 23.66600
H  -5.02700 38.96200 24.02500
H  0.69100 42.88700 20.85700
H  3.64500 42.32800 21.18500
H  1.29300 39.87400 21.18700
H  2.53900 40.59100 20.21200
H  0.83600 40.56300 19.61700
H  3.97800 44.47400 21.10700
H  2.44200 45.04300 21.72900
H  2.13400 43.66200 19.17800
H  3.61900 44.60300 19.13400
H  2.16900 45.44500 19.42400
H  6.89800 42.98800 24.09300
H  7.32500 42.06800 25.50600
H  7.34600 43.79300 25.59800
H  4.62200 43.43000 29.87100
H  5.65400 42.09500 33.53700
H  5.63700 40.53000 32.71600
H  4.04800 41.23000 33.19000
Mg -2.08400 34.24400 26.53600
C  -3.77300 32.95100 29.29600
C  -0.60100 36.54000 28.65000
C  -0.53300 35.77300 23.84200
C  -3.84900 32.23500 24.44000
N  -2.27400 34.76700 28.68200
C  -2.89800 33.99500 29.64700
C  -2.44400 34.31100 31.05100
C  -1.60700 35.62300 30.79100
C  -1.51200 35.62700 29.25200
C  -2.09600 36.92500 31.38300
C  -1.64800 33.14600 31.76000
C  -1.01300 33.55000 33.09400
H  -1.46600 32.85700 34.34200
N  -0.79000 36.01400 26.25100
C  -0.21900 36.73600 27.25100
C  0.73000 37.70200 26.65300
C  0.74000 37.49500 25.20800
C  -0.20200 36.37200 25.00300
C  1.60000 38.64000 27.46800
C  1.43100 38.16400 24.09700
O  1.16600 37.90200 22.91000
C  2.49700 39.07200 24.40400
N  -2.28200 34.16900 24.41800
C  -1.52400 34.78900 23.53800
C  -1.52500 34.17400 22.16100
C  -2.48200 32.95900 22.33400
C  -2.92900 33.10700 23.85600
C  -2.17700 35.13200 20.97300
C  -1.77600 31.56100 22.10100
C  -2.83200 30.51800 21.69100
N  -3.59800 32.91200 26.72900
C  -4.13600 32.10700 25.79400
C  -4.93600 31.11500 26.42300
C  -4.89600 31.44300 27.83600
C  -4.07300 32.53100 27.93500
C  -5.67700 30.03900 25.73100
C  -5.39200 31.08600 29.15700
O  -6.17200 30.17400 29.52200
C  -4.59800 32.03800 30.16600
C  -5.57500 32.65700 31.00200
O  -6.70900 33.00500 30.60400
O  -5.22000 32.59200 32.31900
C  -6.36800 32.71100 33.28700
H  -0.04500 37.10400 29.40300
H  -0.06000 35.93700 22.87200
H  -4.48700 31.72000 23.71800
H  -3.40100 34.48800 31.54200
H  -0.63100 35.52900 31.26700
H  -2.57800 37.66700 30.74700
H  -1.30000 37.46900 31.89200
H  -2.85600 36.58400 32.08700
H  -0.94700 32.70900 31.04900
H  -2.40400 32.37500 31.90900
H  -1.03500 34.63200 33.22300
H  0.05700 33.34900 33.04100
H  2.62800 38.63800 27.10400
H  1.62400 38.30300 28.50500
H  1.14300 39.62900 27.46300
H  2.15000 39.94700 24.95300
H  2.86300 39.46700 23.45700
H  3.34800 38.60500 24.90000
H  -0.52500 33.90800 21.81800
H  -3.35200 33.04300 21.68200
H  -3.26400 35.09700 20.90000
H  -1.78400 34.89000 19.98600
H  -1.91500 36.18600 21.06200
H  -1.52700 31.28800 23.12600
H  -0.80600 31.52300 21.60500
H  -2.39400 29.92500 20.88800
H  -3.83800 30.92500 21.58900
H  -3.02000 29.75500 22.44700
H  -5.43600 29.09900 26.22700
H  -5.52000 29.87600 24.66400
H  -6.75700 30.12900 25.84400
H  -3.98900 31.37800 30.78400
H  -6.80000 31.73300 33.49800
H  -7.07400 33.43400 32.87800
H  -6.05800 33.26800 34.17100

