158

Mg 16.14100 51.89300 25.63400
C  17.90300 50.66100 28.43700
C  13.52000 52.65200 27.81000
C  14.26300 52.35300 23.02300
C  18.75700 50.57000 23.52600
N  15.71800 51.47200 27.87200
C  16.69100 51.24000 28.78700
C  16.29500 51.66900 30.23300
C  14.84400 52.28100 30.05900
C  14.64300 52.09400 28.47500
C  13.68800 51.57600 30.80500
C  17.28200 52.65000 30.87900
C  17.47400 52.53000 32.36800
H  16.43900 51.65600 33.20800
N  14.17600 52.52800 25.42500
C  13.28700 52.86100 26.43600
C  12.15200 53.44400 25.81600
C  12.25100 53.16600 24.44800
C  13.62800 52.69700 24.23100
C  11.03900 53.97400 26.64600
C  11.23400 53.29800 23.33700
O  11.44800 52.93600 22.20500
C  9.85500 53.89300 23.53800
N  16.59600 51.67600 23.54100
C  15.49300 51.82700 22.72400
C  15.83600 51.31300 21.25600
C  17.31900 50.82400 21.38500
C  17.55400 51.04700 22.88100
C  14.77100 50.21100 20.82200
C  18.39800 51.57900 20.46600
C  19.35100 50.67100 19.60500
N  17.97400 50.94600 25.91000
C  18.94500 50.48500 24.95500
C  19.94700 49.65900 25.67400
C  19.63500 49.79100 27.06000
C  18.37000 50.49900 27.12500
C  20.95200 48.78500 25.21800
C  20.09200 49.44000 28.40200
O  21.02000 48.76300 28.76500
C  19.06600 50.17800 29.32800
C  18.73800 49.30500 30.44200
O  17.78000 48.59700 30.39900
O  19.73100 49.34900 31.46700
C  19.42700 48.55600 32.67400
H  12.77900 53.14100 28.44600
H  13.74800 52.45900 22.06600
H  19.58900 50.19100 22.92800
H  16.17500 50.70300 30.72400
H  14.78600 53.32200 30.37700
H  13.01000 51.21100 30.03400
H  13.04200 52.20800 31.41500
H  14.01000 50.71200 31.38600
H  16.96500 53.68400 30.74500
H  18.23700 52.65900 30.35300
H  17.39300 53.53400 32.78500
H  18.50900 52.29200 32.61200
H  11.40900 54.84400 27.18900
H  10.73100 53.24400 27.39500
H  10.10000 54.28900 26.19200
H  9.38700 53.34100 24.35300
H  9.37200 53.94400 22.56200
H  10.02900 54.91800 23.86400
H  15.80300 52.21700 20.64800
H  17.27600 49.75300 21.18800
H  13.87200 50.33600 21.42500
H  15.13700 49.18500 20.84200
H  14.57800 50.32900 19.75500
H  18.91400 52.34100 21.05000
H  17.88000 52.19800 19.73300
H  19.11900 49.62600 19.80900
H  20.36100 51.00700 19.83800
H  19.26400 50.82300 18.52900
H  20.98400 48.64500 24.13800
H  20.82800 47.88600 25.82300
H  21.96300 49.16800 25.35600
H  19.67300 50.93800 29.82000
H  20.14500 47.74100 32.58700
H  18.36400 48.31700 32.64800
H  19.64100 49.22000 33.51200
Mg -0.72600 34.58700 26.73500
C  -2.58600 32.86900 29.28900
C  0.26100 36.78000 29.24100
C  0.41000 36.62400 24.41600
C  -2.48100 32.64500 24.42800
N  -0.98700 34.62800 28.98500
C  -1.74800 33.83500 29.77100
C  -1.57600 34.06900 31.23100
C  -0.74900 35.41200 31.29700
C  -0.36200 35.59200 29.81100
C  -1.31800 36.61200 31.97000
C  -0.79400 32.87200 31.97100
C  -1.29900 32.49500 33.28200
H  -0.19400 32.25400 34.43000
N  0.32000 36.42700 26.77300
C  0.64700 37.11100 27.90200
C  1.45300 38.30200 27.46300
C  1.46800 38.32400 26.06500
C  0.77600 37.05200 25.71500
C  2.03000 39.19400 28.54000
C  2.05200 39.37500 25.04700
O  2.10800 39.22800 23.88200
C  2.50400 40.60000 25.63300
N  -1.33000 34.83400 24.65800
C  -0.50900 35.66400 23.91600
C  -0.64200 35.35300 22.38400
C  -1.19300 33.88900 22.51600
C  -1.76500 33.75200 23.95600
C  -1.49000 36.31900 21.58600
C  -0.24700 32.69000 22.08600
C  0.73500 32.07600 23.17400
N  -2.23900 33.17600 26.76000
C  -2.76400 32.39800 25.75700
C  -3.56900 31.31100 26.26300
C  -3.55900 31.51900 27.66100
C  -2.72400 32.61300 27.90700
C  -4.43900 30.28400 25.56000
C  -4.13200 31.01200 28.86300
O  -4.93000 30.15500 29.11000
C  -3.43100 31.84600 30.01600
C  -4.55400 32.37200 30.79400
O  -5.18000 33.40200 30.54100
O  -4.85300 31.50000 31.84900
C  -5.77500 32.06100 32.90800
H  0.58600 37.50800 29.98700
H  0.84400 37.15700 23.56800
H  -2.81300 32.02400 23.59300
H  -2.50600 34.23700 31.77400
H  0.18000 35.34400 31.86300
H  -2.04400 36.41000 32.75700
H  -1.79800 37.34100 31.31600
H  -0.48500 37.09000 32.48600
H  0.25600 33.13700 32.09400
H  -0.75600 31.96500 31.36800
H  -1.68500 31.49500 33.08600
H  -2.05300 33.18600 33.65800
H  2.54100 40.08600 28.17700
H  2.74500 38.68000 29.18300
H  1.23600 39.70800 29.08200
H  3.47800 40.39300 26.07700
H  1.87800 41.07700 26.38700
H  2.59300 41.29700 24.80000
H  0.38300 35.48600 22.03600
H  -2.02900 33.78300 21.82500
H  -1.92800 37.06600 22.24900
H  -2.32900 35.77900 21.14800
H  -1.00900 36.83900 20.75700
H  0.28100 33.20500 21.28300
H  -0.78300 31.87700 21.59700
H  0.47800 32.48600 24.15100
H  1.79200 32.26800 22.99000
H  0.63300 30.99400 23.26100
H  -5.45000 30.67100 25.68500
H  -4.36300 29.29200 26.00500
H  -4.20700 30.28800 24.49500
H  -2.98200 31.13000 30.70500
H  -6.64900 32.60400 32.54700
H  -5.09700 32.68000 33.49400
H  -6.06600 31.23900 33.56200

