158

Mg 47.74700 15.86000 28.47500
C  45.91500 15.97100 31.52400
C  50.21000 17.41300 30.09700
C  49.19800 16.44900 25.50900
C  44.91500 14.72600 26.94100
N  47.97300 16.80500 30.54600
C  47.10500 16.57500 31.61700
C  47.77500 17.14600 32.89100
C  49.10300 17.88400 32.33500
C  49.17100 17.27000 30.93700
C  49.16400 19.44100 32.36200
C  48.03900 15.99400 33.87700
C  47.45300 16.17800 35.29600
H  47.03900 17.56200 35.79200
N  49.51800 16.67000 27.91300
C  50.46100 17.23500 28.72000
C  51.58300 17.57300 27.86300
C  51.34500 17.17300 26.52800
C  49.93500 16.80700 26.60200
C  52.85400 18.13900 28.45100
C  52.20300 17.30300 25.27500
O  51.81100 17.16700 24.11000
C  53.58500 17.79200 25.45300
N  47.04000 15.84400 26.51300
C  47.92100 15.95400 25.42100
C  47.24000 15.61300 24.03700
C  45.84300 15.05900 24.51000
C  45.86200 15.24800 26.06900
C  47.28900 16.71800 22.93800
C  45.53800 13.63300 24.06900
C  46.45400 12.55500 24.55300
N  45.90200 15.28400 29.04800
C  44.90600 14.70600 28.29400
C  43.90700 14.24900 29.16800
C  44.23600 14.70000 30.43200
C  45.42900 15.37800 30.29400
C  42.69000 13.39700 28.80500
C  43.80000 14.81800 31.83100
O  42.78700 14.30600 32.34000
C  44.84000 15.69900 32.60000
C  44.17200 16.89800 33.19300
O  44.12700 18.00600 32.78000
O  43.59200 16.42000 34.32700
C  42.69700 17.40800 34.90500
H  50.99900 17.94200 30.63600
H  49.77000 16.44800 24.57900
H  44.02500 14.21500 26.56600
H  47.04300 17.86400 33.26200
H  49.97000 17.59000 32.92600
H  49.98800 19.78900 32.98400
H  48.22800 19.98000 32.51200
H  49.53400 19.69100 31.36800
H  49.11400 15.82400 33.92700
H  47.69500 15.01000 33.55900
H  48.21000 15.80100 35.98400
H  46.65300 15.44500 35.40100
H  52.85300 18.70600 29.38200
H  53.18700 18.88700 27.73200
H  53.62700 17.38000 28.57100
H  54.18400 17.61700 24.55900
H  54.00900 17.09500 26.17600
H  53.64800 18.85400 25.69300
H  47.90800 14.90600 23.54600
H  45.02900 15.66600 24.11500
H  47.90400 17.55100 23.27800
H  46.30300 17.05500 22.61700
H  47.78200 16.31800 22.05200
H  45.38400 13.64100 22.99000
H  44.52000 13.44500 24.41200
H  46.50000 11.83200 23.73900
H  45.99200 12.04600 25.39900
H  47.44000 12.94600 24.80600
H  42.94100 12.44900 28.32800
H  42.04000 13.88200 28.07800
H  42.14200 13.27400 29.73900
H  45.10900 15.07400 33.45100
H  41.76700 17.55500 34.35600
H  43.13700 18.40400 34.96200
H  42.58400 17.15400 35.95900
Mg 26.41400 50.11400 27.27600
C  24.42300 51.49500 29.55300
C  28.62900 49.06500 29.71200
C  28.52900 49.02600 24.83200
C  24.31800 51.31600 24.79300
N  26.56800 50.39400 29.44400
C  25.48500 50.89500 30.17200
C  25.65900 50.57600 31.65100
C  27.16000 49.99100 31.68600
C  27.55300 49.80200 30.21400
C  28.15500 50.80900 32.48900
C  24.55200 49.56700 32.25700
C  24.03800 49.96600 33.64700
H  24.96300 50.65100 34.66500
N  28.40300 49.25300 27.27200
C  29.05100 48.84700 28.33200
C  30.35700 48.30700 27.96300
C  30.30900 48.22100 26.54700
C  29.07400 48.88000 26.13700
C  31.36900 47.88800 29.03600
C  31.33800 47.61700 25.61500
O  31.19400 47.63000 24.37200
C  32.47700 46.89600 26.27400
N  26.49300 50.32600 25.13300
C  27.38900 49.60200 24.35000
C  27.04400 49.81100 22.88200
C  25.54500 50.15900 22.90600
C  25.45600 50.72000 24.31200
C  27.89600 50.83800 22.13300
C  24.51000 49.01500 22.55400
C  23.70800 49.13500 21.20600
N  24.72900 51.19700 27.14000
C  23.96300 51.65500 26.09100
C  22.84200 52.52400 26.57500
C  22.95700 52.42800 27.94300
C  24.09900 51.60700 28.24600
C  21.79900 53.21500 25.66200
C  22.30300 52.73200 29.16300
O  21.24100 53.31800 29.37300
C  23.19900 52.13900 30.25900
C  23.51700 53.21900 31.23800
O  24.39600 54.07200 31.15400
O  22.65900 53.16100 32.33200
C  22.64600 54.19700 33.40300
H  29.27400 48.69500 30.51200
H  29.02200 48.66000 23.93000
H  23.69900 51.62100 23.94600
H  25.57500 51.48800 32.24200
H  27.12400 48.99500 32.12800
H  28.84400 50.07300 32.90300
H  27.61000 51.33900 33.27100
H  28.67400 51.57000 31.90800
H  25.05200 48.60200 32.17900
H  23.68100 49.52000 31.60400
H  23.53600 49.11900 34.11300
H  23.26200 50.71600 33.49700
H  32.34600 48.34000 28.86400
H  31.43900 46.80100 29.00000
H  31.21300 48.03000 30.10500
H  33.04300 46.44300 25.46000
H  32.08100 46.06000 26.84900
H  33.10400 47.57300 26.85400
H  27.27500 48.89100 22.34400
H  25.29600 50.98400 22.23900
H  28.40500 50.31500 21.32400
H  28.60300 51.24600 22.85600
H  27.31500 51.67600 21.74900
H  23.85500 48.81500 23.40200
H  25.14400 48.14700 22.36900
H  24.27100 49.79500 20.54600
H  22.74200 49.63200 21.29800
H  23.47800 48.16400 20.76600
H  21.37400 52.52500 24.93400
H  22.19200 54.03600 25.06200
H  20.95100 53.38500 26.32500
H  22.61100 51.44900 30.86400
H  23.03500 55.17500 33.12000
H  23.26800 53.82600 34.21700
H  21.64000 54.32500 33.80500

