158

Mg 53.55900 24.55100 43.79500
C  50.72900 26.48500 43.30600
C  51.88800 21.96200 42.24100
C  56.30800 22.79700 43.88400
C  55.11000 27.28000 45.29700
N  51.59900 24.29000 42.80700
C  50.67500 25.25400 42.64100
C  49.43800 24.81900 41.76700
C  49.66300 23.24400 41.74700
C  51.12000 23.12000 42.22400
C  48.72900 22.28300 42.48800
C  49.40300 25.37800 40.31900
C  50.68400 26.04500 39.71700
H  51.57600 25.30200 38.79200
N  54.01000 22.53000 43.26800
C  53.14900 21.62200 42.73100
C  53.77000 20.32500 42.70400
C  55.16100 20.53200 43.11300
C  55.22700 21.95500 43.42500
C  52.91900 19.12100 42.35700
C  56.21200 19.40700 43.22700
O  55.89700 18.22900 42.87800
C  57.63100 19.63300 43.67200
N  55.53500 25.08900 44.37300
C  56.51000 24.12900 44.31800
C  57.87000 24.76800 44.79600
C  57.33900 26.08700 45.52800
C  55.91400 26.19000 45.05500
C  58.82500 23.80300 45.61000
C  58.12500 27.35100 45.14900
C  59.64600 27.21800 45.03100
N  53.07000 26.49200 44.22600
C  53.76800 27.44400 44.88700
C  52.91800 28.58400 45.17000
C  51.70400 28.23600 44.54500
C  51.83000 26.97300 44.05600
C  53.34900 29.94800 45.72000
C  50.35700 28.68800 44.31900
O  49.81700 29.69700 44.72400
C  49.73200 27.54900 43.45800
C  49.34800 28.24400 42.20200
O  50.08100 28.65500 41.30000
O  48.01500 28.45000 42.27200
C  47.36500 29.13400 41.16600
H  51.27000 21.13600 41.88600
H  57.20400 22.20400 44.08000
H  55.58000 28.14200 45.77600
H  48.46600 25.07600 42.18900
H  49.55900 22.90800 40.71500
H  49.21500 21.31900 42.63900
H  47.87600 22.13500 41.82500
H  48.57100 22.79500 43.43700
H  48.64300 26.14400 40.47900
H  48.92800 24.70900 39.60200
H  51.34000 26.18700 40.57600
H  50.42000 27.01300 39.29000
H  53.01100 18.73700 41.34100
H  51.87500 19.30800 42.60700
H  53.17400 18.35800 43.09300
H  58.13900 18.66800 43.69400
H  57.67500 20.18500 44.61100
H  58.09200 20.24700 42.89800
H  58.48800 24.96900 43.92100
H  57.26400 25.99900 46.61200
H  58.30500 22.88700 45.89300
H  59.06100 24.30000 46.55100
H  59.70700 23.46000 45.06900
H  57.91700 27.99500 46.00300
H  57.62100 27.85000 44.32100
H  59.97700 27.21500 43.99200
H  59.87200 26.28800 45.55300
H  60.23800 27.99700 45.51300
H  53.02900 30.07400 46.75400
H  52.98500 30.67500 44.99300
H  54.40700 30.17300 45.58000
H  48.84800 27.12700 43.93700
H  47.92100 28.95600 40.24500
H  47.48900 30.18200 41.43700
H  46.35700 28.74200 41.02900
Mg -6.05100 24.84400 25.50900
C  -4.57200 26.40500 28.15800
C  -7.89100 22.86000 27.67500
C  -7.59100 23.39600 22.80900
C  -3.80200 26.41600 23.33500
N  -6.19400 24.65500 27.63600
C  -5.57000 25.44700 28.57400
C  -6.09500 25.24200 30.01900
C  -6.93000 23.89100 29.80900
C  -7.13700 23.85400 28.26400
C  -6.26100 22.62800 30.43600
C  -7.02900 26.40500 30.43800
C  -7.15500 26.50200 32.01200
H  -6.66700 25.47100 33.00200
N  -7.64100 23.37400 25.27100
C  -8.17600 22.64600 26.33300
C  -9.21500 21.77400 25.74300
C  -9.10500 21.95300 24.34600
C  -8.12600 22.93600 24.08400
C  -10.10800 20.98400 26.58700
C  -10.00700 21.41500 23.28500
O  -10.10800 21.95800 22.18200
C  -10.90200 20.31400 23.49400
N  -5.92100 24.97300 23.32900
C  -6.60400 24.23800 22.45500
C  -6.12000 24.37200 20.99100
C  -5.08300 25.57200 21.20100
C  -4.88400 25.67700 22.69400
C  -5.43100 23.09500 20.50100
C  -5.50100 26.96900 20.66400
C  -4.86000 27.51000 19.29400
N  -4.51600 26.04900 25.68300
C  -3.77800 26.69700 24.69200
C  -2.82400 27.59100 25.29300
C  -3.13300 27.55800 26.66600
C  -4.13600 26.58000 26.85200
C  -1.88800 28.47600 24.54800
C  -2.82400 28.19000 27.94100
O  -2.02900 29.08200 28.22200
C  -3.80600 27.43900 28.98400
C  -2.88200 26.71400 29.93700
O  -1.85700 26.21500 29.60700
O  -3.29100 26.83200 31.23700
C  -2.46200 26.23200 32.34600
H  -8.18300 22.16500 28.46500
H  -7.91200 22.90800 21.88600
H  -3.17600 26.98300 22.64300
H  -5.23600 25.01000 30.64800
H  -7.91400 24.03400 30.25700
H  -5.74700 22.92200 31.35000
H  -5.63900 22.07000 29.73500
H  -7.20600 22.09600 30.55100
H  -8.06000 26.27100 30.10900
H  -6.60400 27.30800 30.00100
H  -8.23400 26.48700 32.16600
H  -6.75100 27.46200 32.33200
H  -9.68400 19.98100 26.54000
H  -11.15800 21.01700 26.29700
H  -10.15800 21.47100 27.56100
H  -10.32500 19.50000 23.93200
H  -11.25000 20.04800 22.49600
H  -11.70500 20.67700 24.13600
H  -6.92800 24.69400 20.33500
H  -4.07200 25.40400 20.83100
H  -5.58200 22.21300 21.12400
H  -4.36000 23.23600 20.35900
H  -5.88500 22.78000 19.56200
H  -5.25500 27.78500 21.34300
H  -6.57200 26.99300 20.46400
H  -5.69000 27.80400 18.65100
H  -4.34200 26.66400 18.84200
H  -4.10100 28.28600 19.38700
H  -1.29500 29.06800 25.24400
H  -2.44100 29.11800 23.86200
H  -1.23000 27.76600 24.04600
H  -4.43100 28.19900 29.45300
H  -2.07900 25.22400 32.19000
H  -3.07200 26.36000 33.24000
H  -1.61700 26.91000 32.46500

