158

Mg 35.63300 1.75100 29.08000
C  33.60500 2.83700 31.65100
C  38.18700 1.30800 31.30900
C  37.70400 1.31300 26.61600
C  32.96200 2.24100 26.83500
N  35.83600 2.27200 31.21700
C  34.88900 2.54000 32.14300
C  35.39700 2.32300 33.57500
C  36.90500 2.11000 33.31800
C  37.00100 1.92000 31.84500
C  37.72600 3.38000 33.75000
C  34.69100 1.20300 34.40800
C  34.05800 1.59600 35.77400
H  34.64600 2.79000 36.50400
N  37.62500 1.16800 28.93500
C  38.46900 0.95900 29.98900
C  39.72200 0.59200 29.54500
C  39.66100 0.76200 28.09100
C  38.28500 1.05400 27.81800
C  40.93700 0.26800 30.49700
C  40.70200 0.48500 27.00800
O  40.48800 0.74000 25.88200
C  42.07300 -0.13800 27.32900
N  35.31500 1.83800 26.99800
C  36.42300 1.64900 26.19100
C  36.04700 1.75900 24.65800
C  34.52000 1.91000 24.77300
C  34.19000 1.92300 26.27100
C  36.75600 2.87600 23.83200
C  33.71400 0.83800 23.98600
C  33.06400 1.42800 22.71000
N  33.65600 2.47500 29.14500
C  32.66200 2.54200 28.21100
C  31.54200 3.18200 28.75600
C  31.80700 3.28100 30.12000
C  33.15500 2.77700 30.30400
C  30.24300 3.56400 27.99900
C  31.27500 3.62000 31.40600
O  30.11600 3.86100 31.75600
C  32.43200 3.36700 32.52200
C  32.67600 4.60000 33.34000
O  33.58300 5.42100 33.15600
O  31.69700 4.66200 34.32000
C  31.86400 5.89400 35.08900
H  38.89700 1.06600 32.10300
H  38.36400 1.17900 25.75700
H  32.24200 2.44700 26.04100
H  35.24000 3.20600 34.19500
H  37.33700 1.20700 33.74700
H  38.31500 3.63700 32.87000
H  38.46000 3.18500 34.53200
H  37.11300 4.27000 33.89000
H  35.43100 0.42300 34.58700
H  33.85500 0.84500 33.80800
H  34.27800 0.74500 36.41900
H  33.01400 1.69100 35.47400
H  41.18600 -0.79200 30.46000
H  40.71500 0.44700 31.54900
H  41.71100 0.94300 30.13200
H  42.08600 -0.78100 28.20900
H  42.76000 0.68100 27.54200
H  42.35300 -0.77400 26.49000
H  36.23300 0.76800 24.24400
H  34.23500 2.89700 24.41100
H  36.09100 3.45300 23.19000
H  37.40200 2.30100 23.16800
H  37.29400 3.64800 24.38300
H  33.02800 0.39400 24.70700
H  34.42900 0.08700 23.65000
H  33.37500 2.45300 22.50800
H  31.98300 1.40200 22.84600
H  33.40300 0.76800 21.91100
H  30.37900 4.23300 27.15000
H  29.42400 4.05400 28.52600
H  29.81700 2.71800 27.45800
H  32.08100 2.63100 33.24500
H  30.99900 6.01800 35.74000
H  31.98600 6.82600 34.53700
H  32.64100 5.54100 35.76700
Mg -5.63200 25.43600 26.31000
C  -4.19600 26.65700 29.18500
C  -7.54900 23.40800 28.04800
C  -6.49000 24.05500 23.36600
C  -3.35900 27.54100 24.41300
N  -5.75000 25.07200 28.38600
C  -5.17800 25.69200 29.43700
C  -5.78300 25.27300 30.79000
C  -6.62600 24.01700 30.36200
C  -6.64700 24.15000 28.88100
C  -6.05100 22.67100 30.85600
C  -6.57700 26.45300 31.38700
C  -6.41200 26.73400 32.86600
H  -5.91400 25.50000 33.73600
N  -6.83700 23.92400 25.78300
C  -7.64700 23.23100 26.65700
C  -8.62100 22.37000 25.91800
C  -8.23000 22.49100 24.55300
C  -7.14500 23.52900 24.49700
C  -9.86800 21.77500 26.61200
C  -8.83400 21.76800 23.31900
O  -8.41100 21.99900 22.17200
C  -9.99700 20.73700 23.48800
N  -4.74800 25.54800 24.19700
C  -5.47700 24.98000 23.17600
C  -5.00700 25.46600 21.80500
C  -4.22300 26.74900 22.16400
C  -4.09100 26.61300 23.64900
C  -4.10000 24.43200 20.99400
C  -5.06100 28.08200 21.79800
C  -4.10400 29.18600 21.30800
N  -4.15600 26.86600 26.65800
C  -3.31200 27.59200 25.85600
C  -2.50300 28.48900 26.61600
C  -2.74700 28.12700 27.95300
C  -3.78500 27.13700 27.85600
C  -1.44100 29.50000 26.00800
C  -2.40600 28.28100 29.34500
O  -1.59900 29.01600 29.90800
C  -3.38900 27.37800 30.15000
C  -2.53900 26.50100 31.03800
O  -1.98200 25.46000 30.67700
O  -2.51600 27.03200 32.30900
C  -1.83000 26.11500 33.29900
H  -8.27000 22.88800 28.68300
H  -7.04200 23.71900 22.48500
H  -2.73200 28.19700 23.80700
H  -4.91700 25.10300 31.42800
H  -7.61700 24.11800 30.80300
H  -5.71100 22.78800 31.88500
H  -5.37200 22.25500 30.11100
H  -6.75100 21.83600 30.88100
H  -7.64100 26.41200 31.15600
H  -6.15600 27.31500 30.87100
H  -7.43200 26.95500 33.18100
H  -5.77100 27.58000 33.11200
H  -9.44200 20.94400 27.17400
H  -10.69300 21.48600 25.96100
H  -10.34500 22.51500 27.25400
H  -9.89600 20.01000 24.29400
H  -10.13000 20.23400 22.53000
H  -10.91200 21.32400 23.55900
H  -5.94600 25.53000 21.25500
H  -3.20300 26.75700 21.78000
H  -4.67000 24.11800 20.12000
H  -3.90300 23.64800 21.72500
H  -3.13100 24.82900 20.69100
H  -5.58500 28.51500 22.65000
H  -5.83400 27.95000 21.04100
H  -4.46400 29.53700 20.34100
H  -3.08200 28.84500 21.14100
H  -4.03400 30.00200 22.02700
H  -1.68900 30.49800 26.36700
H  -1.34200 29.44500 24.92400
H  -0.50600 29.28800 26.52700
H  -4.02000 27.93200 30.84500
H  -0.79700 25.93400 33.00300
H  -2.29800 25.13100 33.25900
H  -1.96700 26.57800 34.27700

