158

Mg -2.77000 16.77800 26.69800
C  -3.18400 14.65200 29.46600
C  -3.08000 19.48400 28.81800
C  -2.35900 18.80000 24.01700
C  -2.67200 13.99700 24.53500
N  -2.97000 16.96900 28.91000
C  -3.13900 15.93100 29.82900
C  -3.23700 16.47300 31.22800
C  -3.26300 18.11800 30.95100
C  -3.06200 18.25400 29.46600
C  -4.60500 18.75200 31.37500
C  -2.21600 15.88100 32.22400
C  -1.71900 16.71200 33.32300
H  -1.36900 16.10000 34.64500
N  -2.84800 18.78900 26.46000
C  -2.94600 19.76500 27.44200
C  -2.81600 21.06900 26.88000
C  -2.59400 20.91000 25.48100
C  -2.64000 19.45400 25.22400
C  -2.78700 22.41200 27.64000
C  -2.18000 21.94400 24.39500
O  -1.97500 21.61900 23.23200
C  -1.80100 23.38400 24.85000
N  -2.40900 16.43900 24.63600
C  -2.30900 17.44900 23.79800
C  -2.15500 16.96400 22.31700
C  -2.16800 15.35200 22.48200
C  -2.38800 15.25200 23.98400
C  -3.38700 17.28900 21.44000
C  -0.84200 14.68700 22.01000
C  -0.98700 13.94100 20.66800
N  -2.95500 14.71800 26.93200
C  -2.94200 13.71500 25.92200
C  -3.19800 12.40000 26.59100
C  -3.24300 12.75100 28.01200
C  -3.05700 14.14200 28.18900
C  -3.44500 11.11700 25.99800
C  -3.48200 12.21800 29.33200
O  -3.63900 11.02900 29.68900
C  -3.40600 13.42700 30.34200
C  -2.26100 13.12400 31.25500
O  -1.09500 13.25400 30.88700
O  -2.58400 12.56900 32.51100
C  -1.44300 11.92300 33.19700
H  -3.02700 20.34200 29.49200
H  -2.21600 19.35600 23.08900
H  -2.54700 13.12400 23.89100
H  -4.23700 16.19300 31.56100
H  -2.36200 18.48200 31.44400
H  -4.39400 19.41200 32.21600
H  -5.30400 17.94300 31.58700
H  -5.06400 19.28500 30.54200
H  -1.34600 15.45300 31.72600
H  -2.71700 15.03700 32.69700
H  -2.38600 17.56000 33.48300
H  -0.77300 17.20200 33.08800
H  -3.03000 22.39400 28.70200
H  -3.46200 23.14000 27.18900
H  -1.77800 22.77100 27.44000
H  -2.68500 23.79000 25.34100
H  -1.58000 24.05100 24.01600
H  -0.88300 23.18800 25.40500
H  -1.29500 17.37900 21.79100
H  -2.94000 14.75300 21.99900
H  -4.22700 17.65100 22.03300
H  -3.83400 16.42100 20.95500
H  -3.03400 17.94900 20.64800
H  -0.36500 14.15300 22.83300
H  -0.13400 15.48600 21.78900
H  -1.97000 13.49100 20.52800
H  -0.27500 13.13500 20.84700
H  -0.58800 14.65900 19.95100
H  -3.63600 11.26800 24.93600
H  -4.29600 10.67700 26.51800
H  -2.55000 10.54700 26.24900
H  -4.31600 13.38300 30.94000
H  -1.66300 10.85900 33.28100
H  -1.43200 12.42100 34.16700
H  -0.48900 12.02400 32.68000
Mg -5.55900 25.09100 25.84800
C  -3.95800 26.39700 28.78200
C  -7.58300 23.19800 28.01300
C  -6.90900 23.74300 23.16800
C  -3.25400 26.74100 23.93200
N  -5.57900 24.68100 28.06900
C  -4.90600 25.43500 29.03900
C  -5.55200 25.21900 30.39100
C  -6.43400 23.87500 30.18500
C  -6.62400 23.98500 28.67400
C  -5.67600 22.61100 30.66700
C  -6.42000 26.40800 30.94700
C  -6.46700 26.49300 32.50600
H  -6.02800 25.37700 33.48100
N  -7.01200 23.65300 25.65000
C  -7.75700 23.03300 26.67700
C  -8.71300 22.15800 25.98700
C  -8.50900 22.26500 24.56900
C  -7.46600 23.28900 24.38200
C  -9.64600 21.26500 26.76300
C  -9.12500 21.52800 23.42600
O  -8.79700 21.61400 22.23600
C  -10.10600 20.49800 23.76500
N  -5.14100 25.19100 23.81000
C  -5.86600 24.56000 22.91000
C  -5.30400 24.76300 21.55600
C  -4.17400 25.85700 21.76400
C  -4.13400 25.88700 23.21700
C  -4.92000 23.48600 20.84900
C  -4.42200 27.22200 21.07200
C  -4.72600 27.25700 19.56400
N  -4.06800 26.42900 26.24200
C  -3.22900 27.03800 25.32800
C  -2.22700 27.84300 25.95500
C  -2.46000 27.58200 27.36200
C  -3.61400 26.79200 27.46300
C  -0.96200 28.44800 25.29200
C  -1.98000 27.79600 28.72500
O  -0.96300 28.32200 29.13700
C  -3.07600 27.26900 29.68800
C  -2.40300 26.46100 30.72000
O  -1.91300 25.34300 30.48800
O  -2.33300 27.07800 31.91600
C  -1.78600 26.29900 33.02700
H  -8.18800 22.72000 28.78600
H  -7.37600 23.46700 22.22100
H  -2.40700 27.15100 23.37800
H  -4.72200 24.94400 31.04200
H  -7.35200 24.00100 30.75900
H  -4.68400 22.82800 31.06300
H  -5.64200 21.80100 29.93800
H  -6.19000 22.19300 31.53300
H  -7.46100 26.34000 30.62900
H  -5.86500 27.27500 30.59100
H  -7.40800 26.89500 32.88000
H  -5.72700 27.24800 32.77000
H  -9.48800 20.20000 26.59200
H  -10.71200 21.43900 26.61700
H  -9.51500 21.48800 27.82200
H  -10.61100 20.23600 22.83600
H  -10.90600 20.78400 24.44800
H  -9.57200 19.70200 24.28400
H  -6.07800 25.18300 20.91300
H  -3.25400 25.39700 21.40400
H  -5.01300 22.62900 21.51500
H  -3.89400 23.50800 20.48300
H  -5.59400 23.21700 20.03500
H  -3.58800 27.90600 21.23100
H  -5.23300 27.80500 21.50900
H  -4.78800 26.23200 19.19900
H  -3.91200 27.83300 19.12500
H  -5.66300 27.78800 19.39700
H  -1.21000 29.51000 25.27000
H  -0.74800 27.96800 24.33700
H  -0.03900 28.36400 25.86500
H  -3.64000 28.09800 30.11500
H  -0.71900 26.08500 32.96400
H  -2.27900 25.35300 33.25200
H  -1.94500 26.92400 33.90500

