158

Mg 45.53300 4.46200 47.90200
C  43.01900 7.02100 47.23600
C  42.97400 2.20900 47.56200
C  47.91600 2.16200 47.68500
C  47.93200 7.03500 47.66700
N  43.21200 4.62200 47.50700
C  42.48400 5.76600 47.25600
C  41.02300 5.38900 46.91900
C  40.94400 3.82400 47.22600
C  42.48200 3.54400 47.51300
C  40.15100 3.56500 48.45600
C  40.56600 5.65900 45.48200
C  39.18600 6.30700 45.46500
H  38.51200 6.36100 43.97000
N  45.43700 2.44000 47.76300
C  44.29700 1.65300 47.58400
C  44.73500 0.28400 47.61800
C  46.09300 0.19500 47.68800
C  46.58200 1.61500 47.71000
C  43.74100 -0.83600 47.60200
C  47.00200 -1.02400 47.52200
O  46.45700 -2.11200 47.41400
C  48.43000 -1.00200 47.39300
N  47.62200 4.58300 47.53100
C  48.40800 3.46900 47.67100
C  49.91400 3.85200 47.80200
C  49.89000 5.39300 47.73000
C  48.38400 5.70600 47.61500
C  50.61700 3.22600 49.07100
C  50.83000 6.19900 46.72800
C  51.72700 7.32400 47.26500
N  45.57300 6.57900 47.53100
C  46.59500 7.45200 47.65800
C  46.08700 8.78700 47.63200
C  44.71000 8.68000 47.46100
C  44.39100 7.34400 47.41500
C  46.80100 10.03200 47.61400
C  43.46400 9.45900 47.24900
O  43.26000 10.67700 47.16100
C  42.30600 8.34800 47.12300
C  41.37800 8.57200 48.25400
O  41.74700 8.37300 49.40900
O  40.08500 8.69100 47.85400
C  39.04100 8.51000 48.94700
H  42.14700 1.49800 47.62200
H  48.64300 1.35100 47.77000
H  48.78500 7.70700 47.78100
H  40.43800 6.03800 47.57000
H  40.47900 3.30500 46.38800
H  39.14600 3.24700 48.18000
H  40.05700 4.52700 48.96000
H  40.56800 2.77800 49.08500
H  40.43800 4.72300 44.93900
H  41.20700 6.39000 44.98900
H  39.31200 7.35400 45.73800
H  38.54000 5.90900 46.24700
H  43.67400 -1.17500 46.56800
H  42.76300 -0.44400 47.88200
H  44.03800 -1.65800 48.25400
H  48.72400 -0.26400 46.64700
H  48.75800 -1.75600 46.67800
H  48.99300 -1.14400 48.31600
H  50.42800 3.46200 46.92300
H  50.06100 5.73600 48.75000
H  49.93800 2.49400 49.50900
H  50.87700 3.95100 49.84100
H  51.45800 2.61900 48.73500
H  50.29800 6.63200 45.88000
H  51.43400 5.46500 46.19500
H  51.24100 7.76700 48.13500
H  51.96500 7.99400 46.43900
H  52.58700 6.69700 47.50100
H  47.82300 10.01500 47.23600
H  46.93700 10.38600 48.63600
H  46.29900 10.78800 47.01000
H  41.81900 8.43900 46.15200
H  39.07600 9.34600 49.64600
H  39.31300 7.57600 49.43800
H  38.06900 8.53400 48.45300
Mg 6.36400 55.05100 39.92300
C  6.00900 51.60600 40.07400
C  9.79000 54.54700 39.24900
C  6.68800 58.35600 39.21700
C  2.89700 55.30000 39.95500
N  7.72900 53.21900 39.56900
C  7.39500 51.94700 39.75300
C  8.64600 51.02400 39.73400
C  9.83500 52.08100 39.75500
C  9.08100 53.37700 39.43000
C  10.70000 52.18100 41.05500
C  8.90100 50.05500 38.52400
C  9.32400 50.54800 37.12300
H  8.64500 49.90700 35.87500
N  8.01800 56.37400 39.36500
C  9.33400 55.91800 39.11800
C  10.06700 57.10000 38.88700
C  9.23200 58.25900 39.00200
C  7.93800 57.72400 39.22200
C  11.58400 57.05400 38.70100
C  9.76100 59.67200 38.86600
O  11.01100 59.91600 38.75900
C  8.90900 60.89100 38.87700
N  5.03100 56.55800 39.41800
C  5.42900 57.86500 39.32400
C  4.22600 58.87600 39.31600
C  2.97700 57.83800 39.36600
C  3.68600 56.46800 39.62200
C  4.28700 59.86700 40.48800
C  2.05700 57.80900 38.12900
C  0.58200 57.37200 38.41500
N  4.76300 53.78000 39.98400
C  3.38000 54.01100 40.16000
C  2.74100 52.76000 40.46500
C  3.77300 51.82500 40.52600
C  4.92200 52.49600 40.12100
C  1.28100 52.60000 40.90200
C  4.02900 50.43700 40.79100
O  3.28300 49.47800 41.12500
C  5.48200 50.18100 40.31300
C  5.43800 49.34200 39.10300
O  4.94500 49.73900 38.07200
O  5.90600 47.98200 39.32600
C  5.43000 46.95700 38.35800
H  10.86900 54.38400 39.19900
H  6.80500 59.44200 39.21600
H  1.81800 55.39100 40.09600
H  8.56400 50.41700 40.63500
H  10.44000 52.05400 38.84900
H  10.70000 53.17300 41.50700
H  11.75400 51.97000 40.87100
H  10.28000 51.45500 41.75100
H  7.99700 49.46100 38.38600
H  9.61400 49.33900 38.93100
H  10.39500 50.36500 37.03500
H  9.29100 51.63400 37.04100
H  11.95100 57.66200 37.87400
H  11.91800 56.02200 38.58700
H  11.93800 57.39500 39.67300
H  9.55500 61.73600 38.63700
H  8.34000 60.85200 39.80600
H  8.30800 60.70600 37.98700
H  4.24100 59.41600 38.36900
H  2.43700 58.09700 40.27700
H  5.19800 59.95300 41.08100
H  3.51500 59.74700 41.24800
H  4.17100 60.85000 40.03100
H  2.50200 57.11500 37.41600
H  2.00400 58.74800 37.57900
H  0.48200 57.29500 39.49700
H  0.44000 56.41200 37.91900
H  -0.18400 58.09600 38.13800
H  0.60600 53.45600 40.87700
H  1.16200 52.20900 41.91200
H  0.81200 51.79600 40.33500
H  6.04500 49.59000 41.03500
H  5.91900 47.00500 37.38500
H  4.34900 47.04200 38.24700
H  5.63200 45.94600 38.71200

