158

Mg 2.41600 -1.01500 44.42000
C  5.64500 -0.09200 43.37500
C  1.17300 1.61900 42.65500
C  -0.68500 -2.34400 44.68400
C  3.89000 -3.87000 45.80700
N  3.34100 0.57500 43.26800
C  4.65200 0.76900 42.92500
C  4.81100 2.05300 42.14900
C  3.48500 2.78800 42.33700
C  2.56300 1.50800 42.69500
C  3.51500 3.90600 43.36800
C  5.10700 1.81700 40.59600
C  6.51100 2.16500 40.10100
H  6.58600 2.89000 38.74000
N  0.46400 -0.42000 43.76800
C  0.18700 0.79200 43.16800
C  -1.29400 0.95200 43.12700
C  -1.85700 -0.22600 43.72800
C  -0.68100 -1.03600 44.08900
C  -1.91200 2.11500 42.49000
C  -3.33100 -0.52600 43.82900
O  -4.18600 0.25000 43.40800
C  -3.90000 -1.72500 44.53900
N  1.72900 -2.85900 45.24600
C  0.43200 -3.15800 45.19100
C  0.21200 -4.53000 45.81700
C  1.60100 -4.98700 46.33600
C  2.48000 -3.87100 45.76500
C  -1.00900 -4.71000 46.77700
C  2.04900 -6.50900 46.10200
C  2.50400 -7.42100 47.24300
N  4.29700 -1.85300 44.59300
C  4.73800 -2.93800 45.29200
C  6.17300 -2.97300 45.35700
C  6.57100 -1.89000 44.57400
C  5.42300 -1.26800 44.07400
C  7.07900 -4.03900 45.98700
C  7.68900 -1.24200 44.07800
O  8.89100 -1.51300 44.14800
C  7.14500 0.04800 43.36600
C  7.63700 1.31700 43.96000
O  7.45600 1.69800 45.11700
O  8.45500 1.89300 43.10400
C  9.24500 3.05500 43.58600
H  0.73900 2.55400 42.29500
H  -1.64800 -2.84700 44.79000
H  4.37000 -4.78300 46.16500
H  5.54500 2.70400 42.62400
H  2.99600 3.28700 41.49900
H  4.51200 4.31200 43.54000
H  3.19800 3.47500 44.31800
H  2.99900 4.78000 42.97300
H  4.35100 2.36200 40.03100
H  5.01300 0.74900 40.39900
H  7.10400 1.25500 40.00800
H  7.06700 2.76200 40.82400
H  -2.34400 2.86200 43.15500
H  -2.74100 1.76900 41.87200
H  -1.18700 2.74900 41.98000
H  -3.63000 -2.58200 43.92100
H  -4.97700 -1.67300 44.70100
H  -3.52000 -1.74900 45.56100
H  -0.00200 -5.20800 44.99200
H  1.66900 -4.82600 47.41200
H  -1.69900 -3.86600 46.79500
H  -0.68800 -4.81100 47.81300
H  -1.62300 -5.53800 46.42100
H  2.94600 -6.44100 45.48700
H  1.13700 -6.85000 45.61200
H  2.66200 -6.91400 48.19400
H  3.46200 -7.90000 47.04100
H  1.80800 -8.25900 47.23100
H  6.43800 -4.51200 46.73100
H  7.89300 -3.51100 46.48300
H  7.57100 -4.62000 45.20700
H  7.59700 -0.05900 42.38000
H  8.60100 3.93400 43.56700
H  10.10900 3.10500 42.92300
H  9.54400 2.97100 44.63100
Mg -4.87700 24.89000 26.59500
C  -3.34800 26.31000 29.38000
C  -6.30500 22.46500 28.60600
C  -6.23900 23.42600 23.88900
C  -3.08200 27.14700 24.58300
N  -4.83000 24.44800 28.72800
C  -4.28200 25.30000 29.63100
C  -4.80600 24.95900 31.06400
C  -5.47500 23.49100 30.91400
C  -5.58700 23.48000 29.31800
C  -4.76900 22.35000 31.73200
C  -5.81600 26.11200 31.48800
C  -6.01000 26.16600 32.99100
H  -5.52200 25.03000 33.88400
N  -6.00600 23.16300 26.28900
C  -6.50300 22.26500 27.26100
C  -7.30100 21.25300 26.59600
C  -7.29100 21.52300 25.22600
C  -6.46700 22.74700 25.05700
C  -8.00800 20.19000 27.41000
C  -8.03400 20.84800 24.01100
O  -7.86500 21.17000 22.86800
C  -8.97900 19.68100 24.32500
N  -4.78000 25.27300 24.56600
C  -5.49900 24.56400 23.66000
C  -5.07000 25.00900 22.26800
C  -4.05700 26.19600 22.44800
C  -3.98100 26.16900 23.97900
C  -4.47000 23.88800 21.27700
C  -4.35300 27.61700 21.86400
C  -3.08800 28.26700 21.10700
N  -3.50300 26.42100 26.94300
C  -2.86300 27.24700 26.01200
C  -2.06800 28.31100 26.70700
C  -2.23200 27.93100 28.10500
C  -3.07700 26.76500 28.08200
C  -1.13200 29.35400 26.09200
C  -1.76100 28.21000 29.48300
O  -1.02200 29.12400 29.88500
C  -2.63800 27.27400 30.35200
C  -1.62900 26.61500 31.26100
O  -0.67900 25.91000 30.95900
O  -1.99700 26.96900 32.56300
C  -1.08500 26.49700 33.59600
H  -6.78400 21.80000 29.32700
H  -6.61200 23.00800 22.95200
H  -2.41000 27.66600 23.89600
H  -3.89000 24.91900 31.65400
H  -6.50100 23.56600 31.27300
H  -5.35100 21.82300 32.48800
H  -3.85500 22.77400 32.14800
H  -4.52700 21.57900 31.00000
H  -6.83500 25.86300 31.19000
H  -5.33500 27.07000 31.29200
H  -7.08300 26.17800 33.18200
H  -5.61800 27.10900 33.37000
H  -9.03700 19.94700 27.14600
H  -8.17200 20.38900 28.46900
H  -7.39100 19.29200 27.45900
H  -8.35700 18.92700 24.80800
H  -9.36600 19.38000 23.35200
H  -9.83200 19.97500 24.93600
H  -5.98400 25.39500 21.81700
H  -3.05800 25.98100 22.07000
H  -3.43700 23.66000 21.53800
H  -4.48300 24.27700 20.25800
H  -5.14600 23.03500 21.33200
H  -4.71200 28.30900 22.62700
H  -5.17300 27.48000 21.15900
H  -3.23300 28.28100 20.02700
H  -2.12900 27.76200 21.23200
H  -2.84100 29.25200 21.50100
H  -0.26200 29.45300 26.74000
H  -1.58700 30.31400 25.85100
H  -0.71700 28.93400 25.17500
H  -3.32000 27.84500 30.98100
H  -1.63400 26.22600 34.49800
H  -0.38500 27.32800 33.68800
H  -0.53300 25.61100 33.28500

