158

Mg 16.88100 -1.24900 28.24800
C  15.60100 0.71300 30.86500
C  18.86800 -2.93300 30.50700
C  18.11600 -3.16400 25.67800
C  15.18500 0.75600 26.01700
N  17.23500 -1.11600 30.40500
C  16.55200 -0.25800 31.25800
C  17.03300 -0.54600 32.69300
C  18.21400 -1.48800 32.58100
C  18.15600 -1.84900 31.07100
C  19.68700 -0.97100 32.82400
C  15.87200 -0.99500 33.65300
C  16.06200 -0.60200 35.13800
H  17.34400 0.23300 35.56000
N  18.14600 -2.85000 28.11100
C  18.76600 -3.42500 29.20300
C  19.53200 -4.59400 28.73900
C  19.31600 -4.78500 27.32200
C  18.53600 -3.55300 26.98200
C  20.33400 -5.35900 29.84800
C  19.73200 -5.89900 26.36900
O  19.55200 -5.89200 25.15100
C  20.44300 -7.03100 26.85700
N  16.77400 -1.12300 26.13700
C  17.31100 -2.11200 25.33900
C  16.91300 -1.78500 23.92400
C  15.86200 -0.65600 24.02800
C  15.90800 -0.27900 25.47900
C  18.15700 -1.54500 23.04900
C  14.44800 -1.11100 23.64000
C  13.83400 -0.32600 22.44300
N  15.59500 0.37600 28.37600
C  15.05300 1.07600 27.41600
C  14.27600 2.15000 27.96600
C  14.45000 1.99200 29.33500
C  15.31500 0.94400 29.54800
C  13.47900 3.03100 27.23900
C  14.05000 2.58200 30.54100
O  13.22800 3.49300 30.72200
C  14.89600 1.79100 31.72800
C  15.80500 2.87500 32.49900
O  16.67500 3.55700 31.94900
O  15.51000 2.98100 33.82800
C  16.25900 4.11700 34.39100
H  19.45400 -3.42600 31.28600
H  18.52500 -3.70900 24.82500
H  14.62800 1.39400 25.32900
H  17.51500 0.38200 33.00000
H  18.20300 -2.32900 33.27400
H  20.21000 -1.79700 33.30700
H  19.74900 -0.09900 33.47400
H  20.17900 -0.72600 31.88200
H  15.90100 -2.08100 33.56400
H  14.92400 -0.66000 33.23200
H  16.06000 -1.49300 35.76600
H  15.11900 -0.08900 35.33000
H  19.67600 -5.35000 30.71700
H  21.16800 -4.79100 30.26000
H  20.60100 -6.38800 29.60900
H  20.90600 -7.56400 26.02600
H  19.73700 -7.73400 27.29800
H  21.20300 -6.72200 27.57500
H  16.34300 -2.63300 23.54300
H  16.15800 0.22200 23.45400
H  18.28000 -0.46900 22.93000
H  18.03300 -2.10200 22.12000
H  19.09700 -1.91300 23.46100
H  13.87700 -1.02500 24.56500
H  14.40200 -2.19200 23.50500
H  14.40800 0.59100 22.31200
H  12.79500 -0.17000 22.73000
H  13.82400 -0.94800 21.54700
H  12.45500 2.65800 27.22400
H  13.84100 3.27100 26.23900
H  13.57800 3.91400 27.87100
H  14.18400 1.24300 32.34600
H  16.10600 4.16000 35.46900
H  15.86200 4.96600 33.83400
H  17.33300 4.04000 34.22300
Mg 42.34900 40.67300 26.44600
C  41.49900 43.13600 28.69700
C  43.22700 38.63200 29.01400
C  43.16600 38.35000 24.13000
C  41.98500 42.95800 23.70800
N  42.53600 40.99300 28.62400
C  41.81000 41.91100 29.30600
C  41.72300 41.58600 30.79000
C  42.52900 40.20400 30.91000
C  42.86800 39.96100 29.43600
C  43.84700 40.19900 31.77000
C  40.26500 41.55700 31.40300
C  40.08000 42.49200 32.60100
H  39.41300 42.03100 33.87400
N  43.09800 38.73700 26.56900
C  43.43600 38.08500 27.72600
C  43.94100 36.78800 27.42200
C  43.81500 36.62500 25.96000
C  43.32800 37.94700 25.48100
C  44.28400 35.81900 28.56600
C  44.10900 35.44300 25.13800
O  43.91500 35.44000 23.91300
C  44.60500 34.12400 25.76200
N  42.66600 40.66300 24.19400
C  42.86300 39.53200 23.50800
C  42.64900 39.72400 21.94400
C  42.42300 41.28100 21.84300
C  42.28300 41.63800 23.32300
C  43.86000 39.19500 21.20300
C  41.10300 41.59000 20.90800
C  41.30900 42.85800 20.08600
N  41.91700 42.59300 26.26700
C  41.82000 43.40900 25.08600
C  41.39300 44.74400 25.46200
C  41.15100 44.68900 26.86700
C  41.61800 43.38300 27.32000
C  41.16400 45.97700 24.68500
C  40.87400 45.47700 28.08700
O  40.49100 46.61800 28.21000
C  40.90800 44.48000 29.26500
C  41.74800 45.15600 30.38800
O  42.93900 44.98700 30.51200
O  40.92000 45.70200 31.32400
C  41.48100 45.93400 32.61000
H  43.39800 37.94000 29.84100
H  43.23900 37.61300 23.32700
H  41.89400 43.73100 22.94300
H  42.27900 42.30800 31.38900
H  41.81000 39.44300 31.21500
H  44.68200 40.04700 31.08700
H  43.81900 39.40800 32.51900
H  43.93600 41.13400 32.32400
H  39.84800 40.56000 31.54100
H  39.62500 41.93000 30.60400
H  39.48500 43.31700 32.21000
H  41.00100 42.99000 32.90400
H  44.47100 34.78400 28.28000
H  43.43200 35.68700 29.23300
H  45.06800 36.28300 29.16600
H  45.55200 34.28700 26.27600
H  44.70700 33.27900 25.08100
H  43.86000 33.79400 26.48600
H  41.75300 39.23300 21.56200
H  43.31800 41.68900 21.37300
H  44.59200 38.88600 21.94900
H  44.36700 39.87200 20.51500
H  43.60300 38.33600 20.58400
H  40.27000 41.77900 21.58600
H  41.02800 40.70600 20.27500
H  40.48100 43.08500 19.41500
H  42.21700 42.89900 19.48400
H  41.45300 43.70400 20.75800
H  41.32000 46.90700 25.23200
H  40.12000 45.84300 24.40300
H  41.76600 45.90300 23.77900
H  39.89800 44.24000 29.59800
H  42.55000 45.74400 32.69600
H  40.96300 45.33100 33.35600
H  41.41700 46.99200 32.86400

