158

Mg 40.86400 9.53100 29.32700
C  42.81500 10.90900 32.12200
C  38.75700 8.25300 31.83900
C  39.14500 8.29700 26.95000
C  43.48500 10.45800 27.19300
N  40.82500 9.70900 31.75500
C  41.66000 10.29600 32.63700
C  41.19000 10.16600 34.15100
C  40.13100 8.94500 34.00500
C  39.85400 8.99500 32.47100
C  40.59600 7.47000 34.39600
C  40.71700 11.44000 34.87200
C  41.56400 11.95900 36.04700
H  40.80700 12.49100 37.33600
N  39.20400 8.37000 29.32800
C  38.42800 8.01500 30.46300
C  37.24700 7.35800 29.92600
C  37.28500 7.48400 28.54100
C  38.53800 8.06600 28.19300
C  36.12900 6.92200 30.87900
C  36.14700 7.14300 27.55400
O  36.32800 7.28500 26.33700
C  34.84100 6.69800 27.99300
N  41.17800 9.42400 27.37400
C  40.28500 8.85200 26.53900
C  40.90800 8.77500 25.08600
C  42.16100 9.63700 25.14900
C  42.28600 9.92700 26.62900
C  41.08800 7.33200 24.45400
C  42.10800 10.93700 24.28200
C  43.10400 10.95900 23.12000
N  42.79700 10.42400 29.56300
C  43.71800 10.71200 28.55100
C  44.88900 11.33400 29.16100
C  44.55800 11.50500 30.50600
C  43.30300 10.89900 30.74300
C  46.15700 11.76800 28.41200
C  44.91900 12.08700 31.85000
O  45.94300 12.66700 32.20000
C  43.88200 11.67100 32.86100
C  44.52200 10.90900 33.91500
O  44.97100 9.78600 33.83900
O  44.64800 11.70900 35.02100
C  45.47800 11.17700 36.05400
H  38.19100 7.72500 32.60900
H  38.50100 7.91600 26.15400
H  44.32200 10.80800 26.58600
H  42.01600 9.78900 34.75400
H  39.18500 9.10700 34.52200
H  41.60900 7.50600 34.79700
H  40.56900 6.70400 33.62200
H  39.96400 7.17700 35.23400
H  39.68400 11.27300 35.17700
H  40.65400 12.18000 34.07400
H  42.27400 12.64000 35.57900
H  42.10000 11.06500 36.36800
H  35.34000 7.67200 30.91000
H  36.50800 6.90000 31.90100
H  35.79400 5.91400 30.63400
H  34.52700 7.37100 28.79100
H  35.02200 5.73500 28.47000
H  34.25800 6.65800 27.07300
H  40.20500 9.15000 24.34300
H  43.02300 9.06100 24.81600
H  42.08900 6.92100 24.59100
H  40.82800 7.31000 23.39600
H  40.40300 6.63300 24.93400
H  42.17700 11.83100 24.90200
H  41.14500 11.00300 23.77700
H  43.86200 11.74200 23.14900
H  42.55500 11.15500 22.19900
H  43.66600 10.03700 22.96700
H  46.87600 12.18000 29.12000
H  45.95600 12.48900 27.61900
H  46.61300 10.88300 27.97000
H  43.69900 12.65000 33.30600
H  46.41600 10.84800 35.60800
H  44.92400 10.34900 36.49700
H  45.63400 11.94800 36.80900
Mg 48.29000 16.32100 28.19900
C  46.09700 16.04000 30.94500
C  50.42900 18.18600 30.20900
C  50.23000 16.53100 25.68900
C  45.57800 15.24600 26.12100
N  48.21000 17.03400 30.29900
C  47.29400 16.75300 31.24500
C  47.67300 17.35200 32.63500
C  48.89600 18.23100 32.30100
C  49.21500 17.81200 30.85000
C  48.76000 19.73800 32.47900
C  48.03100 16.17400 33.63100
C  47.58900 16.35500 35.01900
H  47.67300 17.81600 35.61100
N  50.13700 17.10100 28.01400
C  50.94200 17.73700 28.93700
C  52.22500 18.01500 28.34500
C  52.15400 17.52000 27.03800
C  50.80600 17.05700 26.81300
C  53.36800 18.48200 29.23400
C  53.28900 17.49700 25.95800
O  53.10900 16.94000 24.91600
C  54.64700 18.23700 26.05500
N  47.89500 16.11600 26.15800
C  48.97400 16.06400 25.34400
C  48.69100 15.33100 23.96400
C  47.10200 15.10200 24.08100
C  46.81600 15.53000 25.52900
C  49.10100 15.95200 22.55800
C  46.53300 13.67100 23.73300
C  46.79100 12.60500 24.73200
N  46.21800 15.76800 28.42700
C  45.28100 15.28500 27.49500
C  44.09700 14.82700 28.19000
C  44.37600 15.13700 29.52900
C  45.66300 15.73600 29.62600
C  42.80300 14.23800 27.69700
C  43.78200 15.15400 30.85200
O  42.63400 14.86600 31.22100
C  44.85500 15.78700 31.86400
C  44.28700 17.08300 32.32900
O  44.20800 18.10500 31.68700
O  43.94500 16.87900 33.67900
C  43.12700 18.02700 34.18500
H  51.05300 18.90100 30.74900
H  50.77400 16.45300 24.74600
H  44.85900 14.88900 25.38200
H  46.79100 17.86200 33.02200
H  49.77300 17.99600 32.90400
H  48.97500 20.29500 31.56800
H  49.41900 20.07300 33.28000
H  47.72100 19.95600 32.72900
H  49.06800 15.83900 33.60500
H  47.42200 15.33400 33.29700
H  48.20900 15.65000 35.57300
H  46.54600 16.04100 35.02100
H  53.79600 19.41800 28.87500
H  54.26400 17.87400 29.10700
H  53.08200 18.61900 30.27700
H  55.40300 17.75600 25.43400
H  55.15500 18.15600 27.01500
H  54.45900 19.28200 25.80700
H  49.08600 14.31500 23.98600
H  46.57400 15.80700 23.43900
H  48.23700 16.06800 21.90400
H  49.85500 15.32600 22.08100
H  49.55400 16.93300 22.69900
H  46.90000 13.32000 22.76900
H  45.47000 13.79900 23.52900
H  47.37200 11.76200 24.35700
H  45.90700 12.17300 25.20100
H  47.40000 12.95700 25.56500
H  42.27400 13.71000 28.49100
H  43.05400 13.49600 26.93900
H  42.01700 14.85100 27.25600
H  44.98800 15.04900 32.65600
H  42.76700 18.68600 33.39500
H  43.72800 18.57800 34.90900
H  42.21300 17.83000 34.74600

