158

Mg 17.93800 -1.25700 27.52000
C  17.13800 0.52100 30.46100
C  19.68600 -3.53000 29.57500
C  19.13300 -2.67900 24.74800
C  16.31700 1.14100 25.64700
N  18.42700 -1.33200 29.86000
C  17.95300 -0.55100 30.81300
C  18.35000 -1.10600 32.20200
C  19.09400 -2.46200 31.87100
C  18.99100 -2.50400 30.34300
C  20.54000 -2.56100 32.43000
C  17.19000 -1.49800 33.16000
C  17.41900 -1.14000 34.63800
H  18.70500 -0.44600 35.05600
N  19.24000 -2.84600 27.21700
C  19.85300 -3.65800 28.19100
C  20.72900 -4.61800 27.49200
C  20.63000 -4.32200 26.09400
C  19.57900 -3.29200 25.95000
C  21.60200 -5.55500 28.30400
C  21.46700 -4.91300 24.90700
O  21.33500 -4.52400 23.76400
C  22.49700 -5.88300 25.15400
N  17.74500 -0.88100 25.49200
C  18.32200 -1.55900 24.51300
C  18.09100 -0.97400 23.11700
C  16.91900 0.01400 23.39800
C  16.98500 0.09800 24.93100
C  19.38400 -0.30200 22.60200
C  15.49600 -0.35700 22.77200
C  14.78100 0.83500 22.07700
N  16.93600 0.48200 27.88700
C  16.25800 1.29800 27.00700
C  15.48700 2.30000 27.76100
C  15.76800 1.98600 29.08500
C  16.72500 0.93600 29.10400
C  14.49900 3.37400 27.26900
C  15.53500 2.42000 30.48400
O  14.81500 3.36700 30.83800
C  16.36100 1.49400 31.39200
C  17.25000 2.32500 32.21100
O  18.28200 2.74500 31.78100
O  16.61900 2.59500 33.40600
C  17.28600 3.49700 34.32900
H  20.42600 -4.03600 30.19800
H  19.47200 -3.12100 23.80900
H  15.75900 1.94200 25.15900
H  19.02900 -0.35800 32.61100
H  18.60100 -3.37500 32.20400
H  20.78800 -1.64700 32.97100
H  21.30100 -2.56600 31.65000
H  20.77100 -3.39800 33.09000
H  16.88100 -2.53300 33.01700
H  16.32100 -0.90400 32.87900
H  17.17400 -2.00700 35.25200
H  16.63400 -0.42600 34.88900
H  22.24200 -5.07400 29.04300
H  22.35900 -6.19700 27.85300
H  20.99600 -6.32400 28.78400
H  23.44300 -5.70100 25.66300
H  22.62000 -6.45800 24.23600
H  22.08100 -6.74700 25.67200
H  17.79800 -1.67000 22.33100
H  17.24400 1.02600 23.16000
H  19.71800 -0.76400 21.67200
H  20.21200 -0.43100 23.29900
H  19.34500 0.77600 22.44600
H  14.82900 -0.70500 23.56200
H  15.65200 -1.19700 22.09600
H  14.56700 0.37800 21.11100
H  15.40000 1.72300 21.95600
H  13.84900 1.11000 22.57100
H  13.71800 3.00600 26.60400
H  15.10400 4.09600 26.72000
H  14.08700 3.81200 28.17800
H  15.67700 0.96600 32.05700
H  16.70100 4.41500 34.26600
H  18.32100 3.66000 34.02900
H  17.34800 3.07200 35.33100
Mg 30.53300 58.82100 38.88300
C  27.92300 56.72100 37.60700
C  32.63300 56.26900 38.01400
C  33.01000 61.02000 39.10800
C  28.13100 61.42000 38.96400
N  30.28200 56.74500 37.70700
C  29.15600 56.13500 37.40400
C  29.41100 54.74900 36.81700
C  31.02700 54.60400 37.04900
C  31.32100 55.89300 37.77200
C  31.42500 53.35000 37.83100
C  29.00300 54.54600 35.36200
C  29.31700 55.66800 34.32200
H  28.31600 56.18300 33.26500
N  32.60900 58.59000 38.74500
C  33.24400 57.42500 38.36000
C  34.67900 57.64000 38.51100
C  34.79800 59.07900 38.88800
C  33.43000 59.65000 38.87600
C  35.76000 56.62200 38.27700
C  36.00800 59.79800 39.29500
O  37.03900 59.23500 39.12900
C  36.06400 61.12800 39.80100
N  30.52300 60.92400 39.12500
C  31.69300 61.54100 39.22800
C  31.48800 63.03600 39.56900
C  29.92000 63.20600 39.23400
C  29.45900 61.77500 39.17000
C  31.89700 63.47600 41.03200
C  29.68800 64.07700 37.92600
C  29.82600 65.62900 37.81500
N  28.42300 59.04700 38.54100
C  27.63200 60.13700 38.68300
C  26.25400 59.81300 38.39400
C  26.30900 58.48000 37.97000
C  27.67300 58.08400 38.01100
C  25.04400 60.75600 38.40000
C  25.58600 57.34500 37.48000
O  24.39400 57.17000 37.30700
C  26.55400 56.16100 37.31500
C  26.07400 54.91400 38.07700
O  26.24300 54.69400 39.28000
O  25.25000 54.14400 37.24100
C  24.49100 53.07700 37.96100
H  33.35800 55.48300 37.79600
H  33.73600 61.83200 39.18700
H  27.43500 62.26100 38.99500
H  28.79300 54.05100 37.38200
H  31.64500 54.55700 36.15200
H  31.70400 53.63700 38.84500
H  32.18700 52.72900 37.36100
H  30.65400 52.58000 37.87000
H  27.92700 54.37400 35.32200
H  29.56400 53.66800 35.04100
H  30.23200 55.36600 33.81300
H  29.61200 56.59900 34.80700
H  36.41600 56.63500 39.14700
H  36.20800 56.66400 37.28500
H  35.29100 55.63900 38.32500
H  37.08600 61.25700 40.15700
H  35.42000 61.24600 40.67200
H  35.80200 61.79500 38.97900
H  32.07600 63.69800 38.93300
H  29.42300 63.68100 40.08000
H  32.76800 64.12400 40.94100
H  32.25500 62.59300 41.56100
H  31.20500 63.95100 41.72700
H  28.60900 63.97500 37.81100
H  30.20000 63.63900 37.06900
H  30.26300 66.02400 38.73200
H  28.87500 66.09500 37.55800
H  30.53200 65.86300 37.01800
H  24.16900 60.10600 38.41900
H  24.91900 61.42100 37.54500
H  25.10500 61.38100 39.29100
H  26.61400 56.02700 36.23400
H  24.03000 53.32200 38.91700
H  25.13500 52.21900 38.15300
H  23.69000 52.83600 37.26200

