158

Mg 44.39700 3.91500 46.44300
C  42.49100 6.82000 46.35700
C  41.45200 2.02400 46.30400
C  46.34100 1.26900 45.74200
C  47.34500 5.99600 45.75200
N  42.24800 4.32900 46.45400
C  41.66300 5.63300 46.49500
C  40.11500 5.53600 46.58300
C  39.85700 4.00600 46.68800
C  41.27800 3.43000 46.39500
C  39.25000 3.51800 48.03200
C  39.37500 6.17600 45.40600
C  39.69100 5.83400 43.88300
H  40.00100 6.99400 42.92400
N  43.98000 1.87200 46.07300
C  42.73300 1.33200 46.09400
C  42.98300 -0.10700 45.95600
C  44.32500 -0.40400 45.68600
C  44.96600 0.93500 45.87200
C  41.81000 -1.09500 45.84000
C  44.93900 -1.67500 45.44500
O  44.33500 -2.75500 45.53100
C  46.36100 -1.81900 45.03800
N  46.62100 3.68600 45.88500
C  47.14100 2.39900 45.78200
C  48.67400 2.40300 45.59500
C  49.00800 3.95000 45.29200
C  47.60400 4.60500 45.67200
C  49.54200 1.82700 46.79800
C  49.43600 4.32600 43.92700
C  50.92900 4.64600 43.80100
N  44.90700 5.93600 46.15200
C  46.07800 6.64800 45.96600
C  45.80200 8.10100 45.86400
C  44.36400 8.13800 46.02800
C  43.89600 6.82200 46.19800
C  46.70100 9.19500 45.58000
C  43.23300 9.02100 46.24800
O  43.23800 10.28200 46.20500
C  42.00500 8.20100 46.41700
C  41.27900 8.52000 47.67600
O  41.62800 8.15400 48.77300
O  40.11700 9.18100 47.41600
C  39.15700 9.29200 48.53200
H  40.61200 1.32600 46.29100
H  47.04700 0.43800 45.67900
H  48.10200 6.75600 45.54500
H  39.91400 6.02900 47.53400
H  39.26300 3.71300 45.82300
H  39.88000 2.81200 48.57300
H  38.28700 3.06100 47.80600
H  39.08100 4.35800 48.70600
H  39.45500 7.26200 45.45200
H  38.31600 5.91900 45.43800
H  38.91600 5.20000 43.45300
H  40.57300 5.20500 44.00600
H  41.71900 -1.57500 46.81500
H  42.10000 -1.87900 45.14100
H  40.87500 -0.60400 45.57000
H  46.99500 -1.94000 45.91700
H  46.62500 -1.06400 44.29800
H  46.22100 -2.74000 44.47300
H  48.81500 1.75500 44.73000
H  49.71900 4.29500 46.04300
H  50.52300 1.55400 46.40900
H  49.08400 0.95900 47.27200
H  49.48900 2.67200 47.48500
H  48.78000 5.14700 43.64000
H  49.18600 3.41900 43.37600
H  51.46300 4.26200 44.67100
H  51.18000 5.70300 43.71100
H  51.38900 4.21200 42.91400
H  47.35800 9.22000 44.71100
H  47.29500 9.18800 46.49400
H  46.23000 10.17800 45.56100
H  41.28200 8.47900 45.65000
H  39.16600 10.30100 48.94400
H  39.43100 8.59700 49.32500
H  38.19700 8.99800 48.10800
Mg -12.32800 15.53300 41.53600
C  -9.33200 13.71900 41.10200
C  -11.03400 18.00300 39.55000
C  -15.31900 17.08900 41.52300
C  -13.76900 12.72000 43.04200
N  -10.39900 15.72600 40.27900
C  -9.29000 14.98000 40.46700
C  -8.04500 15.62700 39.83100
C  -8.64900 17.02700 39.38800
C  -10.11100 16.90300 39.75400
C  -7.92100 18.25300 40.01000
C  -7.43100 14.93000 38.59200
C  -6.12400 15.48100 38.17000
H  -6.20200 16.50000 37.02500
N  -13.02100 17.39600 40.76900
C  -12.31300 18.29500 39.98400
C  -13.15300 19.42000 39.62400
C  -14.42200 19.22200 40.22600
C  -14.34000 17.79700 40.84000
C  -12.69200 20.55500 38.81400
C  -15.62300 20.20600 40.12300
O  -15.53400 21.31600 39.57700
C  -17.01500 19.95400 40.66600
N  -14.27600 14.85100 42.12000
C  -15.32100 15.82600 42.13200
C  -16.58600 15.19000 42.76100
C  -16.10300 13.78200 43.28800
C  -14.67500 13.73800 42.73800
C  -17.25000 16.09200 43.89100
C  -16.89300 12.51200 42.75200
C  -17.28300 11.46500 43.82500
N  -11.66800 13.62700 42.08000
C  -12.38400 12.56700 42.68000
C  -11.45300 11.57900 42.98000
C  -10.21800 11.93200 42.36600
C  -10.42700 13.21000 41.82900
C  -11.72000 10.35600 43.84400
C  -8.84000 11.49400 42.12500
O  -8.23500 10.41600 42.39400
C  -8.21900 12.68100 41.24800
C  -6.84700 13.11700 41.80200
O  -6.69800 13.55500 42.91000
O  -5.86900 13.07700 40.83600
C  -4.73400 13.99100 41.13700
H  -10.55000 18.77600 38.95000
H  -16.34500 17.45800 41.57400
H  -14.20100 12.00900 43.74900
H  -7.37300 15.88400 40.64900
H  -8.65100 17.11300 38.30100
H  -8.62400 18.77200 40.66200
H  -7.64200 18.89500 39.17500
H  -6.97200 18.12400 40.53200
H  -8.16800 15.05500 37.79900
H  -7.32200 13.84700 38.65100
H  -5.48300 14.63200 37.93100
H  -5.73200 16.05100 39.01300
H  -13.26400 20.54300 37.88600
H  -11.60600 20.55700 38.71500
H  -12.95700 21.43600 39.39800
H  -17.76800 20.59700 40.20900
H  -17.07400 20.05100 41.75000
H  -17.23400 18.95700 40.28700
H  -17.30200 15.07400 41.94800
H  -16.02500 13.71600 44.37300
H  -18.20200 16.59500 43.72600
H  -16.47400 16.82000 44.13100
H  -17.33500 15.37800 44.71000
H  -16.38700 12.05400 41.90100
H  -17.83600 12.84500 42.31800
H  -17.10700 10.47100 43.41500
H  -18.36400 11.59100 43.89000
H  -16.73100 11.66600 44.74400
H  -12.47400 10.58900 44.59500
H  -10.75500 10.20300 44.32600
H  -11.97200 9.47600 43.25100
H  -7.85800 12.17500 40.35200
H  -3.95600 13.73200 40.41800
H  -4.27900 13.79100 42.10800
H  -5.08600 15.00100 40.92800

