158

Mg 26.34900 50.70500 26.94500
C  24.04200 51.92300 29.32100
C  28.32300 49.72400 29.61400
C  28.65500 49.88200 24.76400
C  24.29500 52.01200 24.43600
N  26.20000 50.83100 29.17100
C  25.12500 51.22200 29.90500
C  25.18100 50.71100 31.35100
C  26.72200 50.28500 31.46100
C  27.10200 50.20200 29.99500
C  27.64800 51.13100 32.35000
C  24.20800 49.61800 31.76000
C  23.98300 49.21100 33.22300
H  24.39700 50.20800 34.40400
N  28.19800 49.92900 27.17500
C  28.87000 49.58000 28.32900
C  30.19000 49.06000 27.90000
C  30.29200 49.06600 26.47200
C  29.00600 49.68900 26.06900
C  31.20800 48.75200 28.95500
C  31.49100 48.68100 25.61000
O  31.58400 48.95600 24.43000
C  32.56200 48.01500 26.26300
N  26.49000 50.97700 24.90200
C  27.51700 50.45400 24.17600
C  27.19000 50.34400 22.67600
C  25.82100 50.98800 22.58700
C  25.51300 51.42000 24.02800
C  28.27300 50.89500 21.73200
C  24.69900 50.06300 21.95600
C  23.66100 50.67700 20.98400
N  24.60900 51.91500 26.80000
C  23.91500 52.42600 25.71400
C  22.81000 53.16400 26.18800
C  22.76900 52.97500 27.57300
C  23.87600 52.20900 27.89600
C  21.86400 53.84300 25.34800
C  22.05100 53.27900 28.83000
O  21.05500 53.94200 28.98100
C  22.84500 52.54700 30.02100
C  23.30700 53.61600 30.94200
O  24.34800 54.26300 30.84500
O  22.43100 53.76400 32.10900
C  22.87000 54.77500 33.06300
H  28.86100 49.46100 30.52800
H  29.34600 49.47600 24.02200
H  23.59200 52.31500 23.65700
H  24.90700 51.54100 32.00100
H  26.85300 49.27700 31.85600
H  27.02600 51.41800 33.19800
H  28.14500 51.97100 31.86400
H  28.45900 50.49100 32.69600
H  24.29600 48.66400 31.24100
H  23.22900 50.04300 31.53700
H  24.61200 48.32400 33.29900
H  22.91300 49.15500 33.42600
H  31.00100 49.46600 29.75200
H  32.22700 49.00200 28.66000
H  31.15800 47.74500 29.37100
H  32.18100 47.20700 26.88700
H  33.22400 48.69700 26.79700
H  33.28600 47.59600 25.56400
H  27.12100 49.27200 22.49100
H  25.87400 51.92500 22.03200
H  28.91700 51.58300 22.28000
H  27.76300 51.38400 20.90200
H  28.85200 50.02900 21.41100
H  24.18900 49.40200 22.65700
H  25.23800 49.37300 21.30700
H  23.55700 49.85300 20.27800
H  24.22400 51.47800 20.50500
H  22.71300 50.98500 21.42500
H  21.98400 54.83600 25.78000
H  20.82500 53.53900 25.47300
H  22.14900 53.84600 24.29600
H  22.22400 51.82000 30.54400
H  23.63200 55.46900 32.70700
H  23.20400 54.19700 33.92500
H  21.99500 55.32000 33.41800
Mg 0.42000 43.29600 25.08700
C  2.85900 42.74200 27.69500
C  -1.92300 42.35000 27.32600
C  -1.53700 42.97700 22.43200
C  3.19500 43.85800 22.85800
N  0.45600 42.70300 27.29200
C  1.53800 42.47100 28.08000
C  1.00800 42.15600 29.46600
C  -0.49000 41.90800 29.33700
C  -0.66600 42.37300 27.87700
C  -0.95400 40.38300 29.62100
C  1.24900 43.38400 30.34200
C  0.92800 43.30200 31.82900
H  0.32000 41.92900 32.39600
N  -1.52500 42.75900 24.93000
C  -2.38700 42.43400 25.96300
C  -3.67800 42.03800 25.42900
C  -3.58800 42.23900 24.00500
C  -2.15500 42.66300 23.70100
C  -4.84400 41.58900 26.18000
C  -4.63700 42.02900 22.95100
O  -4.35700 42.16900 21.76800
C  -5.99900 41.55800 23.31900
N  0.76900 43.30100 23.01600
C  -0.24900 43.41300 22.12200
C  0.17700 43.82800 20.73200
C  1.64800 44.14000 20.91900
C  1.91000 43.68300 22.34300
C  -0.22700 42.87400 19.61500
C  2.10000 45.54800 20.54800
C  2.19300 46.65000 21.62100
N  2.57900 43.39600 25.20300
C  3.52000 43.66300 24.21300
C  4.83300 43.66000 24.81900
C  4.65900 43.31300 26.17000
C  3.24700 43.11400 26.36400
C  6.12300 43.84000 24.06100
C  5.36100 43.06400 27.43100
O  6.58000 43.07700 27.72100
C  4.15600 42.78200 28.47500
C  4.44800 41.63400 29.41100
O  4.53200 40.44900 29.12000
O  4.48600 42.16100 30.67700
C  4.64400 41.23900 31.72000
H  -2.70600 42.16600 28.06500
H  -2.20100 42.89500 21.56900
H  4.06200 44.25800 22.32800
H  1.46700 41.25300 29.86700
H  -1.03000 42.68500 29.87700
H  -0.22600 39.87700 30.25400
H  -1.08300 39.89200 28.65600
H  -1.80400 40.37300 30.30400
H  0.82100 44.33000 30.00900
H  2.31000 43.63500 30.35300
H  0.21400 44.07000 32.12800
H  1.83500 43.59300 32.36100
H  -5.25900 40.68600 25.73200
H  -5.55700 42.40400 26.30300
H  -4.52700 41.34200 27.19300
H  -6.48400 42.23100 24.02600
H  -5.90000 40.52100 23.63900
H  -6.61600 41.53000 22.42100
H  -0.38700 44.74700 20.57200
H  2.19800 43.36900 20.38100
H  -0.31100 41.84900 19.97500
H  0.57900 42.92800 18.88200
H  -1.15100 43.17700 19.12200
H  1.42100 45.95100 19.79600
H  3.08100 45.32900 20.12700
H  1.37200 46.42000 22.30000
H  2.22300 47.70100 21.33300
H  3.09300 46.56800 22.23000
H  6.92900 43.27300 24.52500
H  6.36000 44.89300 24.21700
H  5.96600 43.57600 23.01500
H  4.17800 43.64100 29.14600
H  4.04600 41.60700 32.55400
H  5.69100 41.19500 32.02000
H  4.28700 40.23300 31.49600

