158

Mg 16.12700 -1.90300 28.28100
C  15.37600 0.09000 30.96500
C  18.23500 -3.73000 30.29300
C  16.96900 -3.76100 25.53400
C  14.04800 0.12400 26.23500
N  16.79200 -1.79000 30.36800
C  16.31700 -0.93100 31.27700
C  16.84600 -1.18400 32.63700
C  18.03700 -2.27100 32.35800
C  17.67600 -2.66200 30.93400
C  19.46300 -1.77900 32.45500
C  15.85300 -1.71900 33.72600
C  16.18600 -1.25700 35.20000
H  17.60300 -0.70300 35.53000
N  17.42000 -3.51900 27.96500
C  18.15700 -4.17300 28.93400
C  18.71900 -5.36800 28.32500
C  18.40900 -5.36400 26.89400
C  17.51300 -4.16000 26.74700
C  19.50600 -6.37800 29.13100
C  18.88000 -6.20900 25.75000
O  18.60500 -6.13200 24.58600
C  19.82200 -7.29600 26.06000
N  15.72300 -1.71400 26.17200
C  16.16700 -2.67800 25.23100
C  15.77500 -2.19100 23.81500
C  14.54400 -1.21200 24.18000
C  14.71300 -0.91900 25.59800
C  16.86800 -1.44600 23.05400
C  13.13000 -1.69900 23.69700
C  12.18300 -2.56400 24.49500
N  14.89100 -0.25400 28.51500
C  14.14400 0.52500 27.58900
C  13.48800 1.56300 28.33700
C  13.92500 1.44900 29.64400
C  14.81200 0.33100 29.73800
C  12.58000 2.59800 27.70100
C  13.81200 2.01900 30.97100
O  13.23300 2.99500 31.41200
C  14.75100 1.11400 31.86500
C  15.61000 2.06800 32.52400
O  16.62400 2.53100 32.00600
O  15.17900 2.28200 33.84400
C  15.96500 3.33700 34.53300
H  18.91100 -4.41400 30.81000
H  17.13800 -4.41400 24.67500
H  13.33000 0.71800 25.66500
H  17.25600 -0.20400 32.88100
H  18.01700 -3.15300 32.99800
H  19.40200 -0.82300 32.97400
H  19.88800 -1.61300 31.46600
H  20.09700 -2.46300 33.02100
H  15.66500 -2.79100 33.66400
H  14.87900 -1.28500 33.49900
H  15.85900 -2.15200 35.72800
H  15.52400 -0.46800 35.55600
H  19.40600 -7.38800 28.73400
H  19.08700 -6.49300 30.13000
H  20.53100 -6.03200 29.26300
H  20.57900 -6.83200 26.69300
H  20.27900 -7.71200 25.16200
H  19.36400 -8.14400 26.57000
H  15.37500 -3.03700 23.25600
H  14.67700 -0.27200 23.64300
H  16.53900 -0.56100 22.50900
H  17.27200 -2.21000 22.39100
H  17.64900 -1.07600 23.71800
H  13.25400 -2.30000 22.79700
H  12.63800 -0.76000 23.44200
H  11.25200 -2.01800 24.64500
H  12.53800 -2.66100 25.52100
H  12.11800 -3.57400 24.09000
H  12.37600 3.41400 28.39300
H  11.66800 2.09700 27.37500
H  13.29200 2.85600 26.91700
H  14.15400 0.61200 32.62700
H  16.96800 3.67500 34.27100
H  16.02900 3.09800 35.59400
H  15.23700 4.14300 34.44200
Mg 17.69500 53.31100 26.01000
C  19.58800 51.89300 28.66300
C  15.46200 54.30600 28.43500
C  15.77300 54.28500 23.64900
C  20.00800 51.89500 23.72300
N  17.53400 53.13800 28.33600
C  18.42100 52.51100 29.17200
C  17.95900 52.68000 30.59900
C  16.54900 53.24600 30.44600
C  16.56700 53.71500 29.02100
C  15.48200 52.14900 30.71300
C  18.91600 53.67900 31.39800
C  19.07500 53.45000 32.90900
H  18.04500 52.66600 33.72500
N  15.80700 54.20300 26.07700
C  15.09500 54.61800 27.12500
C  13.85700 55.30300 26.67400
C  13.89900 55.20500 25.23600
C  15.20000 54.52800 24.93600
C  12.77600 55.64200 27.60800
C  12.85300 55.65500 24.21700
O  13.00300 55.57400 23.03200
C  11.53200 56.31400 24.70200
N  17.91300 53.13100 24.02500
C  16.94500 53.60600 23.18800
C  17.43500 53.79100 21.77800
C  18.83300 53.07100 21.82800
C  18.98300 52.73500 23.28800
C  16.55700 53.34500 20.53600
C  20.06600 54.00200 21.33800
C  21.29400 53.26500 20.82300
N  19.46800 52.27100 26.08900
C  20.32900 51.79200 25.08900
C  21.44100 51.03200 25.68600
C  21.14700 51.07300 27.05900
C  19.96200 51.78800 27.25700
C  22.50800 50.36800 24.96400
C  21.66200 50.65200 28.31700
O  22.65600 49.95700 28.55600
C  20.72500 51.25300 29.43100
C  20.28300 50.20300 30.36300
O  19.46800 49.35300 30.08100
O  20.81900 50.46900 31.61000
C  20.55400 49.54300 32.72500
H  14.72500 54.68500 29.14600
H  15.22100 54.63600 22.77500
H  20.82800 51.54800 23.09100
H  18.00800 51.73100 31.13300
H  16.37900 54.12800 31.06400
H  15.08600 51.90700 29.72700
H  14.67800 52.51100 31.35300
H  15.76500 51.24900 31.25900
H  18.71600 54.72500 31.16400
H  19.89100 53.53000 30.93500
H  19.07900 54.43700 33.37100
H  20.07700 53.07100 33.10600
H  11.76400 55.44900 27.25300
H  12.78300 56.68200 27.93400
H  12.93800 55.09600 28.53700
H  11.76300 56.98000 25.53300
H  10.92400 55.48500 25.06500
H  11.10100 56.79500 23.82400
H  17.59100 54.84400 21.54300
H  18.95600 52.08200 21.38500
H  15.53700 53.02300 20.74900
H  16.97900 52.42900 20.12400
H  16.67200 54.01400 19.68300
H  20.34100 54.51500 22.25900
H  19.67300 54.74500 20.64400
H  21.30100 52.18200 20.94800
H  22.17000 53.75900 21.24200
H  21.32700 53.46900 19.75300
H  23.43400 50.37200 25.54000
H  22.77900 51.07600 24.18200
H  22.35100 49.31200 24.74500
H  21.27700 51.99100 30.01300
H  20.99500 48.57300 32.49600
H  19.48800 49.44600 32.92700
H  20.99800 49.85200 33.67100

