158

Mg 35.43200 3.30500 29.87900
C  32.95100 3.92200 32.30000
C  37.82300 3.51100 32.51300
C  37.87200 2.53100 27.65500
C  33.08100 3.54500 27.41600
N  35.36100 3.75700 32.14800
C  34.24400 3.92100 32.89100
C  34.54200 3.98300 34.43000
C  36.11200 4.09800 34.42800
C  36.49900 3.77400 32.93000
C  36.66400 5.35800 35.02800
C  34.09500 2.66200 35.16900
C  33.63300 2.70900 36.62300
H  34.31800 3.75800 37.53800
N  37.51100 3.01800 30.04100
C  38.32800 3.19800 31.20100
C  39.67000 2.78200 30.88800
C  39.66500 2.33900 29.48800
C  38.31400 2.67300 28.97700
C  40.76300 2.60400 31.94800
C  40.69600 1.51900 28.71700
O  40.53900 1.19100 27.53400
C  41.89300 0.94700 29.38100
N  35.47000 3.09600 27.79600
C  36.56700 2.70700 27.15800
C  36.18000 2.65800 25.66000
C  34.63100 2.85600 25.51500
C  34.36200 3.21900 26.99700
C  36.98300 3.49500 24.60100
C  33.85300 1.69300 24.97200
C  33.31400 1.74000 23.58600
N  33.45000 3.84500 29.78100
C  32.58600 3.78600 28.69100
C  31.19400 4.02000 29.16900
C  31.30100 4.08100 30.56700
C  32.66700 3.84600 30.90400
C  29.92800 4.22800 28.41400
C  30.56900 4.28300 31.83700
O  29.41100 4.51400 32.05200
C  31.64900 4.23700 32.97100
C  31.76500 5.57700 33.57400
O  32.01400 6.65400 33.01700
O  31.19400 5.52200 34.84400
C  31.12000 6.70800 35.71100
H  38.56600 3.45200 33.31000
H  38.49900 2.13500 26.85400
H  32.33900 3.51800 26.61500
H  33.97900 4.84000 34.79900
H  36.50200 3.23400 34.96700
H  37.46600 5.12700 35.72900
H  35.87100 5.98100 35.44200
H  37.21100 5.82200 34.20700
H  34.82800 1.85600 35.14000
H  33.24200 2.32300 34.58100
H  33.83700 1.69200 36.95700
H  32.54300 2.72700 36.64500
H  41.71000 2.81000 31.45100
H  40.72400 1.60400 32.38000
H  40.61000 3.39800 32.67900
H  42.69100 1.63400 29.66400
H  42.27800 0.19200 28.69500
H  41.50100 0.34700 30.20200
H  36.47400 1.67400 25.29600
H  34.43000 3.71200 24.87000
H  36.42600 3.92800 23.77000
H  37.75500 2.86800 24.15600
H  37.50000 4.26900 25.16700
H  33.04000 1.43800 25.65200
H  34.49600 0.81800 25.06300
H  33.92600 2.49000 23.08400
H  32.27000 2.05400 23.56600
H  33.53100 0.89100 22.93700
H  29.27000 3.42000 28.73400
H  30.07300 4.39000 27.34600
H  29.43500 5.12700 28.78300
H  31.39400 3.52500 33.75600
H  30.28900 7.35500 35.42800
H  32.07400 7.23400 35.67500
H  31.00500 6.33900 36.73000
Mg 50.19700 45.63700 42.24500
C  47.17900 46.44400 40.65800
C  49.92800 42.43700 40.75100
C  53.24700 45.15200 43.24800
C  50.48700 49.17300 43.18200
N  48.70800 44.58600 40.76000
C  47.50000 45.07600 40.41100
C  46.75900 44.02800 39.62600
C  47.67700 42.77200 39.62800
C  48.87600 43.30700 40.38000
C  46.95500 41.54200 40.29600
C  46.44500 44.58900 38.27600
C  45.10900 44.22500 37.73800
H  44.86900 43.21600 36.57600
N  51.40700 43.99600 42.11100
C  51.22300 42.78100 41.49000
C  52.45400 41.92900 41.65600
C  53.32500 42.63700 42.47300
C  52.66600 43.99700 42.63700
C  52.58700 40.52800 41.01300
C  54.59200 42.14200 43.06600
O  55.00000 41.04600 42.84400
C  55.37800 42.90100 44.10100
N  51.68800 46.98700 43.05600
C  52.85000 46.48500 43.38300
C  53.75200 47.58000 43.89400
C  52.88400 48.85000 43.90000
C  51.58000 48.31800 43.28500
C  54.39600 47.30100 45.22300
C  53.46700 50.14400 43.07900
C  52.87600 50.40900 41.64800
N  48.98300 47.37700 42.17000
C  49.24800 48.77700 42.52000
C  48.05700 49.59500 42.21400
C  47.22400 48.64600 41.58100
C  47.86800 47.35700 41.43400
C  47.67800 51.01600 42.54500
C  45.95400 48.61000 40.87700
O  45.12800 49.49800 40.54600
C  45.90200 47.19600 40.34400
C  44.74100 46.51900 41.06700
O  44.79700 45.77400 42.00400
O  43.66800 46.92900 40.38400
C  42.35700 46.47200 40.88200
H  49.93200 41.40000 40.41200
H  54.28100 44.95900 43.54000
H  50.56900 50.17100 43.61900
H  45.84100 43.85000 40.18700
H  47.92700 42.51700 38.59800
H  47.33600 40.63700 39.82300
H  45.87100 41.59200 40.19300
H  47.06500 41.64700 41.37600
H  47.23900 44.37100 37.56200
H  46.35900 45.67600 38.27300
H  44.50800 45.10700 37.51800
H  44.50600 43.76500 38.52100
H  51.87900 39.82300 41.45000
H  53.59900 40.16300 41.18600
H  52.34900 40.59000 39.95100
H  54.70100 43.20900 44.89700
H  56.07800 43.63900 43.70900
H  56.08600 42.22500 44.58100
H  54.64000 47.79300 43.29800
H  52.70400 49.24100 44.90100
H  55.41700 47.68200 45.22600
H  54.43500 46.27400 45.58700
H  53.87000 47.74600 46.06700
H  54.50900 49.88900 42.88100
H  53.55300 51.08000 43.63000
H  52.43500 51.39400 41.80700
H  52.13000 49.71200 41.26600
H  53.63700 50.53200 40.87800
H  46.63500 50.97300 42.86000
H  47.84700 51.57900 41.62800
H  48.24700 51.36100 43.40800
H  45.60700 47.32400 39.30200
H  41.86800 47.12400 41.60600
H  42.40400 45.47800 41.32700
H  41.77900 46.49000 39.95700

