158

Mg 1.23500 8.23000 25.30700
C  1.65900 10.30200 28.15600
C  1.17300 5.46800 27.55200
C  0.90200 6.25100 22.69400
C  1.11200 10.96700 23.37100
N  1.53900 7.91300 27.63200
C  1.55900 8.93500 28.58600
C  1.51000 8.37300 29.99900
C  1.58200 6.80100 29.75400
C  1.43800 6.72400 28.21300
C  2.80600 6.12600 30.36300
C  0.23100 8.86700 30.87000
C  0.50200 9.50100 32.26200
H  1.66700 8.88700 33.05000
N  1.16200 6.18100 25.10000
C  1.13900 5.19500 26.14000
C  0.99600 3.90000 25.57200
C  0.98000 4.12100 24.13900
C  0.97000 5.60200 23.92900
C  0.97300 2.52700 26.43700
C  0.98800 3.05400 23.08800
O  0.91300 3.30500 21.89400
C  1.00800 1.67000 23.44600
N  0.94500 8.58200 23.34200
C  0.85400 7.61000 22.36100
C  0.69700 8.25900 20.88700
C  0.70500 9.71200 21.24300
C  0.93200 9.78200 22.72300
C  1.79800 7.71500 19.89000
C  -0.62400 10.45700 20.77700
C  -0.52400 11.27800 19.55800
N  1.52100 10.19900 25.67500
C  1.32200 11.22200 24.75000
C  1.45700 12.50200 25.40100
C  1.73800 12.18000 26.70800
C  1.56600 10.77200 26.87500
C  1.28300 13.86000 24.74500
C  2.01100 12.69800 28.03600
O  2.23100 13.87900 28.43900
C  1.96400 11.47900 29.06200
C  3.19900 11.43100 29.90400
O  4.30600 11.02300 29.66600
O  2.93000 12.12300 31.03200
C  3.91300 12.16400 32.06600
H  1.18700 4.68900 28.31700
H  0.82000 5.58100 21.83600
H  1.03400 11.77000 22.63600
H  2.44600 8.81500 30.34000
H  0.67500 6.27600 30.05100
H  3.40300 5.70200 29.55600
H  2.59200 5.37800 31.12600
H  3.28700 7.00000 30.80400
H  -0.56000 8.11700 30.87700
H  -0.17900 9.67500 30.26500
H  -0.36700 9.67200 32.89900
H  0.83700 10.48600 31.93700
H  1.99900 2.16900 26.34400
H  0.26200 1.84800 25.96600
H  0.75800 2.63300 27.50000
H  -0.04300 1.44400 23.62500
H  1.61400 1.46200 24.32800
H  1.33600 1.03800 22.62000
H  -0.28100 8.00400 20.48000
H  1.56700 10.14700 20.73700
H  2.48200 7.02000 20.37700
H  2.36100 8.52400 19.42400
H  1.30200 7.19300 19.07300
H  -1.01200 11.21000 21.46300
H  -1.41600 9.74900 20.53300
H  -1.33700 10.93300 18.92000
H  0.47800 11.27000 19.12900
H  -0.74200 12.33100 19.73600
H  0.73000 14.53900 25.39400
H  0.85400 13.66500 23.76200
H  2.24400 14.33800 24.55100
H  1.09000 11.65100 29.69000
H  3.49900 12.07200 33.07000
H  4.20900 13.20800 31.96900
H  4.71500 11.43000 31.98400
Mg 41.49900 7.35300 29.59100
C  43.38100 8.99000 31.96900
C  39.45600 6.22300 32.04500
C  39.71700 5.72100 27.28400
C  44.17800 7.66700 27.36100
N  41.55600 7.52500 31.78300
C  42.25700 8.39700 32.53600
C  41.80300 8.39800 33.97700
C  40.71300 7.29500 34.00000
C  40.56200 6.95200 32.56500
C  41.15200 6.04700 34.83400
C  41.41400 9.78200 34.52700
C  40.68800 9.81600 35.91300
H  41.25900 10.75600 36.92900
N  39.79400 6.20000 29.62000
C  39.03100 5.84500 30.72800
C  37.91700 5.14600 30.31900
C  37.86000 5.27500 28.93100
C  39.13000 5.75000 28.59000
C  37.03700 4.33000 31.26500
C  36.82100 4.84500 27.96800
O  36.96300 4.80200 26.75300
C  35.48500 4.31700 28.49300
N  41.95400 6.67600 27.61300
C  41.02500 6.11900 26.84700
C  41.53900 5.93900 25.39200
C  42.97700 6.62100 25.38700
C  43.06700 6.98100 26.89400
C  41.54900 4.52600 24.79000
C  43.17200 7.83200 24.42600
C  42.61500 9.16300 24.77900
N  43.39000 8.21700 29.60400
C  44.36500 8.28700 28.65100
C  45.45800 9.11200 29.09500
C  45.11300 9.44800 30.42500
C  43.88700 8.80700 30.71000
C  46.63200 9.45200 28.26200
C  45.60800 10.10200 31.58100
O  46.67900 10.72400 31.76800
C  44.47100 9.82500 32.66000
C  45.06600 9.11400 33.76200
O  45.03000 7.92200 33.96700
O  45.76800 10.00200 34.57100
C  46.25900 9.39100 35.79500
H  38.72300 5.92000 32.79600
H  39.20400 5.26900 26.43300
H  44.72100 7.99200 26.47100
H  42.73700 8.19600 34.50100
H  39.72000 7.64000 34.28600
H  41.28200 5.24600 34.10600
H  40.33500 5.75000 35.49100
H  42.09300 6.20200 35.36300
H  40.79800 10.30900 33.79900
H  42.32300 10.38200 34.57100
H  40.55700 8.83700 36.37300
H  39.64300 10.11200 35.82900
H  37.51700 4.38100 32.24200
H  37.00200 3.27200 31.00600
H  36.02100 4.71000 31.37300
H  35.59400 3.34600 28.97700
H  34.87700 4.09100 27.61700
H  34.86200 4.88700 29.18200
H  40.84400 6.48200 24.75100
H  43.74900 5.86200 25.25400
H  41.99100 4.54800 23.79400
H  40.63700 3.92800 24.80100
H  42.20400 3.94000 25.43600
H  42.92500 7.50900 23.41500
H  44.24700 8.00900 24.38900
H  41.83800 8.95000 25.51400
H  42.07700 9.61100 23.94400
H  43.35100 9.85700 25.18600
H  47.20200 8.52500 28.20200
H  47.28200 10.14800 28.79300
H  46.33000 9.89300 27.31200
H  44.05100 10.76400 33.01900
H  47.01700 8.66100 35.51200
H  45.53500 9.08700 36.55100
H  46.87400 10.13800 36.29600

