158

Mg 24.42900 -5.18200 45.58300
C  26.21400 -2.48300 44.15500
C  21.72900 -4.42100 43.32500
C  23.04600 -8.14000 46.32800
C  27.32100 -6.00400 47.30000
N  24.05800 -3.57500 43.99600
C  24.89300 -2.57700 43.61200
C  24.29600 -1.73500 42.46500
C  22.84200 -2.24700 42.38500
C  22.79100 -3.48100 43.29600
C  21.75800 -1.18200 42.84400
C  25.10200 -1.93500 41.08100
C  25.49600 -0.66400 40.34200
H  25.39800 -0.80100 38.79200
N  22.55400 -6.10200 45.05100
C  21.61700 -5.64800 44.14200
C  20.57100 -6.62400 44.06500
C  20.80300 -7.61300 45.05300
C  22.17400 -7.33700 45.59200
C  19.37400 -6.40800 43.12000
C  19.84900 -8.73100 45.37700
O  18.66000 -8.67800 45.01700
C  20.14700 -9.83200 46.41300
N  25.07300 -6.87000 46.59700
C  24.33200 -7.92000 46.82400
C  25.00700 -8.90600 47.79200
C  26.45100 -8.35900 47.89500
C  26.34600 -6.96100 47.28500
C  24.21800 -9.00100 49.14800
C  27.62400 -9.27100 47.37600
C  28.87200 -9.49700 48.35500
N  26.35900 -4.32700 45.80600
C  27.37700 -4.85900 46.55200
C  28.55600 -3.90800 46.38800
C  28.14100 -2.99100 45.40500
C  26.78900 -3.29300 45.12600
C  29.90100 -4.05300 47.01200
C  28.53200 -1.89600 44.61100
O  29.63100 -1.34000 44.49500
C  27.32700 -1.51200 43.75300
C  27.06600 -0.05500 43.97300
O  26.41500 0.54100 44.80600
O  27.84200 0.65300 43.06000
C  27.77700 2.09900 43.13400
H  20.85300 -4.21900 42.70400
H  22.78200 -9.19200 46.45500
H  28.22000 -6.17300 47.89700
H  24.22900 -0.66100 42.64000
H  22.63600 -2.54700 41.35800
H  22.09600 -0.89500 43.83900
H  20.78000 -1.65400 42.94200
H  21.72300 -0.28600 42.22300
H  24.60300 -2.68000 40.46100
H  26.04000 -2.39100 41.39800
H  26.49200 -0.35900 40.66300
H  24.71600 0.05900 40.58300
H  19.58900 -6.98500 42.22000
H  19.16400 -5.37800 42.83100
H  18.45900 -6.81700 43.54800
H  20.81000 -9.43500 47.18200
H  20.83400 -10.52800 45.93100
H  19.23200 -10.26200 46.82000
H  24.91500 -9.83100 47.22300
H  26.64100 -8.32100 48.96800
H  23.25700 -8.50600 49.00800
H  24.74200 -8.76100 50.07300
H  24.00900 -10.06500 49.25900
H  28.04600 -8.81100 46.48300
H  27.28000 -10.23200 46.99400
H  28.84800 -10.47200 48.84200
H  28.83300 -8.67500 49.06900
H  29.76000 -9.48500 47.72200
H  30.06200 -3.68500 48.02600
H  30.59100 -3.44000 46.43100
H  30.29700 -5.06400 46.91700
H  27.60700 -1.62900 42.70600
H  27.02400 2.47400 42.44000
H  28.71600 2.51800 42.77200
H  27.56200 2.46800 44.13700
Mg 48.10600 17.13800 29.45300
C  45.80700 17.06100 32.01800
C  50.21700 19.11300 31.23900
C  50.04800 17.46900 26.72900
C  45.42900 15.84800 27.32000
N  48.10800 17.76200 31.48000
C  47.03500 17.69100 32.33600
C  47.49100 18.16500 33.79400
C  48.92600 18.80200 33.50700
C  49.16700 18.55800 31.96200
C  49.12700 20.22700 33.96200
C  47.43200 16.94500 34.80100
C  47.36300 17.21800 36.34200
H  47.44100 18.61600 37.02100
N  49.90800 18.21100 29.02100
C  50.58900 18.93100 29.93600
C  51.87700 19.30500 29.35700
C  51.87700 18.84000 28.01500
C  50.58900 18.13600 27.82500
C  52.91700 20.07500 30.03000
C  52.85600 19.06000 26.91900
O  52.74400 18.74500 25.73700
C  54.20100 19.64100 27.31300
N  47.77900 16.65200 27.38600
C  48.80800 16.89800 26.46000
C  48.41000 16.39700 25.07500
C  47.02100 15.66300 25.27700
C  46.71900 16.02700 26.74000
C  48.23300 17.44500 23.92800
C  47.16400 14.17300 25.06000
C  45.86000 13.38500 25.06400
N  46.08300 16.40200 29.61900
C  45.12000 16.07400 28.68600
C  43.86900 15.74800 29.28500
C  44.08100 16.17800 30.63000
C  45.46900 16.60500 30.76900
C  42.60300 15.29700 28.67400
C  43.46700 16.40900 31.82000
O  42.32300 16.13600 32.15000
C  44.50900 16.80800 32.82200
C  43.91500 17.92200 33.65200
O  43.89800 19.12000 33.38400
O  43.51000 17.36600 34.82800
C  42.86100 18.24200 35.77000
H  50.86100 19.71100 31.88700
H  50.67500 17.61000 25.84600
H  44.65100 15.32100 26.76300
H  46.91400 18.99100 34.21100
H  49.76700 18.34700 34.03100
H  49.20900 20.84800 33.07000
H  49.99200 20.41000 34.59800
H  48.25300 20.55700 34.52400
H  48.29600 16.31000 34.60100
H  46.66700 16.22400 34.51300
H  48.12700 16.55000 36.73800
H  46.41800 16.80000 36.68900
H  53.29600 20.99500 29.58500
H  53.72900 19.41100 30.32600
H  52.60700 20.40700 31.02000
H  54.33500 20.63500 27.74000
H  54.76500 19.63900 26.38000
H  54.76900 18.98500 27.97200
H  49.14700 15.72300 24.63900
H  46.24800 16.04600 24.61100
H  49.16100 17.40100 23.35800
H  48.19500 18.45000 24.34800
H  47.38900 17.28200 23.25800
H  47.66800 13.77300 25.94000
H  47.69200 13.90600 24.14400
H  44.95200 13.96500 24.90000
H  45.75500 12.92600 26.04700
H  45.91600 12.63900 24.27100
H  42.90000 14.50500 27.98700
H  42.15900 16.15400 28.16800
H  41.83200 14.81200 29.27200
H  44.71400 16.02300 33.55100
H  41.79500 18.22200 35.54200
H  43.07700 19.31000 35.79300
H  42.93700 17.87500 36.79400

