158

Mg 9.51500 4.57700 28.17300
C  10.85800 3.20200 31.07800
C  7.54600 6.64400 30.08500
C  8.25800 5.81600 25.40100
C  11.22200 2.05000 26.38600
N  9.25200 4.85400 30.34200
C  9.96100 4.25700 31.33500
C  9.61200 4.85300 32.69000
C  8.44300 5.92300 32.37400
C  8.39500 5.85500 30.85100
C  7.07400 5.58100 33.00400
C  10.91400 5.43500 33.38400
C  11.52700 4.70900 34.60300
H  11.86200 5.59700 35.80900
N  8.03900 6.07100 27.76900
C  7.48200 6.82800 28.68900
C  6.81100 7.97500 27.99900
C  6.94900 7.73400 26.58900
C  7.80100 6.49800 26.53300
C  5.89600 8.96800 28.68200
C  6.35200 8.35300 25.38800
O  6.48100 7.88400 24.25500
C  5.62100 9.63400 25.50100
N  9.72500 4.00300 26.19100
C  9.06000 4.71600 25.24400
C  9.47100 4.21500 23.81800
C  10.27100 2.87700 24.10300
C  10.44100 2.99500 25.63400
C  8.38000 3.97900 22.77600
C  11.58700 2.75400 23.29000
C  11.69100 1.68300 22.24300
N  10.66900 2.92300 28.60300
C  11.29400 1.98100 27.79800
C  12.09100 1.08800 28.61000
C  11.95100 1.51400 29.94000
C  11.07300 2.62300 29.81500
C  12.88300 -0.02700 28.07300
C  12.29500 1.30800 31.25400
O  12.98800 0.40300 31.68900
C  11.52700 2.30700 32.09300
C  10.55800 1.59600 32.98500
O  9.36500 1.38200 32.75500
O  11.18400 1.20000 34.16400
C  10.36900 0.47600 35.12200
H  6.90700 7.25900 30.72100
H  8.06200 6.36100 24.47500
H  11.72000 1.29300 25.77600
H  9.34900 3.99900 33.31300
H  8.80000 6.84900 32.82400
H  6.83800 6.37200 33.71600
H  7.13200 4.64800 33.56400
H  6.34600 5.51200 32.19500
H  10.54700 6.34900 33.85200
H  11.67300 5.69000 32.64400
H  12.42500 4.17200 34.29900
H  10.86400 3.91100 34.93700
H  6.27600 9.98400 28.58200
H  5.83600 8.66400 29.72700
H  4.90700 8.98000 28.22400
H  4.70000 9.33400 26.00200
H  5.46400 10.07300 24.51600
H  6.32900 10.21100 26.09500
H  10.13300 4.96100 23.37900
H  9.60800 2.01500 24.02700
H  7.47500 4.42200 23.19000
H  8.29600 2.91600 22.55100
H  8.64600 4.51000 21.86200
H  12.48200 2.65400 23.90400
H  11.81000 3.71600 22.82800
H  10.67700 1.42100 21.94300
H  12.18900 0.84700 22.73300
H  12.24000 2.16600 21.43500
H  13.39100 0.48300 27.25500
H  12.21100 -0.85300 27.84200
H  13.57100 -0.33800 28.85800
H  12.20900 2.80800 32.78000
H  10.36500 1.03300 36.05900
H  10.81200 -0.43500 35.52600
H  9.36500 0.17600 34.82200
Mg 16.27500 52.51800 26.73600
C  18.26000 51.23900 29.51300
C  14.09600 53.82200 28.88300
C  14.81000 53.62500 24.07200
C  18.52700 50.68800 24.68300
N  16.15200 52.41400 28.86500
C  17.07800 51.95400 29.84700
C  16.58100 52.34100 31.28800
C  15.06000 52.78900 31.03000
C  15.12300 52.99800 29.51300
C  14.03000 51.73600 31.42900
C  17.46300 53.33600 31.98600
C  17.80300 53.18100 33.48600
H  16.70900 52.64500 34.46500
N  14.59100 53.54300 26.54600
C  13.87800 54.11400 27.53400
C  12.89100 54.99200 26.88300
C  13.10100 54.92100 25.45500
C  14.19900 53.94200 25.29400
C  11.92400 55.81700 27.74600
C  12.29800 55.62600 24.39600
O  12.32400 55.33900 23.17300
C  11.36900 56.72700 24.71300
N  16.84500 52.40200 24.67000
C  15.96100 52.94800 23.78800
C  16.44200 52.75200 22.32900
C  17.72100 51.83000 22.55300
C  17.72200 51.58700 24.05400
C  15.35100 52.29600 21.20400
C  19.08800 52.36600 22.06400
C  20.08700 51.36400 21.69500
N  18.00000 51.25200 27.02700
C  18.71000 50.46600 26.03500
C  19.85700 49.73700 26.60400
C  19.65900 49.95200 28.00500
C  18.56800 50.86200 28.16200
C  20.95200 49.04200 25.89000
C  20.20100 49.69900 29.36400
O  21.20400 49.06500 29.70800
C  19.36900 50.62600 30.32100
C  18.83800 49.73900 31.40100
O  17.72800 49.16200 31.44900
O  19.84400 49.57000 32.31200
C  19.59700 48.76100 33.49000
H  13.40900 54.21100 29.63700
H  14.31800 54.01200 23.17700
H  19.13200 50.18300 23.92700
H  16.51600 51.44000 31.89800
H  14.94000 53.78400 31.45900
H  13.49400 52.24600 32.22900
H  14.37800 50.73900 31.70000
H  13.31700 51.63600 30.61100
H  17.15000 54.36300 31.79500
H  18.45100 53.13300 31.57200
H  17.98800 54.17900 33.88300
H  18.70200 52.57100 33.58100
H  12.09700 56.88100 27.58600
H  12.20200 55.72300 28.79500
H  10.89300 55.56800 27.49600
H  10.64100 56.38200 25.44600
H  10.95600 57.21100 23.82800
H  11.94700 57.50500 25.21200
H  16.77400 53.76100 22.08500
H  17.60700 50.81500 22.17300
H  14.35400 52.57400 21.54600
H  15.51400 51.23500 21.01300
H  15.44900 52.89000 20.29600
H  19.51000 52.83000 22.95500
H  19.05200 53.05600 21.22200
H  20.84800 51.17300 22.45200
H  20.59500 51.71700 20.79800
H  19.49500 50.50500 21.37800
H  21.06200 49.53600 24.92500
H  20.67500 47.99200 25.78700
H  21.87800 49.09100 26.46200
H  19.95100 51.32200 30.92400
H  19.26300 47.78300 33.14300
H  18.80000 49.31900 33.98200
H  20.41200 48.55200 34.18300

