158

Mg 47.11300 17.40900 28.02100
C  45.34200 16.93200 30.91700
C  49.38600 19.21600 29.85000
C  48.68700 18.17300 25.22200
C  44.69000 15.66000 26.28300
N  47.20800 18.06400 30.13900
C  46.49900 17.68300 31.18000
C  47.03800 18.21600 32.50200
C  48.17500 19.16800 32.00300
C  48.30500 18.75700 30.55400
C  47.83500 20.65300 32.26200
C  47.46800 17.19800 33.62800
C  46.57000 17.16700 34.90000
H  46.16400 18.52800 35.51200
N  48.85800 18.44400 27.60800
C  49.63900 19.11200 28.47800
C  50.87600 19.54500 27.82900
C  50.73100 19.11600 26.46900
C  49.37200 18.66400 26.36200
C  51.98400 20.21500 28.61100
C  51.67900 19.20300 25.30100
O  51.44800 18.90100 24.15100
C  52.89100 19.93800 25.53400
N  46.76000 16.84400 26.10700
C  47.50000 17.48300 25.06100
C  47.00700 17.08400 23.70300
C  45.99700 15.97400 24.09400
C  45.81600 16.08600 25.62100
C  46.41900 18.21500 22.67500
C  46.25500 14.53600 23.52500
C  45.25500 14.00200 22.49300
N  45.39200 16.32500 28.44800
C  44.39300 15.77000 27.66000
C  43.27000 15.38100 28.47600
C  43.66300 15.73500 29.77200
C  44.86700 16.37500 29.64500
C  41.99900 14.79400 28.02700
C  43.18600 15.70300 31.10600
O  42.12600 15.29300 31.52600
C  44.31500 16.46100 31.96800
C  43.65500 17.58500 32.70800
O  43.47400 18.71100 32.30800
O  43.01500 17.04200 33.84400
C  42.07200 17.94400 34.49000
H  49.99900 19.89700 30.44400
H  49.06900 18.60900 24.29700
H  43.93300 15.17000 25.66700
H  46.18600 18.79400 32.85800
H  49.07600 18.91600 32.56200
H  46.93300 20.84200 32.84300
H  47.66000 21.17100 31.31900
H  48.62300 21.15100 32.82700
H  48.52100 17.32500 33.88000
H  47.54200 16.18300 33.23800
H  47.04600 16.49200 35.61100
H  45.70900 16.59700 34.55200
H  52.31000 21.03200 27.96700
H  52.83200 19.56700 28.83700
H  51.68000 20.76600 29.50000
H  52.63500 20.88100 26.01600
H  53.14600 20.26900 24.52700
H  53.73000 19.38000 25.94900
H  47.80900 16.54600 23.19800
H  45.02500 16.25800 23.69100
H  46.99600 18.31500 21.75500
H  46.34700 19.21400 23.10400
H  45.44700 17.89200 22.30300
H  46.37400 13.84300 24.35800
H  47.21500 14.44900 23.01500
H  44.43000 14.71400 22.47600
H  44.77200 13.12200 22.91700
H  45.72700 13.76300 21.54000
H  42.14000 13.93300 27.37300
H  41.43900 15.55400 27.48100
H  41.29800 14.53300 28.82000
H  44.72600 15.75400 32.68900
H  42.51800 18.77400 35.03700
H  41.44000 17.31200 35.11400
H  41.37800 18.33500 33.74600
Mg 10.69800 46.76900 25.61000
C  8.60800 47.27800 28.35400
C  13.20900 48.42900 27.30700
C  12.71600 46.21200 22.97300
C  7.92000 45.65400 23.78500
N  10.92900 47.56200 27.70400
C  9.95600 47.67900 28.71100
C  10.56100 48.18000 29.97800
C  11.81400 48.98800 29.42000
C  12.00700 48.27500 28.08200
C  11.77500 50.52900 29.49700
C  10.85800 46.98700 30.87200
C  10.42000 47.15500 32.33100
H  10.32500 45.98500 33.19600
N  12.79600 47.16900 25.23500
C  13.62300 47.84700 26.06000
C  14.95000 47.84800 25.45200
C  14.82000 47.28700 24.15400
C  13.44100 46.85100 24.06500
C  16.16500 48.44900 26.27300
C  15.89600 47.15100 23.13900
O  15.76600 46.49800 22.14000
C  17.19300 47.65300 23.38300
N  10.27100 46.24500 23.60600
C  11.35600 45.99300 22.76500
C  10.79300 45.49200 21.36900
C  9.31500 45.15900 21.70400
C  9.13000 45.67900 23.11300
C  10.96600 46.54900 20.24900
C  9.02200 43.61500 21.54600
C  9.43400 42.60300 22.68100
N  8.75800 46.42300 25.97400
C  7.73200 45.97900 25.11800
C  6.48400 46.01800 25.82000
C  6.84000 46.39700 27.14500
C  8.17500 46.73700 27.11200
C  5.13400 45.68100 25.34700
C  6.24800 46.62900 28.45500
O  5.09800 46.47400 28.89300
C  7.51200 47.04500 29.35200
C  7.76700 45.87400 30.15200
O  8.31700 44.82900 29.83800
O  7.14700 46.04100 31.41700
C  7.29000 44.92500 32.38300
H  14.07600 48.98600 27.66700
H  13.25400 45.89400 22.07800
H  7.03800 45.42900 23.18100
H  9.94900 48.89600 30.52800
H  12.67000 48.73800 30.04700
H  10.75300 50.83700 29.71800
H  12.06800 50.95000 28.53500
H  12.48800 50.79600 30.27700
H  11.94700 46.99100 30.92700
H  10.54500 45.98700 30.57000
H  9.41700 47.58200 32.31500
H  11.10700 47.80000 32.87900
H  15.92000 48.39000 27.33300
H  16.28900 49.50600 26.03700
H  17.05500 47.82700 26.17600
H  17.16600 48.71900 23.60700
H  17.81500 47.64200 22.48800
H  17.56500 46.97600 24.15300
H  11.28200 44.57000 21.05500
H  8.58100 45.68800 21.09700
H  11.85700 47.09400 20.55900
H  10.17600 47.28600 20.39000
H  11.22500 46.14100 19.27200
H  9.60700 43.28100 20.68900
H  7.95700 43.50100 21.34100
H  10.19800 41.89700 22.35600
H  8.58500 42.04000 23.07100
H  9.81900 43.15300 23.53900
H  5.33500 44.88200 24.63300
H  4.69700 46.51300 24.79500
H  4.47600 45.42400 26.17700
H  7.46900 47.90000 30.02800
H  7.39200 45.28300 33.40700
H  8.06200 44.17600 32.20700
H  6.32900 44.41600 32.30300

