158

Mg 41.14800 7.93200 29.81100
C  42.87900 9.39600 32.56400
C  38.82800 6.78200 32.03600
C  39.47500 6.75500 27.23600
C  43.90400 8.74700 27.77900
N  40.77200 8.29300 32.04800
C  41.60000 8.89400 32.91700
C  41.07100 8.68700 34.36700
C  39.66900 7.94400 34.13300
C  39.71500 7.62800 32.63000
C  39.35600 6.71700 35.02100
C  40.89000 10.10000 35.00000
C  39.85600 10.16700 36.16100
H  40.10200 11.00300 37.39800
N  39.36000 6.97200 29.59200
C  38.62400 6.52700 30.66100
C  37.44900 5.77400 30.18900
C  37.54700 5.76100 28.72300
C  38.85200 6.52800 28.46100
C  36.43700 5.22400 31.14600
C  36.66400 5.12100 27.67300
O  36.92200 5.16700 26.47500
C  35.33700 4.35800 28.14700
N  41.69600 7.57800 27.75700
C  40.73200 7.30800 26.92300
C  41.36300 7.16200 25.47500
C  42.67000 8.03400 25.58600
C  42.81700 8.06400 27.10800
C  41.63400 5.71300 25.22100
C  42.64100 9.43400 24.91100
C  41.36000 10.25200 25.20300
N  42.93800 8.81000 30.06100
C  43.94200 9.07000 29.15500
C  44.99800 9.86300 29.82100
C  44.68800 9.97700 31.13600
C  43.43700 9.32300 31.23400
C  46.22800 10.33500 29.09800
C  45.03300 10.42400 32.50100
O  45.99800 11.10500 32.88500
C  43.83400 10.07900 33.47500
C  44.41600 9.30700 34.62800
O  44.80500 8.14600 34.59400
O  44.32900 9.97900 35.79500
C  44.55400 9.34700 37.05400
H  38.13500 6.37900 32.77700
H  38.85700 6.45000 26.38900
H  44.74100 9.07600 27.16000
H  41.72200 8.06000 34.97700
H  38.81600 8.59300 34.33000
H  39.46200 5.72400 34.58500
H  38.30100 6.90000 35.22800
H  39.83500 6.68400 35.99900
H  40.76100 10.86800 34.23700
H  41.87800 10.21300 35.44600
H  39.80700 9.13800 36.51600
H  38.86800 10.51700 35.86200
H  35.63200 4.60600 30.74900
H  35.87000 6.07700 31.51800
H  36.88900 4.63800 31.94500
H  34.82400 3.98800 27.26000
H  34.68600 5.10600 28.60000
H  35.47700 3.49000 28.79100
H  40.70400 7.55500 24.70100
H  43.35400 7.41500 25.00500
H  41.14300 5.02800 25.91300
H  42.65900 5.37200 25.37100
H  41.47700 5.45400 24.17400
H  42.57400 9.23400 23.84200
H  43.57700 9.96200 25.09200
H  40.84700 9.72800 26.00800
H  40.69700 10.37200 24.34600
H  41.75700 11.21300 25.53100
H  45.84000 10.75100 28.16800
H  46.90600 9.50100 28.91700
H  46.70900 11.16500 29.61700
H  43.46100 11.04000 33.83000
H  43.97300 9.97800 37.72700
H  45.59300 9.52500 37.33300
H  44.37800 8.27200 37.10900
Mg -11.03000 39.79000 41.49000
C  -10.39900 36.54800 40.55900
C  -7.97400 40.85400 40.33000
C  -12.19900 42.90500 41.28200
C  -14.40300 38.64000 42.38100
N  -9.38800 38.78900 40.50800
C  -9.38400 37.45600 40.19000
C  -8.03400 37.08200 39.49800
C  -7.31700 38.49000 39.40300
C  -8.19100 39.43800 40.18300
C  -5.77200 38.54100 39.87700
C  -8.27200 36.27700 38.13200
C  -7.44000 36.61500 36.89100
H  -6.78400 35.57100 36.08600
N  -10.15500 41.65900 41.04800
C  -8.90300 41.87400 40.61600
C  -8.71600 43.28600 40.34500
C  -9.90800 43.92800 40.70600
C  -10.85200 42.84300 40.96800
C  -7.39000 43.98300 40.03600
C  -10.11500 45.51800 40.76800
O  -9.25500 46.29900 40.36900
C  -11.32500 46.19300 41.50500
N  -12.95900 40.57600 41.74400
C  -13.15200 41.94700 41.57300
C  -14.56400 42.41600 41.91800
C  -15.15400 41.06100 42.45500
C  -14.13700 40.01300 42.16600
C  -14.68900 43.55100 42.94900
C  -16.53300 40.57700 41.81200
C  -17.64200 40.18200 42.88500
N  -12.16700 37.97100 41.65600
C  -13.44200 37.67500 42.08000
C  -13.58100 36.21300 42.07700
C  -12.44600 35.73600 41.46800
C  -11.62700 36.85100 41.23300
C  -14.86500 35.45000 42.37900
C  -11.71500 34.60200 41.02400
O  -11.99600 33.43600 41.19800
C  -10.45800 35.06800 40.28900
C  -9.27400 34.29800 40.81700
O  -8.61700 34.49800 41.85600
O  -9.00100 33.27900 39.89700
C  -8.00800 32.31000 40.34300
H  -7.01100 41.15400 39.91100
H  -12.70700 43.85800 41.11700
H  -15.28700 38.22500 42.86900
H  -7.50400 36.36500 40.12500
H  -7.34300 38.78400 38.35400
H  -5.49200 37.51900 40.13300
H  -5.72400 39.08600 40.82000
H  -5.15300 39.02800 39.12400
H  -9.29700 36.47700 37.82200
H  -8.15700 35.23200 38.41900
H  -6.60700 37.23400 37.22500
H  -8.14400 37.17100 36.27200
H  -7.14600 43.94800 38.97500
H  -6.56700 43.53700 40.59400
H  -7.33200 45.02700 40.34400
H  -11.57900 45.78600 42.48300
H  -12.20000 46.10400 40.86100
H  -11.03900 47.24100 41.41500
H  -15.02900 42.77900 41.00100
H  -15.26500 41.10500 43.53800
H  -15.24900 44.39600 42.54800
H  -13.72700 43.93800 43.28600
H  -15.21400 43.16200 43.82100
H  -16.37500 39.69800 41.18800
H  -17.01800 41.30900 41.16500
H  -18.53800 40.71100 42.55900
H  -17.29900 40.50300 43.86900
H  -17.89800 39.12600 42.79000
H  -15.69700 36.05000 42.01100
H  -14.93000 35.29900 43.45700
H  -15.00600 34.50300 41.85900
H  -10.68900 34.98200 39.22800
H  -7.67100 31.64500 39.54700
H  -8.48400 31.88300 41.22600
H  -7.16400 32.95800 40.57600

