158

Mg 2.30600 -0.65400 44.35100
C  5.86400 -0.24900 43.64500
C  1.87200 2.21800 42.40600
C  -0.98900 -1.29100 44.35000
C  2.97200 -3.58600 46.05700
N  3.72900 0.94800 43.32000
C  5.10100 0.72900 42.97300
C  5.65100 1.85600 42.07600
C  4.41500 2.85500 42.04200
C  3.23500 2.02000 42.63600
C  4.59200 4.12200 42.81800
C  5.92900 1.29700 40.68300
C  7.29900 1.73000 40.08500
H  7.20600 2.68600 38.92500
N  0.69500 0.33800 43.57200
C  0.75400 1.50800 42.86000
C  -0.63100 2.00600 42.53800
C  -1.52500 0.88900 42.88700
C  -0.62500 -0.09900 43.56900
C  -0.93200 3.30800 41.84600
C  -2.95700 0.89300 42.51600
O  -3.47300 1.86400 42.00800
C  -3.75900 -0.32800 42.81500
N  1.14700 -2.27500 45.02500
C  -0.21200 -2.31600 44.99100
C  -0.82200 -3.53100 45.71400
C  0.49800 -4.12500 46.35600
C  1.66500 -3.28800 45.77900
C  -1.96700 -3.21500 46.70900
C  0.59600 -5.71600 46.03400
C  1.24400 -6.59500 47.24900
N  4.00100 -1.76200 44.79000
C  4.15600 -2.90100 45.57300
C  5.52600 -3.22000 45.73700
C  6.18200 -2.21400 45.04600
C  5.26300 -1.31000 44.42700
C  6.11100 -4.39100 46.50200
C  7.43200 -1.68600 44.74000
O  8.53200 -2.16500 45.05700
C  7.32700 -0.37100 43.75900
C  7.88600 0.75500 44.46800
O  7.60100 1.06800 45.64100
O  8.82000 1.49400 43.71100
C  9.22100 2.76800 44.31200
H  1.67600 3.18800 41.94500
H  -2.07400 -1.41200 44.39200
H  3.15000 -4.47600 46.66500
H  6.51800 2.25200 42.60500
H  4.17800 3.15700 41.02200
H  4.11000 3.99700 43.78700
H  4.19400 5.01000 42.32700
H  5.61300 4.47700 42.96100
H  5.18800 1.77400 40.04100
H  5.87300 0.21400 40.79100
H  7.85600 0.87600 39.70100
H  7.91700 2.09500 40.90600
H  -1.87700 3.64300 42.27300
H  -0.91700 3.19300 40.76200
H  -0.19000 4.08500 42.03000
H  -4.70100 -0.34900 42.26700
H  -3.79400 -0.49400 43.89100
H  -3.07000 -1.10200 42.47700
H  -1.22400 -4.26400 45.01500
H  0.47400 -4.07200 47.44500
H  -1.72200 -3.65600 47.67500
H  -2.78100 -3.85100 46.36100
H  -2.30800 -2.18300 46.79500
H  0.90500 -5.98800 45.02500
H  -0.44600 -6.01700 45.92400
H  2.05700 -7.24900 46.93300
H  0.46000 -7.27200 47.58700
H  1.43100 -5.93700 48.09800
H  5.46300 -5.26400 46.42100
H  6.46000 -4.22200 47.52100
H  6.97200 -4.78700 45.96400
H  7.88900 -0.53700 42.84000
H  10.11200 2.59500 44.91500
H  8.44300 3.13200 44.98400
H  9.44600 3.55300 43.59000
Mg 8.35200 48.39900 28.21800
C  6.64300 47.46600 31.18600
C  11.33800 48.32400 29.80900
C  9.78200 49.61300 25.40700
C  5.15800 48.64100 26.54800
N  8.94900 47.87400 30.25000
C  8.06800 47.56100 31.31300
C  8.89600 47.52400 32.67200
C  10.33100 48.12900 32.15800
C  10.30500 48.09200 30.68100
C  10.86100 49.47900 32.76000
C  8.96700 46.06600 33.32400
C  8.77300 46.20400 34.81900
H  9.55000 45.25000 35.75900
N  10.28700 48.66400 27.61100
C  11.38200 48.58500 28.39000
C  12.59500 48.71000 27.56500
C  12.12200 49.12300 26.29000
C  10.65300 49.21300 26.41000
C  13.95800 48.43000 28.06100
C  12.88800 49.44700 25.02300
O  12.42700 49.92200 23.99900
C  14.31200 49.23400 24.98600
N  7.54600 49.16300 26.41200
C  8.39500 49.66500 25.46800
C  7.62800 50.26500 24.24300
C  6.15700 49.75600 24.51700
C  6.30000 49.10900 25.86800
C  7.76200 51.81000 24.21300
C  5.51300 48.75500 23.56400
C  5.89100 48.72600 22.06200
N  6.27800 48.05100 28.68300
C  5.14700 48.09500 27.87300
C  4.02000 47.76700 28.69300
C  4.54800 47.52600 29.99000
C  5.94900 47.71900 29.91100
C  2.60500 47.73000 28.22900
C  4.14300 47.15100 31.34500
O  2.99000 46.92800 31.80000
C  5.58400 47.15700 32.25300
C  5.70300 45.77300 32.86100
O  6.00700 44.77500 32.23100
O  5.42800 45.85500 34.17100
C  5.31100 44.57500 34.89000
H  12.26700 48.37800 30.38100
H  10.20000 50.06300 24.50400
H  4.29700 48.98500 25.97000
H  8.34600 48.26900 33.24600
H  11.07400 47.41600 32.51500
H  11.42200 50.04300 32.01500
H  11.51300 49.30000 33.61500
H  10.01700 50.09000 33.08100
H  9.92800 45.56000 33.22300
H  8.26500 45.39000 32.83600
H  7.73400 46.11000 35.13600
H  9.12200 47.20500 35.07400
H  13.93900 48.07300 29.09000
H  14.36700 49.43800 28.13900
H  14.63100 47.85000 27.43000
H  14.44100 48.15700 24.87300
H  14.78300 49.70200 25.85000
H  14.71700 49.80800 24.15300
H  7.95600 49.72600 23.35400
H  5.46700 50.59300 24.62400
H  8.67600 52.15300 24.69800
H  6.88000 52.25600 24.67300
H  7.68800 52.16900 23.18700
H  4.44300 48.86500 23.74200
H  5.80900 47.83800 24.07300
H  5.98000 49.72600 21.63600
H  4.95700 48.41800 21.59300
H  6.64600 47.97000 21.84900
H  2.33200 48.56500 27.58400
H  1.83800 47.70500 29.00400
H  2.46100 46.81400 27.65800
H  5.65700 47.84100 33.09800
H  4.27600 44.43800 35.20400
H  5.89600 44.60200 35.80900
H  5.63500 43.74200 34.26600

