158

Mg 27.33300 50.32000 26.78800
C  25.15900 51.48000 29.37700
C  29.41500 49.26700 29.08700
C  29.43500 49.53800 24.17900
C  25.14600 51.93700 24.47800
N  27.21300 50.30600 28.96600
C  26.25000 50.69000 29.86900
C  26.57900 50.20700 31.19900
C  28.07500 49.92500 31.16400
C  28.25800 49.79500 29.65100
C  28.97500 50.95000 31.90700
C  25.82600 48.91900 31.58700
C  25.36200 48.81100 33.04000
H  25.72100 49.95200 34.00400
N  29.21400 49.44100 26.63600
C  29.91700 49.12100 27.75800
C  31.22400 48.60700 27.32000
C  31.20300 48.69100 25.88100
C  29.88000 49.25500 25.51600
C  32.23800 48.14500 28.21400
C  32.35400 48.43700 25.01100
O  32.35200 48.98500 23.86500
C  33.58000 47.63700 25.42000
N  27.27000 50.78000 24.57200
C  28.23700 50.19700 23.79800
C  27.81500 50.35800 22.29600
C  26.37700 50.89700 22.40900
C  26.25300 51.22100 23.87300
C  28.88800 51.23600 21.39900
C  25.28100 49.93200 21.90700
C  24.35000 49.11100 22.87400
N  25.49500 51.31600 26.86700
C  24.81400 51.93500 25.86500
C  23.64700 52.54400 26.50000
C  23.69300 52.43800 27.85300
C  24.92400 51.71700 28.02000
C  22.57100 53.23100 25.75100
C  23.17500 52.79900 29.08400
O  22.19400 53.46900 29.44500
C  24.01400 52.09600 30.16400
C  24.48700 53.06300 31.23300
O  25.57200 53.51100 31.33000
O  23.36800 53.41600 31.93500
C  23.58100 54.17700 33.19300
H  30.14800 49.04700 29.86500
H  30.02900 49.13500 23.35600
H  24.30100 52.39300 23.95800
H  26.52800 51.03700 31.90400
H  28.36000 48.98500 31.63700
H  29.37700 50.40900 32.76300
H  28.55900 51.92400 32.16400
H  29.89400 51.14200 31.35200
H  26.51900 48.09800 31.40400
H  24.96400 48.74400 30.94200
H  25.61700 47.84700 33.48100
H  24.27700 48.89500 32.99000
H  31.97000 48.55100 29.18900
H  33.22800 48.54500 27.99600
H  32.34300 47.06100 28.16200
H  34.23800 48.13000 26.13500
H  34.18100 47.58800 24.51200
H  33.35800 46.62600 25.76300
H  27.81100 49.39500 21.78500
H  26.27400 51.88200 21.95400
H  29.75500 51.49700 22.00500
H  28.39100 52.12800 21.01900
H  29.23800 50.64400 20.55300
H  25.69600 49.28500 21.13300
H  24.68200 50.56200 21.24900
H  24.63400 49.08900 23.92700
H  24.27900 48.09000 22.49900
H  23.33800 49.51700 22.85000
H  22.19800 52.69000 24.88200
H  22.92300 54.16900 25.32200
H  21.75800 53.52200 26.41700
H  23.40600 51.30000 30.59300
H  24.61800 54.10900 33.52200
H  22.90600 53.79400 33.95900
H  23.32500 55.22200 33.01900
Mg -11.98000 16.47500 40.93200
C  -8.85200 15.08100 40.43300
C  -10.75100 19.58200 39.77100
C  -15.16600 17.74600 40.71400
C  -13.29900 13.42100 41.52200
N  -10.07100 17.16300 39.97600
C  -8.89000 16.43400 39.92300
C  -7.74900 17.38900 39.33600
C  -8.32100 18.78600 39.44900
C  -9.83700 18.53700 39.76300
C  -7.58900 19.72300 40.45800
C  -7.10100 16.93000 37.99100
C  -5.58500 17.02500 37.84300
H  -5.07300 16.88400 36.40100
N  -12.80800 18.41900 40.51200
C  -12.13400 19.52900 40.07400
C  -13.06500 20.64200 39.96600
C  -14.36900 20.15900 40.32200
C  -14.15000 18.71900 40.54100
C  -12.61400 22.08800 39.71300
C  -15.71000 20.98000 40.44700
O  -15.69100 22.19500 40.27500
C  -17.06100 20.43000 40.85700
N  -14.00600 15.64800 41.13100
C  -15.14300 16.40000 41.05800
C  -16.37900 15.49600 41.27500
C  -15.68300 14.12000 41.68200
C  -14.21800 14.38000 41.36900
C  -17.42900 15.96000 42.23900
C  -16.27500 12.97100 40.92800
C  -16.50800 11.66400 41.74500
N  -11.25900 14.66400 40.97600
C  -11.91200 13.51500 41.33400
C  -10.98700 12.38100 41.35500
C  -9.77300 13.00300 41.07800
C  -10.00700 14.38100 40.83500
C  -11.18200 10.88000 41.62900
C  -8.33100 12.73300 41.10400
O  -7.64800 11.70400 41.31700
C  -7.72700 14.11500 40.57300
C  -6.76600 14.63500 41.61200
O  -6.88100 15.64500 42.30600
O  -5.67800 13.71300 41.78000
C  -4.72400 13.84300 42.88900
H  -10.46800 20.59900 39.49300
H  -16.18700 18.12700 40.65000
H  -13.66200 12.40700 41.70500
H  -7.00700 17.33600 40.13200
H  -8.29300 19.36000 38.52200
H  -7.39000 20.61500 39.86400
H  -6.66500 19.22000 40.74400
H  -8.20300 19.80900 41.35500
H  -7.55900 17.51900 37.19800
H  -7.46600 15.95500 37.66600
H  -5.24200 16.15600 38.40600
H  -5.25900 17.95600 38.30600
H  -13.34900 22.62000 39.10800
H  -11.58400 22.24900 39.39500
H  -12.73200 22.46700 40.72800
H  -17.72100 21.29500 40.92100
H  -16.93100 19.86700 41.78100
H  -17.37500 19.81900 40.01100
H  -16.83800 15.29500 40.30700
H  -15.66500 13.96300 42.76100
H  -18.40800 15.89400 41.76300
H  -17.17800 17.00900 42.39300
H  -17.46600 15.29200 43.10000
H  -15.60200 12.68800 40.11900
H  -17.19100 13.25000 40.40700
H  -15.66300 11.02000 41.49900
H  -17.45000 11.14100 41.58500
H  -16.41200 11.88200 42.80900
H  -11.23800 10.39100 40.65700
H  -12.11700 10.73000 42.16800
H  -10.30700 10.52300 42.17300
H  -7.14500 13.97900 39.66100
H  -3.67000 13.72600 42.63700
H  -4.98300 13.12700 43.66800
H  -4.90500 14.83200 43.31100

