158

Mg 16.87200 52.70400 26.46900
C  18.88500 51.25000 28.83600
C  14.48000 53.33400 28.96200
C  14.98400 54.09400 24.10500
C  19.36000 52.05200 24.00900
N  16.69800 52.34300 28.67900
C  17.70500 51.83000 29.42200
C  17.33500 51.84700 30.95300
C  15.84200 52.33300 30.92400
C  15.67700 52.80500 29.44200
C  14.80200 51.21100 31.24600
C  18.32000 52.82800 31.70200
C  18.74300 52.38200 33.18000
H  17.67100 51.76600 34.10800
N  14.94700 53.58800 26.53100
C  14.12800 53.71000 27.61900
C  12.88800 54.21300 27.17000
C  12.95200 54.36200 25.77500
C  14.36200 53.96900 25.39100
C  11.70700 54.38900 28.08300
C  11.85600 54.64600 24.76800
O  12.09900 54.74000 23.57200
C  10.53400 54.96000 25.22500
N  17.13200 52.94300 24.30000
C  16.24300 53.75900 23.64000
C  16.72400 53.90700 22.13000
C  18.11900 53.20500 22.16200
C  18.23600 52.81300 23.60100
C  15.79100 53.12900 21.15300
C  19.31900 54.08200 21.65000
C  19.67600 55.37800 22.45500
N  18.73500 51.72000 26.38800
C  19.59900 51.50300 25.33900
C  20.67000 50.64100 25.79100
C  20.41000 50.48600 27.14200
C  19.23200 51.22700 27.48400
C  21.78100 50.17300 24.97400
C  20.90200 49.91200 28.44600
O  21.99900 49.27300 28.55600
C  19.97900 50.46200 29.59200
C  19.54100 49.31500 30.33500
O  18.60900 48.60900 29.98400
O  20.07100 49.32900 31.58000
C  19.63500 48.36300 32.68200
H  13.73500 53.53900 29.73400
H  14.38400 54.58700 23.33800
H  20.14700 52.03200 23.25200
H  17.34700 50.84600 31.38400
H  15.73800 53.20000 31.57700
H  15.13800 50.40800 31.90200
H  14.52900 50.70800 30.31900
H  13.93800 51.82800 31.49000
H  17.92200 53.83800 31.60400
H  19.27400 52.71300 31.18700
H  19.01800 53.35700 33.58200
H  19.68100 51.82600 33.17300
H  11.04400 53.59500 27.73900
H  11.14800 55.31600 27.95000
H  11.84600 54.22900 29.15200
H  10.65800 55.83300 25.86500
H  10.11000 54.18100 25.85900
H  9.87800 55.20600 24.39000
H  16.76900 54.97600 21.92400
H  18.16100 52.28900 21.57300
H  16.42100 52.86500 20.30300
H  14.93300 53.67800 20.76400
H  15.49500 52.18700 21.61500
H  19.07500 54.51700 20.68000
H  20.19900 53.44500 21.56300
H  20.28700 54.97400 23.26300
H  18.72600 55.66800 22.90300
H  20.11900 56.14200 21.81500
H  21.35200 49.41300 24.32100
H  22.41900 49.68600 25.71200
H  22.21800 50.97500 24.38000
H  20.68900 51.07400 30.14800
H  20.50100 47.75600 32.94700
H  18.83400 47.79700 32.20600
H  19.20700 49.00100 33.45600
Mg -1.16900 33.98600 26.55800
C  -3.11800 32.16500 28.86200
C  0.12500 35.80100 29.16000
C  0.27000 36.05700 24.38500
C  -2.86900 32.41000 23.94000
N  -1.67500 34.08900 28.83800
C  -2.28300 33.10200 29.59500
C  -2.08500 33.29100 31.08500
C  -1.05500 34.46000 31.02900
C  -0.87600 34.86900 29.58200
C  -1.40900 35.67300 31.87300
C  -1.63700 32.02600 31.85500
C  -2.63300 31.59700 33.05300
H  -1.97600 30.95600 34.30000
N  0.26100 35.51800 26.76100
C  0.62700 36.12200 27.89900
C  1.66900 37.08000 27.56300
C  1.58900 37.26100 26.15600
C  0.68800 36.24800 25.68800
C  2.44500 37.96500 28.53800
C  2.36200 38.24700 25.33100
O  2.21700 38.33200 24.13500
C  3.39400 39.14600 25.87800
N  -1.46400 34.32500 24.41700
C  -0.64700 35.18500 23.75800
C  -0.87700 35.10300 22.25300
C  -1.79800 33.86900 22.11500
C  -2.00600 33.45200 23.56400
C  -1.40800 36.37400 21.54500
C  -1.25500 32.80900 21.16800
C  0.09800 32.20000 21.45100
N  -2.73600 32.57300 26.42200
C  -3.30400 32.02800 25.27700
C  -4.23600 30.95300 25.64500
C  -4.18200 30.90500 27.07200
C  -3.25200 31.91500 27.46800
C  -5.04800 30.16700 24.53600
C  -4.71800 30.23100 28.32800
O  -5.44600 29.29000 28.42300
C  -4.09500 31.14600 29.51000
C  -5.28000 31.69200 30.21700
O  -6.02600 32.56800 29.78100
O  -5.40700 31.01600 31.42100
C  -6.45500 31.54400 32.34200
H  0.72100 36.09500 30.02700
H  0.82700 36.62200 23.63400
H  -3.21500 31.86400 23.06000
H  -2.99000 33.73800 31.49800
H  -0.08200 34.09600 31.35900
H  -1.80600 35.48100 32.86900
H  -2.12700 36.24100 31.28200
H  -0.60200 36.40300 31.94300
H  -0.67200 32.29600 32.28300
H  -1.50200 31.19100 31.16700
H  -3.09600 30.72300 32.59600
H  -3.33400 32.37000 33.36900
H  2.39500 37.59500 29.56200
H  2.09800 38.99500 28.46300
H  3.50900 37.90000 28.31200
H  3.94000 39.60400 25.05300
H  4.07900 38.48700 26.41100
H  3.07400 39.94800 26.54200
H  0.02700 34.70800 21.78800
H  -2.82600 34.15600 21.89600
H  -1.37200 36.40500 20.45600
H  -0.79100 37.21300 21.86600
H  -2.38100 36.64900 21.95400
H  -1.20100 33.30200 20.19600
H  -2.01900 32.04700 21.01700
H  -0.03600 31.12400 21.33600
H  0.35000 32.46300 22.47800
H  0.92300 32.57600 20.84500
H  -4.42300 29.51500 23.92600
H  -5.54000 30.86300 23.85600
H  -5.77700 29.47700 24.96100
H  -3.63900 30.50400 30.26300
H  -6.22100 32.58400 32.57000
H  -6.51800 30.94700 33.25200
H  -7.40900 31.58200 31.81700

