158

Mg 49.24100 46.24400 41.77500
C  45.87000 46.58100 40.72600
C  49.07200 42.93500 40.32200
C  52.31200 45.88700 42.60900
C  49.32500 49.64400 42.48800
N  47.70100 44.97500 40.60300
C  46.41300 45.36600 40.31200
C  45.57500 44.31000 39.57400
C  46.52400 43.00800 39.85700
C  47.88000 43.66400 40.25600
C  46.00400 42.02200 40.82500
C  45.60300 44.76300 38.09000
C  44.25600 45.01500 37.45800
H  44.01100 44.64600 36.03000
N  50.51300 44.70000 41.46600
C  50.28300 43.50100 40.84600
C  51.57900 42.82500 40.76900
C  52.49400 43.54400 41.57500
C  51.80900 44.80700 41.93000
C  51.78500 41.55000 39.94400
C  53.87600 43.05300 41.96300
O  54.31400 42.00800 41.43000
C  54.73400 43.79400 42.96500
N  50.64000 47.65200 42.19700
C  51.81500 47.19500 42.73600
C  52.79400 48.25200 43.26200
C  51.89300 49.48100 43.06600
C  50.55200 48.93300 42.55400
C  53.29700 48.06600 44.69300
C  52.44500 50.56200 42.09400
C  52.59000 51.99500 42.72600
N  47.88500 47.81100 41.74000
C  48.06700 49.14300 42.08600
C  46.76900 49.85900 41.88600
C  45.86100 48.84300 41.46000
C  46.60200 47.63900 41.30800
C  46.60800 51.32000 42.06800
C  44.54800 48.61200 41.01800
O  43.58900 49.31500 40.95600
C  44.49900 47.12500 40.55100
C  43.35400 46.59900 41.31900
O  43.37500 46.08700 42.45500
O  42.20700 46.73600 40.54200
C  41.01400 45.98400 41.02700
H  49.12600 42.04500 39.69200
H  53.37800 45.85600 42.84500
H  49.45000 50.72800 42.54200
H  44.64700 44.18800 40.13200
H  46.80300 42.51000 38.92800
H  45.69600 41.11700 40.30200
H  45.16000 42.45500 41.36200
H  46.76500 41.67100 41.52100
H  46.13400 43.99200 37.53100
H  46.26900 45.61500 37.95100
H  44.04900 46.08300 37.53300
H  43.45500 44.71800 38.13500
H  51.29900 41.62700 38.97200
H  51.57800 40.63600 40.50100
H  52.84000 41.44700 39.69100
H  54.18700 44.04300 43.87500
H  55.23500 44.71000 42.65200
H  55.49100 43.07600 43.27800
H  53.60200 48.21900 42.53100
H  51.68200 49.99300 44.00500
H  54.15900 47.41500 44.84200
H  52.44000 47.71200 45.26600
H  53.64900 49.00400 45.12000
H  51.66500 50.71500 41.34800
H  53.30900 50.24000 41.51400
H  53.39700 52.22200 43.42300
H  51.64300 52.28800 43.18000
H  52.71700 52.63600 41.85400
H  47.19200 51.78500 41.27400
H  46.85500 51.64400 43.07900
H  45.55900 51.58600 41.93600
H  44.24400 47.21500 39.49500
H  40.80500 46.11900 42.08800
H  41.16000 44.90800 40.93700
H  40.16100 46.35600 40.45800
Mg 16.59500 51.91900 26.23300
C  18.16200 50.23200 28.92300
C  14.21900 52.96900 28.20800
C  15.39900 53.34500 23.53200
C  19.16100 50.28300 24.21500
N  16.17600 51.44000 28.31600
C  16.92700 50.90200 29.26300
C  16.38700 51.18900 30.68100
C  14.95000 51.64900 30.35400
C  15.12300 52.14100 28.89000
C  13.91000 50.51300 30.50900
C  17.21600 52.32000 31.37300
C  17.62500 52.01500 32.81100
H  16.56900 52.43500 33.86800
N  14.94400 52.89100 25.96400
C  14.05100 53.30500 26.84800
C  13.17300 54.28100 26.33000
C  13.51300 54.44300 24.97100
C  14.64800 53.53300 24.76200
C  12.22300 55.02600 27.33300
C  13.05900 55.42700 23.91400
O  13.36600 55.50000 22.71700
C  11.99700 56.40700 24.37400
N  17.25000 51.89600 24.23200
C  16.47500 52.56300 23.28400
C  17.15300 52.50500 21.92900
C  18.42000 51.65000 22.14300
C  18.34500 51.29300 23.61400
C  16.20600 52.09900 20.77400
C  19.81400 52.20200 21.58400
C  20.69800 53.18300 22.54600
N  18.34100 50.50600 26.47300
C  19.17900 49.93400 25.60300
C  20.20100 49.17400 26.26500
C  19.82700 49.23100 27.61400
C  18.72700 50.03400 27.63100
C  21.14200 48.30500 25.60000
C  20.15600 48.75900 28.91200
O  21.01300 47.96900 29.26600
C  19.18700 49.54900 29.82700
C  18.52700 48.74600 30.80200
O  17.58500 48.06500 30.60400
O  19.15800 48.79000 31.97600
C  18.53800 48.06800 33.08700
H  13.38900 53.42600 28.75100
H  15.12400 53.91900 22.64500
H  19.83100 49.73800 23.54700
H  16.39700 50.29700 31.30600
H  14.64100 52.53200 30.91300
H  14.17900 49.84900 31.33000
H  13.78700 50.04100 29.53400
H  13.01000 51.06100 30.79000
H  16.60200 53.21900 31.41300
H  18.12900 52.65000 30.87700
H  18.58900 52.50200 32.96100
H  17.80800 50.94600 32.92400
H  11.58700 55.82000 26.94400
H  12.76100 55.38500 28.21000
H  11.63900 54.26200 27.84700
H  12.47700 57.05400 25.10800
H  11.07100 55.92500 24.68600
H  11.70700 56.99000 23.50000
H  17.57200 53.50900 21.86700
H  18.12200 50.68500 21.73400
H  16.82800 52.09900 19.87900
H  15.46000 52.87800 20.61400
H  15.70900 51.13100 20.83800
H  19.53500 52.68500 20.64800
H  20.49100 51.40600 21.27400
H  20.99200 54.13200 22.09700
H  21.58500 52.60000 22.79500
H  20.09600 53.33900 23.44100
H  20.60100 47.73500 24.84500
H  21.72300 47.79600 26.37000
H  21.94200 48.88900 25.14400
H  19.66000 50.32300 30.43200
H  17.48100 48.29400 33.23000
H  19.12700 48.32000 33.96900
H  18.62100 46.98300 33.02500

