158

Mg -2.26500 17.11300 27.70700
C  -2.83900 15.13500 30.57100
C  -2.35600 19.84300 29.62800
C  -2.33400 18.76100 24.88300
C  -2.57000 14.11200 25.83600
N  -2.49300 17.41800 29.88400
C  -2.71800 16.51600 30.81000
C  -2.73700 17.10800 32.23800
C  -2.80000 18.58000 31.88100
C  -2.60800 18.63400 30.36700
C  -3.97500 19.39700 32.45400
C  -1.59300 16.80100 33.26900
C  -1.11800 17.79300 34.37900
H  -1.06500 17.16400 35.73400
N  -2.28500 19.06700 27.28500
C  -2.24700 20.08100 28.22200
C  -1.93800 21.32700 27.50900
C  -1.86600 21.05700 26.10600
C  -2.16100 19.60600 26.04200
C  -1.77300 22.66400 28.21300
C  -1.45200 21.96900 24.97100
O  -1.40700 21.60000 23.83900
C  -1.22600 23.46000 25.22500
N  -2.62900 16.56900 25.68500
C  -2.60000 17.46100 24.71500
C  -2.79400 16.78800 23.28800
C  -2.56800 15.33300 23.66300
C  -2.49700 15.33700 25.20100
C  -4.19100 17.11400 22.71300
C  -1.49500 14.57000 22.84200
C  -0.08000 14.53600 23.33900
N  -2.62000 15.03100 28.10100
C  -2.80700 13.95700 27.22100
C  -2.94500 12.70100 27.99900
C  -3.03400 13.12400 29.33900
C  -2.86200 14.57500 29.32100
C  -3.12700 11.31000 27.43900
C  -3.21000 12.73000 30.68000
O  -3.36500 11.62900 31.12600
C  -3.13500 14.03000 31.56800
C  -1.97300 13.71300 32.41700
O  -0.81800 13.84400 32.15600
O  -2.46500 13.26500 33.64300
C  -1.48700 12.87200 34.60500
H  -2.48100 20.78700 30.16400
H  -2.29700 19.31900 23.94500
H  -2.74200 13.26000 25.17400
H  -3.70500 16.76400 32.60500
H  -1.90500 19.12000 32.19200
H  -4.51400 19.63000 31.53600
H  -3.79900 20.27900 33.06900
H  -4.72300 18.79100 32.96700
H  -0.72100 16.67700 32.62700
H  -1.89900 15.88800 33.77900
H  -1.78400 18.65400 34.41900
H  -0.18600 18.29500 34.12200
H  -0.89800 23.26700 27.96900
H  -1.81600 22.58200 29.29900
H  -2.64100 23.25400 27.92100
H  -2.14600 23.84900 25.66200
H  -1.23700 23.82400 24.19800
H  -0.24100 23.62400 25.66200
H  -2.03000 17.11500 22.58300
H  -3.46000 14.74100 23.46000
H  -4.71100 16.18700 22.47400
H  -4.08600 17.65900 21.77500
H  -4.85000 17.62500 23.41500
H  -1.45900 14.75400 21.76800
H  -1.82600 13.53200 22.85700
H  0.27700 15.24200 24.08900
H  0.45000 14.79900 22.42400
H  0.13700 13.51900 23.66700
H  -2.21000 10.72100 27.42500
H  -3.54200 11.34000 26.43200
H  -3.80500 10.78600 28.11300
H  -4.06100 14.24000 32.10300
H  -1.05900 13.75000 35.09000
H  -0.59100 12.49300 34.11400
H  -1.84700 12.15800 35.34500
Mg 54.03000 24.73500 44.11300
C  51.38300 26.97500 44.01700
C  51.86700 22.29700 42.81900
C  56.61600 22.67300 43.75300
C  56.16600 27.47600 44.75600
N  51.94800 24.71400 43.44400
C  51.03200 25.72300 43.49500
C  49.57500 25.25900 43.11300
C  49.71500 23.68900 43.31200
C  51.24200 23.54700 43.19400
C  49.26300 23.10100 44.72700
C  48.99800 25.64800 41.72300
C  49.91400 26.17900 40.61400
H  50.26700 25.14400 39.49500
N  54.22000 22.76200 43.35100
C  53.22100 21.92800 42.93600
C  53.77700 20.59200 42.72300
C  55.14700 20.55000 43.07100
C  55.38800 21.98200 43.48000
C  52.88100 19.36700 42.27400
C  56.16100 19.43000 42.97100
O  55.82200 18.30200 42.64000
C  57.60600 19.65000 43.18000
N  56.21800 25.11200 43.96200
C  57.02400 24.05100 43.94400
C  58.48000 24.57800 44.16200
C  58.35300 26.06900 44.35200
C  56.80600 26.27900 44.40900
C  59.35300 23.77400 45.19900
C  59.04300 27.11000 43.33800
C  59.99800 28.24700 43.84900
N  53.87700 26.80300 44.40300
C  54.77700 27.72900 44.84600
C  54.14900 28.95300 45.18400
C  52.79800 28.70200 44.91300
C  52.69100 27.39800 44.32200
C  54.87200 30.16900 45.77300
C  51.39300 29.25000 44.91400
O  51.05100 30.43700 45.14100
C  50.46000 28.15600 44.19400
C  50.08800 28.85200 42.96600
O  50.87400 29.40900 42.23400
O  48.68800 28.97300 42.76500
C  48.43000 29.60800 41.44900
H  51.21600 21.44600 42.60800
H  57.48300 22.08600 44.06500
H  56.76700 28.34200 45.04200
H  48.86800 25.67000 43.83300
H  49.27800 23.14700 42.47400
H  50.13400 22.83400 45.32500
H  48.68900 22.21100 44.47000
H  48.58800 23.75200 45.28300
H  48.24600 26.42500 41.85900
H  48.53900 24.81100 41.19700
H  50.77400 26.66600 41.07300
H  49.38700 26.99500 40.12000
H  53.11600 18.56000 42.96700
H  52.90300 19.14100 41.20700
H  51.84100 19.67800 42.37200
H  58.06700 18.77200 42.72700
H  57.84200 19.65800 44.24400
H  57.96500 20.59800 42.77900
H  58.87900 24.43300 43.15800
H  58.78100 26.32400 45.32200
H  58.65200 23.52500 45.99600
H  60.16300 24.39300 45.58400
H  59.67000 22.83900 44.73800
H  58.21300 27.52900 42.77000
H  59.57300 26.51000 42.59800
H  60.93000 28.10100 43.30200
H  60.21700 28.24400 44.91700
H  59.62800 29.22000 43.52700
H  55.27300 29.80500 46.71900
H  54.16200 30.93300 46.08900
H  55.75900 30.44200 45.20100
H  49.63000 28.03600 44.89000
H  48.59700 29.11300 40.49300
H  48.77900 30.62600 41.27500
H  47.36600 29.84100 41.49100

