158

Mg 16.67500 -2.48900 28.22400
C  16.08400 -0.32700 31.05900
C  18.22900 -4.56200 30.25300
C  17.59500 -4.02200 25.52800
C  14.98800 -0.00600 26.24600
N  17.19700 -2.34300 30.36100
C  16.81800 -1.50800 31.37000
C  17.10400 -2.02900 32.69300
C  18.16600 -3.17300 32.44600
C  17.90000 -3.40400 30.94500
C  19.70100 -2.75800 32.82000
C  15.91300 -2.47400 33.45700
C  15.78300 -1.96300 34.87000
H  16.99700 -1.50900 35.69600
N  17.62100 -4.12700 27.97600
C  18.19200 -4.93900 28.95300
C  18.78600 -6.11300 28.30100
C  18.54400 -5.97000 26.87700
C  17.91300 -4.69000 26.73000
C  19.60500 -7.14000 29.04100
C  18.87000 -6.90900 25.74800
O  18.63900 -6.62200 24.56600
C  19.63300 -8.18000 26.06900
N  16.36900 -1.99900 26.13700
C  16.92600 -2.85800 25.22300
C  16.84700 -2.28200 23.80700
C  15.74400 -1.15100 23.98100
C  15.58600 -1.06100 25.53600
C  18.21900 -1.86600 23.16800
C  14.42800 -1.34500 23.18600
C  13.91400 -0.16900 22.31500
N  15.75300 -0.55600 28.54900
C  15.10900 0.26400 27.59700
C  14.67700 1.43900 28.32400
C  14.96400 1.27200 29.64600
C  15.68100 0.07300 29.71900
C  13.90200 2.61800 27.90300
C  14.83900 1.73800 31.02200
O  14.24500 2.68000 31.53200
C  15.58500 0.73700 31.96700
C  16.62000 1.55400 32.67800
O  17.71300 1.80800 32.28800
O  16.07100 1.87900 33.89300
C  16.93800 2.66600 34.81300
H  18.57700 -5.32800 30.95000
H  17.98900 -4.52900 24.64500
H  14.60300 0.82800 25.65500
H  17.41900 -1.13800 33.23700
H  18.03900 -4.09900 33.00700
H  19.78300 -1.74500 33.21500
H  20.33300 -3.10300 32.00200
H  20.05200 -3.44300 33.59000
H  15.92100 -3.54800 33.63800
H  15.02400 -2.18900 32.89300
H  15.14200 -2.59800 35.48100
H  15.10600 -1.11500 34.76900
H  19.46700 -6.95100 30.10500
H  20.66200 -7.03700 28.79300
H  19.34400 -8.16600 28.78300
H  20.50100 -8.04800 26.71500
H  19.97300 -8.55600 25.10400
H  18.93800 -8.82300 26.61000
H  16.34000 -3.04700 23.21900
H  16.16300 -0.20000 23.65000
H  18.13700 -0.86600 22.74100
H  18.50900 -2.58100 22.39800
H  19.01600 -1.93800 23.90800
H  13.69200 -1.58500 23.95300
H  14.43700 -2.28100 22.62600
H  13.43200 -0.55200 21.41600
H  14.75000 0.48800 22.07700
H  13.11400 0.36600 22.82700
H  14.21200 2.64400 26.85800
H  14.21300 3.54400 28.38700
H  12.83300 2.52200 28.09300
H  14.80500 0.31700 32.60100
H  16.55900 2.60700 35.83300
H  16.98500 3.73700 34.61500
H  17.97100 2.32000 34.77100
Mg 47.59800 15.48200 27.67600
C  45.36200 14.90500 30.23000
C  49.10500 17.86900 29.80900
C  49.58100 16.34200 25.19300
C  45.40800 13.77900 25.48200
N  47.31900 16.19000 29.85500
C  46.43000 15.63700 30.70600
C  46.74700 16.11800 32.10600
C  47.76700 17.31000 31.93900
C  48.05900 17.14100 30.43100
C  47.23300 18.66900 32.44900
C  47.23000 14.98600 33.03400
C  47.08100 15.45900 34.48800
H  48.31000 15.22200 35.40000
N  49.32000 16.69400 27.59600
C  49.72600 17.63400 28.53400
C  50.92200 18.21800 27.96300
C  51.13500 17.72400 26.67300
C  49.97000 16.85900 26.44700
C  51.78100 19.31700 28.73300
C  52.27100 18.05000 25.74500
O  52.43000 17.52100 24.66600
C  53.26500 19.09500 26.15800
N  47.55900 14.98400 25.56000
C  48.52900 15.51700 24.73800
C  48.10900 15.24900 23.22300
C  46.91100 14.24100 23.34400
C  46.56300 14.32400 24.85700
C  47.80200 16.52700 22.40200
C  47.23900 12.76800 22.94100
C  47.97000 11.79400 23.94500
N  45.77700 14.52000 27.74600
C  45.01400 13.85200 26.85100
C  43.73300 13.50200 27.44600
C  43.84900 13.80000 28.78600
C  45.09600 14.47900 28.95100
C  42.60700 12.88700 26.59000
C  43.10400 13.82100 30.06300
O  41.92600 13.56400 30.34000
C  44.13000 14.45900 31.03900
C  43.47900 15.53100 31.84000
O  42.87800 16.50300 31.41200
O  43.49100 15.24800 33.19500
C  42.92600 16.31400 34.00900
H  49.45400 18.66700 30.46900
H  50.12800 16.73200 24.33200
H  44.69800 13.26100 24.83400
H  45.83300 16.49600 32.56500
H  48.68700 17.17400 32.50700
H  47.61500 19.44800 31.78900
H  47.73500 18.95000 33.37500
H  46.14700 18.75700 32.44100
H  48.26000 14.76600 32.75400
H  46.72600 14.02700 32.92000
H  46.27900 14.83000 34.87300
H  46.64300 16.44100 34.66300
H  51.26900 19.60800 29.65000
H  51.81700 20.17600 28.06300
H  52.80000 19.05700 29.01900
H  54.04400 19.02200 25.39800
H  53.79400 18.92700 27.09600
H  52.89100 20.11900 26.14900
H  48.94800 14.70900 22.78500
H  46.05000 14.55400 22.75400
H  48.70500 16.74600 21.83300
H  47.45100 17.37500 22.99000
H  47.02700 16.27000 21.68000
H  47.93000 12.67800 22.10300
H  46.28700 12.29600 22.69700
H  48.86800 11.33200 23.53400
H  47.23600 11.04200 24.23400
H  48.14100 12.16300 24.95600
H  41.65500 13.09700 27.07700
H  42.79700 11.81700 26.50400
H  42.59400 13.29400 25.57800
H  44.34400 13.64800 31.73600
H  43.33000 17.28700 33.72800
H  43.04200 15.91800 35.01700
H  41.86900 16.35800 33.74600

