158

Mg -0.81100 7.66000 25.17200
C  -0.05500 9.47900 28.23400
C  -0.82100 4.75600 27.09600
C  -1.13900 5.94800 22.40900
C  -0.08700 10.61400 23.40800
N  -0.44500 7.20600 27.44500
C  -0.21400 8.11800 28.48300
C  -0.30500 7.49000 29.83700
C  -0.36900 5.88900 29.52500
C  -0.55300 5.92500 27.92600
C  0.80100 5.09000 30.14800
C  -1.42400 7.89100 30.82500
C  -1.08300 7.95900 32.31000
H  0.06600 7.16500 32.95800
N  -0.94500 5.67600 24.77900
C  -0.91600 4.57000 25.68500
C  -1.16500 3.35900 24.99800
C  -1.22900 3.69700 23.65100
C  -1.07500 5.17200 23.51300
C  -1.28300 2.04600 25.73800
C  -1.39300 2.80200 22.40600
O  -1.49400 3.28600 21.30300
C  -1.59100 1.31100 22.63000
N  -0.52700 8.26900 23.25000
C  -0.86900 7.35200 22.25300
C  -0.82200 7.94800 20.86800
C  -0.51400 9.39500 21.16800
C  -0.35200 9.46800 22.69300
C  0.06500 7.27900 19.78500
C  -1.46200 10.49000 20.67000
C  -2.75700 10.68500 21.49500
N  -0.18300 9.72100 25.65500
C  0.05300 10.80000 24.83000
C  0.48100 11.93100 25.62000
C  0.46000 11.47700 26.95500
C  0.02300 10.13900 26.94800
C  0.73900 13.40300 25.20500
C  0.68800 11.87400 28.35900
O  1.05600 12.99400 28.77400
C  0.29300 10.57600 29.25200
C  1.44800 10.29300 30.17000
O  2.31600 9.43900 29.94200
O  1.30900 11.06700 31.31000
C  2.51500 10.98900 32.18500
H  -0.83100 3.83900 27.68800
H  -1.47000 5.57400 21.43800
H  0.09100 11.51200 22.81100
H  0.59900 7.74100 30.39200
H  -1.30600 5.42900 29.84000
H  1.53900 5.69000 30.68000
H  1.24300 4.67000 29.24500
H  0.42900 4.31800 30.82200
H  -2.26000 7.19200 30.79000
H  -1.69000 8.92600 30.61200
H  -2.00400 7.61200 32.77900
H  -0.92200 8.99500 32.60800
H  -0.84100 2.18800 26.72500
H  -0.66500 1.29900 25.24000
H  -2.35100 1.82600 25.73800
H  -2.49800 1.13400 23.20700
H  -0.64800 1.01000 23.08600
H  -1.63800 0.80500 21.66600
H  -1.84900 7.74100 20.56800
H  0.51900 9.68600 20.97900
H  0.70800 6.48000 20.15300
H  0.73500 8.01500 19.34200
H  -0.57700 6.71900 19.10500
H  -1.74200 10.45300 19.61700
H  -0.88900 11.41600 20.69900
H  -2.79900 10.03500 22.36900
H  -3.65900 10.56500 20.89400
H  -2.80900 11.71300 21.85300
H  1.37500 13.78800 26.00300
H  -0.19800 13.94400 25.33700
H  1.21000 13.58300 24.23900
H  -0.68800 10.71400 29.70700
H  2.74900 9.93300 32.32100
H  2.21900 11.36800 33.16300
H  3.30700 11.59600 31.74700
Mg 40.36000 10.69600 30.28600
C  42.29400 12.08900 32.80700
C  38.29300 9.35400 32.71000
C  38.90000 8.94400 27.84500
C  43.19800 11.05300 28.10900
N  40.27900 10.72100 32.48700
C  41.10700 11.50400 33.31700
C  40.56500 11.39500 34.77200
C  39.26700 10.52100 34.68300
C  39.31900 10.08400 33.22200
C  39.19700 9.24900 35.60800
C  40.26400 12.80200 35.32800
C  40.61200 12.92900 36.83700
H  39.61700 13.83700 37.71400
N  38.76100 9.44200 30.31600
C  37.96800 9.05500 31.34600
C  36.84100 8.35500 30.86100
C  37.02300 8.17200 29.44700
C  38.27300 8.89700 29.09400
C  35.79300 7.82300 31.82300
C  36.17300 7.28500 28.46300
O  36.54300 7.02800 27.33500
C  35.01900 6.58400 28.95600
N  41.01700 10.07500 28.29100
C  40.15300 9.36100 27.43900
C  40.59600 9.24400 26.01400
C  41.97000 10.05800 26.08400
C  42.06400 10.41900 27.56400
C  40.73900 7.74800 25.44000
C  42.07400 11.27500 25.11100
C  41.90600 12.69100 25.74300
N  42.23800 11.64100 30.29000
C  43.30600 11.55100 29.41800
C  44.43500 12.28500 29.96300
C  44.06000 12.49800 31.33200
C  42.76000 12.07100 31.47800
C  45.79500 12.44400 29.34900
C  44.53300 13.04800 32.55600
O  45.46800 13.70200 32.96100
C  43.40800 12.68300 33.62800
C  44.00400 11.70500 34.58500
O  44.33100 10.54400 34.49100
O  44.13700 12.41900 35.79400
C  44.69500 11.69600 36.96700
H  37.66200 8.94400 33.50100
H  38.44400 8.44100 26.99000
H  44.09200 11.06300 27.48100
H  41.26800 10.82900 35.38400
H  38.33100 11.04700 34.87000
H  38.23500 8.76100 35.76000
H  39.51500 9.65500 36.56800
H  39.82300 8.38100 35.40200
H  39.18100 12.90000 35.39600
H  40.50800 13.58900 34.61400
H  41.55500 13.47000 36.91500
H  40.71500 11.95800 37.32200
H  35.96400 6.74700 31.77800
H  34.73700 7.96500 31.59200
H  36.03700 8.07600 32.85500
H  35.55600 5.96000 29.67100
H  34.57100 5.98100 28.16500
H  34.38100 7.39000 29.31800
H  39.93900 9.73600 25.29600
H  42.82300 9.44600 25.79100
H  41.73100 7.32300 25.59300
H  40.47700 7.70900 24.38200
H  40.08900 7.03800 25.95100
H  41.35500 11.06200 24.32000
H  43.04400 11.19200 24.62100
H  42.13300 12.76600 26.80600
H  40.86300 12.96700 25.58900
H  42.55600 13.42600 25.26800
H  46.07400 11.63400 28.67600
H  46.49600 12.56600 30.17400
H  45.79500 13.25100 28.61600
H  43.11500 13.57600 34.18100
H  43.96400 11.14800 37.56200
H  45.22600 12.44500 37.55400
H  45.32600 10.87100 36.63800

