158

Mg 17.16500 -2.72700 27.98900
C  16.22200 -0.49200 30.75600
C  19.13400 -4.32700 30.05400
C  18.13300 -4.27900 25.30600
C  15.42200 -0.37300 25.89400
N  17.61800 -2.40900 30.12900
C  17.13700 -1.53700 31.08700
C  17.67800 -1.81500 32.48000
C  18.74700 -2.91100 32.18200
C  18.52000 -3.27800 30.68500
C  20.10800 -2.38500 32.49000
C  16.48900 -2.21200 33.37500
C  16.49000 -1.88500 34.85600
H  17.67500 -1.31600 35.49100
N  18.34000 -4.09100 27.77300
C  19.03500 -4.77400 28.74900
C  19.78400 -5.89900 28.19800
C  19.53400 -5.82800 26.76500
C  18.63300 -4.70100 26.58400
C  20.92800 -6.48900 29.00500
C  20.05200 -6.76900 25.68600
O  19.85200 -6.64700 24.48900
C  20.77100 -8.04400 26.14600
N  16.89100 -2.35900 25.86000
C  17.32600 -3.23200 24.95600
C  17.20600 -2.69900 23.50500
C  16.18000 -1.58200 23.79200
C  16.10100 -1.43400 25.28500
C  18.67300 -2.24300 23.07700
C  14.82000 -1.73200 23.08400
C  13.64900 -2.25100 23.95700
N  15.97400 -0.92400 28.24100
C  15.37200 -0.07800 27.28700
C  14.71500 1.08600 27.91000
C  14.96900 0.91100 29.29600
C  15.78500 -0.25700 29.41900
C  13.87300 2.15700 27.23400
C  14.77500 1.49500 30.59300
O  14.23100 2.55700 30.85500
C  15.51600 0.57700 31.61800
C  16.29200 1.31500 32.65200
O  17.44700 1.65900 32.51500
O  15.47100 1.46300 33.77200
C  16.06900 2.28100 34.85700
H  19.79100 -4.89500 30.71600
H  18.53400 -4.84800 24.46400
H  15.02300 0.44500 25.29100
H  18.14000 -0.89900 32.84500
H  18.48000 -3.88400 32.59300
H  20.69000 -3.25500 32.79500
H  20.16000 -1.61500 33.26000
H  20.62900 -1.94900 31.63700
H  16.35600 -3.29400 33.38600
H  15.56200 -1.84500 32.93500
H  16.12600 -2.80700 35.31000
H  15.66400 -1.18000 34.94700
H  21.41700 -5.68800 29.55900
H  21.73100 -7.00000 28.47400
H  20.40300 -7.16600 29.67900
H  20.79800 -8.73200 25.30100
H  20.35200 -8.58600 26.99400
H  21.79700 -7.74300 26.36000
H  16.83600 -3.48700 22.84800
H  16.65500 -0.69700 23.36900
H  19.37000 -2.20300 23.91400
H  18.67400 -1.25900 22.61000
H  18.98900 -3.00000 22.35900
H  14.97500 -2.49400 22.32000
H  14.65800 -0.83100 22.49200
H  13.17000 -1.37700 24.39700
H  13.90200 -2.94100 24.76200
H  12.90000 -2.71100 23.31200
H  12.80300 1.97800 27.34200
H  14.15300 2.12000 26.18100
H  14.10000 3.15300 27.61300
H  14.70300 0.00800 32.06900
H  15.58000 2.05900 35.80600
H  15.77900 3.32100 34.71200
H  17.14000 2.14400 35.00800
Mg 41.65300 41.08000 26.72500
C  41.18700 43.67900 29.16300
C  42.58800 38.99700 29.33200
C  42.81400 38.86500 24.34000
C  41.51100 43.59000 24.24200
N  41.68300 41.29500 28.88200
C  41.41900 42.38200 29.65700
C  41.48900 42.11700 31.13400
C  42.12500 40.74900 31.22700
C  42.05700 40.23000 29.71700
C  43.50400 40.66900 32.00100
C  40.00600 42.28600 31.70100
C  39.80700 41.79800 33.17900
H  40.18800 42.73000 34.36700
N  42.42400 39.14200 26.81200
C  42.70700 38.46200 27.97800
C  43.12700 37.10800 27.56900
C  43.26200 37.04700 26.17700
C  42.89300 38.44900 25.71600
C  43.37400 36.01300 28.58700
C  43.49900 35.93200 25.19400
O  43.41400 35.95600 23.98600
C  43.83600 34.53800 25.73900
N  42.05000 41.20700 24.61300
C  42.28900 40.05900 23.83900
C  42.12600 40.43800 22.43000
C  41.33400 41.86200 22.41000
C  41.71700 42.27400 23.79600
C  43.46900 40.48400 21.68300
C  39.86300 41.89100 22.10600
C  39.01000 40.96700 22.88600
N  41.25900 43.13800 26.59500
C  41.30300 44.04000 25.54600
C  41.03800 45.35200 26.02200
C  41.01200 45.23900 27.39900
C  41.22700 43.92300 27.71800
C  40.88500 46.59300 25.18400
C  40.88800 45.96600 28.61300
O  40.79500 47.15200 28.73800
C  41.03300 45.02900 29.76700
C  42.13500 45.39900 30.62200
O  43.25300 45.00400 30.52700
O  41.72700 46.35800 31.49600
C  42.68300 46.74800 32.55200
H  42.83200 38.32000 30.15300
H  43.18300 38.18300 23.57100
H  41.33500 44.32600 23.45500
H  42.18100 42.87100 31.51100
H  41.43600 40.06100 31.71500
H  43.56400 41.56400 32.62000
H  44.49400 40.55600 31.55800
H  43.50100 39.82500 32.69100
H  39.25000 41.76000 31.11700
H  39.87500 43.35700 31.85800
H  40.43200 40.90800 33.25000
H  38.78000 41.43600 33.24200
H  42.98700 35.02800 28.32800
H  43.09600 36.30800 29.59900
H  44.46100 35.96000 28.51600
H  43.12200 34.06100 26.41100
H  44.80900 34.50100 26.22800
H  44.01800 33.92100 24.85900
H  41.37100 39.82400 21.93900
H  41.83000 42.56800 21.74300
H  44.20100 40.83200 22.41200
H  43.55700 41.13800 20.81500
H  43.74100 39.50100 21.29700
H  39.77000 41.74300 21.03000
H  39.43500 42.87800 22.28100
H  39.60600 40.21900 23.41000
H  38.36200 40.47000 22.16400
H  38.31800 41.50700 23.53300
H  39.90500 46.70700 24.72200
H  41.55300 46.45800 24.33400
H  41.13800 47.47300 25.77500
H  40.11200 45.15700 30.33600
H  42.46500 46.21600 33.47900
H  42.66000 47.82600 32.70800
H  43.75000 46.61900 32.37000

