158

Mg 8.22800 3.00700 27.75500
C  9.85400 1.73900 30.39200
C  6.29300 4.92400 29.66100
C  7.09200 4.50900 24.95800
C  10.16500 0.86700 25.55800
N  7.97600 3.16300 29.81300
C  8.85700 2.71800 30.76400
C  8.52400 3.19600 32.13000
C  7.30000 4.15400 31.87900
C  7.08600 4.06500 30.32900
C  6.00300 3.98100 32.69700
C  9.76600 3.75800 32.85800
C  9.36800 4.70700 34.06800
H  9.95200 4.30000 35.44500
N  6.70400 4.41200 27.37700
C  6.02200 5.13100 28.29200
C  5.23200 6.12600 27.72700
C  5.63300 6.14400 26.30900
C  6.50700 4.95000 26.12200
C  4.19700 7.02900 28.47600
C  5.24400 7.12900 25.23300
O  5.68200 7.07600 24.08500
C  4.30100 8.27100 25.52300
N  8.40100 2.56400 25.50800
C  7.90800 3.45700 24.62900
C  8.30800 3.18800 23.23000
C  9.40700 2.07700 23.43500
C  9.28300 1.73500 24.90900
C  7.19700 2.74800 22.27100
C  10.86700 2.51200 23.11500
C  11.68500 3.32300 24.16900
N  9.64000 1.57400 27.89000
C  10.35500 0.81800 26.94600
C  11.33100 -0.01300 27.66800
C  11.11400 0.25900 28.97800
C  10.09500 1.20700 29.11900
C  12.19500 -0.96700 26.97500
C  11.55800 -0.08800 30.31000
O  12.37200 -0.89200 30.69000
C  10.73600 0.92600 31.31000
C  10.02300 0.08500 32.28400
O  9.16500 -0.74600 32.06800
O  10.59400 0.29700 33.53900
C  9.91900 -0.44700 34.60600
H  5.80900 5.61200 30.35800
H  7.02400 5.25500 24.16300
H  10.98900 0.51000 24.93600
H  8.13100 2.43600 32.80500
H  7.55400 5.21000 31.97200
H  5.89900 3.00300 33.16600
H  5.12300 3.96900 32.05300
H  5.96000 4.83900 33.36800
H  10.36000 4.38800 32.19700
H  10.38300 2.98500 33.31600
H  8.29500 4.84800 34.20000
H  9.79200 5.68900 33.85700
H  4.10900 6.53200 29.44200
H  3.25500 6.96600 27.93100
H  4.45000 8.08000 28.61900
H  4.05800 8.74000 24.56900
H  4.62900 9.02200 26.24100
H  3.47900 7.67600 25.92200
H  8.80700 4.05600 22.80000
H  9.17100 1.25100 22.76400
H  6.28300 2.87800 22.85100
H  7.17400 1.66400 22.16200
H  7.29800 3.18300 21.27700
H  10.80100 2.97300 22.12900
H  11.37800 1.55200 23.04300
H  10.97000 3.71300 24.89400
H  12.10900 4.23600 23.75200
H  12.31900 2.73700 24.83500
H  12.94500 -0.45700 26.37000
H  11.54900 -1.50000 26.27700
H  12.70400 -1.67300 27.63100
H  11.38300 1.49000 31.98200
H  10.42200 -0.37400 35.57100
H  9.85700 -1.49900 34.32800
H  8.92300 -0.02600 34.73800
Mg 54.49400 24.18600 45.43600
C  51.71200 26.26500 44.92100
C  52.70900 21.46600 44.25700
C  57.25700 22.43700 45.56500
C  56.28100 27.12900 46.31500
N  52.44200 23.99900 44.59800
C  51.53100 24.96000 44.37800
C  50.25400 24.36200 43.73800
C  50.49700 22.81500 44.01700
C  51.98600 22.75800 44.21700
C  49.94700 22.23600 45.30000
C  50.25700 24.76000 42.19200
C  48.94400 25.13800 41.44000
H  48.44900 24.18000 40.27400
N  54.85000 22.16900 45.02700
C  54.03000 21.22200 44.52000
C  54.78000 19.96100 44.41600
C  56.09000 20.19600 44.93000
C  56.07500 21.64000 45.24000
C  54.04300 18.64100 44.01000
C  57.18400 19.12300 45.13900
O  56.89800 18.00200 44.74400
C  58.51900 19.48900 45.61600
N  56.55200 24.73900 45.79900
C  57.47300 23.73300 45.87500
C  58.82800 24.35300 46.31700
C  58.52900 25.89400 46.31900
C  57.01300 25.87600 46.24400
C  59.33000 23.62700 47.61600
C  59.06200 26.86000 45.08100
C  60.54100 26.63700 44.70800
N  54.17100 26.28300 45.60400
C  54.97400 27.34900 46.03000
C  54.20600 28.50300 46.10900
C  52.94800 28.16000 45.67000
C  52.91700 26.77100 45.40700
C  54.67400 29.79500 46.50100
C  51.62100 28.75400 45.40300
O  51.15800 29.84100 45.61800
C  50.79700 27.51900 44.82300
C  50.35900 27.89700 43.44200
O  51.20500 28.26000 42.60800
O  48.98700 27.81400 43.27400
C  48.49800 28.30200 41.99600
H  52.00500 20.67600 43.98900
H  58.22300 21.94300 45.68400
H  56.80300 28.03200 46.64000
H  49.38200 24.68400 44.30600
H  50.25100 22.18100 43.16600
H  49.08100 22.78400 45.67200
H  50.65300 22.11100 46.12100
H  49.61100 21.22300 45.07600
H  50.66800 23.88700 41.68500
H  50.90800 25.61800 42.02100
H  49.09000 26.05000 40.86100
H  48.18700 25.29400 42.20800
H  53.56700 18.82700 43.04700
H  53.28600 18.15300 44.62500
H  54.74100 17.83100 43.79700
H  59.13000 20.07300 44.92800
H  59.05700 18.58900 45.91700
H  58.34000 20.00000 46.56200
H  59.55100 24.21000 45.51300
H  58.63500 26.34800 47.30500
H  59.74900 24.37400 48.29000
H  60.08200 22.85300 47.46500
H  58.51700 23.21800 48.21600
H  58.77100 27.87300 45.36100
H  58.54900 26.74000 44.12700
H  60.54900 26.14600 43.73500
H  61.00300 26.04700 45.50000
H  61.15000 27.51700 44.49800
H  54.19400 30.01300 47.45500
H  54.36600 30.35500 45.61800
H  55.73600 30.03000 46.55700
H  49.95300 27.27100 45.46600
H  49.09800 28.01900 41.13100
H  48.63400 29.38400 41.99900
H  47.46000 28.14900 41.69900

