158

Mg 40.20400 9.31100 28.75700
C  42.13300 10.66800 31.37300
C  37.89100 8.35300 31.28200
C  38.49300 7.96700 26.38500
C  42.76400 10.19700 26.52800
N  39.99700 9.71900 31.10100
C  40.91600 10.31100 31.91000
C  40.55600 10.14400 33.38800
C  39.30800 9.18100 33.30500
C  39.02200 9.14000 31.76300
C  39.58800 7.78100 33.97600
C  40.25600 11.53100 34.11200
C  39.81500 11.30300 35.57000
H  40.80100 11.56300 36.66400
N  38.43700 8.30900 28.80600
C  37.67600 8.01300 29.88800
C  36.57900 7.13400 29.50300
C  36.70000 6.99200 28.07800
C  37.91300 7.76600 27.67300
C  35.65700 6.46200 30.46700
C  35.86200 6.15700 27.07400
O  36.07900 6.04700 25.89100
C  34.64300 5.47200 27.50300
N  40.63300 8.94500 26.72100
C  39.74000 8.47800 25.93500
C  40.01100 8.69600 24.43800
C  41.35500 9.47400 24.55500
C  41.61300 9.52700 26.01200
C  40.03200 7.48200 23.54500
C  41.40800 10.83200 23.80400
C  41.02200 12.16700 24.49800
N  42.09300 10.12000 28.84500
C  42.97800 10.47600 27.90700
C  44.16600 11.12300 28.49300
C  43.90400 11.20100 29.87200
C  42.59900 10.68100 29.99400
C  45.38700 11.46800 27.75200
C  44.42800 11.57800 31.08100
O  45.50600 12.00500 31.42200
C  43.35600 11.21500 32.11600
C  43.91400 10.29000 33.23100
O  43.97800 9.04600 33.15700
O  44.17900 10.94400 34.40100
C  44.58700 10.19300 35.54700
H  37.27700 7.84200 32.02700
H  37.83100 7.65800 25.57500
H  43.53000 10.57900 25.85000
H  41.48800 9.78400 33.82400
H  38.39800 9.60700 33.72900
H  38.99100 7.76000 34.88800
H  40.65300 7.72900 34.19900
H  39.29500 6.94500 33.34100
H  39.47400 12.06600 33.57300
H  41.15200 12.15100 34.07800
H  39.57300 10.24400 35.65500
H  38.95700 11.90100 35.87900
H  36.15300 5.61200 30.93500
H  34.77000 5.95700 30.08500
H  35.27700 7.14400 31.22700
H  34.03800 5.09100 26.68000
H  34.05500 6.08500 28.18500
H  34.88000 4.57500 28.07500
H  39.21800 9.39600 24.17700
H  42.22500 9.00700 24.09500
H  40.68200 7.60600 22.67900
H  39.03200 7.44700 23.11200
H  40.18900 6.56600 24.11500
H  41.01200 10.69900 22.79800
H  42.48300 10.89900 23.63600
H  40.90000 11.92400 25.55300
H  40.21400 12.60000 23.90700
H  41.87000 12.85200 24.50100
H  45.59800 12.53600 27.81100
H  45.33900 11.19500 26.69700
H  46.08600 10.87400 28.33900
H  43.15400 12.11700 32.69400
H  45.43100 10.72200 35.98800
H  44.78800 9.14200 35.33800
H  43.83000 10.18200 36.33100
Mg 48.11400 44.62500 43.63300
C  44.66400 44.06100 43.21200
C  48.62700 41.39000 42.54700
C  51.42100 45.27800 43.62400
C  47.36700 48.06000 43.39700
N  46.74800 43.02400 42.92200
C  45.38800 42.93200 42.91000
C  44.84600 41.57000 42.66300
C  46.17600 40.66700 42.65900
C  47.31400 41.74000 42.71600
C  46.29400 39.63500 43.81300
C  44.06200 41.34700 41.35300
C  44.47200 42.19900 40.21800
H  44.15700 41.50400 38.90300
N  49.80000 43.41000 43.31600
C  49.79900 42.10100 42.84600
C  51.16900 41.73300 42.72700
C  52.02600 42.77300 43.11300
C  51.09400 43.88900 43.43700
C  51.50200 40.34200 42.33800
C  53.53500 42.74600 43.18800
O  54.15100 41.77500 42.79300
C  54.36300 43.92400 43.73600
N  49.24400 46.44300 43.43200
C  50.55700 46.41700 43.66400
C  51.12200 47.79400 43.70800
C  49.89400 48.71600 43.33300
C  48.76700 47.69100 43.40000
C  51.85200 48.08700 45.09600
C  50.01300 49.44400 41.95800
C  50.31400 50.92200 41.99900
N  46.35500 45.86900 43.62100
C  46.23500 47.23300 43.57400
C  44.75500 47.54300 43.53900
C  44.14100 46.29000 43.36600
C  45.17300 45.33500 43.44000
C  44.00200 48.92600 43.45700
C  42.81800 45.61000 43.16000
O  41.70900 46.16300 43.14200
C  43.13100 44.13300 43.13600
C  42.33900 43.43300 44.27700
O  41.38900 42.66100 44.10600
O  42.68500 43.73200 45.60500
C  41.90000 43.26700 46.75800
H  48.71600 40.36200 42.19000
H  52.49700 45.39600 43.47800
H  47.05100 49.09900 43.50800
H  44.15600 41.18500 43.41400
H  46.36800 40.22600 41.68100
H  45.34800 39.49400 44.33500
H  46.99300 39.94600 44.58900
H  46.50400 38.70500 43.28500
H  43.04400 41.61000 41.64000
H  44.00500 40.26300 41.25800
H  45.55700 42.27900 40.28900
H  44.06800 43.20500 40.33500
H  52.04800 40.21700 41.40300
H  50.66500 39.65800 42.19700
H  52.17600 39.92700 43.08600
H  54.46300 44.67300 42.95100
H  55.36200 43.57300 43.99400
H  53.96300 44.49000 44.57800
H  51.86900 47.87400 42.91900
H  49.74200 49.51800 44.05500
H  51.57700 47.36400 45.86500
H  51.57500 49.09000 45.42300
H  52.93900 48.06400 45.02100
H  49.05400 49.36600 41.44500
H  50.79500 48.97000 41.36400
H  51.16300 51.16200 41.35900
H  50.49500 51.16100 43.04700
H  49.39500 51.49900 41.89800
H  43.89300 49.37900 42.47200
H  44.65900 49.60500 44.00100
H  43.05000 48.91200 43.98800
H  42.78500 43.69200 42.20100
H  41.92000 42.18800 46.91100
H  40.86500 43.60700 46.72200
H  42.44100 43.66500 47.61600

