158

Mg 48.90300 46.46200 44.11800
C  45.66400 46.63000 42.84500
C  49.36100 43.54100 42.58500
C  52.11500 46.56100 45.09700
C  48.73900 49.99400 44.69400
N  47.60400 45.30500 42.82100
C  46.34800 45.46900 42.40900
C  45.86600 44.24800 41.64900
C  47.02600 43.29500 41.62700
C  48.07600 44.10300 42.31400
C  46.66800 41.92100 42.32300
C  45.27700 44.57500 40.25300
C  43.72400 44.54200 40.02800
H  43.17000 43.80400 38.80300
N  50.45200 45.21800 43.91600
C  50.44700 44.02200 43.27000
C  51.76900 43.37500 43.34500
C  52.48100 44.09800 44.31000
C  51.72000 45.39200 44.49500
C  52.13400 42.14400 42.65300
C  53.90000 43.85900 44.74600
O  54.56800 42.90800 44.35400
C  54.59200 44.64900 45.81200
N  50.29400 48.12900 44.61800
C  51.52200 47.85500 45.10000
C  52.26700 49.12700 45.66300
C  51.19400 50.25400 45.30600
C  50.01900 49.40600 44.88400
C  52.45500 49.00800 47.22700
C  51.57000 51.19200 44.10400
C  50.78100 52.47000 43.72000
N  47.52300 47.92900 43.81000
C  47.57300 49.32500 44.09000
C  46.26400 49.88700 43.89500
C  45.45800 48.81300 43.45600
C  46.30800 47.71600 43.31900
C  45.80700 51.28400 44.18400
C  44.14200 48.40700 43.04200
O  43.05300 48.99800 42.94800
C  44.14000 46.92100 42.63500
C  43.16800 46.17200 43.47800
O  43.43700 45.63400 44.52900
O  41.90800 46.23600 42.88300
C  40.72900 45.63300 43.55300
H  49.35100 42.51600 42.20800
H  53.05100 46.61300 45.65600
H  48.59600 51.03800 44.98000
H  45.05800 43.78700 42.21700
H  47.38200 42.99200 40.64200
H  45.60700 41.81200 42.54500
H  47.21500 41.81600 43.26100
H  47.00100 41.24100 41.54000
H  45.83300 44.01700 39.49900
H  45.54300 45.60700 40.02500
H  43.47700 45.58900 39.85200
H  43.16200 44.32100 40.93400
H  52.87100 42.47400 41.92200
H  51.33100 41.54000 42.23000
H  52.61900 41.47500 43.36400
H  54.01900 44.87900 46.71000
H  54.90800 45.60200 45.38700
H  55.34900 43.95000 46.16700
H  53.22100 49.11800 45.13600
H  50.91900 50.93600 46.11200
H  52.97600 48.08300 47.47200
H  51.46400 49.08700 47.67300
H  52.98800 49.88000 47.60500
H  51.61500 50.49500 43.26700
H  52.61300 51.47000 44.25500
H  49.95200 52.67900 44.39600
H  50.21500 52.31600 42.80100
H  51.46300 53.30500 43.56000
H  46.06000 51.52200 45.21700
H  44.77000 51.56800 44.00300
H  46.33300 51.95200 43.50100
H  43.96600 46.84700 41.56200
H  40.02500 45.42600 42.74800
H  40.24700 46.25800 44.30500
H  41.12900 44.69100 43.92900
Mg 41.34500 41.28500 26.55400
C  40.76600 43.43800 29.38300
C  43.03500 39.11600 28.74500
C  42.31700 39.52700 23.94500
C  40.41800 44.07000 24.49200
N  41.90300 41.31000 28.78200
C  41.39900 42.22100 29.68100
C  41.94400 41.83900 31.07700
C  42.98000 40.66800 30.75700
C  42.52500 40.25000 29.36200
C  44.44500 41.02600 30.82600
C  40.91400 41.46000 32.18100
C  41.09200 42.05500 33.62000
H  39.78900 42.27400 34.35300
N  42.37900 39.48000 26.36900
C  42.96700 38.77300 27.40600
C  43.26900 37.47600 26.82400
C  43.19600 37.61500 25.40500
C  42.67200 38.96500 25.17100
C  43.62100 36.30000 27.65200
C  43.54400 36.61300 24.30100
O  43.29100 36.83800 23.12900
C  44.10700 35.23900 24.63900
N  41.41100 41.78500 24.57900
C  41.70200 40.79400 23.65500
C  41.48400 41.21800 22.21600
C  40.67600 42.50300 22.42500
C  40.87600 42.80700 23.93400
C  42.73800 41.48800 21.33000
C  39.14300 42.39600 22.07100
C  38.40500 41.05700 22.36100
N  40.81600 43.30300 26.80000
C  40.45700 44.30700 25.84300
C  39.91800 45.42200 26.52100
C  40.05500 45.15700 27.92300
C  40.51100 43.81100 28.00700
C  39.29400 46.72900 25.87000
C  39.85200 45.71300 29.27900
O  39.49600 46.82500 29.58200
C  40.26100 44.58000 30.27500
C  41.20800 45.20000 31.24800
O  42.40300 45.41500 30.98600
O  40.58400 45.61700 32.35900
C  41.45700 46.33400 33.25600
H  43.54200 38.39100 29.38400
H  42.62300 38.99800 23.04000
H  39.89200 44.80600 23.88000
H  42.42200 42.75900 31.41600
H  42.78700 39.84100 31.44100
H  44.54800 42.10800 30.90200
H  45.00100 40.91300 29.89500
H  44.91000 40.44900 31.62600
H  40.79800 40.37900 32.11200
H  39.99200 41.91900 31.82200
H  41.73700 42.93100 33.54900
H  41.66600 41.33500 34.20300
H  43.45700 36.34200 28.72900
H  44.69100 36.16000 27.50300
H  42.93200 35.49000 27.41200
H  43.23900 34.72600 25.05500
H  44.87500 35.34700 25.40400
H  44.56600 34.85100 23.73000
H  40.92500 40.43500 21.70400
H  41.16000 43.33600 21.91600
H  43.16300 42.49200 21.36600
H  42.46100 41.35400 20.28500
H  43.55800 40.78400 21.47300
H  39.20700 42.50200 20.98800
H  38.57900 43.25300 22.43800
H  38.07400 40.57500 21.44100
H  37.51100 41.28900 22.94000
H  39.03500 40.36100 22.91500
H  38.75500 46.42900 24.97200
H  40.05100 47.49300 25.69400
H  38.53300 47.06800 26.57300
H  39.36400 44.21100 30.77200
H  41.93400 47.16500 32.73500
H  42.27100 45.71500 33.63300
H  40.89500 46.70900 34.11100

