158

Mg 47.90900 34.00800 25.91200
C  46.00900 32.91300 28.60200
C  48.45900 36.87400 27.47400
C  49.58800 34.84600 23.15200
C  46.87800 31.04300 24.18700
N  47.33300 34.85700 27.84300
C  46.66300 34.17300 28.82900
C  46.85600 34.99700 30.21100
C  47.07300 36.44300 29.63100
C  47.57700 36.07200 28.20000
C  45.91800 37.48300 29.62500
C  48.01500 34.41700 30.92900
C  48.00800 34.41800 32.50000
H  47.29600 35.56400 33.22100
N  48.88400 35.69200 25.36700
C  49.04500 36.76800 26.15100
C  49.87000 37.75100 25.46400
C  49.97700 37.31000 24.12800
C  49.48000 35.88900 24.17500
C  50.40200 39.01500 26.19200
C  50.62300 37.94400 22.87200
O  50.55000 37.41500 21.76900
C  51.41900 39.25800 23.00800
N  48.00900 33.11600 23.85300
C  48.87700 33.71400 22.93700
C  48.95000 32.84200 21.66100
C  48.46900 31.42500 22.15400
C  47.72800 31.86000 23.45500
C  48.29000 33.30800 20.29500
C  49.41400 30.33300 22.51900
C  50.47900 30.02900 21.42400
N  46.69900 32.33100 26.29100
C  46.35200 31.23900 25.50700
C  45.47500 30.42900 26.23300
C  45.26500 31.02700 27.47900
C  46.02000 32.20500 27.45100
C  44.89500 29.05500 25.76700
C  44.48400 30.98500 28.71300
O  43.80300 30.08900 29.09300
C  44.92300 32.31600 29.47400
C  45.25700 32.04100 30.89600
O  45.89400 31.14800 31.33800
O  44.50100 32.92200 31.69900
C  44.35100 32.41700 33.07500
H  48.74400 37.82000 27.94000
H  50.31900 35.18900 22.41500
H  46.57200 30.16300 23.61600
H  45.92500 35.07000 30.77400
H  47.94000 36.97500 30.02300
H  45.39200 37.68400 28.69200
H  46.29000 38.46200 29.92800
H  45.30900 37.07700 30.43400
H  48.90800 34.95300 30.60700
H  48.07700 33.36500 30.64900
H  49.06600 34.32100 32.74500
H  47.48700 33.52200 32.83900
H  51.48100 39.03500 26.04400
H  50.18800 39.13100 27.25500
H  49.98400 39.91300 25.73600
H  52.06400 39.15000 23.88000
H  50.73800 40.10500 23.08900
H  51.92100 39.34500 22.04500
H  50.00300 32.59800 21.51800
H  47.62000 30.93900 21.67300
H  47.27900 32.94900 20.10600
H  48.98500 32.84900 19.59200
H  48.24800 34.38300 20.11900
H  48.73000 29.49900 22.67800
H  49.84300 30.58000 23.49000
H  51.43300 30.27500 21.89100
H  50.32100 30.70300 20.58200
H  50.53400 28.96700 21.18500
H  45.02200 28.32600 26.56800
H  45.54700 28.73100 24.95600
H  43.85200 29.15900 25.46700
H  43.98000 32.85500 29.37400
H  44.25500 31.33500 33.16600
H  43.43100 32.84700 33.47200
H  45.16100 32.79600 33.69800
Mg 5.78200 55.22500 41.05400
C  5.15700 51.71200 40.94300
C  8.80700 54.40500 39.50800
C  6.27700 58.44100 40.37600
C  2.53600 55.71500 42.01200
N  6.89600 53.19200 40.38600
C  6.38700 51.96800 40.46300
C  7.36400 50.98100 39.79600
C  8.67500 51.84000 39.88300
C  8.16600 53.23100 39.87600
C  9.62800 51.67700 41.08300
C  7.03600 50.48000 38.41200
C  6.30500 51.49400 37.44400
H  7.17000 52.09900 36.28500
N  7.37500 56.23200 40.11400
C  8.56200 55.73500 39.68600
C  9.43100 56.76000 39.26600
C  8.75000 58.01900 39.59500
C  7.42800 57.60700 40.02900
C  10.89900 56.54700 38.81300
C  9.34900 59.38800 39.36900
O  10.42900 59.55200 38.85300
C  8.57000 60.61300 39.74700
N  4.61700 56.79900 41.11900
C  5.04200 58.04400 40.80200
C  3.89200 59.08700 41.15100
C  2.65300 58.19600 41.48900
C  3.29200 56.80600 41.59300
C  4.21200 60.20000 42.17200
C  1.51400 58.22500 40.45200
C  0.13300 58.62300 41.01900
N  4.21300 54.03300 41.54100
C  2.92300 54.33300 42.03600
C  2.22900 53.08800 42.38800
C  3.13900 52.12400 42.05500
C  4.30400 52.67300 41.49100
C  0.84000 53.03000 42.90900
C  3.26100 50.67100 41.95500
O  2.49300 49.80000 42.29600
C  4.54400 50.37100 41.22400
C  4.20100 49.58300 40.00800
O  3.66900 49.96100 39.01000
O  4.67100 48.34100 40.16900
C  4.42000 47.35700 39.14200
H  9.64700 54.06500 38.89900
H  6.35000 59.50500 40.14300
H  1.53300 55.98400 42.35100
H  7.31700 50.08800 40.41900
H  9.23000 51.90200 38.94600
H  9.67600 52.60100 41.65800
H  10.56600 51.36500 40.62400
H  9.24300 50.95000 41.79900
H  6.58800 49.48700 38.42600
H  8.04100 50.32300 38.02000
H  5.95200 52.38400 37.96500
H  5.58700 50.80200 37.00600
H  11.25500 57.15500 37.98200
H  11.15400 55.50000 38.64800
H  11.61600 57.02700 39.47900
H  7.72800 60.76900 39.07200
H  9.20500 61.47400 39.95600
H  8.28200 60.35800 40.76600
H  3.77800 59.62600 40.21000
H  2.29800 58.41200 42.49600
H  5.20600 60.09600 42.60700
H  3.49100 60.23500 42.98800
H  4.15300 61.16100 41.66100
H  1.43100 57.26100 39.95100
H  1.80400 58.90600 39.65100
H  0.07700 58.50500 42.10100
H  -0.56800 57.91800 40.57200
H  -0.11700 59.62300 40.66400
H  0.25900 53.38600 42.05800
H  0.71600 53.61400 43.82100
H  0.61400 51.99000 43.14200
H  5.19500 49.76600 41.85600
H  4.45100 47.78400 38.14000
H  3.46200 46.89700 39.38400
H  5.16500 46.56200 39.11800

