158

Mg 23.96300 -6.77000 46.29900
C  26.39700 -4.60700 45.16400
C  21.63800 -5.19400 44.36500
C  21.92000 -9.55300 46.55900
C  26.55000 -8.65600 47.90100
N  24.11600 -5.22400 44.85800
C  25.15100 -4.42700 44.58000
C  24.76800 -3.32200 43.53600
C  23.19800 -3.39600 43.59400
C  22.96500 -4.66300 44.29700
C  22.43100 -2.24500 44.27000
C  25.46500 -3.67500 42.13500
C  26.01400 -2.43300 41.34100
H  25.85400 -2.38800 39.84800
N  21.97400 -7.20200 45.72000
C  21.20600 -6.40700 44.95600
C  19.96800 -7.13400 44.69300
C  20.06600 -8.39600 45.33300
C  21.35500 -8.37600 45.96600
C  19.00000 -6.61800 43.60200
C  18.85600 -9.40200 45.37200
O  17.86300 -9.26200 44.64000
C  18.85300 -10.59900 46.24000
N  24.18100 -8.73100 47.20700
C  23.17300 -9.71100 47.15500
C  23.57200 -10.95000 47.99900
C  25.04700 -10.57500 48.53500
C  25.28500 -9.26900 47.86800
C  22.53600 -11.52700 48.99100
C  26.11500 -11.66800 48.26500
C  26.68200 -12.31800 49.50500
N  26.01200 -6.60600 46.61000
C  26.90200 -7.39900 47.30400
C  28.24500 -6.75200 47.42900
C  28.12900 -5.68000 46.49800
C  26.75800 -5.66200 46.05500
C  29.42200 -7.32700 48.17200
C  28.72200 -4.52700 45.85400
O  29.85000 -4.14300 45.81600
C  27.63500 -3.81500 44.99600
C  27.48000 -2.51700 45.67200
O  26.70800 -2.27300 46.61800
O  28.32900 -1.63200 45.14500
C  28.33600 -0.33800 45.92800
H  20.84700 -4.61800 43.88000
H  21.20700 -10.35900 46.74100
H  27.35400 -9.06900 48.51500
H  25.14600 -2.36300 43.89100
H  22.73500 -3.56000 42.62100
H  23.01500 -1.32500 44.24700
H  22.09500 -2.51500 45.27100
H  21.48200 -2.10100 43.75300
H  24.86200 -4.12600 41.34700
H  26.37400 -4.17600 42.46800
H  26.98800 -2.08500 41.68400
H  25.36400 -1.65400 41.73900
H  18.40900 -7.46700 43.25900
H  19.59200 -6.31200 42.73900
H  18.41200 -5.74300 43.88100
H  19.12700 -10.33000 47.26000
H  19.53500 -11.36200 45.86400
H  17.83800 -10.99500 46.26600
H  23.74100 -11.68600 47.21300
H  24.96400 -10.38300 49.60400
H  22.98500 -11.63700 49.97800
H  22.35000 -12.53000 48.60800
H  21.68900 -10.84000 49.00800
H  26.92800 -11.33400 47.62000
H  25.60800 -12.51300 47.79800
H  26.14700 -13.25100 49.68400
H  26.66300 -11.67800 50.38700
H  27.71900 -12.54100 49.25700
H  29.80000 -8.25500 47.74300
H  29.23100 -7.53200 49.22600
H  30.20500 -6.57700 48.06700
H  27.85900 -3.61100 43.94900
H  28.48200 -0.60800 46.97400
H  27.48100 0.28000 45.65700
H  29.20100 0.06300 45.40100
Mg 47.00400 34.64300 28.35400
C  45.35600 32.62200 30.57300
C  46.75900 37.24100 30.56900
C  48.08100 36.63900 25.93900
C  46.56200 32.17200 25.94100
N  46.15300 34.86900 30.30700
C  45.54600 33.94800 31.05200
C  45.29700 34.45300 32.55100
C  45.40900 36.02400 32.31200
C  46.18700 36.07400 30.98500
C  44.04500 36.78500 32.22000
C  46.32700 33.76700 33.57500
C  47.46300 34.57700 34.35800
H  47.19600 34.81800 35.86000
N  47.55600 36.62400 28.29200
C  47.45000 37.53100 29.33500
C  48.10200 38.77600 28.93800
C  48.43100 38.62600 27.58100
C  48.01200 37.26600 27.22100
C  48.30500 39.94600 29.88000
C  49.06900 39.61100 26.63000
O  49.40600 39.42300 25.48100
C  49.34400 41.01400 27.18000
N  47.18300 34.47000 26.21000
C  47.64200 35.41000 25.45400
C  47.90200 35.01900 23.98200
C  47.38300 33.55200 23.93600
C  46.87200 33.38000 25.44200
C  47.17700 35.90500 22.96100
C  48.35200 32.42800 23.37900
C  47.77600 31.51300 22.24500
N  46.26600 32.71900 28.27000
C  46.27300 31.77500 27.30900
C  45.77000 30.50800 27.83400
C  45.37600 30.78700 29.10600
C  45.67000 32.16200 29.28400
C  45.82000 29.23800 27.07400
C  44.65500 30.26000 30.29100
O  44.14600 29.20700 30.53600
C  44.60300 31.45000 31.25100
C  45.21000 31.03000 32.53900
O  46.33400 30.46100 32.53000
O  44.43100 31.21500 33.61600
C  45.14300 30.75800 34.82200
H  46.76400 38.11000 31.23000
H  48.40300 37.23100 25.07900
H  46.51700 31.39000 25.18100
H  44.29400 34.17800 32.87700
H  45.97200 36.58700 33.05600
H  44.19300 37.77200 31.78300
H  43.61200 36.90200 33.21300
H  43.45600 36.18600 31.52500
H  46.88400 32.94100 33.13300
H  45.63600 33.53600 34.38700
H  47.85400 35.48600 33.90000
H  48.33600 33.92500 34.32400
H  49.38900 39.95900 29.99000
H  47.83400 39.80800 30.85300
H  48.00900 40.94900 29.57200
H  50.13600 41.01500 27.92900
H  48.41700 41.43400 27.56900
H  49.59800 41.68700 26.36100
H  48.97700 35.08200 23.81400
H  46.44100 33.56000 23.38700
H  46.49500 36.48000 23.58800
H  46.58700 35.40800 22.19000
H  47.75700 36.64200 22.40600
H  48.66800 31.81200 24.22100
H  49.19000 32.94000 22.90500
H  46.85900 31.92600 21.82500
H  47.69800 30.48400 22.59800
H  48.41700 31.44100 21.36700
H  46.73600 29.27900 26.48500
H  44.96000 29.17000 26.40800
H  45.79600 28.31200 27.64700
H  43.62300 31.79900 31.57700
H  44.77200 31.40100 35.62000
H  46.21000 30.97700 34.85900
H  44.97200 29.69700 35.00500

