158

Mg 26.04100 0.57900 29.18700
C  27.94900 0.18900 32.17100
C  23.25700 1.15200 31.15400
C  24.29700 0.52600 26.43100
C  28.97800 -0.14200 27.30000
N  25.63500 0.66500 31.39100
C  26.56600 0.51800 32.38900
C  25.85600 0.73900 33.82000
C  24.36800 1.08500 33.49700
C  24.40300 0.96900 31.94700
C  23.31600 0.14000 34.09800
C  26.60100 1.69800 34.71800
C  25.89200 2.44800 35.91700
H  26.42600 2.20700 37.34800
N  24.03200 0.78700 28.77700
C  23.06900 1.11100 29.67600
C  21.74600 1.34900 29.00400
C  22.06800 0.93700 27.59400
C  23.49200 0.76000 27.54000
C  20.41700 1.67200 29.69600
C  21.09100 0.70700 26.43700
O  21.35300 0.30200 25.34000
C  19.60200 0.69500 26.86000
N  26.54800 -0.07200 27.18000
C  25.64800 0.20300 26.22700
C  26.24100 -0.03100 24.87000
C  27.73500 -0.27700 25.09800
C  27.72900 -0.09600 26.57900
C  25.50600 -1.01900 23.86200
C  28.65200 0.90700 24.46200
C  29.90600 0.43300 23.65000
N  28.10500 0.11500 29.60800
C  29.14500 -0.14300 28.71900
C  30.30000 -0.36300 29.52300
C  29.95000 -0.19500 30.86300
C  28.52500 0.07700 30.85800
C  31.72500 -0.62300 29.01800
C  30.39900 -0.11900 32.25300
O  31.54000 -0.19800 32.69600
C  29.07400 0.01700 33.15500
C  28.77900 -1.14500 33.95100
O  28.49000 -2.22400 33.51400
O  28.88800 -0.83900 35.36000
C  28.46200 -1.93000 36.28600
H  22.42000 1.37900 31.81800
H  23.73000 0.55500 25.49800
H  29.86200 -0.40100 26.71300
H  25.94600 -0.23700 34.29700
H  24.07400 2.10900 33.72500
H  23.51100 0.04700 35.16600
H  23.37900 -0.85900 33.66600
H  22.32600 0.58700 34.00500
H  27.08400 2.44400 34.08700
H  27.46800 1.29100 35.23700
H  24.82700 2.22500 35.97500
H  26.03000 3.51500 35.74000
H  20.69200 1.89500 30.72700
H  19.85000 0.74600 29.60000
H  19.85300 2.46400 29.20300
H  19.50700 -0.04500 27.65500
H  19.03800 0.42900 25.96700
H  19.25900 1.69400 27.12900
H  26.02800 0.90100 24.34600
H  28.04400 -1.32100 25.05300
H  24.99100 -0.59800 22.99800
H  24.70300 -1.45700 24.45500
H  26.17100 -1.81900 23.53800
H  29.04600 1.67300 25.13000
H  28.01900 1.41000 23.73000
H  29.74900 -0.56700 23.24600
H  30.72600 0.44800 24.36700
H  29.98200 1.20500 22.88400
H  32.38100 0.20300 29.29200
H  31.78900 -0.78000 27.94100
H  32.08000 -1.46500 29.61200
H  29.21800 0.84200 33.85300
H  28.77200 -1.59600 37.27700
H  28.96600 -2.89600 36.27800
H  27.38300 -2.08400 36.30200
Mg 41.99500 40.69500 26.28200
C  41.31900 43.07700 28.68900
C  43.01800 38.49900 28.64500
C  42.74000 38.57700 23.63000
C  40.83200 43.06400 23.83200
N  42.29400 40.82200 28.36700
C  41.75200 41.89100 29.18300
C  41.86100 41.54300 30.62300
C  42.48300 40.07000 30.65900
C  42.62900 39.75500 29.13000
C  43.83000 39.95800 31.42900
C  40.50200 41.71500 31.42800
C  40.51200 42.59600 32.79100
H  40.01500 41.97500 34.07300
N  42.81400 38.81000 26.15800
C  43.16200 38.03200 27.26300
C  43.58300 36.68900 26.75600
C  43.63100 36.70700 25.29900
C  42.99200 38.05400 25.00200
C  44.08500 35.61700 27.75100
C  44.13100 35.72400 24.30900
O  44.13100 36.02500 23.10900
C  44.67900 34.40300 24.75200
N  41.85000 40.84400 24.08100
C  42.25900 39.82400 23.25600
C  42.00300 40.14600 21.83300
C  41.21400 41.48400 21.86500
C  41.27400 41.82700 23.36100
C  43.17300 40.32200 20.85000
C  39.71000 41.32500 21.37500
C  38.85300 40.34500 22.13800
N  41.24600 42.70900 26.25300
C  40.87600 43.49900 25.20400
C  40.40300 44.72800 25.75100
C  40.61600 44.65500 27.12000
C  41.13900 43.37200 27.37700
C  39.93100 45.83400 24.90600
C  40.44900 45.39000 28.31300
O  40.09000 46.54600 28.56400
C  40.92300 44.32400 29.38900
C  42.07900 44.85900 30.20300
O  43.29800 44.67300 29.96500
O  41.66200 45.64300 31.34600
C  42.74800 46.21500 32.14400
H  43.27900 37.75400 29.40000
H  42.93200 37.88100 22.81100
H  40.56900 43.65900 22.95500
H  42.63900 42.22200 30.97200
H  41.85700 39.34400 31.17700
H  44.64100 39.68400 30.75400
H  43.80100 39.27500 32.27700
H  44.14300 40.90500 31.86900
H  40.23400 40.71300 31.76400
H  39.70100 41.88700 30.71000
H  39.75900 43.34800 32.55500
H  41.51500 43.01000 32.89200
H  43.91800 35.95000 28.77600
H  45.16300 35.53000 27.61500
H  43.65900 34.62400 27.60800
H  43.77300 33.80800 24.87200
H  45.27600 34.44000 25.66300
H  45.16300 33.98900 23.86800
H  41.40100 39.31400 21.46900
H  41.64800 42.32600 21.32500
H  43.76300 39.43200 20.62900
H  43.80500 41.17100 21.11100
H  42.68000 40.60800 19.92100
H  39.70700 40.99400 20.33600
H  39.25700 42.30800 21.50800
H  38.36600 39.64300 21.46200
H  38.07400 40.85700 22.70400
H  39.46100 39.78100 22.84500
H  40.09500 45.55200 23.86600
H  40.58700 46.69900 25.01600
H  38.89100 46.12000 25.06100
H  40.11300 44.15200 30.09700
H  42.85100 45.47600 32.93900
H  42.58900 47.17500 32.63500
H  43.72700 46.30300 31.67500

