158

Mg 47.21500 45.34300 42.83300
C  43.87400 44.12100 42.55100
C  48.38400 42.20500 42.38200
C  50.42800 46.61200 42.77400
C  45.98600 48.47300 43.07300
N  46.19600 43.41100 42.31600
C  44.85100 43.10400 42.28900
C  44.58900 41.69900 42.02600
C  46.01700 41.05500 42.21500
C  46.96700 42.29600 42.32700
C  46.12100 40.20300 43.49400
C  43.91200 41.47400 40.61800
C  44.10700 42.46800 39.42400
H  43.99400 41.80100 37.96800
N  49.23100 44.47600 42.63600
C  49.43800 43.12700 42.52500
C  50.91300 42.90600 42.49300
C  51.56100 44.17700 42.56400
C  50.41800 45.17100 42.62600
C  51.56200 41.49300 42.48400
C  53.09200 44.47000 42.71000
O  53.92600 43.57000 42.67900
C  53.58600 45.84900 42.91400
N  48.17800 47.32200 42.61300
C  49.46800 47.56300 42.90700
C  49.69800 49.08300 43.04700
C  48.21100 49.58200 43.44100
C  47.40600 48.39600 42.95400
C  50.74300 49.43800 44.20000
C  47.95800 50.90000 42.64000
C  48.03200 52.16100 43.47700
N  45.35500 46.15700 42.63600
C  45.05400 47.47900 42.88200
C  43.64400 47.65200 43.01000
C  43.14600 46.33800 42.91700
C  44.20800 45.45000 42.69700
C  42.97000 48.87000 43.24600
C  41.94300 45.50400 42.95800
O  40.80200 45.69400 43.23900
C  42.38800 44.00500 42.63100
C  41.97400 43.11400 43.83300
O  42.32200 43.30600 44.99300
O  41.05600 42.16300 43.38300
C  40.70100 41.23000 44.48500
H  48.66900 41.15100 42.34500
H  51.39900 47.08700 42.92900
H  45.62800 49.39900 43.52800
H  43.84000 41.40700 42.76200
H  46.38600 40.58900 41.30100
H  45.79900 39.21300 43.17200
H  45.49000 40.43400 44.35300
H  47.12700 40.22300 43.91100
H  42.84200 41.29100 40.70800
H  44.28300 40.54000 40.19500
H  45.10200 42.86200 39.63000
H  43.44300 43.33200 39.43500
H  52.23800 41.37100 41.63700
H  50.79100 40.72900 42.39400
H  52.11200 41.35500 43.41500
H  53.20000 46.60900 42.23400
H  54.63100 45.82900 42.60500
H  53.47300 46.09000 43.97100
H  50.09900 49.53100 42.13800
H  48.10300 49.76900 44.50900
H  51.26000 48.59400 44.65700
H  50.34500 50.03100 45.02300
H  51.56800 49.96400 43.72000
H  46.91800 50.87900 42.31400
H  48.68200 51.10100 41.85000
H  47.21000 52.83200 43.22700
H  48.86900 52.78100 43.15900
H  48.02800 51.98800 44.55400
H  42.53800 48.82700 44.24600
H  42.21600 48.86900 42.45800
H  43.64600 49.71200 43.09500
H  42.01000 43.67100 41.66500
H  41.50300 40.49200 44.50600
H  39.74500 40.79000 44.20000
H  40.66100 41.65700 45.48700
Mg 16.50300 51.97300 24.33600
C  18.37200 50.78900 27.35600
C  14.01100 52.82900 26.72000
C  14.74000 52.74000 21.85100
C  19.00900 50.58300 22.47700
N  16.20500 51.57600 26.83800
C  17.15000 51.35600 27.76400
C  16.64600 51.55200 29.17500
C  15.16900 52.09900 28.91800
C  15.12900 52.18300 27.39100
C  14.08700 51.08500 29.44200
C  17.53500 52.52200 29.94700
C  17.82300 52.26700 31.41400
H  16.91200 51.35300 32.25700
N  14.69200 52.77500 24.23800
C  13.73200 53.02600 25.29600
C  12.57400 53.61800 24.74700
C  12.73100 53.53400 23.30700
C  14.09700 52.98000 23.10500
C  11.46800 54.21400 25.58600
C  11.77600 54.01600 22.20800
O  11.97900 53.90900 20.99400
C  10.42200 54.57100 22.64900
N  16.67300 51.47100 22.41200
C  15.92200 52.02900 21.51300
C  16.36300 51.74700 20.01700
C  17.79600 51.17600 20.26700
C  17.90000 51.21300 21.79700
C  15.32600 50.84800 19.25500
C  18.95900 51.94100 19.57300
C  19.04100 51.81900 18.09100
N  18.35300 50.95900 24.79600
C  19.18400 50.40200 23.83400
C  20.41900 49.96400 24.50600
C  20.08200 50.01700 25.88100
C  18.79900 50.59400 25.99100
C  21.69700 49.45200 23.94100
C  20.58000 49.70100 27.21400
O  21.62400 49.25100 27.58200
C  19.44200 50.12700 28.21000
C  18.97700 48.96100 29.02300
O  18.21600 48.09200 28.69300
O  19.71400 48.99600 30.23800
C  19.33000 47.94200 31.15700
H  13.28600 53.16300 27.46500
H  14.18800 53.06800 20.96800
H  19.72000 50.13100 21.78300
H  16.67000 50.58100 29.67000
H  15.01800 53.10900 29.29900
H  13.54400 50.58400 28.64100
H  13.40400 51.67000 30.05800
H  14.51300 50.30500 30.07300
H  17.15200 53.54200 29.90500
H  18.49900 52.59000 29.44400
H  18.04300 53.23600 31.86200
H  18.77700 51.74500 31.48000
H  11.57100 53.99400 26.64900
H  10.46200 53.96600 25.24800
H  11.63400 55.27600 25.40700
H  10.59200 55.35200 23.39000
H  9.83300 53.75000 23.05600
H  10.10400 54.98100 21.69100
H  16.37400 52.67500 19.44500
H  17.75100 50.11300 20.03000
H  15.01700 51.24200 18.28700
H  14.41600 50.82000 19.85400
H  15.80300 49.88100 19.10100
H  19.82700 51.47000 20.03300
H  19.07500 52.97200 19.90700
H  18.00100 51.65100 17.80800
H  19.67400 50.97100 17.83000
H  19.43800 52.72700 17.63800
H  21.47100 49.26200 22.89100
H  21.91200 48.46500 24.35000
H  22.57200 50.09500 24.03700
H  19.74000 50.94400 28.86700
H  19.94800 48.03700 32.05000
H  19.55700 46.93800 30.79800
H  18.33900 48.13900 31.56600

