158

Mg 17.08100 -1.12700 28.28600
C  15.67500 1.05000 30.76700
C  19.00100 -2.51700 30.60600
C  18.76300 -2.58200 25.82200
C  15.53700 1.02800 25.90100
N  17.18500 -0.71100 30.42800
C  16.52200 0.05300 31.27500
C  16.92900 -0.05200 32.81500
C  18.26500 -0.92800 32.57700
C  18.14600 -1.48200 31.09700
C  19.59400 -0.27000 32.96000
C  15.78100 -0.67700 33.69300
C  16.15200 -0.92200 35.16900
H  17.52700 -0.49100 35.85600
N  18.57600 -2.43800 28.27100
C  19.22500 -2.94900 29.37300
C  20.04300 -4.07100 28.95000
C  19.79100 -4.23200 27.53300
C  19.02100 -3.03000 27.16500
C  20.82700 -4.96800 29.83400
C  20.31200 -5.33300 26.65900
O  19.90400 -5.46000 25.50500
C  21.22500 -6.51900 27.12400
N  17.03500 -0.93300 26.10700
C  17.88400 -1.60400 25.35000
C  17.78600 -1.24900 23.88600
C  16.88400 0.06500 23.93000
C  16.48900 0.10300 25.40400
C  19.15800 -0.90500 23.33000
C  15.69800 0.00200 22.93500
C  14.41000 -0.54300 23.57300
N  15.69500 0.47200 28.29000
C  15.12100 1.23900 27.27200
C  14.20600 2.24600 27.74900
C  14.39300 2.19200 29.13000
C  15.30800 1.14900 29.40700
C  13.38100 3.19500 26.94400
C  14.08200 2.78300 30.43500
O  13.34100 3.70600 30.69200
C  14.88300 2.08600 31.48600
C  15.81500 3.04200 32.25500
O  16.61400 3.80000 31.71200
O  15.65100 2.89200 33.64500
C  16.59200 3.73100 34.46600
H  19.63600 -2.97900 31.36400
H  19.27900 -3.11500 25.02100
H  15.10200 1.69600 25.15400
H  17.11000 0.96000 33.17500
H  18.19400 -1.65200 33.38900
H  19.55800 0.71000 33.43600
H  20.39800 -0.18600 32.22900
H  20.00100 -0.96000 33.70000
H  15.57400 -1.62700 33.20000
H  14.84600 -0.13400 33.56200
H  16.04400 -1.99100 35.35600
H  15.40800 -0.32900 35.70000
H  20.41500 -5.95100 30.06400
H  20.91000 -4.50300 30.81600
H  21.81300 -4.95400 29.37000
H  20.75500 -7.21200 27.82100
H  22.14700 -6.06200 27.48500
H  21.57100 -6.99800 26.20800
H  17.20800 -2.03700 23.40200
H  17.46100 0.96500 23.71800
H  19.69000 -0.36400 24.11200
H  19.10700 -0.23300 22.47400
H  19.82400 -1.74600 23.13500
H  15.88100 -0.54400 22.00900
H  15.62000 1.03300 22.58900
H  13.80000 -0.94500 22.76400
H  13.76000 0.09800 24.16800
H  14.66900 -1.38900 24.21100
H  12.62300 3.63800 27.58900
H  12.81800 2.67100 26.17200
H  13.98200 4.07600 26.71900
H  14.19900 1.60000 32.18200
H  17.61500 3.62600 34.10400
H  16.37900 3.42100 35.48900
H  16.15800 4.73000 34.50500
Mg 41.38800 8.39000 29.97700
C  43.21800 9.69500 32.75000
C  38.98600 7.51300 32.21100
C  39.87100 7.17900 27.41600
C  44.13300 9.36100 27.93300
N  41.22800 8.54800 32.22300
C  42.02100 9.09000 33.19700
C  41.53700 8.96400 34.62300
C  40.09800 8.31600 34.33200
C  40.11300 8.08400 32.81700
C  39.76200 7.10900 35.18400
C  41.57400 10.33200 35.40300
C  40.64600 10.56300 36.65600
H  41.30000 10.24100 38.03900
N  39.62300 7.39700 29.83100
C  38.77100 7.10800 30.86300
C  37.57100 6.49900 30.29900
C  37.78500 6.58300 28.86400
C  39.17600 6.99800 28.63200
C  36.40200 5.97500 31.10600
C  36.74300 6.31900 27.72600
O  37.01300 6.26800 26.49600
C  35.22900 6.29500 28.03900
N  42.04400 8.17600 27.89200
C  41.10500 7.71000 27.04400
C  41.69600 7.75600 25.61100
C  43.04500 8.61400 25.69900
C  43.06100 8.76500 27.23500
C  41.91800 6.30900 24.98800
C  43.07200 9.96000 24.85200
C  44.18900 10.06600 23.91800
N  43.26300 9.25700 30.19500
C  44.22300 9.77100 29.26300
C  45.34900 10.31600 29.99000
C  44.97400 10.33400 31.30000
C  43.69200 9.64500 31.41400
C  46.47200 10.98900 29.42500
C  45.44200 10.79400 32.59700
O  46.38700 11.47900 32.95100
C  44.35200 10.32600 33.61800
C  44.99600 9.46200 34.59400
O  45.00900 8.22300 34.51400
O  45.44400 10.10500 35.70500
C  45.58100 9.36300 36.99000
H  38.11800 7.42500 32.86800
H  39.36300 6.84700 26.50700
H  44.90700 9.75200 27.26900
H  42.17500 8.26200 35.15900
H  39.30700 9.04700 34.49600
H  39.36300 6.24600 34.65000
H  38.97000 7.50100 35.82300
H  40.58300 6.84500 35.85000
H  41.47700 11.22500 34.78600
H  42.60100 10.40400 35.76000
H  39.77700 9.90600 36.61500
H  40.30600 11.59700 36.71700
H  35.50100 6.58900 31.11200
H  36.87100 5.84000 32.08000
H  36.14000 5.00400 30.68400
H  34.83000 5.46700 28.62500
H  34.73100 6.37600 27.07300
H  34.98000 7.25400 28.49300
H  41.00100 8.36500 25.03200
H  43.94000 8.08200 25.37800
H  41.26700 5.65900 25.57200
H  42.96800 6.04600 25.12100
H  41.56300 6.42400 23.96400
H  43.18100 10.75300 25.59200
H  42.08200 10.09800 24.41600
H  44.68200 11.03400 23.82700
H  43.79500 9.95400 22.90800
H  44.97700 9.31200 23.93300
H  46.67200 12.04200 29.62400
H  46.46200 10.85100 28.34400
H  47.32700 10.34800 29.64100
H  44.04200 11.23900 34.12800
H  45.85400 8.32200 36.81300
H  44.65900 9.34600 37.57100
H  46.34700 9.82500 37.61200

