158

Mg 40.81700 9.90700 30.07500
C  42.38300 10.95200 32.94500
C  38.04600 8.90300 31.87900
C  39.52000 8.66700 27.15800
C  43.49900 11.23900 28.21200
N  40.35900 9.71800 32.21000
C  41.09300 10.34200 33.14600
C  40.31800 10.51200 34.45000
C  39.09900 9.63700 34.19400
C  39.09000 9.45500 32.63000
C  38.90700 8.28300 34.98300
C  40.05600 11.99900 34.76200
C  39.56300 12.20500 36.15500
H  40.44600 13.02100 37.09700
N  39.02700 8.94900 29.59300
C  38.00200 8.56800 30.45900
C  37.04700 7.69300 29.67500
C  37.46000 7.66700 28.33500
C  38.69400 8.48700 28.28400
C  35.86300 7.06900 30.28700
C  36.82200 6.96900 27.15500
O  37.24100 7.15600 26.06600
C  35.61200 6.26300 27.30400
N  41.47300 9.89200 27.95100
C  40.67000 9.37600 26.98900
C  41.27100 9.69200 25.64400
C  42.40600 10.77900 25.99200
C  42.48000 10.69400 27.45200
C  41.73000 8.47900 24.72800
C  42.13000 12.21400 25.43600
C  41.01600 12.97500 26.14100
N  42.68500 10.69900 30.44900
C  43.63500 11.20400 29.59500
C  44.74400 11.67700 30.40300
C  44.30100 11.64400 31.71200
C  43.02800 11.09600 31.71600
C  45.98500 12.26600 29.85300
C  44.57600 12.03200 33.05200
O  45.58400 12.57600 33.56000
C  43.33500 11.60000 33.91600
C  43.80400 10.66300 34.94300
O  44.49600 9.64800 34.65500
O  43.40800 11.13800 36.21800
C  43.66700 10.21100 37.31900
H  37.10100 8.63200 32.35400
H  39.29200 8.16400 26.21500
H  44.27600 11.63700 27.55700
H  40.80100 10.02200 35.29500
H  38.22800 10.17500 34.56900
H  39.84600 8.16000 35.52200
H  38.76500 7.42300 34.32800
H  38.09100 8.44500 35.68800
H  39.31200 12.40800 34.07800
H  40.96800 12.58000 34.62800
H  39.44800 11.31900 36.78000
H  38.59800 12.70600 36.07400
H  35.09700 7.83500 30.17600
H  35.99300 6.88900 31.35500
H  35.66700 6.06600 29.90600
H  35.42100 5.98400 26.26700
H  34.85400 7.02200 27.49400
H  35.62300 5.34100 27.88400
H  40.56300 10.30300 25.08400
H  43.38500 10.42800 25.66500
H  41.30700 7.54400 25.09600
H  42.80600 8.31600 24.66000
H  41.31700 8.73100 23.75100
H  41.92500 12.01500 24.38400
H  43.03400 12.81300 25.54100
H  41.31900 13.99300 26.38800
H  40.55200 12.48100 26.99500
H  40.23600 13.07100 25.38700
H  46.66400 12.44500 30.68700
H  45.64800 13.05400 29.18000
H  46.51600 11.54800 29.22900
H  43.03100 12.53300 34.39100
H  44.46600 9.49200 37.13900
H  42.74000 9.74900 37.65800
H  43.99600 10.86100 38.13000
Mg -5.57600 25.08400 25.92100
C  -4.04000 26.41800 28.81800
C  -7.52000 23.03200 27.98300
C  -6.81300 23.67100 23.23700
C  -3.46200 27.09400 24.03900
N  -5.91900 24.96000 28.11300
C  -5.11100 25.57500 29.11600
C  -5.53000 25.00200 30.47500
C  -6.35500 23.73200 30.09100
C  -6.69400 23.94400 28.64600
C  -5.48000 22.38300 30.14600
C  -6.44600 26.04100 31.20900
C  -6.45900 26.11100 32.73100
H  -5.48500 25.17900 33.50200
N  -7.05400 23.65600 25.62200
C  -7.77100 22.91700 26.58100
C  -8.67500 22.04700 25.97400
C  -8.40200 22.06900 24.60300
C  -7.43600 23.12900 24.45600
C  -9.58000 21.14000 26.81100
C  -9.00200 21.20000 23.55000
O  -8.56800 21.29800 22.37100
C  -10.15600 20.33100 23.78600
N  -5.16000 25.34700 23.96500
C  -5.86400 24.63400 23.02200
C  -5.35200 24.98300 21.59700
C  -4.48900 26.26400 21.89800
C  -4.35300 26.26200 23.38900
C  -4.53200 23.84100 20.98900
C  -5.27200 27.50600 21.33600
C  -4.38400 28.24200 20.30400
N  -3.99800 26.42800 26.30200
C  -3.23500 27.23100 25.41400
C  -2.34500 28.06700 26.16400
C  -2.59400 27.79000 27.50600
C  -3.62900 26.77500 27.52900
C  -1.28700 29.02200 25.63500
C  -2.26700 28.10800 28.80300
O  -1.53500 28.95800 29.30300
C  -3.14200 27.13100 29.74800
C  -2.35700 26.27900 30.66100
O  -2.03400 25.15300 30.38700
O  -1.88900 27.02000 31.76900
C  -0.85900 26.42100 32.56300
H  -8.09500 22.45300 28.70900
H  -7.29200 23.30600 22.32600
H  -2.72600 27.49000 23.33600
H  -4.60800 24.82700 31.02900
H  -7.27800 23.67400 30.66800
H  -4.49700 22.57400 30.57600
H  -5.23600 21.97700 29.16400
H  -5.97000 21.60300 30.72900
H  -7.46600 25.80700 30.90500
H  -6.12200 27.02600 30.87100
H  -7.50200 25.86500 32.92800
H  -6.27300 27.14100 33.03400
H  -10.63500 21.28200 26.57800
H  -9.43500 21.27600 27.88300
H  -9.36900 20.08500 26.63800
H  -9.90500 19.43300 24.35100
H  -10.58600 20.02600 22.83200
H  -10.93300 20.90000 24.29600
H  -6.13400 25.13500 20.85300
H  -3.44200 26.25100 21.59300
H  -3.53900 23.92400 21.43100
H  -4.41900 23.84900 19.90500
H  -5.01000 22.90300 21.27100
H  -5.51900 28.30000 22.04100
H  -6.19500 27.11700 20.90800
H  -3.89800 29.14800 20.66600
H  -5.01300 28.62100 19.49900
H  -3.66000 27.60900 19.79100
H  -1.16100 28.80800 24.57400
H  -0.31600 28.92700 26.12200
H  -1.66200 29.97500 26.00800
H  -3.69700 27.84200 30.36000
H  -0.28000 27.25900 32.95200
H  -0.16800 25.83500 31.95800
H  -1.30600 25.91400 33.41800

