158

Mg 0.53600 8.41200 26.90100
C  1.29100 10.61000 29.53300
C  0.70400 5.81200 29.13400
C  0.65500 6.30500 24.27800
C  0.79900 11.10600 24.66700
N  0.90300 8.22300 29.03500
C  1.08600 9.29200 29.93900
C  1.01600 8.84000 31.43400
C  1.01700 7.32100 31.25000
C  0.84600 7.08400 29.71300
C  2.29500 6.56900 31.88700
C  -0.26200 9.40100 32.17800
C  -0.31100 9.14800 33.72800
H  0.95500 8.74900 34.39800
N  0.42200 6.38300 26.73500
C  0.56900 5.48200 27.79700
C  0.55300 4.13900 27.22900
C  0.43400 4.22900 25.80300
C  0.46700 5.70900 25.52100
C  0.53700 2.93500 28.08500
C  0.38300 3.11500 24.65400
O  0.29900 3.32300 23.46000
C  0.66800 1.68800 25.14000
N  0.59600 8.69700 24.75900
C  0.55300 7.65800 23.89500
C  0.66100 8.13400 22.44200
C  0.45100 9.67400 22.61600
C  0.66400 9.84900 24.11900
C  2.07300 7.81600 21.81200
C  -0.91800 10.10900 22.02700
C  -0.98500 11.02200 20.79900
N  0.97700 10.50500 27.02900
C  0.97700 11.45900 26.01400
C  1.19700 12.70500 26.59000
C  1.43600 12.45600 27.95800
C  1.22500 11.07700 28.17100
C  1.34400 14.03000 25.92600
C  1.80300 13.02800 29.20100
O  2.07500 14.16500 29.52000
C  1.59700 11.90500 30.30200
C  2.76000 11.85900 31.16600
O  3.89300 11.53100 30.86900
O  2.32800 12.18700 32.42300
C  3.46900 12.55900 33.23300
H  0.89900 4.96100 29.79100
H  0.79700 5.52500 23.52700
H  0.61700 11.86800 23.90700
H  1.92500 9.16400 31.94100
H  0.10200 6.90300 31.66800
H  2.57700 5.77700 31.19300
H  1.90100 6.04400 32.75600
H  3.05300 7.27300 32.23100
H  -1.14800 8.90100 31.78600
H  -0.22700 10.46400 31.93700
H  -1.17300 8.55400 34.03100
H  -0.50500 10.17100 34.04900
H  1.57700 2.64000 28.22900
H  -0.01400 2.08400 27.68400
H  0.19700 3.01500 29.11800
H  1.38700 1.70800 25.95800
H  0.98100 0.98300 24.37000
H  -0.19300 1.23800 25.63500
H  -0.07200 7.64800 21.79800
H  1.18400 10.33900 22.16000
H  2.69800 8.70900 21.84600
H  1.86300 7.46300 20.80300
H  2.50900 7.03900 22.44000
H  -1.37400 10.69700 22.82500
H  -1.57000 9.23500 22.05700
H  -0.09500 10.98500 20.17200
H  -1.04000 12.06000 21.12700
H  -1.77700 10.67000 20.13900
H  0.70200 14.00700 25.04600
H  2.38000 14.17400 25.62000
H  1.07900 14.91500 26.50400
H  0.67700 12.17700 30.82100
H  4.22200 13.01200 32.58900
H  3.88400 11.69600 33.75500
H  3.13600 13.32900 33.92900
Mg 26.59900 50.40400 27.21300
C  24.63900 51.72200 29.96300
C  29.10700 49.61900 29.59000
C  28.42000 49.39500 24.72800
C  24.26900 51.69500 25.00800
N  26.82400 50.78100 29.53900
C  25.82700 51.18300 30.38400
C  26.33300 51.05600 31.82600
C  27.78000 50.56800 31.64600
C  27.92600 50.27100 30.15000
C  28.96800 51.52100 32.18600
C  25.39700 50.11000 32.65000
C  24.73000 50.51700 33.94100
H  25.69800 50.77300 35.14600
N  28.46100 49.62500 27.11000
C  29.30000 49.28600 28.20300
C  30.42000 48.53400 27.71100
C  30.30700 48.47300 26.27100
C  29.01500 49.18300 26.01300
C  31.59600 47.97600 28.58300
C  31.25100 47.84800 25.20000
O  31.09300 47.96100 23.99400
C  32.43200 46.82500 25.55600
N  26.47100 50.70200 25.11900
C  27.29100 50.03900 24.25800
C  26.89600 50.22400 22.83200
C  25.33400 50.59000 22.97500
C  25.30100 50.98500 24.49800
C  27.79500 51.36300 22.21700
C  24.21800 49.49700 22.64900
C  23.17900 49.91500 21.66600
N  24.75600 51.55600 27.37300
C  23.92200 51.97200 26.35200
C  22.81700 52.51000 26.95900
C  23.00600 52.47100 28.39000
C  24.17500 51.80900 28.59400
C  21.61400 53.07600 26.21200
C  22.42700 52.91900 29.70100
O  21.36600 53.47800 29.95600
C  23.44400 52.36900 30.76400
C  23.88500 53.52100 31.60400
O  24.80900 54.32700 31.29800
O  23.17300 53.57600 32.73600
C  23.65300 54.35400 33.94300
H  29.76000 49.24100 30.38000
H  28.94300 49.04200 23.83600
H  23.56400 52.02900 24.24400
H  26.33600 52.03700 32.30000
H  27.92300 49.58700 32.10000
H  29.75000 51.52400 31.42600
H  29.28300 51.13000 33.15400
H  28.74500 52.57500 32.35600
H  25.89700 49.19800 32.97700
H  24.62900 49.63800 32.03700
H  23.98800 49.72800 34.06500
H  24.29500 51.48800 33.70500
H  31.32500 46.94200 28.80000
H  31.57500 48.38100 29.59500
H  32.59900 48.19500 28.21900
H  33.28800 47.33900 25.99300
H  32.83500 46.23800 24.73000
H  32.06300 46.14100 26.32000
H  27.03000 49.35400 22.18900
H  25.23600 51.51400 22.40400
H  28.30100 51.92800 23.00000
H  27.20200 52.13400 21.72500
H  28.53900 50.88900 21.57600
H  23.69600 49.23700 23.57000
H  24.75400 48.67900 22.16800
H  22.20800 49.44800 21.82500
H  23.41000 49.76700 20.61100
H  22.93900 50.97100 21.79200
H  20.71900 52.68100 26.69200
H  21.59000 52.95700 25.12900
H  21.73600 54.14400 26.39200
H  23.06800 51.69400 31.53400
H  24.59300 54.87200 33.75200
H  23.90600 53.58100 34.66900
H  22.93000 55.02700 34.40400

