158

Mg 35.69400 0.99400 28.96300
C  33.63800 2.61200 31.39300
C  38.20200 1.08100 31.36300
C  37.85300 0.23400 26.55400
C  33.35800 2.09900 26.57200
N  35.83200 1.63200 31.09700
C  34.81300 2.10200 31.87300
C  35.21800 2.13900 33.41800
C  36.82700 1.99600 33.39200
C  36.99100 1.51000 31.85500
C  37.66500 3.24400 33.84500
C  34.51300 0.99500 34.16800
C  34.43600 1.20900 35.65900
H  35.06500 2.41600 36.34700
N  37.69200 0.54700 28.92700
C  38.55000 0.65900 30.02600
C  39.91300 0.32400 29.58900
C  39.85200 -0.03400 28.14500
C  38.42100 0.17800 27.83300
C  41.10500 0.27500 30.55500
C  40.91200 -0.44300 27.19000
O  40.65000 -0.66400 25.98200
C  42.30600 -0.80100 27.59800
N  35.59600 1.09500 26.85800
C  36.62000 0.66900 26.11700
C  36.22500 0.61000 24.63100
C  34.65800 0.90100 24.74900
C  34.51800 1.47900 26.13300
C  37.05600 1.47600 23.70100
C  33.77100 -0.37000 24.60300
C  32.95700 -0.38100 23.35100
N  33.84800 2.13200 28.96400
C  33.01400 2.38200 27.93300
C  31.83300 3.02200 28.42700
C  32.03200 3.07900 29.78700
C  33.29100 2.60500 30.05300
C  30.66700 3.42400 27.63500
C  31.44700 3.44300 31.07300
O  30.34300 3.89700 31.33700
C  32.44300 3.20100 32.16600
C  32.59000 4.49400 32.95000
O  33.17500 5.54700 32.60700
O  31.91900 4.32700 34.23100
C  31.52200 5.63100 34.85900
H  39.00600 1.23500 32.08600
H  38.49800 -0.06000 25.72400
H  32.61500 2.13800 25.77200
H  35.05400 3.14400 33.80700
H  36.94700 1.13600 34.05100
H  36.97300 3.97900 34.25600
H  38.17500 3.66900 32.98000
H  38.37700 3.10800 34.65800
H  34.92600 -0.00700 34.05500
H  33.48900 0.98600 33.79400
H  34.81100 0.29800 36.12500
H  33.39500 1.35900 35.94500
H  41.49800 -0.70700 30.81700
H  40.93200 0.80200 31.49300
H  41.94200 0.60400 29.94000
H  42.76900 -1.33400 26.76700
H  42.36300 -1.42700 28.48800
H  42.81800 0.16100 27.60100
H  36.28500 -0.41600 24.26700
H  34.35100 1.72000 24.09900
H  37.85300 1.99700 24.23200
H  36.43700 2.16200 23.12200
H  37.43200 0.81000 22.92400
H  33.00900 -0.30200 25.37900
H  34.40000 -1.25800 24.66900
H  33.18600 0.40900 22.63600
H  31.89800 -0.37000 23.60900
H  33.08700 -1.33600 22.84400
H  30.82700 4.38500 27.14500
H  29.72400 3.43900 28.18200
H  30.49100 2.75100 26.79500
H  32.04700 2.45300 32.85300
H  31.02500 6.30200 34.15800
H  32.46900 6.04500 35.20600
H  30.89200 5.44600 35.72900
Mg 16.73900 51.82700 26.49100
C  18.55900 50.30100 29.07400
C  14.34600 52.56500 28.83400
C  14.99200 53.09200 24.02600
C  18.97600 50.29000 24.15200
N  16.59500 51.63900 28.67300
C  17.43700 51.00700 29.51800
C  16.99900 51.16800 31.01500
C  15.57200 51.62100 30.87000
C  15.46600 51.95200 29.41100
C  14.42900 50.67300 31.26500
C  17.88900 52.24500 31.65600
C  17.50400 52.76500 33.02000
H  16.48000 51.95300 33.84300
N  14.94800 52.80100 26.38500
C  14.11000 53.08500 27.49000
C  13.02400 53.98900 27.08000
C  13.24800 54.20100 25.69500
C  14.41000 53.39200 25.29600
C  12.05400 54.64000 28.09700
C  12.42800 55.05300 24.74400
O  12.72700 55.20100 23.59800
C  11.15400 55.68100 25.28400
N  17.10600 51.77400 24.35200
C  16.15900 52.39800 23.56700
C  16.56700 52.37300 22.05900
C  17.93300 51.49800 22.07400
C  17.96300 51.11800 23.59000
C  15.51800 51.77400 20.98100
C  19.28400 52.16500 21.64000
C  20.20800 51.33400 20.71100
N  18.54200 50.60300 26.57100
C  19.30700 50.14600 25.52800
C  20.45400 49.51000 26.13900
C  20.23500 49.51600 27.52800
C  19.02600 50.17700 27.76500
C  21.60700 48.91700 25.26200
C  20.73000 49.13700 28.83600
O  21.80400 48.65600 29.24200
C  19.63500 49.65400 29.89500
C  19.33800 48.55500 30.77700
O  18.73700 47.50000 30.50600
O  19.78300 48.85000 32.01900
C  19.55100 47.76300 33.04000
H  13.50400 52.86300 29.46200
H  14.48500 53.50800 23.15200
H  19.68600 49.96100 23.39100
H  16.94800 50.28500 31.65200
H  15.34500 52.62100 31.24000
H  13.87200 50.96600 32.15500
H  14.82200 49.66400 31.39500
H  13.75300 50.49600 30.42800
H  17.76900 53.11300 31.00800
H  18.91800 51.88500 31.68500
H  17.16100 53.78600 32.85300
H  18.48200 52.69500 33.49800
H  12.02100 55.72800 28.03800
H  12.40200 54.54000 29.12500
H  11.03800 54.26100 27.98400
H  10.74900 56.09500 24.36000
H  11.52900 56.53200 25.85100
H  10.56400 55.07800 25.97400
H  16.67700 53.41500 21.76000
H  17.75000 50.56100 21.54900
H  14.77200 51.18200 21.51200
H  16.03100 51.00700 20.40100
H  14.98000 52.45400 20.32100
H  19.91700 52.51100 22.45600
H  19.00100 53.07200 21.10600
H  20.58000 51.91700 19.86900
H  19.58500 50.54200 20.29600
H  20.99500 50.80700 21.25000
H  21.57600 49.55400 24.37800
H  21.39200 47.89100 24.96500
H  22.53200 48.90300 25.83900
H  20.16300 50.43100 30.44800
H  20.39400 47.11500 32.79700
H  18.59100 47.25600 32.94700
H  19.72700 47.96400 34.09700

