158

Mg 53.85500 23.77700 45.21700
C  51.16200 25.76700 43.94000
C  52.08100 21.02400 43.80600
C  56.66000 21.97700 45.74400
C  55.50500 26.73200 46.01300
N  51.81100 23.42400 44.12400
C  50.98700 24.43200 43.55900
C  49.91900 23.87700 42.51800
C  50.02000 22.35000 42.97700
C  51.35500 22.22000 43.67000
C  48.90300 21.85700 43.93300
C  50.42300 24.08000 41.01300
C  51.96300 24.34600 40.77100
H  52.91400 23.14000 40.79100
N  54.31400 21.71200 44.88100
C  53.43900 20.77500 44.32400
C  54.16700 19.50800 44.45400
C  55.45100 19.72000 45.07500
C  55.52300 21.17000 45.27000
C  53.56000 18.20000 43.91400
C  56.42700 18.70000 45.53600
O  56.22700 17.43800 45.43800
C  57.70100 19.01900 46.27400
N  55.83100 24.29800 45.70600
C  56.80200 23.36000 45.86700
C  58.13200 23.99600 46.02900
C  57.74900 25.51600 46.32400
C  56.24700 25.55500 46.01500
C  59.07900 23.37100 47.04200
C  58.63800 26.56200 45.67000
C  58.26800 27.05800 44.22400
N  53.38800 25.80800 45.15500
C  54.15700 26.90000 45.61800
C  53.36000 28.08200 45.60400
C  52.17900 27.73300 44.86500
C  52.25400 26.33600 44.64500
C  53.72400 29.43100 45.93000
C  50.92100 28.16400 44.35900
O  50.51100 29.29300 44.38900
C  50.26100 26.93900 43.70100
C  50.01300 27.32800 42.28000
O  50.86900 27.46100 41.44100
O  48.63100 27.39300 42.08300
C  48.13500 27.77200 40.75200
H  51.65400 20.12000 43.36700
H  57.65800 21.54600 45.84500
H  56.05200 27.65300 46.22600
H  48.97400 24.37700 42.72900
H  49.92700 21.70500 42.10300
H  48.23800 22.69300 44.14900
H  49.32500 21.46000 44.85700
H  48.25600 21.13800 43.43000
H  49.81000 24.87100 40.58000
H  50.15600 23.20000 40.42900
H  52.34000 25.24000 41.26800
H  52.08900 24.66900 39.73800
H  54.23300 17.89100 43.11400
H  52.54000 18.31400 43.54700
H  53.56400 17.43600 44.69200
H  58.08000 18.17800 46.85400
H  57.64500 19.83300 46.99700
H  58.55600 19.31500 45.66500
H  58.68800 24.01100 45.09200
H  57.82600 25.64800 47.40300
H  59.99500 23.11400 46.51100
H  58.75700 22.52100 47.64300
H  59.39500 24.20300 47.67200
H  59.67100 26.21300 45.67400
H  58.62200 27.48500 46.25100
H  59.10100 26.76500 43.58500
H  58.12100 28.13600 44.28900
H  57.31900 26.64600 43.88200
H  53.59200 30.03400 45.03100
H  54.75400 29.35400 46.27800
H  53.19200 29.90400 46.75500
H  49.31100 26.84600 44.22700
H  48.96600 27.82900 40.04900
H  47.55000 28.69100 40.80300
H  47.46200 26.98700 40.40600
Mg 30.10000 57.60700 40.53000
C  27.08500 56.16800 39.44900
C  31.79500 55.01800 39.08700
C  32.77700 59.72600 40.26200
C  28.18200 60.54700 41.44200
N  29.46600 55.92200 39.35100
C  28.19200 55.41300 39.11900
C  28.23500 54.06600 38.42600
C  29.75700 53.71100 38.51100
C  30.35100 54.90700 39.06200
C  30.03300 52.47000 39.52800
C  27.64100 54.10100 36.95200
C  27.96700 55.35600 36.15600
H  27.92600 55.26900 34.62100
N  32.02300 57.37200 39.81400
C  32.51500 56.24500 39.33200
C  33.90400 56.49700 39.14800
C  34.23500 57.83600 39.34000
C  33.01700 58.43300 39.80300
C  34.80700 55.37100 38.70000
C  35.64900 58.49200 39.16300
O  36.58300 57.89700 38.62900
C  35.90200 59.97800 39.64500
N  30.53500 59.70700 41.20200
C  31.73700 60.27900 40.98900
C  31.67100 61.78800 41.24300
C  30.18400 62.05100 41.63600
C  29.58400 60.63300 41.39900
C  32.75400 62.32300 42.22500
C  29.56700 63.16700 40.81200
C  28.86900 64.21800 41.65400
N  28.11600 58.12700 40.78400
C  27.47800 59.35100 41.13900
C  26.05700 59.20900 41.00000
C  25.82500 57.96200 40.39500
C  27.12000 57.35000 40.20800
C  24.96200 60.15600 41.35300
C  24.80800 57.08200 39.83800
O  23.58600 57.11300 39.86100
C  25.65700 55.87800 39.21400
C  25.16800 54.59300 39.81600
O  25.22900 54.33800 40.98600
O  24.52100 53.81300 38.93700
C  23.92100 52.61100 39.49900
H  32.39200 54.17700 38.72800
H  33.63700 60.39000 40.14700
H  27.56900 61.38900 41.77100
H  27.59000 53.36700 38.95800
H  30.11600 53.51800 37.50000
H  30.82200 52.81600 40.19600
H  30.24200 51.68000 38.80700
H  29.22200 52.11800 40.16600
H  26.60000 53.78300 37.01800
H  28.13200 53.25800 36.46600
H  28.96900 55.73900 36.35100
H  27.23400 56.12900 36.38800
H  35.51900 55.65900 37.92600
H  34.36800 54.40200 38.46600
H  35.48400 55.13900 39.52200
H  35.39700 60.63100 38.93300
H  36.96300 60.20300 39.53400
H  35.64000 60.10600 40.69500
H  31.97600 62.28000 40.32000
H  30.05300 62.33400 42.68000
H  33.45700 63.01100 41.75500
H  33.33400 61.51500 42.67000
H  32.36700 62.93500 43.04000
H  28.79100 62.86700 40.10700
H  30.29700 63.66000 40.17000
H  29.10300 64.15500 42.71700
H  27.80000 64.18100 41.44600
H  29.29800 65.18600 41.39300
H  25.36500 60.90400 42.03600
H  24.15500 59.61100 41.84200
H  24.59600 60.64300 40.44900
H  25.50700 55.88000 38.13500
H  23.69300 51.96000 38.65500
H  22.96600 52.73500 40.01000
H  24.55400 52.05000 40.18700

