158

Mg 53.50600 23.99700 45.24700
C  50.87700 26.36900 44.73000
C  51.32700 21.56800 44.61900
C  56.18300 22.20500 44.54100
C  55.64000 26.96400 45.39700
N  51.39300 23.99800 44.69200
C  50.52800 25.04800 44.45200
C  49.16100 24.56000 43.96900
C  49.18300 23.16700 44.65700
C  50.72100 22.82400 44.59800
C  48.64000 23.03400 46.15200
C  49.04800 24.52300 42.37900
C  47.67800 24.09300 41.79000
H  47.51600 24.06600 40.24800
N  53.78200 22.09700 44.70000
C  52.72200 21.21500 44.63500
C  53.25800 19.90900 44.40000
C  54.73400 19.99000 44.39000
C  54.99100 21.43700 44.53900
C  52.43300 18.64800 44.25000
C  55.68300 18.86800 44.36400
O  55.28100 17.74400 44.31900
C  57.13900 19.04000 44.30400
N  55.56600 24.54600 44.91200
C  56.47300 23.53300 44.71300
C  57.89200 24.12000 44.88700
C  57.68500 25.65800 44.72600
C  56.17800 25.76300 45.05000
C  58.58000 23.72900 46.21800
C  58.00800 26.33200 43.32300
C  56.78500 26.64600 42.40200
N  53.28200 26.21700 45.40600
C  54.23400 27.18000 45.58000
C  53.52600 28.47100 45.58800
C  52.22000 28.20700 45.25000
C  52.12500 26.80500 45.12600
C  54.24800 29.76600 45.70600
C  50.95600 28.77500 44.85800
O  50.57800 29.93300 44.82300
C  50.04800 27.61400 44.57100
C  49.39800 27.79000 43.18800
O  50.01900 27.76500 42.13200
O  48.03200 27.94500 43.36200
C  47.36300 28.04500 42.08400
H  50.68300 20.69100 44.70600
H  57.07900 21.60600 44.36600
H  56.25200 27.86300 45.48900
H  48.39000 25.22400 44.36100
H  48.73700 22.37200 44.05700
H  49.26000 22.45400 46.83600
H  47.59400 22.72900 46.12900
H  48.62500 24.00600 46.64600
H  49.72900 23.74200 42.04100
H  49.45900 25.41800 41.91000
H  46.87800 24.74000 42.14800
H  47.40600 23.10300 42.15900
H  51.41500 18.76000 44.62300
H  52.86600 17.80100 44.78300
H  52.35400 18.42900 43.18500
H  57.67600 18.19400 44.73400
H  57.25300 19.81800 45.05800
H  57.54600 19.24300 43.31300
H  58.56100 23.85600 44.06900
H  58.34800 26.08900 45.47600
H  59.03700 24.59200 46.70300
H  59.44300 23.09100 46.02900
H  57.86800 23.23900 46.88100
H  58.72800 25.72000 42.78100
H  58.65400 27.20000 43.45000
H  55.82000 26.14800 42.49300
H  56.95500 26.71600 41.32800
H  56.54400 27.67600 42.66500
H  54.51400 30.14400 44.71900
H  55.16200 29.71500 46.29700
H  53.51600 30.40800 46.19600
H  49.33000 27.56100 45.38900
H  46.39500 28.41000 42.42800
H  47.17800 27.11900 41.54000
H  47.73800 28.73200 41.32600
Mg 30.46200 58.12900 39.26000
C  27.82200 56.09100 38.03600
C  32.70000 55.58000 38.42000
C  33.07300 60.35600 39.43800
C  28.14900 60.75900 39.54000
N  30.24500 56.07000 38.34800
C  29.08500 55.49400 37.94700
C  29.36000 54.03800 37.60700
C  30.85700 53.76800 37.92300
C  31.32100 55.19900 38.35100
C  31.17100 52.74200 39.06800
C  28.90100 53.69000 36.23300
C  29.53000 54.48400 35.05800
H  28.62600 55.46600 34.21500
N  32.61700 57.96200 38.95300
C  33.32600 56.76800 38.74700
C  34.77600 57.09400 38.72200
C  34.89100 58.48500 38.99800
C  33.48500 59.00900 39.14500
C  35.91400 56.08000 38.55000
C  36.16700 59.25500 38.94500
O  37.25400 58.64200 38.82700
C  36.21800 60.83100 38.88300
N  30.58300 60.28300 39.18600
C  31.77500 60.91500 39.52500
C  31.54300 62.48000 39.58600
C  30.01300 62.52600 39.63000
C  29.50400 61.06100 39.48400
C  32.26600 63.30300 40.68100
C  29.26300 63.42800 38.57000
C  28.60600 64.68400 39.18300
N  28.34900 58.37400 39.06600
C  27.58600 59.47400 39.23100
C  26.18400 59.08900 39.06000
C  26.18400 57.78600 38.58300
C  27.55500 57.40200 38.51100
C  24.98200 59.91800 39.31200
C  25.35100 56.66600 38.17000
O  24.14200 56.55700 38.03900
C  26.44200 55.54900 37.70100
C  26.10500 54.37900 38.51400
O  26.50700 54.06900 39.63400
O  25.25200 53.59200 37.73000
C  24.54600 52.50100 38.37000
H  33.42300 54.80600 38.15300
H  33.83300 61.09800 39.69000
H  27.39700 61.55100 39.57300
H  28.83500 53.37200 38.29200
H  31.43600 53.32500 37.11400
H  30.51600 52.71700 39.93900
H  32.17800 52.93400 39.43600
H  31.22700 51.76600 38.58700
H  27.82700 53.73400 36.05200
H  29.12100 52.62700 36.13400
H  29.91300 53.77600 34.32400
H  30.41700 55.03900 35.36400
H  36.85300 56.35400 39.03200
H  36.07800 56.03200 37.47300
H  35.65600 55.08700 38.92000
H  37.14000 61.15300 38.39700
H  36.01200 61.17800 39.89500
H  35.39300 61.07800 38.21500
H  31.91900 62.92800 38.66600
H  29.81800 62.82100 40.66100
H  33.01700 63.93800 40.21000
H  32.98700 62.69200 41.22500
H  31.61700 63.88000 41.33900
H  28.41900 62.87800 38.15500
H  30.00200 63.86700 37.89900
H  29.10500 65.52200 38.69800
H  28.73900 64.72800 40.26400
H  27.52500 64.63700 39.04300
H  24.49800 59.61600 40.24000
H  24.16200 59.78700 38.60600
H  25.25200 60.96500 39.45400
H  26.32600 55.27900 36.65100
H  23.59600 52.44000 37.83900
H  24.33700 52.48800 39.44000
H  25.10800 51.58000 38.21300

