158

Mg 15.80000 -1.70500 27.24700
C  15.01200 0.52500 29.91000
C  18.18500 -3.26400 29.36900
C  17.49500 -2.92600 24.66500
C  14.24700 0.59400 25.14700
N  16.46200 -1.35800 29.32300
C  15.82600 -0.56800 30.24800
C  16.35300 -0.81300 31.64200
C  17.59600 -1.79000 31.35500
C  17.46600 -2.19800 29.95000
C  18.98700 -1.15000 31.64500
C  15.22800 -1.26300 32.55000
C  15.19000 -0.74500 33.98800
H  16.45600 -0.18200 34.64000
N  17.23600 -3.31100 27.06200
C  18.11300 -3.79800 28.03900
C  18.87700 -4.85500 27.51000
C  18.63600 -4.78500 26.10200
C  17.68100 -3.63800 25.86800
C  19.66600 -5.85400 28.30500
C  19.30600 -5.61600 25.02000
O  19.19400 -5.29500 23.82700
C  20.23500 -6.77000 25.33800
N  15.95100 -1.18600 25.26400
C  16.75700 -1.82300 24.37500
C  16.67500 -1.27200 22.96200
C  15.38900 -0.34700 23.11900
C  15.14100 -0.29200 24.62100
C  17.98100 -0.53000 22.63800
C  14.04400 -0.93700 22.44800
C  13.14500 0.08200 21.59500
N  14.71400 0.18600 27.43800
C  14.03400 0.87600 26.52300
C  13.30400 2.00800 27.12600
C  13.68400 1.91600 28.48400
C  14.54700 0.76100 28.60800
C  12.49400 3.03500 26.50300
C  13.63300 2.58700 29.76800
O  13.12300 3.61800 30.22300
C  14.40700 1.68200 30.78200
C  15.43200 2.54300 31.50200
O  16.54100 2.83100 31.05500
O  14.89000 3.05800 32.64600
C  15.88500 3.84600 33.46700
H  18.95200 -3.79300 29.93900
H  18.04200 -3.24700 23.77600
H  13.57700 1.18700 24.52200
H  16.76100 0.06600 32.14200
H  17.45400 -2.64900 32.01000
H  18.93800 -0.09100 31.90200
H  19.67100 -1.18100 30.79700
H  19.46900 -1.67000 32.47400
H  15.19200 -2.35000 32.61500
H  14.30200 -0.93900 32.07400
H  14.84000 -1.54900 34.63600
H  14.59500 0.16700 34.03000
H  20.73000 -5.81600 28.06900
H  19.30400 -6.85900 28.08600
H  19.51200 -5.69800 29.37200
H  19.65300 -7.60100 25.73500
H  21.03100 -6.46200 26.01700
H  20.68400 -7.02000 24.37700
H  16.62300 -2.12800 22.28900
H  15.61200 0.63100 22.69200
H  17.76400 0.52700 22.49000
H  18.38300 -0.96000 21.72000
H  18.79300 -0.71800 23.34100
H  13.43500 -1.35500 23.24900
H  14.26700 -1.77700 21.79000
H  13.59900 1.07300 21.60000
H  12.14400 0.11500 22.02500
H  13.06500 -0.23300 20.55400
H  11.87900 2.70300 25.66700
H  13.13800 3.81200 26.09100
H  12.05700 3.39900 27.43300
H  13.62400 1.30000 31.43600
H  15.43400 3.81000 34.45800
H  15.84900 4.86000 33.06900
H  16.90500 3.55000 33.22000
Mg 45.71300 4.96800 47.11500
C  43.64100 7.72300 46.66300
C  43.07800 2.90100 46.35200
C  47.98600 2.35000 46.95500
C  48.45800 7.16800 47.34000
N  43.75600 5.30600 46.33700
C  43.09100 6.51800 46.29900
C  41.58800 6.28600 45.80900
C  41.32900 4.79300 46.06600
C  42.81700 4.25400 46.34000
C  40.34400 4.55500 47.20300
C  41.33400 6.74900 44.34200
C  39.84200 7.21200 43.96900
H  39.53800 7.72900 42.57100
N  45.48200 2.90000 46.77500
C  44.31800 2.19700 46.59100
C  44.55500 0.78300 46.38700
C  45.98700 0.59000 46.48200
C  46.62500 1.97000 46.72100
C  43.53400 -0.27000 45.98600
C  46.70800 -0.66700 46.17900
O  46.20700 -1.75100 46.21700
C  48.15200 -0.69300 45.73300
N  47.94000 4.76400 47.24100
C  48.55900 3.56500 47.24200
C  50.07000 3.70100 47.32600
C  50.17600 5.32000 47.33400
C  48.77600 5.79600 47.35400
C  50.65000 2.94800 48.51600
C  50.87500 5.94300 46.10800
C  52.18900 6.73200 46.35200
N  46.01400 7.00700 47.11200
C  47.13200 7.74600 47.31100
C  46.84400 9.15000 47.29100
C  45.40800 9.18800 47.11600
C  45.02600 7.85900 46.97100
C  47.78200 10.32900 47.42000
C  44.24200 10.04900 46.93600
O  44.16100 11.23300 47.10100
C  43.08600 9.19300 46.55000
C  41.99600 9.29800 47.59800
O  41.94400 8.66200 48.66400
O  41.01200 10.18700 47.13700
C  39.90500 10.59900 48.04700
H  42.14400 2.37500 46.14600
H  48.66300 1.50200 46.83700
H  49.20900 7.95100 47.21400
H  41.06200 6.94800 46.49600
H  40.82000 4.25400 45.26800
H  39.62600 5.37600 47.20900
H  40.75500 4.44600 48.20600
H  39.75100 3.69500 46.89100
H  41.63500 5.90700 43.71800
H  41.95900 7.63300 44.21700
H  39.68500 8.10200 44.57800
H  39.10200 6.46100 44.24500
H  43.58600 -1.22500 46.50900
H  43.53300 -0.38400 44.90200
H  42.55500 0.17000 46.17700
H  48.34800 -1.61300 45.18200
H  48.60500 -0.59600 46.72000
H  48.50100 0.17300 45.17100
H  50.62300 3.27700 46.48700
H  50.62700 5.53700 48.30300
H  49.88800 2.51200 49.16100
H  51.41600 3.45000 49.10600
H  51.21100 2.10100 48.12000
H  50.22000 6.70500 45.68500
H  50.99600 5.20700 45.31400
H  52.31700 6.62000 47.42900
H  52.05200 7.80300 46.20200
H  53.02900 6.37700 45.75400
H  47.34100 11.26900 47.08700
H  48.66100 10.24800 46.78100
H  48.16500 10.25700 48.43800
H  42.60800 9.26000 45.57300
H  38.98000 10.11100 47.74100
H  39.72300 11.65900 47.87300
H  40.14300 10.38700 49.08900

