158

Mg 26.89600 50.39800 26.73900
C  24.64300 51.43700 29.22700
C  29.31900 49.71900 29.25600
C  29.24300 49.92100 24.24200
C  24.64600 51.41000 24.32300
N  26.98700 50.74000 29.01200
C  25.88800 50.89300 29.79500
C  26.19300 50.62600 31.25800
C  27.67200 50.10200 31.24400
C  28.04800 50.16100 29.73700
C  28.63800 50.84000 32.16800
C  25.17800 49.68300 31.88900
C  24.64000 49.97800 33.31200
H  24.72700 48.96400 34.42700
N  28.92900 49.88600 26.73300
C  29.71300 49.58600 27.86700
C  31.00000 49.08800 27.43700
C  31.06500 49.24600 26.01100
C  29.73900 49.72600 25.56500
C  32.02800 48.71400 28.48600
C  32.19000 48.86300 25.09500
O  32.13800 49.03400 23.87300
C  33.50000 48.19200 25.60200
N  26.97800 50.69000 24.60100
C  27.95600 50.23800 23.77500
C  27.60500 50.42000 22.27100
C  26.05100 50.63900 22.38100
C  25.87600 50.97100 23.87000
C  28.42200 51.60100 21.60800
C  25.16700 49.47600 21.90100
C  24.11700 49.84000 20.83400
N  25.12200 51.38300 26.71500
C  24.29000 51.67000 25.67300
C  23.11700 52.32000 26.10500
C  23.19500 52.19700 27.51900
C  24.38300 51.56000 27.83900
C  21.96900 52.96400 25.26900
C  22.44400 52.46000 28.76100
O  21.35000 53.02800 28.90100
C  23.39700 51.95400 29.97100
C  23.79200 53.10400 30.74400
O  24.14500 54.16900 30.34700
O  23.75300 52.79800 32.03500
C  24.33800 53.83700 32.96400
H  29.88600 49.30200 30.09200
H  29.97200 49.75200 23.44700
H  24.02200 51.73500 23.48800
H  26.07000 51.53200 31.85100
H  27.59300 49.05300 31.52900
H  28.56600 50.55500 33.21800
H  28.22600 51.84200 32.28600
H  29.63300 51.04400 31.77300
H  25.71600 48.74600 32.02600
H  24.31300 49.59800 31.23000
H  23.57200 50.16300 33.19900
H  24.97500 50.94500 33.68700
H  32.77200 49.50900 28.43400
H  32.37500 47.69900 28.28700
H  31.63100 48.66400 29.49900
H  34.09600 49.01200 26.00200
H  33.85900 47.70800 24.69400
H  33.24800 47.39000 26.29600
H  27.85700 49.51900 21.71300
H  25.83300 51.59500 21.90600
H  28.98400 51.23800 20.74800
H  29.12800 51.82700 22.40700
H  27.68000 52.35800 21.35700
H  24.73400 48.96300 22.76000
H  25.84300 48.78700 21.39500
H  24.53400 49.80000 19.82800
H  23.77900 50.86900 20.95500
H  23.17600 49.29300 20.89200
H  21.13500 53.13800 25.94900
H  21.51100 52.16600 24.68300
H  22.22800 53.85500 24.69700
H  22.84500 51.24200 30.58500
H  24.76300 53.22600 33.76100
H  23.60300 54.50800 33.41000
H  25.11500 54.54700 32.68200
Mg -5.62100 25.71800 25.99400
C  -3.85100 26.83300 28.88400
C  -7.39600 23.71000 27.82300
C  -6.47400 24.16500 23.11500
C  -3.40100 27.78700 24.08700
N  -5.67000 25.34600 28.12800
C  -4.87900 25.87500 29.10000
C  -5.41000 25.51700 30.43000
C  -6.44700 24.30100 30.10400
C  -6.61200 24.53300 28.64000
C  -5.93500 22.87300 30.42400
C  -6.14400 26.78900 31.01800
C  -5.78200 27.11900 32.38300
H  -5.24400 26.03600 33.33400
N  -6.83000 24.25800 25.52900
C  -7.48300 23.50400 26.45300
C  -8.23600 22.40800 25.86600
C  -7.97600 22.48900 24.49900
C  -7.08000 23.67200 24.31900
C  -9.21200 21.51800 26.59200
C  -8.42800 21.58400 23.37100
O  -8.14500 21.83500 22.23700
C  -9.40000 20.35200 23.59200
N  -5.15500 26.07200 23.85200
C  -5.63900 25.29700 22.84200
C  -5.06100 25.69800 21.44300
C  -4.14000 26.91300 21.78400
C  -4.23100 26.93900 23.33100
C  -4.39900 24.46900 20.80700
C  -4.54400 28.30500 21.17000
C  -3.35800 29.25000 20.74400
N  -3.95000 27.01700 26.28000
C  -3.25000 27.84400 25.43900
C  -2.22400 28.51600 26.23100
C  -2.44100 28.06500 27.53500
C  -3.53800 27.23400 27.52600
C  -1.03100 29.36200 25.82100
C  -1.90800 28.20900 28.90500
O  -0.89400 28.88400 29.27500
C  -2.95600 27.52000 29.87900
C  -2.05600 26.60700 30.58000
O  -1.53000 25.59600 30.08300
O  -1.78200 27.23000 31.79100
C  -0.77500 26.40800 32.42900
H  -8.07800 23.28400 28.56200
H  -6.69000 23.58900 22.21400
H  -2.68000 28.41300 23.55800
H  -4.67300 25.00200 31.04700
H  -7.36300 24.35100 30.69300
H  -5.13600 22.80000 31.16200
H  -5.71700 22.33000 29.50400
H  -6.75900 22.25000 30.77200
H  -7.21000 26.58300 30.92200
H  -6.00200 27.66500 30.38600
H  -6.68000 27.41000 32.92700
H  -4.97500 27.83200 32.21000
H  -10.19000 21.57500 26.11400
H  -9.30300 21.83800 27.63000
H  -8.90900 20.47500 26.68200
H  -9.00000 19.77400 24.42500
H  -9.37900 19.79900 22.65300
H  -10.38300 20.71800 23.88900
H  -6.00100 25.98600 20.97200
H  -3.07700 26.77500 21.58500
H  -5.08700 24.16900 20.01600
H  -4.27600 23.63100 21.49300
H  -3.38500 24.66600 20.45800
H  -5.09100 28.75800 21.99700
H  -5.36900 28.15400 20.47400
H  -2.35900 29.04500 21.12900
H  -3.36800 30.28900 21.07600
H  -3.24500 29.29000 19.66100
H  -0.63100 28.92200 24.90700
H  -0.23100 29.37900 26.56100
H  -1.40100 30.33900 25.51200
H  -3.36400 28.16500 30.65700
H  0.19800 26.59800 31.97700
H  -1.08700 25.36800 32.53200
H  -0.71800 26.63300 33.49400

