158

Mg 40.90000 8.37700 29.25700
C  42.43900 9.78300 32.09900
C  38.49100 7.01000 31.28400
C  39.68400 6.97200 26.50400
C  43.85600 9.30200 27.54500
N  40.53900 8.33500 31.51700
C  41.23600 9.10500 32.44500
C  40.47800 9.11900 33.81700
C  39.33700 8.12500 33.52500
C  39.43900 7.79400 31.98600
C  39.45900 6.68800 34.21600
C  40.07300 10.50300 34.32700
C  39.97900 10.57700 35.83600
H  40.95100 11.49300 36.61800
N  39.20200 7.17600 28.93300
C  38.33400 6.70600 29.90900
C  37.26100 6.02400 29.22400
C  37.56000 6.03400 27.87000
C  38.86300 6.69400 27.70500
C  36.08400 5.38400 29.92800
C  36.68100 5.53300 26.73100
O  36.97700 5.61000 25.55100
C  35.22200 5.06900 27.01500
N  41.67100 8.20500 27.34800
C  40.92400 7.61700 26.35200
C  41.65200 7.58000 25.03900
C  42.89000 8.62900 25.23200
C  42.81800 8.68400 26.84700
C  42.16200 6.20700 24.53100
C  42.92700 9.92900 24.44800
C  42.15800 11.08700 25.01500
N  42.78700 9.32800 29.70000
C  43.76000 9.71700 28.86700
C  44.70600 10.62200 29.59300
C  44.26600 10.63700 30.92400
C  43.05100 9.85000 30.90100
C  45.87300 11.30700 29.04900
C  44.53900 11.14900 32.25400
O  45.44600 11.75200 32.73500
C  43.35000 10.50800 33.07300
C  44.05300 9.61400 34.04600
O  44.79100 8.71100 33.69700
O  43.56200 9.84200 35.31400
C  43.95900 8.84000 36.31700
H  37.60900 6.80500 31.89300
H  39.29900 6.57800 25.56100
H  44.55400 9.88600 26.94100
H  41.08300 8.60900 34.56600
H  38.33100 8.42000 33.82400
H  39.92100 5.93100 33.58200
H  38.47500 6.26200 34.41200
H  40.02600 6.64000 35.14600
H  39.11500 10.75300 33.87100
H  40.72200 11.20200 33.79800
H  40.00600 9.58200 36.28100
H  38.96000 10.92400 36.00500
H  35.09900 5.75700 29.64600
H  36.19000 5.46700 31.00900
H  36.12500 4.33100 29.64700
H  35.20000 4.09100 27.49600
H  34.72700 5.03800 26.04400
H  34.81300 5.88600 27.61000
H  41.11200 8.03300 24.20800
H  43.75100 8.03700 24.92100
H  41.84600 6.09900 23.49400
H  41.70600 5.35300 25.03100
H  43.24500 6.08500 24.56100
H  42.40500 9.61300 23.54500
H  43.94900 10.15100 24.13800
H  41.66200 11.55700 24.16600
H  42.91500 11.70200 25.50300
H  41.46800 10.77600 25.80000
H  45.87800 11.36900 27.96100
H  46.71700 10.65400 29.27100
H  46.00400 12.27400 29.53500
H  42.93800 11.39400 33.55600
H  43.75700 9.12800 37.34800
H  45.02900 8.63500 36.28100
H  43.32100 7.97000 36.16600
Mg 30.48400 58.55800 41.03500
C  27.46600 56.93600 40.34200
C  32.16000 55.59400 40.21700
C  33.47100 60.06400 41.30100
C  28.84800 61.57900 41.12800
N  29.81600 56.55800 40.37900
C  28.57600 56.13100 40.10700
C  28.55700 54.66200 39.53000
C  29.99100 54.15500 39.96100
C  30.74800 55.51600 40.10900
C  30.00300 53.26900 41.25100
C  28.34200 54.70700 37.96100
C  27.08100 54.04500 37.34300
H  26.37100 54.95500 36.25100
N  32.57300 57.86100 40.97700
C  33.00100 56.66200 40.56700
C  34.46500 56.68400 40.57100
C  34.89700 57.95000 40.92000
C  33.66100 58.67400 41.10700
C  35.32100 55.45600 40.17500
C  36.25900 58.38700 41.17800
O  37.13700 57.57000 40.95800
C  36.66900 59.76000 41.70900
N  31.10800 60.53500 41.19100
C  32.40100 60.93300 41.36900
C  32.44000 62.44300 41.26200
C  31.00600 62.85700 41.45500
C  30.22200 61.59300 41.14000
C  33.38100 63.15800 42.30400
C  30.57500 64.06700 40.57700
C  30.45500 63.75100 39.03700
N  28.50800 59.23100 40.75300
C  27.96100 60.52100 40.94100
C  26.52300 60.41500 40.73000
C  26.28500 59.00700 40.45900
C  27.55700 58.34200 40.57600
C  25.59400 61.55800 40.76900
C  25.25000 58.03000 40.15700
O  24.04200 58.14900 40.05600
C  25.98900 56.67400 40.01100
C  25.42700 55.65800 40.96200
O  24.97600 55.96800 42.05500
O  25.31300 54.41400 40.34500
C  24.60000 53.46300 41.27000
H  32.56200 54.59900 40.01400
H  34.36600 60.68900 41.30800
H  28.33000 62.54000 41.16100
H  27.71400 54.03200 39.81300
H  30.42000 53.61200 39.11800
H  30.31700 52.25200 41.01800
H  29.04100 53.27500 41.76300
H  30.75000 53.59800 41.97300
H  29.06800 54.09400 37.42800
H  28.40200 55.70400 37.52300
H  26.32700 53.97500 38.12700
H  27.45800 53.11300 36.92100
H  34.69700 54.79900 39.57000
H  35.48900 54.90700 41.10200
H  36.25300 55.54100 39.61700
H  37.75800 59.73800 41.68600
H  36.19800 59.71400 42.69100
H  36.30600 60.47600 40.97100
H  32.81300 62.52100 40.24100
H  30.68900 63.07000 42.47600
H  34.30700 62.59000 42.38800
H  32.92200 63.19400 43.29300
H  33.58500 64.20500 42.07700
H  31.26100 64.91200 40.63500
H  29.67200 64.45700 41.04600
H  29.43500 64.02800 38.77100
H  30.68100 62.70100 38.84900
H  31.03700 64.49200 38.49000
H  26.00100 62.42200 41.29300
H  24.58900 61.28900 41.09600
H  25.36900 61.93700 39.77200
H  25.70600 56.32100 39.02000
H  25.27000 52.73000 41.71900
H  23.94100 52.86700 40.63900
H  23.93500 53.81300 42.06000

