158

Mg 25.12400 1.15100 29.03100
C  27.29900 0.81700 31.71900
C  22.45300 1.56000 31.32300
C  22.87200 1.07400 26.41300
C  27.65300 0.45500 26.79700
N  24.84900 1.00000 31.23200
C  25.96900 1.19000 32.05700
C  25.43700 1.38400 33.53200
C  23.91000 1.55200 33.36900
C  23.71800 1.33800 31.90000
C  23.05900 0.60500 34.32800
C  26.10500 2.61600 34.21800
C  26.72700 2.36400 35.58800
H  26.39400 3.41700 36.73100
N  23.01900 1.33300 28.86200
C  22.12000 1.50700 29.93600
C  20.78600 1.70700 29.50400
C  20.87500 1.58700 28.08700
C  22.25700 1.32600 27.71700
C  19.62000 2.11300 30.44200
C  19.79100 1.61900 27.02900
O  19.97900 1.52600 25.81800
C  18.31700 1.67500 27.43100
N  25.30800 0.80700 26.94700
C  24.16600 0.84800 26.07600
C  24.58000 0.63900 24.62700
C  26.19600 0.63700 24.68000
C  26.41700 0.64400 26.18300
C  24.02000 -0.55800 24.03200
C  26.95100 1.84600 24.02900
C  27.02300 3.18200 24.78000
N  27.08300 0.64400 29.23900
C  28.01700 0.38900 28.23400
C  29.31000 0.15100 28.81900
C  29.06200 0.28400 30.25200
C  27.70400 0.61700 30.40700
C  30.59300 -0.21800 28.12400
C  29.63300 0.31600 31.57600
O  30.83300 0.27000 31.89300
C  28.47300 0.76200 32.61600
C  28.28500 -0.18700 33.80300
O  27.59100 -1.21200 33.82100
O  29.02400 0.32700 34.90300
C  28.86600 -0.51500 36.12000
H  21.61800 1.85500 31.96100
H  22.32100 1.33400 25.50700
H  28.52500 0.26900 26.16700
H  25.68000 0.47200 34.07900
H  23.58500 2.57500 33.55700
H  22.43800 -0.10900 33.78700
H  22.39200 1.31100 34.82200
H  23.71700 0.01500 34.96700
H  25.26700 3.29700 34.36500
H  26.85700 3.05300 33.56000
H  27.80600 2.45000 35.46200
H  26.42700 1.39300 35.98100
H  19.05200 2.80400 29.81900
H  19.80800 2.59100 31.40300
H  19.13700 1.14800 30.59400
H  18.09400 0.78400 28.01800
H  17.71100 1.71800 26.52700
H  18.11300 2.55300 28.04500
H  24.20500 1.53700 24.13500
H  26.53600 -0.32100 24.28900
H  24.73800 -1.32000 23.73000
H  23.51200 -0.19300 23.13900
H  23.35200 -1.07300 24.72200
H  26.50500 1.99900 23.04600
H  27.96500 1.59100 23.71900
H  28.09500 3.21600 24.97200
H  26.40900 3.20800 25.68100
H  26.75600 4.02100 24.13700
H  31.41000 -0.27400 28.84300
H  30.81500 0.46800 27.30600
H  30.55100 -1.26300 27.81900
H  28.69900 1.78300 32.92200
H  28.56800 0.06900 36.99100
H  29.84200 -0.86900 36.45100
H  28.29500 -1.42900 35.95900
Mg 49.59400 45.54200 42.86500
C  46.20700 45.19000 42.09300
C  49.99700 42.23600 41.97300
C  52.93700 45.87600 43.20900
C  49.26300 49.03000 43.00200
N  48.24400 43.91500 42.00100
C  46.87200 43.98300 41.92500
C  46.25000 42.69000 41.53200
C  47.44600 41.72400 41.59100
C  48.68300 42.62600 41.87600
C  47.21200 40.60100 42.64000
C  45.50000 42.69500 40.13800
C  46.08200 43.58000 38.98300
H  46.09400 42.92600 37.56400
N  51.25000 44.24400 42.70200
C  51.18000 42.92700 42.36200
C  52.52700 42.34700 42.47700
C  53.42000 43.43900 42.75000
C  52.53200 44.60500 42.84900
C  52.72200 40.94500 42.10100
C  54.89500 43.41500 42.77000
O  55.45700 42.34700 42.90400
C  55.88200 44.65800 42.78200
N  50.91200 47.18700 43.08300
C  52.25900 47.04500 43.22300
C  53.01700 48.38500 43.46400
C  51.78300 49.48500 43.38500
C  50.62800 48.53300 43.05800
C  53.87200 48.56300 44.71000
C  51.98000 50.54500 42.25100
C  51.96700 50.04600 40.80200
N  48.08000 46.88200 42.64700
C  48.03200 48.22700 42.72500
C  46.68600 48.75100 42.54700
C  45.92100 47.58100 42.26200
C  46.80000 46.46900 42.29400
C  46.24900 50.18500 42.64300
C  44.63100 47.01500 42.08200
O  43.57200 47.55200 42.09700
C  44.74000 45.46000 41.94600
C  43.82700 44.89500 42.96800
O  42.62100 44.71200 42.79400
O  44.43600 44.67400 44.17300
C  43.69000 44.13100 45.32900
H  50.28000 41.19000 41.83900
H  53.98100 46.08800 43.45000
H  49.05600 50.10200 43.01700
H  45.44800 42.52200 42.25200
H  47.57000 41.21500 40.63500
H  46.32700 40.79100 43.24700
H  48.07600 40.42200 43.28000
H  46.96300 39.68500 42.10300
H  44.51500 43.11800 40.33600
H  45.41500 41.64300 39.86700
H  47.06100 44.02500 39.16000
H  45.49200 44.47800 38.79900
H  52.54900 40.74000 41.04500
H  52.18400 40.27100 42.76800
H  53.79200 40.75400 42.18700
H  55.95900 45.01700 43.80900
H  55.43500 45.48200 42.22700
H  56.86900 44.38000 42.41100
H  53.63100 48.41300 42.56400
H  51.51300 49.88900 44.36100
H  54.92800 48.37300 44.51900
H  53.55100 47.92600 45.53500
H  53.73300 49.59200 45.04100
H  52.83400 51.21700 42.33500
H  51.19000 51.28300 42.39000
H  52.27900 49.00500 40.72100
H  52.73000 50.57600 40.23300
H  51.02200 50.21700 40.28600
H  45.23200 50.31300 42.27400
H  46.90400 50.72700 41.96100
H  46.43900 50.57600 43.64300
H  44.32900 45.23400 40.96200
H  43.34500 43.10300 45.21500
H  42.83200 44.76100 45.56300
H  44.38600 44.09500 46.16700

