158

Mg 25.03600 0.48400 29.64100
C  27.34800 0.83000 32.18800
C  22.46700 0.56800 31.77100
C  23.08300 0.25100 26.95700
C  27.93800 0.01100 27.48000
N  24.95800 0.60800 31.71000
C  26.02200 0.84400 32.61900
C  25.44800 0.97400 33.99900
C  23.84300 0.61300 33.86100
C  23.75800 0.61300 32.32000
C  23.36900 -0.72000 34.51300
C  25.79400 2.35100 34.67700
C  26.13100 2.10800 36.19600
H  25.48100 2.93700 37.27400
N  23.10500 0.56600 29.41200
C  22.14900 0.60200 30.41200
C  20.80300 0.43200 29.90800
C  20.94400 0.29600 28.53000
C  22.43700 0.39400 28.24800
C  19.57500 0.22600 30.77100
C  19.89700 0.18500 27.52900
O  20.14100 0.01000 26.34400
C  18.43700 0.34000 27.88100
N  25.53000 0.26900 27.55800
C  24.44300 0.10100 26.63800
C  24.98900 -0.17800 25.19200
C  26.51000 -0.15200 25.31300
C  26.73400 0.06600 26.88900
C  24.36100 -1.38400 24.39300
C  27.24900 0.83800 24.38200
C  27.71300 0.22600 22.94400
N  27.29000 0.40800 29.72700
C  28.28100 0.12600 28.85800
C  29.59400 0.13300 29.53900
C  29.27700 0.37300 30.84900
C  27.87800 0.55100 30.87200
C  30.89200 -0.17800 28.90300
C  29.77900 0.48200 32.19600
O  30.90900 0.24300 32.65500
C  28.54300 0.84500 33.12000
C  28.36300 -0.16000 34.27400
O  27.83100 -1.25100 34.14400
O  28.89600 0.22200 35.45700
C  28.56600 -0.61800 36.67100
H  21.65600 0.40100 32.48200
H  22.41900 -0.05200 26.14500
H  28.77700 -0.07900 26.78700
H  25.89500 0.22900 34.65800
H  23.26300 1.42200 34.30500
H  22.90500 -0.64300 35.49600
H  24.20600 -1.40700 34.63300
H  22.68100 -1.17300 33.79900
H  24.99700 3.08900 34.59600
H  26.69400 2.76600 34.22400
H  27.20200 2.27000 36.32600
H  25.82800 1.12200 36.54800
H  18.75600 0.92000 30.58100
H  19.80300 0.47700 31.80700
H  19.17700 -0.78600 30.69300
H  17.82800 0.35100 26.97700
H  18.25900 1.28000 28.40400
H  18.08000 -0.40500 28.59300
H  24.60300 0.65100 24.59900
H  26.85100 -1.18000 25.18800
H  25.14000 -2.06000 24.04200
H  23.92300 -0.88800 23.52700
H  23.66400 -2.06200 24.88500
H  28.12600 1.39500 24.71100
H  26.50700 1.61300 24.18900
H  27.22100 0.68600 22.08700
H  27.45500 -0.82800 22.84700
H  28.78800 0.32300 22.79100
H  31.66600 -0.05600 29.66100
H  30.99400 0.57800 28.12500
H  30.86100 -1.16200 28.43500
H  28.74800 1.85200 33.48400
H  27.48800 -0.77700 36.63100
H  29.00200 -0.20400 37.58000
H  28.98300 -1.61500 36.52600
Mg 10.13100 48.10300 26.38600
C  8.45800 47.94100 29.35500
C  12.89800 49.51300 28.00900
C  11.81400 48.26000 23.38800
C  7.24000 47.00400 24.78000
N  10.56700 48.70600 28.39000
C  9.82900 48.37500 29.48500
C  10.47800 48.83400 30.81900
C  11.68900 49.63300 30.23100
C  11.75600 49.24100 28.78300
C  11.69700 51.14400 30.52900
C  10.93100 47.71000 31.74400
C  10.24800 47.57600 33.12300
H  10.53100 48.45800 34.39300
N  12.05400 48.88700 25.79100
C  13.02500 49.22000 26.61800
C  14.21600 49.47500 25.87800
C  13.91200 49.17000 24.52700
C  12.49800 48.79700 24.51600
C  15.47500 50.06700 26.46800
C  14.82200 49.20600 23.31500
O  14.45700 49.01100 22.15000
C  16.31200 49.50300 23.52000
N  9.55500 47.89600 24.29500
C  10.45300 47.82300 23.35000
C  9.77300 47.28100 22.09100
C  8.47000 46.65700 22.55300
C  8.37100 47.21700 23.95600
C  9.59700 48.30700 20.98200
C  8.40700 45.05500 22.51800
C  9.30000 44.20900 23.42400
N  8.18700 47.69400 26.95100
C  7.13100 47.26200 26.12900
C  5.95000 47.11800 26.91800
C  6.46700 47.34700 28.22900
C  7.82100 47.66900 28.16000
C  4.52300 46.86100 26.44900
C  6.03800 47.39800 29.60500
O  4.97400 47.16300 30.20500
C  7.39700 47.61800 30.43500
C  7.75500 46.41600 31.27700
O  8.64100 45.59600 31.04900
O  6.92500 46.43100 32.40600
C  7.27000 45.55200 33.52900
H  13.71800 50.00500 28.53600
H  12.26100 48.28800 22.39300
H  6.44900 46.52700 24.19700
H  9.77400 49.50300 31.31500
H  12.61300 49.29700 30.70100
H  12.65700 51.53700 30.86200
H  10.98800 51.46600 31.29200
H  11.49300 51.60900 29.56500
H  12.00100 47.83700 31.90600
H  10.66900 46.79100 31.21900
H  10.34400 46.53900 33.44500
H  9.15900 47.60800 33.08100
H  16.16800 49.27300 26.74700
H  15.32000 50.55900 27.42800
H  16.12500 50.72600 25.89200
H  16.84900 49.10700 24.38200
H  16.39000 50.58100 23.66000
H  16.89300 49.34100 22.61200
H  10.36100 46.52100 21.57500
H  7.64900 46.97400 21.91000
H  10.26500 48.14800 20.13500
H  10.02200 49.24400 21.34200
H  8.59800 48.50500 20.59400
H  8.45400 44.64900 21.50700
H  7.37400 44.83500 22.78500
H  10.22100 44.63100 23.82500
H  9.56300 43.37600 22.77100
H  8.64300 43.93800 24.25000
H  4.07000 47.75200 26.01300
H  3.90400 46.51200 27.27600
H  4.57300 46.17700 25.60200
H  7.25400 48.44000 31.13600
H  6.93500 44.53600 33.32300
H  6.66700 45.99600 34.32100
H  8.35100 45.56900 33.67000

