158

Mg 36.51000 49.51900 24.85800
C  36.28400 47.80800 27.97400
C  35.58900 52.35700 26.72100
C  36.63300 51.24900 22.05800
C  37.14500 46.57000 23.29300
N  35.89000 49.97100 27.10700
C  36.01900 49.14600 28.17000
C  35.86400 49.91900 29.48800
C  35.26600 51.30100 29.03300
C  35.61900 51.22400 27.53700
C  33.77000 51.44600 29.27800
C  37.25700 49.89000 30.27900
C  37.16700 49.56900 31.78100
H  35.90700 50.09300 32.51000
N  36.13600 51.47400 24.44600
C  35.86600 52.50100 25.35400
C  35.71000 53.75800 24.65400
C  36.08100 53.52600 23.28500
C  36.27700 52.03100 23.14900
C  35.40000 55.07000 25.23000
C  36.15200 54.49400 22.16900
O  36.27100 54.10000 21.00300
C  36.04300 55.98400 22.27400
N  36.81200 48.96900 22.95800
C  36.82400 49.87200 21.94400
C  37.12600 49.25500 20.55100
C  37.42600 47.73400 20.93500
C  37.10700 47.72100 22.47400
C  35.98800 49.43900 19.55400
C  38.90800 47.27300 20.56800
C  39.99000 47.87800 21.47900
N  36.62500 47.58100 25.42700
C  36.93800 46.43600 24.63200
C  37.02200 45.32300 25.45900
C  36.82400 45.81400 26.76600
C  36.52700 47.14300 26.70000
C  37.37000 43.97000 24.98900
C  36.75400 45.47000 28.14300
O  36.93000 44.34200 28.68500
C  36.43400 46.74700 28.98100
C  35.12000 46.41700 29.58500
O  34.04100 46.38400 29.01800
O  35.31200 46.30100 31.00300
C  34.07200 45.82500 31.76500
H  35.33400 53.25400 27.28800
H  36.65300 51.78700 21.10800
H  37.57100 45.72000 22.75600
H  35.11000 49.38800 30.07000
H  35.85300 52.18400 29.28400
H  33.25900 50.73300 28.63100
H  33.48100 52.42200 28.88800
H  33.60200 51.31500 30.34700
H  37.67600 50.89500 30.31200
H  37.96800 49.20900 29.81200
H  38.13000 49.90300 32.16800
H  37.05600 48.48600 31.83700
H  34.66600 55.69100 24.71500
H  36.30800 55.67100 25.27100
H  34.80300 54.97700 26.13800
H  35.09600 56.22600 22.75500
H  36.07200 56.36700 21.25400
H  36.87100 56.33100 22.89200
H  38.05000 49.70100 20.18500
H  36.70700 47.06400 20.46600
H  35.04000 49.13800 20.00100
H  36.13900 48.80300 18.68100
H  35.88600 50.49000 19.28400
H  39.18200 47.71100 19.60800
H  38.90900 46.18300 20.60600
H  40.73800 47.09600 21.35400
H  39.74700 48.16800 22.50200
H  40.31300 48.81100 21.01700
H  38.19900 43.97100 24.28100
H  36.51200 43.47500 24.53400
H  37.65800 43.35500 25.84100
H  37.11400 47.01200 29.79000
H  33.40700 45.44000 30.99300
H  33.57400 46.70100 32.18100
H  34.48000 45.13400 32.50300
Mg 0.24600 42.79100 26.06200
C  2.56800 42.20700 28.66000
C  -2.28500 41.88200 28.29200
C  -2.01900 42.42700 23.53500
C  2.77100 43.07900 23.80700
N  0.22400 42.10600 28.21300
C  1.24400 42.08900 29.14800
C  0.73000 41.88200 30.60800
C  -0.82000 41.85300 30.35000
C  -1.02100 42.03600 28.89000
C  -1.45400 40.52400 30.87900
C  1.25800 42.97700 31.54000
C  1.89300 42.50500 32.83900
H  1.28800 41.21400 33.46700
N  -1.84300 42.35400 25.94600
C  -2.69400 42.01700 26.99100
C  -4.04300 41.75700 26.52600
C  -3.95200 41.86800 25.11200
C  -2.54200 42.24200 24.80700
C  -5.24600 41.34700 27.51600
C  -5.10000 41.67700 24.12400
O  -4.96700 42.04700 22.97800
C  -6.56100 41.34700 24.57300
N  0.36800 42.77100 23.93200
C  -0.70000 42.67100 23.12700
C  -0.24000 42.67700 21.62100
C  1.26800 43.09400 21.77800
C  1.49900 43.09300 23.28900
C  -0.47200 41.33000 20.86000
C  1.81900 44.31900 21.06100
C  1.63200 45.71400 21.71000
N  2.27900 42.76100 26.16800
C  3.16500 42.83600 25.09200
C  4.51700 42.67500 25.64600
C  4.35100 42.49000 27.02000
C  2.93800 42.42600 27.32700
C  5.73300 42.71000 24.89700
C  5.04300 42.34700 28.26200
O  6.25300 42.29400 28.49000
C  3.91300 42.25900 29.38600
C  4.13700 40.93600 30.08100
O  3.62400 39.87300 29.80600
O  4.90400 41.18500 31.15300
C  5.13900 40.02900 32.02000
H  -2.97400 41.64500 29.10600
H  -2.71100 42.45000 22.69000
H  3.63800 43.26200 23.16900
H  1.20400 40.94100 30.88900
H  -1.34000 42.71700 30.76500
H  -0.76500 39.94900 31.49700
H  -1.58600 39.77700 30.09600
H  -2.31600 40.74000 31.51100
H  0.45800 43.60800 31.92700
H  1.94400 43.69700 31.09300
H  1.73400 43.22200 33.64500
H  2.92200 42.39800 32.49600
H  -5.46900 40.29000 27.37300
H  -6.11100 41.99400 27.37400
H  -5.01100 41.40200 28.57900
H  -6.62500 40.45700 25.20000
H  -7.23800 41.29300 23.72000
H  -6.87000 42.26700 25.06900
H  -0.85100 43.49600 21.24300
H  1.94600 42.26000 21.59800
H  -1.09000 40.64000 21.43600
H  0.35300 40.67300 20.58700
H  -1.05100 41.58500 19.97200
H  1.49700 44.36300 20.02100
H  2.89300 44.14600 20.99300
H  2.53700 45.99400 22.25000
H  0.81500 45.59600 22.42200
H  1.29700 46.44600 20.97500
H  6.55800 43.14200 25.46300
H  5.56300 43.35900 24.03800
H  5.88700 41.68200 24.56800
H  3.96900 43.13100 30.03700
H  5.85800 40.31200 32.78900
H  5.55600 39.16600 31.50000
H  4.18100 39.76600 32.46900

