158

Mg 7.20900 3.12600 27.49800
C  8.32400 1.93400 30.62200
C  5.12400 5.26500 29.21500
C  5.84800 4.13500 24.61800
C  8.96600 0.76900 25.92200
N  6.58000 3.32500 29.71200
C  7.27300 2.83800 30.77900
C  6.68400 3.31000 32.16500
C  5.58100 4.27500 31.59100
C  5.81100 4.37700 30.04700
C  4.05600 3.98800 31.96900
C  7.69600 3.99700 33.13900
C  7.22100 3.88700 34.62700
H  8.17400 3.66100 35.73900
N  5.90900 4.72800 26.96500
C  5.12000 5.43100 27.82000
C  4.29100 6.30900 27.14400
C  4.42100 5.96900 25.81700
C  5.36300 4.87100 25.72600
C  3.22900 7.19700 27.77000
C  3.75300 6.64000 24.59900
O  3.90400 6.26300 23.45500
C  2.88100 7.91700 24.70600
N  7.32700 2.51600 25.52000
C  6.71900 3.11600 24.44400
C  7.22400 2.53700 23.09100
C  8.28700 1.51800 23.57400
C  8.15500 1.55000 25.10700
C  5.98100 1.98000 22.26700
C  9.73000 1.84600 22.98900
C  10.55200 2.87000 23.74000
N  8.31900 1.48300 28.06900
C  9.13600 0.72500 27.32600
C  10.11600 -0.01000 28.16900
C  9.72500 0.38100 29.50200
C  8.72100 1.34500 29.36800
C  11.29100 -0.90100 27.80400
C  10.06900 0.15500 30.83600
O  10.98400 -0.58600 31.28800
C  9.17600 1.19600 31.70500
C  8.38100 0.44400 32.74400
O  7.26600 -0.01500 32.57400
O  8.99400 0.37500 33.99100
C  8.30500 -0.16900 35.12700
H  4.51700 5.96700 29.79100
H  5.37000 4.44600 23.68700
H  9.49700 0.02000 25.33100
H  6.18400 2.48200 32.66700
H  5.68600 5.26200 32.04300
H  3.97800 3.20200 32.72000
H  3.50100 3.84200 31.04100
H  3.59400 4.87300 32.40800
H  7.75600 5.03400 32.80600
H  8.71300 3.63100 32.99600
H  6.41300 3.16200 34.72700
H  6.86200 4.88500 34.87800
H  3.18500 7.25700 28.85800
H  2.19100 7.01800 27.49100
H  3.48000 8.19300 27.40700
H  3.54500 8.63500 25.18700
H  2.08800 7.79900 25.44500
H  2.44300 8.24300 23.76300
H  7.72200 3.28200 22.47000
H  8.02300 0.52200 23.22100
H  5.11300 2.23000 22.87700
H  6.02500 0.89500 22.17200
H  5.88600 2.53300 21.33200
H  9.81200 2.28300 21.99400
H  10.22100 0.88100 22.86400
H  11.40800 2.30500 24.11000
H  9.99600 3.35600 24.54200
H  10.85600 3.70800 23.11400
H  11.85600 -0.53600 26.94600
H  10.87900 -1.88400 27.57600
H  11.97500 -0.90500 28.65300
H  9.84400 1.85700 32.25800
H  8.36800 -1.25000 34.99900
H  7.33900 0.32700 35.22100
H  8.81200 -0.03800 36.08300
Mg 5.05800 54.17700 41.50400
C  3.26000 51.01400 40.97500
C  7.67900 52.59900 39.96000
C  6.45400 57.10000 41.31900
C  2.12700 55.51100 42.59400
N  5.33300 52.09900 40.28500
C  4.52800 50.99500 40.35700
C  5.20600 49.87000 39.58200
C  6.67100 50.28000 39.59600
C  6.56900 51.75800 39.89400
C  7.47600 49.51700 40.63300
C  4.62800 49.83000 38.18400
C  4.39400 48.47800 37.68600
H  5.09700 48.15600 36.32500
N  6.86300 54.80400 40.69600
C  7.81300 53.99700 40.19100
C  8.97200 54.79800 39.95900
C  8.68400 56.17600 40.22500
C  7.31000 56.11600 40.79700
C  10.23900 54.15400 39.36600
C  9.60100 57.42000 39.95600
O  10.61400 57.24800 39.23600
C  9.26200 58.73100 40.39600
N  4.45700 55.97800 42.06400
C  5.18300 57.09400 41.83400
C  4.47900 58.39500 42.26500
C  3.25000 57.83200 42.97500
C  3.27400 56.36300 42.49100
C  5.27000 59.42900 43.04700
C  1.88500 58.63700 42.66300
C  1.71600 59.95100 43.45000
N  3.13400 53.40100 41.90900
C  2.02400 54.13800 42.29900
C  0.90100 53.19600 42.48000
C  1.37100 51.93600 42.06800
C  2.72100 52.13200 41.63600
C  -0.40400 53.65200 43.07100
C  1.05100 50.60700 41.84000
O  -0.00800 50.05400 42.10500
C  2.35900 49.85800 41.29900
C  1.96700 48.84600 40.33900
O  1.27100 49.00100 39.38400
O  2.63700 47.68500 40.70200
C  2.18700 46.43500 40.00600
H  8.60100 52.09900 39.65500
H  6.96600 58.06200 41.23500
H  1.18200 55.99700 42.84600
H  4.93700 48.95000 40.10200
H  7.20100 50.25100 38.64300
H  8.28700 49.07300 40.05600
H  7.04100 48.62900 41.09300
H  7.71300 50.19900 41.44900
H  5.26400 50.31500 37.44300
H  3.79500 50.51800 38.32600
H  3.32600 48.42700 37.47500
H  4.67700 47.71300 38.40900
H  11.13200 54.77900 39.39000
H  10.08300 53.72600 38.37500
H  10.48600 53.31900 40.02100
H  8.32100 59.09300 39.98100
H  10.10400 59.30600 40.01200
H  9.37100 58.74700 41.48100
H  4.09500 58.83900 41.34600
H  3.42100 57.72300 44.04600
H  5.20300 60.41200 42.58100
H  6.32800 59.24300 43.22700
H  4.76600 59.51600 44.01000
H  1.02400 58.01200 42.89800
H  1.87600 58.83600 41.59100
H  1.67700 59.87600 44.53700
H  0.70000 60.14600 43.10700
H  2.23900 60.77200 42.95800
H  -0.93300 54.13500 42.24900
H  -0.32500 54.39100 43.86800
H  -0.99300 52.79700 43.40100
H  2.69300 49.44100 42.24900
H  1.16700 46.40400 39.62400
H  2.25000 45.65500 40.76500
H  2.95700 46.21900 39.26500

