158

Mg 26.33300 50.25100 25.54100
C  24.22200 51.83800 28.07200
C  28.49500 49.47300 27.97800
C  28.34600 49.12800 23.13300
C  24.58600 52.36100 23.14100
N  26.23100 50.60400 27.71800
C  25.29900 51.13200 28.58700
C  25.67600 50.95300 30.03900
C  27.18100 50.43200 29.95900
C  27.33900 50.18700 28.44300
C  28.23800 51.38200 30.54400
C  24.75100 50.00200 30.76500
C  24.19500 50.54200 32.00800
H  25.09700 50.94000 33.18700
N  28.07200 49.25300 25.53800
C  28.83000 49.01800 26.64700
C  29.97300 48.17900 26.32300
C  29.88100 47.93600 24.91500
C  28.73600 48.74800 24.45100
C  31.01100 47.73000 27.31800
C  30.70100 46.96200 24.03300
O  30.58100 46.97200 22.79600
C  31.57100 45.91100 24.60200
N  26.25700 50.48800 23.46000
C  27.31700 50.00900 22.72100
C  27.13400 50.40900 21.24200
C  26.10900 51.46700 21.21300
C  25.62300 51.51500 22.66800
C  28.45300 50.67300 20.47600
C  24.97300 51.31700 20.16400
C  23.80900 50.22000 20.39300
N  24.70000 51.73300 25.54300
C  24.10900 52.45800 24.46200
C  23.07200 53.30200 25.02300
C  23.06400 53.10200 26.37700
C  24.04600 52.10800 26.70500
C  22.14200 54.21400 24.29500
C  22.33200 53.41300 27.55800
O  21.28600 54.03700 27.77100
C  23.18400 52.72300 28.73800
C  23.72700 53.87500 29.62600
O  24.59400 54.68000 29.29000
O  23.18000 53.77300 30.88300
C  23.58800 54.85700 31.83600
H  29.20500 49.21600 28.76700
H  28.95300 48.67900 22.34400
H  24.10500 52.99800 22.39500
H  25.62200 51.95500 30.46400
H  27.30900 49.43500 30.38200
H  28.89800 50.88200 31.25300
H  27.73700 52.20200 31.05800
H  28.81300 51.74200 29.69000
H  25.29400 49.10200 31.05200
H  23.85400 49.63000 30.27100
H  23.43800 49.81100 32.29100
H  23.56500 51.40500 31.78900
H  30.83200 46.75900 27.77800
H  31.20500 48.49900 28.06600
H  31.94400 47.68900 26.75700
H  32.51900 46.25600 25.01400
H  31.78500 45.22900 23.78000
H  30.97000 45.28800 25.26500
H  26.84100 49.39600 20.96600
H  26.60400 52.40200 20.95300
H  28.37200 50.48100 19.40600
H  29.35500 50.20700 20.87500
H  28.85000 51.66900 20.66900
H  25.41100 51.06000 19.20000
H  24.42500 52.22000 19.89600
H  23.58000 49.86700 19.38700
H  23.02200 50.68600 20.98600
H  24.13100 49.35400 20.97000
H  21.29200 53.62200 23.95600
H  22.69200 54.62900 23.45000
H  21.67000 54.92700 24.97200
H  22.47800 52.10000 29.28600
H  23.78500 55.86900 31.48000
H  24.44800 54.49900 32.40100
H  22.77600 54.88900 32.56200
Mg -1.63200 35.06500 26.85900
C  -3.21400 33.64000 29.68500
C  -0.48500 37.55000 28.75400
C  -0.91500 36.67300 23.93600
C  -3.49900 32.67100 24.90100
N  -2.02200 35.53600 29.02900
C  -2.47100 34.78300 30.00600
C  -2.14400 35.33100 31.36500
C  -1.34600 36.68200 30.99100
C  -1.13200 36.51100 29.50000
C  -2.01300 38.01300 31.44600
C  -1.30200 34.28400 32.15900
C  -1.92600 33.86700 33.59300
H  -0.97300 34.13100 34.74300
N  -0.76600 36.85400 26.39900
C  -0.30500 37.72100 27.37800
C  0.36000 38.78700 26.69900
C  0.26500 38.55300 25.30700
C  -0.55800 37.33800 25.14000
C  0.90400 39.92300 27.47600
C  0.88200 39.34200 24.20400
O  0.76600 39.05300 23.04600
C  1.71800 40.51700 24.57400
N  -2.25600 34.70500 24.79300
C  -1.63900 35.45700 23.76400
C  -1.91400 34.87100 22.35600
C  -2.82000 33.66200 22.66300
C  -2.81900 33.62200 24.23100
C  -2.50200 35.88200 21.28500
C  -2.42300 32.40100 21.92900
C  -1.06900 31.76600 22.36700
N  -3.00300 33.41000 27.15200
C  -3.65100 32.63200 26.30000
C  -4.38400 31.64400 27.00600
C  -4.22400 31.96800 28.34100
C  -3.39700 33.11300 28.39000
C  -5.15700 30.56000 26.38000
C  -4.62500 31.50600 29.64700
O  -5.33800 30.60300 30.02700
C  -3.93200 32.57600 30.64700
C  -5.01000 33.14800 31.41800
O  -5.88100 33.93700 31.09000
O  -4.82200 32.67100 32.65900
C  -5.86800 32.91800 33.65900
H  -0.02400 38.27700 29.42700
H  -0.46600 37.04700 23.01400
H  -4.19100 31.99900 24.38800
H  -3.13500 35.49900 31.78600
H  -0.30800 36.79100 31.30500
H  -2.73100 37.96100 32.26400
H  -2.46700 38.43800 30.55100
H  -1.13800 38.57600 31.77000
H  -0.25900 34.58200 32.25900
H  -1.35800 33.36500 31.57600
H  -2.17700 32.80600 33.58600
H  -2.85700 34.37400 33.84500
H  1.00300 39.70800 28.54000
H  0.34100 40.85100 27.37300
H  1.93600 40.09400 27.17000
H  1.27200 41.29800 25.18900
H  2.03400 40.95200 23.62600
H  2.59300 40.14200 25.10600
H  -0.89200 34.61000 22.08100
H  -3.86300 33.81300 22.38800
H  -2.51400 36.79900 21.87400
H  -3.48800 35.50400 21.01600
H  -1.77700 35.79300 20.47500
H  -2.50800 32.68500 20.88000
H  -3.13100 31.58600 22.08200
H  -1.43200 30.75700 22.56000
H  -0.69700 32.20400 23.29300
H  -0.29100 31.74700 21.60400
H  -5.51100 29.77600 27.05000
H  -4.56300 30.10200 25.58900
H  -6.01500 30.92600 25.81700
H  -3.25200 31.99200 31.26700
H  -5.24900 33.08700 34.54000
H  -6.40800 31.98400 33.81400
H  -6.52500 33.75300 33.41600

