158

Mg 1.89700 -2.52100 45.17400
C  5.29300 -1.70700 44.49300
C  0.82700 0.10500 43.41900
C  -1.16400 -3.82100 45.50700
C  3.27800 -5.57700 46.52500
N  2.98700 -1.21900 43.89700
C  4.34900 -0.95300 43.82300
C  4.62000 0.22000 42.92500
C  3.25400 0.94600 42.93100
C  2.23600 -0.18100 43.39000
C  3.31300 2.19400 43.85800
C  5.26100 -0.08300 41.53900
C  6.25800 1.02400 40.99700
H  5.74400 1.77200 39.82300
N  0.01400 -1.85800 44.62400
C  -0.20000 -0.72500 43.92000
C  -1.65100 -0.58700 43.73300
C  -2.22400 -1.80700 44.25500
C  -1.15000 -2.54100 44.82600
C  -2.31400 0.60400 43.09600
C  -3.63500 -2.11300 44.21500
O  -4.41800 -1.36200 43.64800
C  -4.16300 -3.39400 44.62300
N  1.22300 -4.41300 45.85800
C  -0.12500 -4.65400 45.98600
C  -0.44300 -5.96200 46.79900
C  0.98700 -6.61500 46.78100
C  1.90800 -5.41600 46.45500
C  -0.93600 -5.66100 48.24500
C  1.13100 -7.81800 45.77700
C  2.15700 -8.84800 46.23000
N  3.95600 -3.43900 45.65600
C  4.28400 -4.66700 46.18500
C  5.74400 -4.77200 46.14900
C  6.18700 -3.54800 45.63500
C  5.07400 -2.80400 45.26800
C  6.61300 -5.87400 46.65800
C  7.34800 -2.76500 45.24000
O  8.52300 -2.95600 45.41600
C  6.78900 -1.49600 44.44000
C  7.31100 -0.34800 45.24300
O  8.39100 0.19700 45.10300
O  6.37600 0.09300 46.07500
C  6.52000 1.43500 46.70000
H  0.58400 0.94100 42.75900
H  -2.16400 -4.23000 45.67000
H  3.66300 -6.50000 46.96300
H  5.32500 0.84400 43.47500
H  2.88400 1.22200 41.94400
H  4.27200 2.70500 43.94400
H  3.09900 1.85300 44.87100
H  2.62400 2.97700 43.53900
H  4.46600 -0.11200 40.79300
H  5.63300 -1.10700 41.57300
H  7.17200 0.49200 40.73100
H  6.44400 1.76200 41.77700
H  -2.64400 0.31800 42.09800
H  -1.62900 1.45200 43.10500
H  -3.27500 0.83200 43.55900
H  -4.13200 -3.47100 45.71000
H  -3.53800 -4.14300 44.13700
H  -5.15000 -3.63600 44.22800
H  -1.20000 -6.55900 46.29100
H  1.35100 -6.90200 47.76700
H  -0.16100 -5.52100 48.99900
H  -1.72700 -6.34400 48.55400
H  -1.48000 -4.71900 48.18300
H  1.37700 -7.40600 44.79800
H  0.16400 -8.31900 45.73400
H  2.72500 -8.37800 47.03300
H  2.88700 -9.07200 45.45300
H  1.68200 -9.75100 46.61300
H  6.01500 -6.78500 46.63400
H  7.03500 -5.78800 47.65900
H  7.41500 -6.05700 45.94300
H  7.26900 -1.34900 43.47300
H  5.52200 1.83800 46.87000
H  6.97100 2.09000 45.95400
H  7.06400 1.37600 47.64200
Mg 25.45900 1.55300 29.49700
C  27.64700 1.02400 32.29700
C  22.85100 1.67600 31.63200
C  23.46900 1.50200 26.82400
C  28.15800 0.73400 27.38900
N  25.26200 1.30700 31.73700
C  26.34800 1.20200 32.70800
C  25.79500 1.47100 34.14400
C  24.24900 1.48500 33.90800
C  24.07600 1.41900 32.33100
C  23.42500 0.43200 34.67000
C  26.45900 2.62600 34.82700
C  27.06900 2.27000 36.23300
H  26.95800 3.45000 37.23900
N  23.41000 1.53600 29.26100
C  22.50400 1.59200 30.31000
C  21.19100 1.60600 29.70900
C  21.33700 1.46800 28.30000
C  22.80700 1.43500 28.03400
C  19.91700 1.74300 30.61100
C  20.23800 1.38600 27.21800
O  20.47100 1.10000 26.04100
C  18.77900 1.61200 27.57400
N  25.80700 1.28500 27.37400
C  24.83900 1.38100 26.48400
C  25.35900 1.14000 25.07300
C  26.90500 1.07500 25.22700
C  26.94300 0.97400 26.76400
C  24.75500 -0.25500 24.51900
C  27.76100 2.31700 24.75500
C  29.04200 2.00300 24.04200
N  27.54700 1.10300 29.68400
C  28.45200 0.84200 28.74900
C  29.75000 0.62100 29.40100
C  29.48000 0.73800 30.76700
C  28.12900 0.96600 30.88300
C  31.03200 0.27400 28.76300
C  30.01600 0.77000 32.09500
O  31.15400 0.48400 32.51400
C  28.85300 1.00000 33.10400
C  28.84900 -0.18300 34.04000
O  28.16300 -1.17100 33.93600
O  29.61100 0.17200 35.13900
C  29.30300 -0.62600 36.29600
H  22.10800 2.03200 32.34800
H  22.81200 1.39200 25.95900
H  28.99500 0.40700 26.76900
H  26.03800 0.56800 34.70500
H  23.74300 2.40700 34.19500
H  22.63400 0.71400 35.36500
H  23.97900 -0.19500 35.37000
H  23.04100 -0.21300 33.87900
H  25.75500 3.45900 34.85100
H  27.26900 3.01400 34.20900
H  28.11900 2.03900 36.04900
H  26.59400 1.44100 36.75900
H  20.18400 1.54300 31.64900
H  19.21900 1.03500 30.16400
H  19.48800 2.73500 30.47300
H  18.48700 0.80900 28.25100
H  18.13900 1.79400 26.71100
H  18.72400 2.57000 28.09000
H  25.03300 2.00600 24.49600
H  27.41900 0.22800 24.77100
H  24.28800 -0.04500 23.55700
H  24.08800 -0.65300 25.28400
H  25.60700 -0.89300 24.28200
H  28.06100 2.89100 25.63200
H  27.21600 2.98100 24.08400
H  29.01700 2.50700 23.07600
H  29.14400 0.94500 23.80100
H  29.85500 2.34500 24.68300
H  30.77900 0.08300 27.72000
H  31.39700 -0.70900 29.06100
H  31.81900 1.00500 28.94600
H  29.04700 1.79700 33.82200
H  28.40600 -0.22900 36.77000
H  29.96200 -0.47900 37.15100
H  29.31900 -1.69700 36.09400

