158

Mg 40.88000 9.79100 29.93400
C  42.41200 10.71500 32.88000
C  38.38200 8.31400 31.81900
C  39.75500 8.23000 27.11600
C  43.74100 10.60900 28.21100
N  40.48700 9.53100 32.08000
C  41.21600 10.06100 33.11300
C  40.52000 9.86300 34.50100
C  39.30800 8.90900 34.10500
C  39.30600 9.02100 32.57200
C  39.43500 7.44200 34.61800
C  40.08700 11.16800 35.21000
C  40.58000 11.21200 36.68000
H  41.06000 12.57000 37.08100
N  39.18200 8.67200 29.50000
C  38.28000 8.16300 30.39800
C  37.29400 7.43800 29.67500
C  37.68200 7.42500 28.32000
C  38.96100 8.14600 28.28400
C  36.16700 6.71000 30.37900
C  36.93300 6.80300 27.09900
O  37.37800 6.89600 25.94200
C  35.59100 6.21000 27.26100
N  41.69900 9.21700 27.95900
C  40.99600 8.77000 26.91700
C  41.66800 8.84900 25.53600
C  42.90100 9.74600 25.94800
C  42.80300 9.84600 27.50100
C  41.91000 7.40200 24.98100
C  42.82000 11.14400 25.17600
C  41.69700 12.14800 25.62700
N  42.62600 10.60400 30.41700
C  43.74900 10.93500 29.57600
C  44.70300 11.71300 30.33100
C  44.19500 11.63400 31.63700
C  42.99800 10.94000 31.65500
C  46.04900 12.29900 29.82400
C  44.53100 11.99600 32.98000
O  45.44300 12.66900 33.38100
C  43.39600 11.36000 33.88900
C  44.11600 10.43400 34.82500
O  44.30700 9.26900 34.56100
O  44.51800 11.14000 35.92200
C  44.99300 10.34000 37.04300
H  37.66000 7.74500 32.40800
H  39.40900 7.89600 26.13500
H  44.55500 10.89700 27.54300
H  41.25600 9.29000 35.06600
H  38.34800 9.24500 34.49800
H  39.52300 7.48200 35.70300
H  40.37500 7.05900 34.22000
H  38.68000 6.71100 34.32600
H  39.00400 11.26600 35.13100
H  40.37000 12.06900 34.66500
H  41.45100 10.58400 36.86600
H  39.87500 10.95200 37.47000
H  36.37800 6.45800 31.41800
H  35.97400 5.72300 29.96100
H  35.19000 7.19300 30.36400
H  35.40700 5.18800 26.92900
H  34.99000 6.83500 26.60100
H  35.14800 6.43600 28.23100
H  41.04400 9.45000 24.87400
H  43.86800 9.39500 25.58900
H  41.66300 6.74600 25.81600
H  42.96800 7.34400 24.72400
H  41.37600 7.17100 24.06000
H  42.56900 10.85600 24.15500
H  43.74700 11.71500 25.12900
H  41.16300 11.68700 26.45800
H  40.97400 12.41900 24.85700
H  42.19600 13.05700 25.96300
H  45.88300 13.10100 29.10500
H  46.77600 11.50100 29.67300
H  46.30600 12.80500 30.75500
H  42.91700 12.17700 34.42800
H  45.21400 10.91400 37.94200
H  45.94400 9.93500 36.69800
H  44.35600 9.52200 37.38100
Mg 47.86500 16.88500 28.96100
C  45.65900 16.72200 31.64600
C  50.08700 18.45100 31.03100
C  49.92100 16.97800 26.41900
C  45.35200 15.47500 26.87600
N  47.73700 17.83300 30.93500
C  46.80400 17.44900 31.94100
C  47.27000 17.87100 33.34100
C  48.44400 18.80600 32.94400
C  48.82000 18.36400 31.59000
C  48.11700 20.36700 33.05000
C  47.66600 16.58600 34.11400
C  48.31900 16.88200 35.46400
H  48.19700 18.24900 36.21800
N  49.73700 17.50000 28.76200
C  50.54300 18.11500 29.73700
C  51.90100 18.20700 29.25500
C  51.91600 17.71700 27.90100
C  50.48400 17.39400 27.62000
C  53.01000 18.76600 30.11100
C  53.07200 17.56300 26.96500
O  52.99200 17.15200 25.82300
C  54.41800 17.80800 27.55300
N  47.55600 16.43000 26.90500
C  48.59500 16.56500 26.06500
C  48.19400 16.18900 24.58700
C  46.73800 15.62300 24.71300
C  46.53900 15.87100 26.23500
C  48.25500 17.45000 23.81000
C  46.63500 14.10400 24.37300
C  45.65300 13.81500 23.23800
N  45.85600 16.31700 29.14800
C  44.99500 15.75800 28.24100
C  43.68700 15.42700 28.91600
C  43.93500 15.79500 30.24200
C  45.23500 16.28900 30.35800
C  42.43200 14.81600 28.29800
C  43.43800 15.71100 31.53600
O  42.36900 15.28200 31.91200
C  44.47000 16.29100 32.50200
C  43.73700 17.37300 33.14000
O  42.94200 18.07600 32.59900
O  43.99400 17.41200 34.49400
C  43.30200 18.36800 35.40700
H  50.90300 18.81300 31.66100
H  50.66100 16.83700 25.62800
H  44.64500 14.98100 26.20600
H  46.49800 18.36500 33.93000
H  49.37900 18.77100 33.50200
H  47.08600 20.55800 33.34700
H  48.31900 20.76000 32.05300
H  48.69900 20.95700 33.75800
H  48.41700 16.14600 33.45700
H  46.79900 15.92800 34.16300
H  49.36300 16.57900 35.38900
H  47.78500 16.16800 36.09100
H  53.33200 17.92800 30.73000
H  52.68700 19.61200 30.71700
H  53.93500 19.11300 29.65100
H  55.24100 17.43300 26.94500
H  54.50200 17.22300 28.46900
H  54.59700 18.87500 27.68400
H  48.89400 15.40800 24.28800
H  45.99100 16.22200 24.19100
H  48.97600 18.15200 24.22700
H  47.28200 17.93000 23.70300
H  48.45900 17.19300 22.77000
H  46.41300 13.45200 25.21800
H  47.62500 13.75200 24.08700
H  45.00800 12.97700 23.49900
H  46.08100 13.59800 22.25900
H  45.06700 14.71900 23.07400
H  42.38300 13.72800 28.34500
H  42.37900 15.11400 27.25100
H  41.51600 15.17400 28.76900
H  44.73100 15.57400 33.28000
H  43.58500 19.37400 35.09700
H  43.64900 18.42300 36.43900
H  42.22900 18.18900 35.47100

