158

Mg 25.08600 -7.25900 46.79300
C  27.53300 -4.93600 46.09700
C  22.88500 -5.63700 44.68500
C  23.01000 -9.87900 47.25400
C  27.48900 -9.01800 48.76100
N  25.21100 -5.38400 45.71400
C  26.27900 -4.66600 45.45200
C  25.98100 -3.38400 44.64500
C  24.37500 -3.44500 44.59900
C  24.10100 -4.90000 45.00400
C  23.71700 -2.44600 45.58200
C  26.61800 -3.36500 43.24500
C  27.12300 -2.08500 42.66500
H  26.63600 -1.64600 41.24700
N  23.27000 -7.72800 46.02000
C  22.46000 -6.94500 45.13500
C  21.34600 -7.73900 44.80300
C  21.25500 -8.82900 45.62900
C  22.50400 -8.89600 46.35900
C  20.38700 -7.11900 43.84900
C  20.07100 -9.84400 45.77100
O  19.07400 -9.66400 45.10300
C  19.91200 -11.09000 46.67100
N  25.23600 -9.26100 47.73300
C  24.23400 -10.02500 47.86700
C  24.51800 -11.18900 48.88700
C  25.92000 -10.82600 49.38400
C  26.29200 -9.63100 48.55700
C  23.47300 -11.43200 50.03100
C  26.89400 -12.10400 49.38800
C  27.82300 -12.29200 48.11700
N  27.08300 -7.06900 47.38900
C  27.96200 -7.83500 48.15600
C  29.28500 -7.25700 48.16300
C  29.16600 -6.12700 47.34100
C  27.77400 -6.06600 46.95600
C  30.56500 -7.78400 48.81700
C  29.91300 -5.00600 46.80100
O  31.07300 -4.68200 46.97800
C  28.89400 -4.20000 45.97500
C  28.92500 -2.73100 46.36100
O  29.04400 -2.30100 47.52100
O  28.79200 -1.96600 45.22800
C  28.60300 -0.55500 45.39800
H  22.18400 -5.04400 44.09200
H  22.34700 -10.73300 47.40400
H  28.30400 -9.45000 49.34400
H  26.32300 -2.52000 45.21500
H  24.07000 -3.21400 43.57800
H  23.19100 -3.01200 46.35100
H  22.94800 -1.89400 45.04200
H  24.39500 -1.71800 46.02600
H  25.90600 -3.80100 42.54400
H  27.54300 -3.93300 43.33800
H  28.21300 -2.08900 42.67300
H  26.90100 -1.24500 43.32400
H  19.73300 -6.41500 44.36200
H  19.78900 -7.86500 43.32600
H  20.85700 -6.47200 43.10800
H  19.75100 -10.80800 47.71100
H  20.73400 -11.77300 46.45300
H  18.99100 -11.62100 46.42900
H  24.48100 -12.15400 48.38200
H  25.81700 -10.38000 50.37400
H  22.48400 -11.01300 49.84500
H  23.78800 -11.00200 50.98200
H  23.22700 -12.48800 50.14400
H  26.43800 -13.09500 49.40100
H  27.52600 -11.99400 50.26900
H  27.42500 -11.72000 47.27900
H  27.77600 -13.35900 47.90100
H  28.83300 -12.01600 48.42000
H  31.44100 -7.48300 48.24300
H  30.57400 -8.87000 48.72600
H  30.62700 -7.44500 49.85100
H  29.35100 -4.33100 44.99300
H  29.03100 -0.16900 46.32300
H  27.55800 -0.26900 45.27700
H  29.09800 -0.08600 44.54700
Mg 41.40700 8.15400 29.17900
C  43.32600 9.66500 31.67800
C  39.38700 6.80700 31.64300
C  39.58300 6.61800 26.73800
C  43.94200 8.99600 26.81900
N  41.40600 8.07500 31.36900
C  42.12300 8.95600 32.14600
C  41.63700 9.01300 33.57600
C  40.62900 7.89600 33.57700
C  40.41900 7.58800 32.08000
C  40.88300 6.67600 34.38200
C  41.13000 10.37200 34.06000
C  40.38800 10.31800 35.46900
H  41.00300 10.99000 36.66200
N  39.68100 7.06400 29.16900
C  38.99200 6.55400 30.28100
C  37.69000 6.02300 29.84500
C  37.67400 6.09300 28.45100
C  39.01700 6.65300 28.00900
C  36.70700 5.43400 30.80000
C  36.51600 5.77700 27.44600
O  36.62200 5.71300 26.22800
C  35.14500 5.60000 28.04900
N  41.83600 7.56400 27.14100
C  40.86100 7.05700 26.31700
C  41.43500 6.84500 24.89500
C  42.54700 7.94900 24.89400
C  42.84000 8.22100 26.40100
C  41.92900 5.40100 24.64200
C  42.11100 9.24600 24.11000
C  41.28400 10.35800 24.84400
N  43.24700 9.16300 29.16800
C  44.17400 9.46500 28.13400
C  45.13900 10.29500 28.66700
C  44.84100 10.42500 30.02800
C  43.69400 9.72300 30.31200
C  46.31000 10.87000 27.86900
C  45.31300 11.02200 31.25700
O  46.18600 11.82300 31.51000
C  44.31900 10.47200 32.38900
C  45.00200 9.76200 33.47300
O  45.40300 8.60300 33.46800
O  45.12100 10.62700 34.46300
C  45.41500 9.93800 35.73300
H  38.72700 6.54200 32.47200
H  39.00000 6.07200 25.99300
H  44.54100 9.32800 25.96900
H  42.45500 8.79700 34.26400
H  39.67800 8.27900 33.94800
H  40.59300 5.75400 33.87700
H  40.23300 6.70000 35.25600
H  41.86200 6.55100 34.84500
H  40.52100 10.84500 33.29000
H  41.97800 11.01000 34.30900
H  39.94700 9.35700 35.73500
H  39.55700 11.00900 35.32800
H  35.96600 6.09100 31.25700
H  37.37300 5.04600 31.57100
H  36.22400 4.53800 30.41100
H  35.13100 4.59600 28.47400
H  34.43900 5.49500 27.22500
H  34.73400 6.37400 28.69700
H  40.73000 7.21900 24.15300
H  43.47800 7.57200 24.47200
H  41.98300 5.30400 23.55800
H  41.23300 4.62600 24.96500
H  42.92200 5.21100 25.04900
H  41.64000 9.00200 23.15800
H  43.05600 9.74000 23.88500
H  40.46200 10.66600 24.19800
H  41.93900 11.21100 25.02200
H  40.97700 9.89800 25.78300
H  46.41400 11.94800 27.99700
H  46.15900 10.65300 26.81200
H  47.19300 10.32600 28.20500
H  43.71500 11.26600 32.82900
H  46.12300 9.11100 35.69200
H  44.46400 9.64100 36.17600
H  45.75300 10.65300 36.48200

