158

Mg 2.07100 -1.87200 43.51900
C  5.46200 -0.79600 43.21800
C  0.97100 1.03400 42.13200
C  -1.14500 -3.04900 43.65900
C  3.17500 -4.92400 44.82800
N  3.11700 -0.16300 42.78600
C  4.49400 0.12900 42.86600
C  4.75000 1.54300 42.38500
C  3.29500 2.12000 42.10500
C  2.34800 0.96100 42.45900
C  2.90300 3.47100 42.83100
C  5.75600 1.60500 41.13500
C  6.40500 3.01600 41.08100
H  6.19700 3.77400 39.76600
N  0.15600 -1.03100 43.10300
C  -0.05100 0.15500 42.45800
C  -1.49600 0.38400 42.40800
C  -2.10600 -0.78400 42.94300
C  -1.00100 -1.72600 43.25000
C  -2.15900 1.69200 41.94500
C  -3.67400 -1.01700 43.09100
O  -4.45400 -0.13200 42.71300
C  -4.29300 -2.20500 43.71200
N  1.13500 -3.80700 43.95800
C  -0.15300 -4.04500 43.97500
C  -0.57500 -5.44400 44.48300
C  0.79600 -5.95200 44.92400
C  1.79800 -4.82200 44.54500
C  -1.70000 -5.41400 45.61500
C  1.20600 -7.31300 44.27900
C  1.57300 -8.44500 45.26200
N  3.92000 -2.79600 43.90200
C  4.18600 -3.93700 44.57300
C  5.61300 -4.09600 44.79800
C  6.19400 -2.88700 44.20900
C  5.13200 -2.13300 43.67500
C  6.27800 -5.30300 45.40800
C  7.43700 -2.23400 43.82300
O  8.60900 -2.61100 43.84300
C  6.99600 -0.80800 43.29600
C  7.54200 0.25800 44.14200
O  7.47700 0.21500 45.35600
O  7.98600 1.36900 43.48800
C  8.39200 2.50900 44.28600
H  0.62700 1.90500 41.57000
H  -2.16600 -3.43600 43.69900
H  3.57900 -5.75100 45.41600
H  5.14700 2.09600 43.23600
H  3.17900 2.32800 41.04100
H  2.23500 4.11300 42.25800
H  3.79800 4.01000 43.14300
H  2.30700 3.23100 43.71100
H  5.22800 1.52700 40.18400
H  6.53100 0.83800 41.13300
H  7.46900 2.90200 41.28900
H  5.93500 3.65100 41.83300
H  -2.60400 1.50200 40.96800
H  -1.40600 2.48000 41.95400
H  -2.86800 1.88500 42.75100
H  -5.26900 -1.86000 44.05200
H  -3.82300 -2.66900 44.57900
H  -4.57000 -2.95300 42.96800
H  -1.04200 -5.88700 43.60400
H  0.85800 -6.01100 46.01100
H  -1.29900 -5.45900 46.62700
H  -2.18700 -6.38800 45.65200
H  -2.34200 -4.54100 45.49700
H  2.16200 -7.15200 43.78100
H  0.34700 -7.53600 43.64500
H  2.51000 -8.93100 44.99100
H  0.85300 -9.26300 45.26700
H  1.53600 -8.06700 46.28400
H  7.25300 -4.99500 45.78600
H  6.36000 -6.12500 44.69800
H  5.61900 -5.58600 46.22900
H  7.51000 -0.68900 42.34200
H  8.88000 3.29600 43.71100
H  9.06200 2.27400 45.11400
H  7.47500 3.00100 44.61300
Mg 8.99300 4.15700 27.63200
C  10.29300 2.42400 30.37100
C  7.07800 5.96100 29.69400
C  7.66200 5.49100 24.90800
C  10.70700 1.83500 25.55300
N  8.62700 4.02800 29.76100
C  9.35700 3.43000 30.72500
C  9.22600 4.00900 32.09900
C  8.02600 4.98400 31.91600
C  7.83200 5.01000 30.35200
C  6.69600 4.64100 32.65300
C  10.57300 4.77700 32.57700
C  10.50300 5.51200 33.88400
H  11.41300 4.95000 35.02000
N  7.63900 5.57900 27.34700
C  6.94900 6.26700 28.34800
C  6.07200 7.26500 27.75000
C  6.13100 7.08300 26.31900
C  7.18200 6.06700 26.14100
C  5.08900 8.08100 28.59300
C  5.38900 7.86300 25.27000
O  5.52300 7.57300 24.08500
C  4.63500 9.15700 25.63800
N  9.31000 3.85300 25.50700
C  8.55400 4.51700 24.63500
C  8.61800 3.96000 23.19000
C  9.81600 2.97100 23.39100
C  9.89900 2.81400 24.87800
C  7.28800 3.27100 22.78700
C  11.25400 3.36500 22.87100
C  11.81700 2.25500 21.98200
N  10.33400 2.59500 27.88000
C  10.87300 1.69800 26.95300
C  11.67500 0.74000 27.60300
C  11.56100 0.98800 29.00600
C  10.70000 2.05800 29.07700
C  12.18600 -0.47200 27.02000
C  11.95300 0.56100 30.22300
O  12.77100 -0.34100 30.61000
C  11.17700 1.55100 31.25000
C  10.38700 0.83000 32.27900
O  9.45400 0.04400 32.06800
O  10.70500 1.31100 33.53300
C  9.84900 1.00700 34.67600
H  6.55700 6.58700 30.42200
H  7.16500 5.95600 24.05500
H  11.18300 1.02700 24.99300
H  8.97700 3.23500 32.82500
H  8.34000 5.99100 32.19100
H  6.90500 4.00700 33.51400
H  5.99000 4.14800 31.98500
H  6.30000 5.53600 33.13500
H  10.75000 5.47800 31.76100
H  11.35600 4.02000 32.62400
H  9.48600 5.44300 34.27200
H  10.83800 6.53200 33.69600
H  4.06600 7.80000 28.34500
H  5.20100 9.16100 28.49800
H  5.04500 7.93800 29.67200
H  4.30000 9.73700 24.77800
H  5.31900 9.71600 26.27600
H  3.75100 8.86500 26.20400
H  8.87700 4.85000 22.61800
H  9.59300 1.97000 23.02200
H  6.58500 3.88300 22.22100
H  6.75900 3.13800 23.73100
H  7.45200 2.36200 22.20900
H  11.89000 3.55000 23.73700
H  11.17800 4.28800 22.29500
H  11.59200 2.39900 20.92500
H  11.58900 1.24800 22.33300
H  12.90000 2.33400 22.06900
H  12.94600 -0.22500 26.27800
H  11.39400 -1.01900 26.50900
H  12.60000 -1.15600 27.76100
H  11.96100 2.09900 31.77200
H  10.16200 0.01400 34.99900
H  8.80500 1.05700 34.36600
H  10.00900 1.75100 35.45600

