158

Mg 16.12500 -1.54200 28.04300
C  15.28400 0.69700 30.64400
C  18.29100 -3.12700 30.17400
C  17.34000 -3.46600 25.31600
C  14.65800 0.50900 25.64900
N  16.87900 -1.13800 30.14000
C  16.15800 -0.35600 31.07700
C  16.54300 -0.77300 32.48000
C  17.65600 -1.83700 32.30600
C  17.63100 -2.06400 30.81700
C  19.14000 -1.38200 32.76200
C  15.24300 -1.23300 33.26500
C  15.11500 -0.79100 34.66800
H  16.27500 -0.00400 35.29700
N  17.48300 -3.14400 27.81600
C  18.22100 -3.68200 28.84800
C  18.93200 -4.86700 28.34600
C  18.56500 -5.04900 26.99900
C  17.78700 -3.83000 26.63600
C  19.89900 -5.63400 29.18900
C  18.94500 -6.16900 26.01900
O  18.60700 -6.16800 24.84200
C  19.89700 -7.18900 26.50100
N  16.16400 -1.32400 25.76500
C  16.64100 -2.27300 24.94000
C  16.29300 -1.91000 23.42200
C  15.43100 -0.66700 23.51000
C  15.43200 -0.47900 25.06800
C  17.56200 -1.79200 22.50900
C  14.02600 -0.69100 22.83300
C  13.73000 0.41800 21.84200
N  15.04400 0.07000 28.09800
C  14.50400 0.82000 27.02400
C  13.66700 1.80600 27.53900
C  13.93600 1.81600 28.96600
C  14.83400 0.76300 29.26000
C  12.63200 2.69300 26.79600
C  13.65100 2.43500 30.23400
O  12.89800 3.37700 30.47700
C  14.47900 1.66700 31.42200
C  15.38900 2.64800 32.04400
O  16.60100 2.52300 32.17900
O  14.68500 3.62800 32.85300
C  15.53700 4.40700 33.73200
H  18.86000 -3.80200 30.81600
H  17.46800 -4.19000 24.50900
H  14.15000 1.18800 24.96100
H  16.90600 0.12400 32.98200
H  17.28100 -2.68900 32.87400
H  19.41700 -2.05000 33.57700
H  19.07100 -0.33700 33.06400
H  19.90700 -1.48000 31.99400
H  15.14100 -2.31800 33.30600
H  14.34200 -0.87700 32.76400
H  14.87600 -1.67800 35.25500
H  14.30200 -0.08500 34.83400
H  19.36900 -6.52700 29.51900
H  20.24900 -5.15500 30.10400
H  20.73300 -5.82800 28.51400
H  20.12000 -7.96300 25.76700
H  19.32900 -7.65500 27.30600
H  20.91400 -6.87800 26.73700
H  15.60600 -2.68200 23.07500
H  16.02900 0.19500 23.21400
H  17.94600 -2.80400 22.38400
H  18.29100 -1.14300 22.99600
H  17.32800 -1.52100 21.48000
H  13.27400 -0.48400 23.59500
H  13.70600 -1.61600 22.35300
H  13.03000 0.11000 21.06500
H  14.70800 0.59000 21.39400
H  13.40500 1.31700 22.36500
H  12.08400 3.31600 27.50300
H  11.99500 1.97900 26.27500
H  13.07200 3.31200 26.01300
H  13.77300 1.32100 32.17600
H  16.18700 5.00900 33.09700
H  16.13900 3.65900 34.24700
H  15.11500 5.06300 34.49300
Mg -4.62900 24.80400 25.33300
C  -3.41300 26.13300 28.35300
C  -6.67600 22.58700 27.30500
C  -5.39000 22.99000 22.59300
C  -2.48400 26.74200 23.64800
N  -4.95400 24.28800 27.62000
C  -4.36200 25.09100 28.62500
C  -5.00300 24.74100 29.92600
C  -5.98100 23.45300 29.62200
C  -5.84900 23.43100 28.09700
C  -5.53600 22.05900 30.18500
C  -5.81200 25.93900 30.56500
C  -5.62000 26.14600 32.11400
H  -4.94300 25.09800 33.01400
N  -5.96000 23.19900 24.97200
C  -6.69900 22.49400 25.88900
C  -7.57000 21.64000 25.15800
C  -7.14400 21.66100 23.79900
C  -6.14400 22.66300 23.74900
C  -8.79300 20.99700 25.80200
C  -7.64100 20.79900 22.59500
O  -7.21300 20.90500 21.42200
C  -8.75300 19.80100 22.89100
N  -4.12900 24.90900 23.30500
C  -4.42600 23.96800 22.39200
C  -3.56000 24.21800 21.13700
C  -2.85200 25.54800 21.44900
C  -3.19800 25.82800 22.88300
C  -2.63400 23.06400 20.62100
C  -3.36300 26.80200 20.66700
C  -2.34700 27.48500 19.74700
N  -3.20400 26.17100 25.81900
C  -2.47800 27.04600 25.04200
C  -1.70900 27.93700 25.76900
C  -2.05500 27.66700 27.11500
C  -2.98300 26.53900 27.09800
C  -0.70300 29.02300 25.23100
C  -1.68400 27.98500 28.49600
O  -0.93000 28.75100 29.07300
C  -2.65200 27.05800 29.29200
C  -1.87500 26.23200 30.31200
O  -1.39000 25.11400 30.10400
O  -1.89100 26.89200 31.55500
C  -1.18400 26.19600 32.64700
H  -7.33300 21.94800 27.89800
H  -5.60100 22.42100 21.68600
H  -1.73100 27.29500 23.08200
H  -4.23500 24.45300 30.64400
H  -6.98800 23.67700 29.97400
H  -5.06700 21.55300 29.34100
H  -6.34200 21.45700 30.60500
H  -4.85200 22.17800 31.02500
H  -6.89900 25.85100 30.57300
H  -5.76200 26.83100 29.94100
H  -6.59900 26.18200 32.59300
H  -5.09700 27.09500 32.23000
H  -8.99300 21.38700 26.80000
H  -8.80500 19.91400 25.92400
H  -9.54200 21.52500 25.21200
H  -9.08800 19.26800 22.00100
H  -9.53600 20.46700 23.25400
H  -8.39100 19.05700 23.60000
H  -4.33100 24.41400 20.39200
H  -1.78200 25.48400 21.25100
H  -3.03000 22.67500 19.68400
H  -2.68100 22.29200 21.38900
H  -1.61100 23.37400 20.40700
H  -3.78000 27.54200 21.35000
H  -4.26100 26.51800 20.11800
H  -2.21900 28.54300 19.97900
H  -2.74700 27.42900 18.73500
H  -1.38600 26.97300 19.77200
H  -0.12300 28.51400 24.46100
H  -0.11200 29.47600 26.02700
H  -1.25600 29.84600 24.77900
H  -3.31100 27.70000 29.87800
H  -0.19300 26.65000 32.63100
H  -0.95900 25.12900 32.62300
H  -1.60300 26.51600 33.60100

