158

Mg 53.60900 23.78200 44.44800
C  50.84900 25.90000 44.05200
C  51.65300 20.98800 43.92800
C  56.35500 21.81200 44.28800
C  55.58000 26.58600 44.78200
N  51.54800 23.48900 44.00600
C  50.58900 24.52700 43.88700
C  49.18800 23.91700 43.73200
C  49.45700 22.37400 43.91700
C  50.99500 22.25000 43.99300
C  48.76600 21.81300 45.17800
C  48.46500 24.33900 42.38500
C  49.32000 24.12700 41.10200
H  48.66500 23.19900 40.00800
N  54.00300 21.66700 44.10400
C  53.07300 20.75300 43.87300
C  53.72600 19.46500 43.71100
C  55.11800 19.63000 43.76600
C  55.22300 21.08200 44.02000
C  52.93800 18.15900 43.40500
C  56.16100 18.50300 43.66200
O  55.77400 17.32900 43.63500
C  57.66000 18.77100 43.46800
N  55.63800 24.11900 44.43100
C  56.53100 23.11100 44.47000
C  57.97500 23.67100 44.42500
C  57.75300 25.25000 44.51200
C  56.23100 25.31800 44.65300
C  58.90300 23.04800 45.41700
C  58.35300 26.12200 43.35000
C  58.58800 27.64000 43.74700
N  53.34400 25.88600 44.51500
C  54.25400 26.84600 44.85500
C  53.60400 28.09300 45.07400
C  52.22400 27.79700 44.63600
C  52.12100 26.43000 44.39700
C  54.19300 29.40900 45.48600
C  50.88300 28.29900 44.40600
O  50.52900 29.48000 44.55700
C  49.92200 27.10100 44.04300
C  49.52200 27.47500 42.65000
O  50.24300 27.31300 41.65800
O  48.33600 28.06700 42.71600
C  47.63000 28.61800 41.55900
H  50.88600 20.22700 43.76700
H  57.19000 21.16400 44.56400
H  56.26300 27.38200 45.08700
H  48.66600 24.38800 44.56400
H  49.12800 21.82300 43.03600
H  48.35000 22.56000 45.85400
H  49.53100 21.23000 45.69200
H  47.97200 21.13600 44.86300
H  48.05900 25.34900 42.41800
H  47.53400 23.77600 42.32400
H  50.28200 23.64800 41.28400
H  49.57900 25.09800 40.67900
H  53.44400 17.56400 42.64400
H  51.88100 18.33200 43.20300
H  53.00400 17.38200 44.16600
H  57.95300 17.89300 42.89300
H  58.16100 18.68100 44.43200
H  57.76200 19.70800 42.92000
H  58.35200 23.55700 43.40900
H  58.12400 25.69100 45.43700
H  59.60500 23.78300 45.81200
H  59.53600 22.34200 44.87900
H  58.36400 22.50900 46.19600
H  57.66600 26.13200 42.50400
H  59.31500 25.70800 43.04900
H  59.36600 28.11300 43.14800
H  58.75700 27.71000 44.82200
H  57.69400 28.21300 43.50200
H  53.53900 30.20600 45.13000
H  55.20500 29.42200 45.08300
H  54.29100 29.44100 46.57100
H  49.14600 27.12100 44.80900
H  47.89900 27.89200 40.79100
H  48.04000 29.62300 41.46000
H  46.57400 28.40700 41.72400
Mg -9.68300 18.05900 42.85100
C  -6.32500 17.40600 42.46500
C  -9.08900 21.35700 41.89700
C  -13.09600 18.57900 42.40000
C  -10.30900 14.59800 43.06700
N  -7.86800 19.22000 42.40800
C  -6.63700 18.74200 42.22900
C  -5.55100 19.78700 41.98600
C  -6.45200 21.16800 42.01900
C  -7.88800 20.54400 42.05400
C  -6.26400 22.07600 43.27600
C  -4.78100 19.55500 40.61300
C  -5.72800 18.99000 39.48800
H  -5.42300 19.39100 38.03800
N  -10.94800 19.71000 42.42700
C  -10.46200 20.93000 42.08400
C  -11.59900 21.77600 41.75200
C  -12.81300 21.08100 42.00500
C  -12.32900 19.71700 42.24600
C  -11.48400 23.17000 41.25300
C  -14.16800 21.65200 41.88900
O  -14.32800 22.79900 41.61900
C  -15.42300 20.89200 42.18600
N  -11.39900 16.81400 42.66500
C  -12.65400 17.24900 42.54900
C  -13.70800 16.19300 42.65700
C  -12.84600 14.82800 42.81700
C  -11.39100 15.45500 42.81800
C  -14.67600 16.38600 43.80600
C  -13.18700 13.71800 41.66200
C  -13.49600 12.23600 42.09000
N  -8.55900 16.33100 42.97300
C  -8.93600 14.99400 43.10300
C  -7.78700 14.17700 43.10600
C  -6.75300 15.09200 42.87400
C  -7.24700 16.37800 42.87300
C  -7.76800 12.60600 43.12000
C  -5.29200 15.20800 42.61200
O  -4.41600 14.32600 42.48200
C  -4.98700 16.74000 42.49100
C  -4.13600 17.20800 43.57100
O  -2.94900 17.37900 43.41000
O  -4.79200 17.20200 44.76900
C  -3.84700 17.41800 45.91300
H  -8.85700 22.33600 41.47300
H  -14.17000 18.77400 42.36100
H  -10.57400 13.54300 43.16300
H  -4.96200 19.71100 42.90000
H  -6.31900 21.72500 41.09200
H  -5.46300 21.79100 43.95800
H  -7.18600 22.15500 43.85200
H  -6.03900 23.08500 42.93200
H  -3.92500 18.89400 40.75100
H  -4.35400 20.49900 40.27400
H  -6.65300 19.54300 39.65000
H  -5.79100 17.91700 39.66900
H  -12.27900 23.45000 40.56200
H  -10.54800 23.34200 40.72200
H  -11.42100 23.87600 42.08100
H  -15.35800 20.29200 43.09400
H  -15.50300 20.18600 41.35900
H  -16.22500 21.62000 42.30800
H  -14.12800 16.09800 41.65500
H  -12.90700 14.41800 43.82500
H  -14.38100 17.36500 44.18400
H  -14.55300 15.71000 44.65100
H  -15.74300 16.49200 43.61200
H  -12.27700 13.72300 41.06200
H  -13.99400 14.06500 41.01600
H  -13.52200 12.14200 43.17500
H  -12.76200 11.59700 41.60000
H  -14.42900 11.90500 41.63200
H  -7.82900 12.17100 44.11800
H  -6.88600 12.26400 42.57800
H  -8.66500 12.29900 42.58100
H  -4.48300 17.02000 41.56600
H  -3.24400 16.53800 46.13600
H  -4.51400 17.63700 46.74700
H  -3.15200 18.25100 45.81400

