158

Mg 8.14500 3.46300 28.76800
C  9.74000 2.12600 31.60800
C  6.35300 5.57700 30.97200
C  6.40600 4.46600 26.19400
C  9.72900 0.88100 26.96700
N  7.99000 3.66300 31.05600
C  8.80900 3.14100 31.99200
C  8.81200 3.84200 33.37400
C  7.55300 4.75800 33.12700
C  7.31700 4.75000 31.59900
C  6.24900 4.46100 34.00900
C  10.08400 4.74700 33.55800
C  10.89200 4.40800 34.83500
H  10.26900 5.07100 36.04800
N  6.58100 4.85000 28.57100
C  6.07200 5.67200 29.54200
C  5.05400 6.60700 28.93100
C  5.24000 6.43000 27.52700
C  6.11200 5.23400 27.38100
C  4.28700 7.69200 29.62100
C  4.67100 7.20000 26.37600
O  4.91900 6.87600 25.23200
C  3.71800 8.30300 26.52000
N  8.13100 2.74900 26.93200
C  7.28400 3.37400 26.02400
C  7.58800 2.77300 24.61100
C  8.57300 1.57400 24.83700
C  8.83700 1.68700 26.35800
C  6.29100 2.52000 23.90400
C  9.80200 1.45700 23.83200
C  10.00600 0.06600 23.19900
N  9.44500 1.90900 29.17200
C  9.93600 0.90800 28.32100
C  10.83200 -0.01500 29.01700
C  10.83800 0.55400 30.26900
C  9.93600 1.62600 30.36100
C  11.61100 -1.19300 28.43800
C  11.34200 0.35600 31.66000
O  12.26700 -0.32200 32.00000
C  10.68000 1.39200 32.60700
C  9.82200 0.57300 33.56800
O  8.85700 -0.04300 33.19400
O  10.16700 0.76200 34.91100
C  9.20000 0.28300 35.89900
H  5.93600 6.33700 31.63600
H  5.99000 4.88700 25.27600
H  10.23700 0.19900 26.28200
H  8.57000 3.10300 34.13800
H  7.65300 5.82500 33.32300
H  5.81000 5.34500 34.47200
H  6.50800 3.62100 34.65300
H  5.60700 4.13700 33.19000
H  9.87400 5.80600 33.70700
H  10.81900 4.72100 32.75300
H  11.90900 4.79900 34.86500
H  10.86800 3.33600 35.03300
H  4.43600 7.78200 30.69700
H  3.23100 7.46300 29.47800
H  4.60000 8.60800 29.11900
H  4.29100 9.19100 26.78400
H  3.10400 8.15500 27.40800
H  3.06300 8.49200 25.66900
H  8.10800 3.58300 24.09900
H  8.02700 0.63000 24.83900
H  5.51000 2.41300 24.65800
H  6.30800 1.62000 23.29000
H  6.07900 3.22000 23.09700
H  10.66400 1.82100 24.39100
H  9.62600 2.18000 23.03500
H  10.13800 0.11400 22.11800
H  9.40500 -0.80000 23.47800
H  10.95500 -0.43100 23.40000
H  11.67000 -1.03900 27.36000
H  11.06700 -2.10400 28.68800
H  12.59500 -1.21700 28.90700
H  11.49400 1.96400 33.05300
H  9.58400 -0.62600 36.36300
H  8.26700 0.03100 35.39500
H  9.01400 1.09100 36.60500
Mg 50.10300 47.05700 42.61700
C  46.76900 46.93500 41.41200
C  50.70100 44.12500 40.83900
C  53.40100 47.58500 42.88900
C  49.43800 50.37400 43.51200
N  48.85900 45.87800 41.00800
C  47.47400 45.92800 40.79300
C  47.06600 44.77600 39.91100
C  48.34400 43.87100 39.72700
C  49.43600 44.66200 40.58700
C  48.15500 42.37300 40.07800
C  46.35700 45.24200 38.56300
C  44.94900 44.57000 38.12300
H  45.00400 43.77700 36.88600
N  51.74500 45.91400 42.19100
C  51.80500 44.73400 41.40200
C  53.13600 44.24800 41.37700
C  53.91100 45.13200 42.16000
C  53.00100 46.31600 42.48300
C  53.51500 42.97800 40.68000
C  55.37700 44.99200 42.59400
O  56.14200 44.13400 42.06200
C  55.96500 45.74200 43.66600
N  51.27700 48.65300 43.17900
C  52.56500 48.61300 43.30100
C  53.13000 49.97300 43.68100
C  51.89100 50.80600 44.04800
C  50.72900 49.90500 43.57100
C  54.20300 49.89900 44.77300
C  51.80800 52.27300 43.38800
C  51.52100 52.47400 41.83800
N  48.40100 48.31000 42.68000
C  48.32000 49.66400 43.08800
C  46.88500 50.08100 42.99600
C  46.25900 48.98300 42.41500
C  47.20700 47.97200 42.18800
C  46.23400 51.38600 43.44200
C  44.96200 48.52100 41.90900
O  43.86000 49.08300 41.90400
C  45.23300 47.14700 41.25800
C  44.38500 46.05500 41.80000
O  44.80100 45.34600 42.69800
O  43.08500 46.01200 41.26200
C  42.10400 45.29000 42.13600
H  50.84400 43.15100 40.36800
H  54.45200 47.86000 42.78100
H  49.21100 51.29000 44.06100
H  46.25500 44.34000 40.49300
H  48.75700 44.02400 38.72900
H  48.33900 41.71300 39.23100
H  47.21300 42.00100 40.48300
H  48.92600 42.13900 40.81100
H  47.03000 45.09200 37.71900
H  46.26100 46.32600 38.63000
H  44.13300 45.29200 38.11900
H  44.70400 43.87300 38.92400
H  53.70800 42.22800 41.44700
H  54.49100 43.05300 40.20100
H  52.63400 42.60800 40.15700
H  55.16400 46.05000 44.33800
H  56.50200 46.57100 43.20500
H  56.61200 45.06400 44.22100
H  53.53900 50.45400 42.79200
H  51.84600 50.97100 45.12500
H  54.56200 48.93500 45.13500
H  53.76000 50.43600 45.61200
H  55.03700 50.46500 44.35800
H  52.78700 52.72500 43.54500
H  51.05300 52.86600 43.90200
H  50.95200 51.62700 41.45500
H  52.39000 52.79200 41.26200
H  50.88200 53.35300 41.75700
H  46.19600 52.20100 42.71900
H  46.85400 51.70600 44.27900
H  45.20200 51.14300 43.69400
H  44.87900 47.12100 40.22700
H  41.20800 44.94200 41.62200
H  41.87300 45.95200 42.97100
H  42.44700 44.37600 42.62100

