158

Mg -0.28400 7.85600 26.78000
C  0.60500 10.03100 29.26200
C  -0.75600 5.32500 28.92900
C  -0.63900 5.80300 24.09400
C  0.55600 10.40900 24.48000
N  0.06100 7.56300 28.82600
C  0.21700 8.70500 29.65600
C  -0.01800 8.33900 31.14000
C  -0.34100 6.75500 31.04700
C  -0.42900 6.50100 29.54900
C  0.55000 5.77100 31.79900
C  -1.28400 9.08700 31.73900
C  -1.75000 8.68300 33.16900
H  -0.75300 8.12500 34.13100
N  -0.70900 5.87800 26.51500
C  -0.85700 5.00000 27.58000
C  -1.28900 3.72800 27.02100
C  -1.19100 3.82300 25.62200
C  -0.85200 5.17800 25.35500
C  -1.67800 2.51200 27.87600
C  -1.51300 2.70900 24.52100
O  -1.26600 2.95700 23.31100
C  -2.11800 1.37100 24.90300
N  -0.15700 8.13900 24.49100
C  -0.38500 7.10900 23.68300
C  -0.11400 7.52500 22.20700
C  -0.18700 9.06100 22.32900
C  0.12900 9.23100 23.85500
C  1.25400 6.95200 21.67200
C  -1.58600 9.63600 22.02400
C  -1.63300 10.65100 20.86800
N  0.54500 9.85300 26.78500
C  0.75900 10.79400 25.81600
C  1.12300 12.03100 26.37500
C  1.18700 11.84900 27.74100
C  0.71400 10.53300 27.93000
C  1.42900 13.28500 25.55700
C  1.39900 12.38500 29.04900
O  1.77200 13.49000 29.32000
C  0.92500 11.24500 30.07300
C  2.15800 11.02100 30.89300
O  3.19600 10.59700 30.42600
O  2.01900 11.66500 32.12100
C  3.07800 11.62000 33.10100
H  -0.97900 4.48400 29.58900
H  -0.62700 5.09300 23.26500
H  0.59300 11.23300 23.76500
H  0.93600 8.54100 31.62700
H  -1.38300 6.65700 31.35300
H  0.73000 4.93900 31.11800
H  -0.04100 5.38200 32.62800
H  1.50400 6.15600 32.15900
H  -2.10000 9.08000 31.01700
H  -1.06700 10.15100 31.84100
H  -2.63800 8.05200 33.13800
H  -2.05000 9.61500 33.64800
H  -1.98600 2.81500 28.87700
H  -0.85800 1.79600 27.92700
H  -2.50100 1.96700 27.41300
H  -2.11800 0.69300 24.05000
H  -3.17300 1.61500 25.02800
H  -1.71600 0.85800 25.77600
H  -0.81100 7.17100 21.44700
H  0.60400 9.53200 21.74400
H  1.63100 6.25500 22.42000
H  1.90000 7.77400 21.36200
H  1.06700 6.26700 20.84500
H  -1.89400 10.19200 22.90900
H  -2.30800 8.87000 21.74200
H  -0.80800 10.42100 20.19400
H  -1.56700 11.66200 21.27000
H  -2.51200 10.43300 20.26200
H  0.73500 13.39000 24.72400
H  2.43700 13.15200 25.16200
H  1.28200 14.19700 26.13500
H  0.15400 11.55600 30.77700
H  2.63500 11.79100 34.08200
H  3.89600 12.29300 32.84500
H  3.37400 10.58000 33.23300
Mg 1.46100 42.81000 26.13300
C  2.99300 42.74900 29.28700
C  -1.46600 41.70100 27.59200
C  0.12600 42.45100 23.01800
C  4.50100 43.57000 24.68100
N  0.90800 42.17400 28.22600
C  1.61100 42.43100 29.32700
C  0.76800 42.29000 30.61900
C  -0.61400 41.58900 29.99200
C  -0.44800 41.93700 28.48300
C  -0.76700 40.12200 30.31200
C  0.52300 43.58900 31.34800
C  0.88600 43.50000 32.89000
H  -0.09400 42.80800 33.87500
N  -0.45000 42.27700 25.40900
C  -1.46500 41.81800 26.12800
C  -2.57800 41.54200 25.29900
C  -2.19100 41.86500 23.97300
C  -0.77500 42.22800 24.10900
C  -3.85500 41.01300 25.88100
C  -3.00900 41.85700 22.69200
O  -2.58800 42.34000 21.66200
C  -4.45900 41.54800 22.68600
N  2.18500 43.04700 24.20200
C  1.49200 42.65300 23.06600
C  2.38700 42.75300 21.81200
C  3.75500 43.36900 22.30300
C  3.48600 43.31900 23.80400
C  2.67000 41.46600 21.08300
C  3.92500 44.78500 21.89400
C  2.82600 45.81800 22.15900
N  3.39800 43.16900 26.80600
C  4.54100 43.49200 26.13100
C  5.62400 43.64700 27.02500
C  5.06400 43.25200 28.25300
C  3.71200 43.03900 28.07500
C  6.92000 44.26400 26.74100
C  5.34900 43.14500 29.64800
O  6.42100 43.35900 30.25500
C  4.07700 42.82100 30.40100
C  4.31200 41.60200 31.19900
O  4.43000 40.46400 30.79600
O  4.28000 42.01300 32.51800
C  4.34800 40.84000 33.42400
H  -2.42200 41.38800 28.01800
H  -0.22300 42.21600 22.01000
H  5.44000 43.70900 24.14200
H  1.38400 41.60900 31.20700
H  -1.54400 42.01300 30.37100
H  -0.10100 39.85200 31.13200
H  -0.46300 39.43200 29.52500
H  -1.81800 40.04500 30.58900
H  -0.50900 43.86700 31.13300
H  1.09300 44.39800 30.89300
H  1.12800 44.51500 33.20300
H  1.74100 42.82600 32.94600
H  -4.74400 41.33000 25.33600
H  -4.01100 41.42500 26.87700
H  -3.81100 39.93400 26.02600
H  -4.87400 41.54900 21.67800
H  -5.01300 42.32100 23.22000
H  -4.62900 40.59900 23.19400
H  1.85300 43.38600 21.10400
H  4.60000 42.69700 22.15200
H  1.98500 41.26900 20.25800
H  2.44500 40.59700 21.70200
H  3.69900 41.21800 20.82600
H  4.19600 44.83500 20.84000
H  4.77800 45.24400 22.39500
H  3.06800 46.45500 23.01000
H  1.97200 45.25900 22.54200
H  2.63200 46.40200 21.25900
H  7.67800 43.81100 27.38000
H  7.00900 45.33400 26.93000
H  7.18800 44.22000 25.68500
H  3.81300 43.62400 31.08900
H  5.17900 40.17700 33.18200
H  3.34000 40.47200 33.23300
H  4.53200 41.16700 34.44800

