158

Mg 0.97700 7.69900 27.42900
C  1.66700 9.76700 30.28900
C  0.31900 5.11600 29.80300
C  0.08800 5.77400 24.95800
C  1.69600 10.43400 25.36400
N  1.19700 7.34500 29.84000
C  1.29800 8.44100 30.72400
C  1.04900 8.00900 32.19700
C  0.74800 6.45300 32.00000
C  0.73700 6.27400 30.49700
C  1.79600 5.52200 32.72400
C  -0.20900 8.69300 32.69400
C  -0.26400 9.13100 34.15200
H  0.37400 8.26600 35.28200
N  0.34700 5.75500 27.39000
C  0.25400 4.80600 28.41000
C  -0.16500 3.54400 27.86300
C  -0.29500 3.71500 26.47400
C  0.05100 5.12300 26.17900
C  -0.24000 2.31100 28.80500
C  -0.66300 2.66600 25.41000
O  -0.63200 2.90300 24.21000
C  -1.11700 1.33900 25.86300
N  0.82800 8.07300 25.48800
C  0.55200 7.08200 24.61800
C  0.59800 7.58200 23.13800
C  1.14600 8.99200 23.25000
C  1.19100 9.25700 24.78100
C  1.35000 6.60500 22.23800
C  0.31600 10.07800 22.38800
C  -0.78500 10.84300 23.02100
N  1.70700 9.57700 27.69000
C  1.91400 10.56900 26.71700
C  2.20800 11.81600 27.43000
C  2.00200 11.54700 28.79900
C  1.80600 10.19000 28.92900
C  2.40200 13.16800 26.80800
C  2.05100 12.10000 30.10300
O  2.26300 13.26000 30.39800
C  1.78500 11.02400 31.11300
C  2.72900 11.11400 32.16800
O  3.89200 10.80300 32.11600
O  2.17000 11.73800 33.21200
C  3.01800 11.89500 34.39400
H  -0.00900 4.35900 30.51900
H  -0.17300 5.08300 24.15400
H  1.93100 11.20300 24.62400
H  1.93300 8.17400 32.81300
H  -0.21700 6.27100 32.47200
H  2.45000 4.93200 32.08100
H  1.20200 4.80200 33.28700
H  2.31400 6.14000 33.45800
H  -1.11800 8.10400 32.57300
H  -0.42900 9.52500 32.02500
H  -1.35200 9.18000 34.20200
H  0.09000 10.15300 34.28600
H  0.56300 1.60400 28.60100
H  -1.17900 1.77100 28.68200
H  -0.11400 2.55400 29.86000
H  -1.63800 0.84300 25.04300
H  -1.82700 1.48200 26.67700
H  -0.33900 0.66000 26.21200
H  -0.42900 7.60900 22.77300
H  2.19900 9.03400 22.97100
H  1.30800 7.01700 21.22900
H  0.84500 5.64100 22.29800
H  2.38100 6.50700 22.57700
H  -0.17200 9.56700 21.55800
H  1.06000 10.77000 21.99300
H  -1.56300 11.09800 22.30100
H  -0.44500 11.77500 23.47300
H  -1.33400 10.22400 23.73100
H  1.40300 13.59800 26.74200
H  2.96800 13.14100 25.87600
H  2.93000 13.85900 27.46500
H  0.83000 11.27800 31.57300
H  3.10500 10.93900 34.91100
H  2.53200 12.57700 35.09100
H  4.01400 12.29200 34.19700
Mg 54.49400 24.18600 45.43600
C  51.71200 26.26500 44.92100
C  52.70900 21.46600 44.25700
C  57.25700 22.43700 45.56500
C  56.28100 27.12900 46.31500
N  52.44200 23.99900 44.59800
C  51.53100 24.96000 44.37800
C  50.25400 24.36200 43.73800
C  50.49700 22.81500 44.01700
C  51.98600 22.75800 44.21700
C  49.94700 22.23600 45.30000
C  50.25700 24.76000 42.19200
C  48.94400 25.13800 41.44000
H  48.44900 24.18000 40.27400
N  54.85000 22.16900 45.02700
C  54.03000 21.22200 44.52000
C  54.78000 19.96100 44.41600
C  56.09000 20.19600 44.93000
C  56.07500 21.64000 45.24000
C  54.04300 18.64100 44.01000
C  57.18400 19.12300 45.13900
O  56.89800 18.00200 44.74400
C  58.51900 19.48900 45.61600
N  56.55200 24.73900 45.79900
C  57.47300 23.73300 45.87500
C  58.82800 24.35300 46.31700
C  58.52900 25.89400 46.31900
C  57.01300 25.87600 46.24400
C  59.33000 23.62700 47.61600
C  59.06200 26.86000 45.08100
C  60.54100 26.63700 44.70800
N  54.17100 26.28300 45.60400
C  54.97400 27.34900 46.03000
C  54.20600 28.50300 46.10900
C  52.94800 28.16000 45.67000
C  52.91700 26.77100 45.40700
C  54.67400 29.79500 46.50100
C  51.62100 28.75400 45.40300
O  51.15800 29.84100 45.61800
C  50.79700 27.51900 44.82300
C  50.35900 27.89700 43.44200
O  51.20500 28.26000 42.60800
O  48.98700 27.81400 43.27400
C  48.49800 28.30200 41.99600
H  52.00500 20.67600 43.98900
H  58.22300 21.94300 45.68400
H  56.80300 28.03200 46.64000
H  49.38200 24.68400 44.30600
H  50.25100 22.18100 43.16600
H  49.08100 22.78400 45.67200
H  50.65300 22.11100 46.12100
H  49.61100 21.22300 45.07600
H  50.66800 23.88700 41.68500
H  50.90800 25.61800 42.02100
H  49.09000 26.05000 40.86100
H  48.18700 25.29400 42.20800
H  53.56700 18.82700 43.04700
H  53.28600 18.15300 44.62500
H  54.74100 17.83100 43.79700
H  59.13000 20.07300 44.92800
H  59.05700 18.58900 45.91700
H  58.34000 20.00000 46.56200
H  59.55100 24.21000 45.51300
H  58.63500 26.34800 47.30500
H  59.74900 24.37400 48.29000
H  60.08200 22.85300 47.46500
H  58.51700 23.21800 48.21600
H  58.77100 27.87300 45.36100
H  58.54900 26.74000 44.12700
H  60.54900 26.14600 43.73500
H  61.00300 26.04700 45.50000
H  61.15000 27.51700 44.49800
H  54.19400 30.01300 47.45500
H  54.36600 30.35500 45.61800
H  55.73600 30.03000 46.55700
H  49.95300 27.27100 45.46600
H  49.09800 28.01900 41.13100
H  48.63400 29.38400 41.99900
H  47.46000 28.14900 41.69900

