158

Mg 48.18000 35.40700 28.06800
C  46.12100 33.67300 30.21100
C  48.39800 37.91900 30.36900
C  49.85700 37.30500 25.67000
C  47.31800 33.15200 25.53200
N  47.56700 35.65400 30.14800
C  46.76300 34.77700 30.81900
C  46.92600 35.08900 32.33300
C  47.12400 36.58600 32.28400
C  47.76400 36.73800 30.90100
C  45.94500 37.46200 32.58600
C  48.20900 34.32300 32.80100
C  47.88300 33.69200 34.15700
H  47.18000 34.60500 35.18200
N  49.09100 37.27400 28.02200
C  49.14000 38.11600 29.16200
C  50.05800 39.23500 28.82900
C  50.50900 39.01200 27.46500
C  49.83000 37.80900 26.98800
C  50.26300 40.40400 29.82300
C  51.50900 39.87800 26.71500
O  51.67800 39.77600 25.51600
C  52.37400 40.90600 27.27600
N  48.40500 35.31800 25.93500
C  49.13900 36.18300 25.17300
C  49.38300 35.73200 23.72200
C  48.82800 34.30000 23.75700
C  48.13700 34.23300 25.15000
C  48.87600 36.63600 22.51100
C  49.92800 33.21000 23.62400
C  50.25700 32.76100 22.21900
N  46.96200 33.72600 27.92500
C  46.70800 32.98100 26.80400
C  45.71500 31.95800 27.17500
C  45.39000 32.26400 28.47800
C  46.14000 33.34800 28.89300
C  45.14800 30.83700 26.37000
C  44.61700 31.85600 29.58300
O  43.79200 30.97900 29.64000
C  45.00900 32.75900 30.82800
C  45.38000 32.03600 32.11900
O  46.25100 31.22600 32.30200
O  44.37000 32.34000 33.03400
C  44.35400 31.64400 34.32100
H  48.44400 38.75600 31.07000
H  50.43500 37.84600 24.91800
H  47.07000 32.32600 24.86200
H  46.05200 34.79800 32.91600
H  47.84400 36.92000 33.03100
H  45.64500 38.07100 31.73400
H  46.11100 38.10900 33.44800
H  45.06400 36.85600 32.79400
H  49.09100 34.95100 32.92400
H  48.41000 33.46300 32.16200
H  48.82800 33.24500 34.46500
H  47.22600 32.83100 34.03000
H  50.43600 41.31500 29.25000
H  51.16000 40.19100 30.40400
H  49.37400 40.59100 30.42600
H  53.33800 40.97400 26.77200
H  52.69100 40.85900 28.31800
H  51.86200 41.86700 27.25300
H  50.46900 35.65000 23.68000
H  47.99000 34.29100 23.06000
H  48.21600 37.33300 23.02700
H  48.21500 36.07300 21.85200
H  49.63100 37.21500 21.98100
H  49.63500 32.42000 24.31600
H  50.89400 33.49800 24.04000
H  51.29100 32.93200 21.92000
H  49.55300 33.20600 21.51600
H  50.07000 31.68800 22.16700
H  45.92400 30.37200 25.76100
H  44.42400 31.28600 25.68900
H  44.55800 30.01800 26.77900
H  44.18800 33.43700 31.05800
H  45.00800 30.77200 34.31900
H  43.32600 31.35000 34.53400
H  44.63000 32.32000 35.13000
Mg 42.70000 41.35100 26.22100
C  41.92200 43.92200 28.55100
C  43.62800 39.38300 28.66300
C  43.78200 39.25500 23.77600
C  41.99500 43.77700 23.68000
N  42.57500 41.59200 28.37000
C  42.26900 42.68400 29.12200
C  42.21800 42.26600 30.61700
C  43.01700 40.92100 30.58900
C  43.11900 40.60700 29.11100
C  44.41000 40.94500 31.32100
C  40.76900 42.27400 31.26700
C  40.58800 43.18100 32.45400
H  40.19200 42.59900 33.78600
N  43.35500 39.58500 26.20000
C  43.73700 38.91700 27.34900
C  44.36400 37.59600 26.96100
C  44.02400 37.42800 25.59100
C  43.70300 38.79000 25.09000
C  44.96800 36.68400 28.06300
C  43.98800 36.24600 24.72000
O  43.37500 36.35300 23.66600
C  44.47900 34.91500 25.14900
N  42.95100 41.52900 24.00800
C  43.44600 40.53100 23.29300
C  43.32000 40.73300 21.73800
C  42.63600 42.13300 21.72600
C  42.46500 42.49300 23.21300
C  44.70500 40.57000 20.92900
C  41.20200 42.13500 21.13600
C  40.67100 43.32900 20.31000
N  42.00000 43.40000 26.11900
C  41.73200 44.19000 25.02200
C  41.11100 45.41300 25.48400
C  41.17200 45.36500 26.83100
C  41.74200 44.16300 27.17000
C  40.67000 46.55600 24.51700
C  40.87500 46.14300 28.05600
O  40.25200 47.15500 28.17300
C  41.32200 45.22200 29.25400
C  42.38600 45.77700 30.11800
O  43.59800 45.59300 29.96700
O  41.83400 46.60800 31.06200
C  42.80800 47.26000 31.83800
H  43.94000 38.71000 29.46500
H  44.08900 38.66400 22.91100
H  41.72000 44.56800 22.98000
H  42.87200 43.03800 31.02300
H  42.41200 40.19900 31.13600
H  44.44300 40.09400 32.00100
H  44.48400 41.85600 31.91500
H  45.22200 40.98800 30.59400
H  40.58600 41.24600 31.58000
H  39.97800 42.48500 30.54800
H  39.75700 43.78400 32.08900
H  41.33800 43.96100 32.58400
H  45.30300 37.25900 28.92600
H  45.86000 36.20900 27.65600
H  44.25500 35.92500 28.38400
H  45.54800 35.04700 25.31500
H  44.44000 34.15500 24.36900
H  44.05100 34.60600 26.10300
H  42.54300 40.05400 21.38900
H  43.05800 42.94200 21.12900
H  45.27400 39.72700 21.32200
H  45.28200 41.47700 20.75000
H  44.43900 40.21800 19.93300
H  40.53500 42.08000 21.99700
H  40.93700 41.36500 20.41200
H  40.24000 44.07400 20.98000
H  39.93600 42.85200 19.66000
H  41.48400 43.81700 19.77300
H  40.14200 46.24900 23.61400
H  41.55900 47.16500 24.34800
H  39.97400 47.20100 25.05200
H  40.46100 44.99600 29.88300
H  43.54500 47.77200 31.22000
H  43.33500 46.60900 32.53500
H  42.33700 48.06500 32.40200

