158

Mg -1.22500 17.60000 25.65600
C  -1.91300 15.49100 28.53200
C  -2.14500 20.25600 27.62900
C  -1.25500 19.45600 22.92600
C  -1.13100 14.61900 23.72900
N  -1.71900 17.85000 27.91200
C  -2.02800 16.91100 28.83600
C  -2.52800 17.50300 30.16700
C  -2.53200 18.99600 29.87800
C  -2.07100 19.06800 28.38800
C  -3.89600 19.65000 30.16000
C  -1.75100 17.00700 31.44600
C  -2.03200 17.78400 32.75800
H  -1.85700 16.91200 33.99700
N  -1.63800 19.54600 25.36300
C  -1.89400 20.51000 26.27600
C  -1.80200 21.84600 25.62000
C  -1.74400 21.59800 24.20500
C  -1.53100 20.15800 24.10200
C  -1.80800 23.02800 26.52900
C  -1.60500 22.57200 23.09900
O  -1.48400 22.31400 21.91200
C  -1.64600 24.05700 23.47000
N  -1.21800 17.14000 23.64500
C  -1.14500 18.09900 22.69900
C  -0.81700 17.54800 21.29100
C  -0.63700 16.06700 21.61400
C  -1.00500 15.93700 23.05400
C  -2.03700 17.73100 20.35300
C  0.80600 15.51200 21.30700
C  1.95500 15.49800 22.38100
N  -1.44400 15.50600 26.06000
C  -1.38600 14.45800 25.14200
C  -1.49100 13.18000 25.88000
C  -1.71900 13.54300 27.20800
C  -1.67300 14.97500 27.23200
C  -1.47100 11.74900 25.32200
C  -1.94800 13.06600 28.55000
O  -2.14300 11.94500 29.06100
C  -2.05000 14.32800 29.41900
C  -0.85400 14.23100 30.24900
O  0.26000 14.70000 30.03800
O  -1.18000 13.47800 31.37800
C  -0.13200 13.13400 32.33500
H  -2.54100 21.09600 28.20200
H  -1.20100 20.07800 22.03000
H  -0.97500 13.89700 22.92500
H  -3.52100 17.10700 30.37500
H  -1.78100 19.45800 30.51900
H  -4.52200 19.18200 30.91900
H  -4.52700 19.55800 29.27600
H  -3.77100 20.64100 30.59600
H  -0.70800 17.02100 31.12800
H  -1.96200 15.97000 31.70900
H  -3.06600 18.03200 32.51800
H  -1.47000 18.71800 32.71900
H  -0.99100 23.00600 27.24900
H  -2.70800 22.89600 27.13000
H  -1.97200 24.05100 26.19100
H  -1.74700 24.57200 22.51500
H  -0.67000 24.11700 23.95100
H  -2.44400 24.45200 24.09800
H  0.10600 17.96800 20.89300
H  -1.29200 15.34000 21.13400
H  -1.75300 18.40600 19.54500
H  -2.81700 18.11800 21.00800
H  -2.33800 16.74000 20.01500
H  1.15200 16.08800 20.44900
H  0.71800 14.47000 20.99700
H  2.42900 14.52000 22.46700
H  1.56900 15.80300 23.35400
H  2.68200 16.23000 22.03000
H  -0.65200 11.72700 24.60200
H  -2.36500 11.50700 24.74800
H  -1.41000 11.02800 26.13700
H  -2.85500 14.29500 30.15400
H  0.83200 13.60600 32.14800
H  0.04700 12.06000 32.38400
H  -0.43300 13.33400 33.36300
Mg 17.81500 -2.34400 28.08600
C  16.61100 -0.10000 30.39900
C  19.80700 -3.67500 30.54600
C  19.08400 -4.32100 25.72600
C  15.96900 -0.53900 25.48800
N  18.03600 -2.03200 30.28200
C  17.48800 -1.06800 31.00800
C  17.80300 -1.15100 32.49900
C  18.90700 -2.23000 32.50100
C  18.95300 -2.74600 31.01200
C  20.31000 -1.72300 32.90100
C  16.57700 -1.53400 33.37600
C  16.47000 -0.91400 34.80700
H  17.64200 -0.11500 35.37600
N  19.22600 -3.88200 28.14600
C  19.92300 -4.28300 29.27700
C  20.72000 -5.38600 28.90100
C  20.50600 -5.60800 27.48500
C  19.54300 -4.64100 27.02300
C  21.61200 -6.06000 29.90600
C  21.23000 -6.74500 26.64200
O  20.83200 -6.99800 25.46500
C  22.20900 -7.59800 27.27700
N  17.56900 -2.37600 26.03200
C  18.22900 -3.36400 25.30300
C  17.95300 -3.21600 23.85500
C  17.05500 -1.99700 23.69800
C  16.82300 -1.61800 25.16100
C  19.23000 -3.06300 23.04500
C  15.79400 -2.23500 22.81600
C  15.25200 -1.05500 22.14400
N  16.51900 -0.69000 27.91200
C  15.78600 -0.07900 26.85200
C  15.00200 1.04800 27.31700
C  15.26400 1.05900 28.71200
C  16.18700 0.00700 29.02900
C  14.04800 1.92700 26.66700
C  14.91600 1.67600 29.95000
O  14.08400 2.55100 30.14300
C  15.81400 0.95200 31.06500
C  16.69700 1.98700 31.73900
O  17.81400 2.29100 31.53400
O  15.94200 2.62900 32.69100
C  16.49700 3.92700 33.22200
H  20.38500 -4.17200 31.32700
H  19.47700 -5.02800 24.99300
H  15.60300 0.08900 24.67300
H  18.17800 -0.19900 32.87500
H  18.74000 -3.04300 33.20700
H  21.15100 -2.16100 32.36300
H  20.59900 -1.93700 33.93000
H  20.39200 -0.65500 32.69700
H  16.74300 -2.61000 33.43900
H  15.68200 -1.27300 32.81200
H  16.27900 -1.78100 35.44000
H  15.63200 -0.21900 34.75100
H  21.82500 -5.49900 30.81600
H  22.57900 -6.17300 29.41500
H  21.17700 -7.01000 30.21700
H  21.93000 -8.09900 28.20400
H  23.10100 -7.02500 27.53000
H  22.44900 -8.34200 26.51800
H  17.37600 -4.12100 23.66500
H  17.61300 -1.18000 23.23900
H  19.92900 -3.89900 23.07500
H  19.85400 -2.21700 23.33600
H  18.89000 -3.09300 22.01000
H  15.05900 -2.75100 23.43400
H  16.05500 -2.93100 22.01900
H  14.17400 -0.90300 22.18500
H  15.49300 -1.17600 21.08800
H  15.70500 -0.11400 22.45500
H  13.30300 1.39800 26.07300
H  14.66600 2.50000 25.97600
H  13.53400 2.60300 27.35100
H  15.04100 0.65600 31.77500
H  17.16300 3.62000 34.02800
H  15.81500 4.70000 33.57600
H  17.11500 4.39400 32.45500

