158

Mg 53.93900 24.41900 44.22200
C  51.14700 26.70400 43.86800
C  51.61500 21.92400 43.31500
C  56.39400 22.39000 43.85300
C  56.06300 27.15300 44.50500
N  51.66000 24.39800 43.36300
C  50.69100 25.37900 43.49500
C  49.30400 24.82700 43.13100
C  49.50000 23.28600 43.41600
C  51.03500 23.14500 43.39800
C  48.93800 22.76400 44.79900
C  49.01900 25.18000 41.68300
C  47.56100 25.14100 41.22900
H  47.40200 24.65000 39.77600
N  54.04600 22.48400 43.68200
C  53.03500 21.62000 43.30900
C  53.53100 20.26300 43.20500
C  54.93000 20.30000 43.46100
C  55.20900 21.73200 43.67100
C  52.58700 19.01700 42.91900
C  55.78600 19.08800 43.41300
O  55.30200 17.96700 43.17600
C  57.27900 19.13500 43.81600
N  55.98800 24.78700 43.95900
C  56.80400 23.72700 44.06500
C  58.24300 24.12400 44.31400
C  58.12600 25.62100 44.41400
C  56.62200 25.88800 44.28000
C  58.94100 23.38400 45.46000
C  58.95400 26.39400 43.32200
C  59.84600 27.52600 43.88400
N  53.71100 26.48900 44.34200
C  54.66200 27.47200 44.51100
C  53.94600 28.72200 44.71300
C  52.61100 28.48000 44.53200
C  52.50600 27.09200 44.21800
C  54.52300 30.01300 45.07400
C  51.36600 29.10200 44.57300
O  51.11600 30.25200 44.84100
C  50.34600 28.04700 44.09500
C  49.92900 28.47700 42.72300
O  50.65200 28.75100 41.75300
O  48.58500 28.72000 42.68400
C  47.86900 29.20200 41.43700
H  50.83400 21.20200 43.06800
H  57.28200 21.75500 43.89600
H  56.80900 27.93200 44.67700
H  48.53100 25.37100 43.67300
H  49.06300 22.71100 42.60000
H  49.00900 23.47000 45.62600
H  49.37400 21.80600 45.08000
H  47.86800 22.61100 44.65800
H  49.63700 24.52800 41.06500
H  49.33700 26.19900 41.46100
H  47.05400 26.08600 41.42400
H  47.14500 24.34300 41.84300
H  53.01200 18.48800 42.06500
H  51.58000 19.28700 42.60100
H  52.57500 18.39300 43.81300
H  57.62900 18.11800 43.99800
H  57.23600 19.70500 44.74300
H  57.83700 19.62600 43.01900
H  58.80800 23.68200 43.49400
H  58.25000 26.01000 45.42400
H  59.15800 24.11400 46.24000
H  59.79600 22.77400 45.16700
H  58.31400 22.68300 46.01200
H  58.32000 26.86100 42.56800
H  59.55800 25.66400 42.78400
H  59.80500 28.42800 43.27300
H  60.88100 27.19400 43.80000
H  59.50700 27.79600 44.88400
H  54.20700 30.39200 46.04600
H  54.07700 30.72200 44.37600
H  55.58600 29.89000 44.86700
H  49.46500 27.96000 44.73000
H  46.84500 29.49700 41.66500
H  47.89200 28.40300 40.69700
H  48.45800 30.00600 40.99500
Mg -13.42200 17.08900 41.29500
C  -10.66800 14.84600 41.05600
C  -11.44600 19.55500 39.98800
C  -16.13500 18.81800 40.92900
C  -15.32800 14.34700 42.48400
N  -11.31500 17.15400 40.59900
C  -10.41200 16.13500 40.55400
C  -9.01000 16.65800 40.13500
C  -9.21900 18.18000 39.88000
C  -10.75600 18.33000 40.19700
C  -8.25700 19.10600 40.59200
C  -8.50300 15.91700 38.81100
C  -6.91600 15.67400 38.87900
H  -6.11400 16.45400 37.80000
N  -13.76400 18.95300 40.57800
C  -12.82500 19.84600 40.07000
C  -13.49000 21.13800 39.83400
C  -14.84800 20.86400 39.98500
C  -15.00100 19.49100 40.53300
C  -12.69800 22.40000 39.45500
C  -15.96200 21.89500 39.73400
O  -15.69300 22.99600 39.32300
C  -17.40700 21.57200 39.84100
N  -15.38500 16.61700 41.62200
C  -16.37100 17.54200 41.43200
C  -17.79200 17.10300 41.88600
C  -17.52600 15.67700 42.45200
C  -15.95800 15.53400 42.21900
C  -18.65300 18.10000 42.70000
C  -18.43400 14.51400 41.81400
C  -19.20700 13.71500 42.78800
N  -13.11200 14.97900 41.69900
C  -13.99800 14.00400 42.26900
C  -13.23400 12.75000 42.43000
C  -11.91400 13.01400 42.00600
C  -11.93500 14.34500 41.48900
C  -13.72500 11.50800 43.02900
C  -10.50800 12.51000 41.97200
O  -9.95400 11.46300 42.36900
C  -9.75400 13.59600 41.18700
C  -8.51700 13.96300 42.01300
O  -8.48100 14.69600 42.99100
O  -7.38700 13.30300 41.53500
C  -6.11200 13.64400 42.17300
H  -10.98900 20.46600 39.59700
H  -17.12000 19.28300 40.85400
H  -15.93500 13.67600 43.09600
H  -8.29800 16.49800 40.94400
H  -9.06100 18.53900 38.86300
H  -7.70700 19.76400 39.92000
H  -7.50700 18.48900 41.08800
H  -8.75500 19.71900 41.34300
H  -8.82900 16.46800 37.92800
H  -8.89300 14.90000 38.86000
H  -6.91200 14.61000 38.64100
H  -6.57800 15.74300 39.91300
H  -12.56100 22.42500 38.37400
H  -11.76400 22.30000 40.00800
H  -13.16000 23.31900 39.81700
H  -17.57300 20.68600 39.22900
H  -18.05400 22.36900 39.47400
H  -17.64600 21.27900 40.86300
H  -18.28800 16.98700 40.92300
H  -17.73000 15.76200 43.51900
H  -18.12300 19.05300 42.71500
H  -18.73200 17.74400 43.72700
H  -19.61000 18.16800 42.18300
H  -17.87300 13.92100 41.09100
H  -19.16300 15.04900 41.20500
H  -19.10500 12.63500 42.68200
H  -20.25400 13.94200 42.58700
H  -18.86600 13.92600 43.80100
H  -13.26500 10.64400 42.54900
H  -14.78700 11.30900 42.88400
H  -13.44400 11.26500 44.05300
H  -9.32300 13.26900 40.24100
H  -5.94400 13.09600 43.10000
H  -5.90900 14.70700 42.30100
H  -5.35200 13.26700 41.48800

