158

Mg -1.70000 17.31400 26.65400
C  -1.66300 14.98800 29.12500
C  -2.30300 19.72100 29.03800
C  -1.73600 19.56900 24.13800
C  -1.48600 14.81800 24.32400
N  -1.83700 17.36300 28.81700
C  -1.76000 16.27500 29.62000
C  -1.96900 16.76500 31.09400
C  -2.50300 18.22200 30.96300
C  -2.16500 18.45400 29.54700
C  -4.00700 18.38900 31.34400
C  -0.55100 16.63000 31.89900
C  -0.07400 17.55800 33.02300
H  0.44600 16.95600 34.36600
N  -1.92700 19.31200 26.60100
C  -2.10700 20.13100 27.69400
C  -2.16200 21.54200 27.19600
C  -1.73900 21.51400 25.82800
C  -1.76100 20.14000 25.47200
C  -2.57200 22.79500 28.12800
C  -1.54100 22.68600 24.85300
O  -1.38500 22.56400 23.61600
C  -1.50700 24.07000 25.41100
N  -1.89100 17.21000 24.48900
C  -1.78200 18.27300 23.67900
C  -1.81900 17.86900 22.14900
C  -1.62100 16.32700 22.22100
C  -1.67900 16.08200 23.81900
C  -3.09900 18.37200 21.41000
C  -0.32000 15.79800 21.50400
C  1.00900 15.95000 22.34100
N  -1.75400 15.32600 26.64200
C  -1.57100 14.42100 25.63400
C  -1.49900 13.11700 26.16200
C  -1.57200 13.27900 27.55900
C  -1.67700 14.66700 27.77900
C  -1.26700 11.76600 25.45300
C  -1.57500 12.51800 28.82200
O  -1.36300 11.32800 29.09300
C  -1.87000 13.60900 29.88200
C  -0.95800 13.35400 31.02700
O  0.26200 13.58900 30.91100
O  -1.53800 12.85600 32.14400
C  -0.65900 12.65000 33.27900
H  -2.36600 20.44400 29.85300
H  -1.71700 20.31700 23.34200
H  -1.25000 14.04100 23.59400
H  -2.62500 16.07800 31.62700
H  -1.83700 18.90300 31.49100
H  -4.56800 17.60100 31.84700
H  -4.55100 18.60800 30.42500
H  -4.14600 19.28600 31.94800
H  0.28200 16.59500 31.19700
H  -0.73700 15.64900 32.33600
H  -0.78900 18.35000 33.24500
H  0.76300 18.06400 32.54200
H  -3.03000 22.41800 29.04200
H  -3.32700 23.31900 27.54100
H  -1.62300 23.26300 28.38900
H  -0.74400 24.06200 26.19000
H  -2.47100 24.30700 25.86100
H  -1.33500 24.79400 24.61500
H  -0.94100 18.31800 21.68400
H  -2.53900 15.92200 21.79500
H  -2.77800 19.09800 20.66200
H  -3.75400 18.97000 22.04300
H  -3.65400 17.57900 20.90800
H  -0.14700 16.23400 20.52000
H  -0.50300 14.72900 21.39600
H  0.84000 16.52900 23.24900
H  1.81700 16.29700 21.69700
H  1.31300 14.95700 22.67200
H  -0.58200 11.06900 25.93400
H  -1.01300 11.84900 24.39600
H  -2.22900 11.26000 25.37200
H  -2.87600 13.43500 30.26500
H  -0.23800 13.58200 33.65700
H  0.15000 12.01100 32.92500
H  -1.19200 11.97800 33.95300
Mg 48.40200 14.95800 28.06800
C  46.02300 14.81100 30.75900
C  50.54100 16.74400 30.14200
C  50.39800 15.11900 25.53500
C  45.92400 13.27600 26.13200
N  48.28900 15.72500 30.10000
C  47.26800 15.49400 30.96600
C  47.57900 15.99500 32.36700
C  48.85200 16.83800 32.11500
C  49.29400 16.42900 30.67600
C  48.67100 18.34300 32.34700
C  47.82300 14.71200 33.26600
C  47.26000 14.86600 34.67600
H  47.08900 16.28500 35.30400
N  50.28400 15.82200 27.82000
C  51.03600 16.49800 28.79800
C  52.37600 16.76600 28.22500
C  52.28400 16.46300 26.85200
C  50.98000 15.75000 26.69600
C  53.43600 17.57800 29.00400
C  53.20900 16.67100 25.67100
O  52.98000 16.30900 24.52500
C  54.53200 17.45200 25.88300
N  48.19100 14.25400 26.17300
C  49.14300 14.50000 25.26500
C  48.81400 13.94700 23.79800
C  47.47600 13.08900 24.14200
C  47.18300 13.55000 25.58300
C  48.64400 15.02900 22.72100
C  47.67900 11.56200 24.00200
C  48.13600 10.71600 25.22000
N  46.34800 14.32100 28.27000
C  45.54300 13.61700 27.43300
C  44.27200 13.31600 28.08300
C  44.43500 13.74800 29.42200
C  45.73400 14.27800 29.45900
C  43.09500 12.51800 27.55200
C  43.80100 13.71500 30.68900
O  42.66300 13.34100 31.04500
C  44.80600 14.37700 31.63900
C  44.11400 15.54400 32.26300
O  44.09100 16.67100 31.78200
O  43.57500 15.15800 33.47000
C  42.97500 16.22100 34.18400
H  51.19400 17.13000 30.92700
H  51.01900 15.07700 24.63800
H  45.19200 12.89600 25.41700
H  46.77200 16.65500 32.68600
H  49.68500 16.49600 32.73000
H  47.88500 18.65100 33.03700
H  48.65800 18.86200 31.38900
H  49.56600 18.73100 32.83400
H  48.88500 14.54100 33.44400
H  47.40500 13.79200 32.85800
H  47.84500 14.33400 35.42700
H  46.27200 14.41200 34.74400
H  53.46500 18.56200 28.53600
H  54.40500 17.09600 29.13500
H  53.03900 17.71700 30.01000
H  54.98700 17.18600 26.83700
H  54.27900 18.51000 25.96600
H  55.23600 17.30600 25.06500
H  49.53700 13.21700 23.43500
H  46.63200 13.36100 23.50900
H  49.45100 14.96100 21.99100
H  48.57900 16.03700 23.13000
H  47.69800 14.90000 22.19500
H  48.47200 11.40000 23.27200
H  46.75500 11.12100 23.62700
H  48.79200 9.90200 24.91400
H  47.30700 10.16500 25.66500
H  48.48100 11.44500 25.95400
H  43.35400 11.47300 27.37900
H  42.89500 13.02100 26.60600
H  42.23500 12.62500 28.21300
H  45.14300 13.60700 32.33300
H  43.49900 17.17500 34.11800
H  42.79000 15.99600 35.23400
H  42.00800 16.30700 33.68900

