158

Mg 42.64100 41.13500 25.32100
C  41.66600 43.58400 27.81800
C  43.72300 39.09900 27.86300
C  43.70300 39.07300 22.98600
C  41.77500 43.47400 22.87900
N  42.74900 41.45900 27.62700
C  42.16700 42.43300 28.41500
C  42.14000 42.01100 29.84400
C  42.67400 40.51100 29.77100
C  43.13100 40.33500 28.34900
C  43.79700 40.22100 30.81900
C  40.68200 42.01800 30.48200
C  40.48800 41.32000 31.82200
H  39.78600 42.08400 32.96500
N  43.54100 39.35400 25.43100
C  43.95200 38.67200 26.54000
C  44.67400 37.47500 26.18800
C  44.60200 37.36500 24.76700
C  43.90300 38.61000 24.34800
C  45.21900 36.49400 27.15400
C  45.11800 36.28000 23.79600
O  45.01500 36.24800 22.57100
C  45.62000 35.00800 24.48500
N  42.69100 41.17800 23.31000
C  43.13800 40.23600 22.51900
C  42.97600 40.49400 21.02000
C  42.37500 41.95900 20.97300
C  42.19800 42.21400 22.44700
C  44.32200 40.35600 20.26400
C  41.10100 42.24300 20.17800
C  41.09000 43.39300 19.17000
N  41.86100 43.08700 25.26200
C  41.49800 43.88300 24.23400
C  41.11100 45.19700 24.70000
C  41.05700 45.13600 26.06800
C  41.54800 43.82100 26.38100
C  40.77600 46.42900 23.84400
C  40.73200 45.84900 27.32000
O  40.33700 46.97200 27.50600
C  40.99800 44.76400 28.44400
C  41.85300 45.44400 29.46700
O  43.05600 45.65000 29.30100
O  41.04400 45.83600 30.53000
C  41.82600 46.11900 31.74500
H  43.86300 38.42700 28.71200
H  44.09700 38.43500 22.19200
H  41.54000 44.18800 22.08700
H  42.83800 42.60100 30.43900
H  41.87800 39.78400 29.93200
H  43.60000 40.85500 31.68300
H  44.72700 40.38100 30.27200
H  43.64300 39.14900 30.94200
H  40.00000 41.52700 29.78700
H  40.33400 43.05100 30.46200
H  41.47500 41.07900 32.21700
H  39.95400 40.38100 31.67800
H  45.02400 36.82400 28.17500
H  46.29500 36.44000 26.99000
H  44.82100 35.50200 26.94400
H  44.74800 34.59300 24.98900
H  46.41800 35.15500 25.21300
H  45.94700 34.33000 23.69600
H  42.28900 39.83400 20.49000
H  43.06700 42.71100 20.59500
H  45.15900 40.16500 20.93500
H  44.51900 41.27000 19.70300
H  44.22500 39.47700 19.62800
H  40.35300 42.48300 20.93500
H  40.84900 41.30900 19.67600
H  42.12500 43.71800 19.05900
H  40.51800 44.22700 19.57700
H  40.72600 42.95000 18.24400
H  40.52000 46.19400 22.81100
H  41.58700 47.15400 23.78000
H  39.97200 46.94700 24.36700
H  40.01500 44.47300 28.81400
H  41.31800 45.64800 32.58700
H  41.83200 47.17500 32.01600
H  42.86700 45.80100 31.79100
Mg 26.78800 49.86600 26.38500
C  24.81600 50.83800 28.93700
C  29.31400 49.08200 28.69300
C  29.00700 49.31600 23.79700
C  24.56100 51.12500 24.07000
N  26.99900 49.80400 28.61700
C  25.98200 50.25900 29.38900
C  26.38300 50.10400 30.90900
C  27.99200 49.83100 30.88400
C  28.10700 49.50000 29.33700
C  28.85400 51.08300 31.16300
C  25.64500 48.85700 31.56000
C  25.10200 49.01600 33.03000
H  26.07000 49.50000 34.12700
N  28.81300 49.15600 26.26100
C  29.64000 48.82500 27.34600
C  30.86000 48.32700 26.86400
C  30.82000 48.44000 25.42500
C  29.51200 49.01000 25.10900
C  31.99700 47.79500 27.71300
C  31.91200 48.16100 24.37400
O  31.82800 48.30000 23.13900
C  33.19600 47.67700 24.89400
N  26.77800 50.21000 24.18000
C  27.78200 49.77400 23.34000
C  27.34900 49.75700 21.85200
C  25.85800 50.27500 21.99700
C  25.65000 50.49800 23.50900
C  28.14500 50.69100 20.89000
C  24.75100 49.28800 21.49300
C  23.63200 49.88300 20.56100
N  25.05300 50.79800 26.46200
C  24.26600 51.38800 25.45200
C  23.08600 52.01600 25.99500
C  23.28400 51.80800 27.40200
C  24.41900 51.05900 27.61100
C  21.91600 52.50400 25.24700
C  22.64400 51.93600 28.62100
O  21.54900 52.41300 28.88600
C  23.66100 51.42300 29.73000
C  24.02100 52.46900 30.72700
O  24.85300 53.37100 30.57500
O  23.30700 52.31900 31.89400
C  23.76000 53.12400 33.10800
H  30.07600 48.83700 29.43600
H  29.59400 49.02700 22.92300
H  23.83100 51.44000 23.32200
H  26.24200 51.04300 31.44400
H  28.27300 49.00400 31.53700
H  28.29300 51.88000 31.65100
H  29.34800 51.50200 30.28700
H  29.58200 50.92700 31.95900
H  26.25500 47.95500 31.60200
H  24.74000 48.64100 30.99200
H  24.71600 48.06400 33.39400
H  24.20100 49.62800 32.98700
H  32.86200 48.45500 27.64600
H  32.28700 46.78000 27.43900
H  31.81200 47.76800 28.78700
H  33.63600 48.50600 25.44900
H  34.01500 47.66200 24.17500
H  33.04700 46.72200 25.39700
H  27.47800 48.75200 21.45000
H  25.70100 51.21300 21.46500
H  29.16900 50.83600 21.23600
H  27.73000 51.68900 21.03200
H  27.99000 50.41900 19.84600
H  24.42400 48.63500 22.30300
H  25.33700 48.64200 20.83900
H  23.80800 50.95700 20.50300
H  22.68900 49.64300 21.05300
H  23.73600 49.39200 19.59400
H  21.94500 52.39400 24.16300
H  21.77500 53.56000 25.47700
H  21.05400 51.94100 25.60400
H  23.16000 50.58400 30.21500
H  24.83100 52.95300 33.21500
H  23.18300 52.74900 33.95300
H  23.59800 54.17500 32.87100

