158

Mg -2.15300 16.66000 26.04300
C  -2.70700 14.44300 28.83500
C  -2.98400 19.29000 28.25400
C  -2.13800 18.68500 23.50300
C  -1.90800 13.91000 23.92500
N  -2.90800 16.77700 28.31200
C  -2.91900 15.76100 29.23800
C  -3.44300 16.29200 30.49900
C  -3.62300 17.84600 30.24500
C  -3.08600 17.99300 28.85400
C  -5.07200 18.38200 30.41700
C  -2.63700 16.07800 31.82600
C  -3.50200 15.79500 33.08500
H  -2.87400 14.99800 34.20900
N  -2.38000 18.78400 25.89700
C  -2.65000 19.73500 26.87000
C  -2.60200 21.04000 26.26400
C  -2.40900 20.82500 24.91400
C  -2.35200 19.38100 24.69900
C  -2.72800 22.23400 27.05300
C  -2.38300 21.87300 23.79200
O  -2.31800 21.56700 22.64500
C  -2.15400 23.28600 24.12700
N  -2.13100 16.26000 23.96600
C  -1.95700 17.30200 23.18300
C  -1.78500 16.90900 21.70400
C  -1.41500 15.33200 21.85800
C  -1.81900 15.12700 23.33500
C  -3.06000 17.20600 20.86600
C  0.09500 14.92900 21.55000
C  1.16600 15.71900 22.32200
N  -2.20800 14.57400 26.27900
C  -2.12700 13.57700 25.30200
C  -2.21400 12.29500 25.90700
C  -2.46100 12.61100 27.24500
C  -2.47600 13.97700 27.46800
C  -2.08400 10.96000 25.30400
C  -2.68300 11.97400 28.56500
O  -2.82600 10.80000 28.80400
C  -2.94100 13.03500 29.54200
C  -1.82200 12.78900 30.55100
O  -0.64000 13.03000 30.30700
O  -2.33600 12.33800 31.73900
C  -1.27500 11.71300 32.57600
H  -3.27400 20.15600 28.85200
H  -2.36200 19.36700 22.68100
H  -1.50000 13.03400 23.41600
H  -4.39500 15.79000 30.67200
H  -3.03700 18.40700 30.97300
H  -5.31600 19.14000 29.67200
H  -5.07700 18.84000 31.40600
H  -5.88100 17.65200 30.39500
H  -2.06300 16.94800 32.14400
H  -1.87300 15.33600 31.59000
H  -4.42000 15.31700 32.74400
H  -3.73700 16.77800 33.49200
H  -3.54700 22.81800 26.63400
H  -1.79100 22.77300 26.91900
H  -3.02900 21.97100 28.06700
H  -3.04800 23.77700 24.51100
H  -2.05000 23.74200 23.14200
H  -1.30300 23.40400 24.79700
H  -0.90300 17.35600 21.24500
H  -1.95100 14.72300 21.13000
H  -3.69900 17.93800 21.36000
H  -3.70700 16.39400 20.53300
H  -2.76600 17.84700 20.03500
H  0.32100 14.93500 20.48400
H  0.28200 13.90200 21.86700
H  1.62900 14.92000 22.90100
H  0.67000 16.51300 22.88100
H  1.94500 16.23700 21.76300
H  -2.96300 10.39200 25.00000
H  -1.51400 10.27800 25.93500
H  -1.36100 11.13800 24.50800
H  -3.87300 12.77400 30.04500
H  -0.55200 12.46100 32.90300
H  -0.74700 10.83900 32.19400
H  -1.73100 11.39600 33.51400
Mg 35.60500 49.45200 25.48000
C  35.56400 47.46000 28.33700
C  34.34700 52.07000 27.24200
C  35.32100 51.05300 22.54300
C  36.61200 46.65600 23.66500
N  35.05500 49.68000 27.53000
C  35.22400 48.81900 28.58800
C  34.79700 49.39700 29.91300
C  34.42100 50.90700 29.49500
C  34.59900 50.90900 27.94400
C  32.97900 51.36800 29.98800
C  36.00800 49.37600 30.95200
C  35.68800 48.92100 32.37100
H  34.24400 49.12300 32.85800
N  35.04700 51.34800 24.96400
C  34.57500 52.29800 25.86200
C  34.22200 53.49900 25.13400
C  34.53100 53.21800 23.74500
C  35.00400 51.83800 23.69900
C  33.49000 54.70600 25.87900
C  34.34600 54.17300 22.59800
O  34.50800 53.81000 21.50000
C  34.22900 55.64000 22.81900
N  35.85000 48.92100 23.42900
C  35.66400 49.73100 22.38200
C  36.13000 49.10900 20.96000
C  36.69900 47.77000 21.36600
C  36.41500 47.80500 22.93900
C  34.93500 49.06500 19.94100
C  38.24700 47.50900 20.99700
C  38.60500 46.25000 20.28700
N  35.93200 47.42800 25.86500
C  36.37900 46.46500 25.05300
C  36.52000 45.18400 25.81100
C  36.30300 45.55400 27.12100
C  35.90000 46.94200 27.10700
C  37.01500 43.84000 25.22500
C  36.29000 45.13100 28.48400
O  36.59300 44.03800 28.90800
C  35.70400 46.28400 29.34400
C  34.41600 45.91300 29.99800
O  33.30900 45.98800 29.53400
O  34.66600 45.46700 31.30500
C  33.46200 45.02700 32.08100
H  33.95600 52.85900 27.88900
H  35.44400 51.48600 21.54800
H  36.89700 45.72900 23.16200
H  33.90700 48.85600 30.23600
H  35.17300 51.61800 29.83800
H  32.17200 51.55400 29.27900
H  32.98600 52.16400 30.73200
H  32.59500 50.53100 30.57100
H  36.20000 50.43500 31.12600
H  36.92300 48.89800 30.60200
H  36.49000 49.45800 32.87900
H  36.08700 47.90700 32.35400
H  33.80600 55.67000 25.48000
H  33.68500 54.67700 26.95100
H  32.41800 54.56200 25.73900
H  33.27300 56.06600 23.12200
H  34.48400 56.15900 21.89600
H  35.00300 56.00100 23.49700
H  36.85100 49.87200 20.66600
H  35.97300 47.02700 21.03700
H  35.36100 49.47300 19.02400
H  34.07000 49.64700 20.25900
H  34.62200 48.04100 19.74200
H  38.96400 47.82400 21.75500
H  38.38100 48.14800 20.12500
H  39.30800 45.70000 20.91300
H  39.01100 46.39300 19.28600
H  37.70800 45.63100 20.26200
H  37.52900 43.29900 26.01900
H  37.62600 44.00200 24.33800
H  36.18700 43.27900 24.79100
H  36.40400 46.42000 30.16700
H  33.81300 44.47100 32.95000
H  32.80400 44.39900 31.48000
H  32.92100 45.80800 32.61400

