158

Mg 54.50800 24.77400 44.00800
C  51.42300 26.75400 43.36300
C  52.72600 22.06400 42.84900
C  57.36800 23.10200 43.89400
C  56.07800 27.70800 44.91900
N  52.23400 24.47600 43.22100
C  51.20100 25.36500 43.06400
C  49.97700 24.68500 42.37000
C  50.35700 23.19000 42.60700
C  51.88300 23.24100 42.85300
C  49.70000 22.50700 43.85800
C  50.00500 24.97800 40.84500
C  51.34300 25.22700 40.12300
H  51.37700 26.01400 38.76300
N  54.96900 22.82300 43.45200
C  54.06700 21.88200 43.08300
C  54.75700 20.63800 42.99800
C  56.16600 20.84700 43.22600
C  56.23200 22.29200 43.54100
C  54.14500 19.27800 42.65300
C  57.22600 19.82200 43.20300
O  57.02900 18.65100 42.89300
C  58.69300 20.28600 43.30600
N  56.47300 25.36800 44.21700
C  57.49400 24.46200 44.27700
C  58.87300 25.14500 44.46200
C  58.42600 26.66600 44.79200
C  56.86800 26.57800 44.61900
C  59.66900 24.62000 45.59900
C  59.05300 27.73100 43.81100
C  59.41300 29.11300 44.42100
N  53.91100 26.75300 44.21200
C  54.68000 27.80400 44.68500
C  53.75200 28.96300 44.84500
C  52.54000 28.55000 44.30600
C  52.63000 27.23200 43.92600
C  54.04100 30.26600 45.51000
C  51.14400 29.04300 44.02800
O  50.69900 30.16000 44.18900
C  50.39700 27.81200 43.45900
C  49.73300 28.14100 42.15800
O  50.36400 28.52500 41.19900
O  48.37700 28.07400 42.30000
C  47.63600 28.42800 41.05800
H  52.22700 21.15800 42.49900
H  58.33900 22.61100 43.98200
H  56.58900 28.62000 45.23500
H  49.02000 24.93800 42.82500
H  50.17000 22.58100 41.72200
H  50.19900 21.54600 43.97600
H  48.63700 22.36900 43.65500
H  49.86800 23.03500 44.79600
H  49.46100 25.91300 40.71100
H  49.52900 24.23200 40.20900
H  51.67500 24.21500 39.89200
H  52.03100 25.77600 40.76500
H  54.17500 18.96900 41.60900
H  53.06700 19.29400 42.81700
H  54.43800 18.50100 43.35800
H  59.18200 20.42100 44.27000
H  58.74500 21.22000 42.74600
H  59.26400 19.52200 42.78000
H  59.21600 25.04300 43.43200
H  58.63400 27.03400 45.79600
H  59.81200 25.34200 46.40300
H  60.68000 24.41700 45.24700
H  59.18900 23.74000 46.02700
H  58.34400 27.92600 43.00700
H  59.93900 27.32100 43.32400
H  59.59000 28.87500 45.47000
H  58.43300 29.58800 44.38900
H  60.09900 29.77400 43.89100
H  53.33000 30.46800 46.31200
H  54.08700 31.03200 44.73600
H  55.00800 30.15500 46.00200
H  49.66700 27.60000 44.23900
H  47.80400 29.48100 40.83000
H  46.58500 28.14100 41.09500
H  48.10100 27.88100 40.23800
Mg 0.84200 43.05200 25.89000
C  3.19500 43.33000 28.53600
C  -1.39300 42.03500 28.27000
C  -1.13200 42.42000 23.41300
C  3.50800 43.72600 23.61900
N  0.90800 42.92900 28.22800
C  1.93700 43.12000 29.04400
C  1.57800 42.93200 30.55800
C  0.08000 42.56000 30.42800
C  -0.18300 42.41200 28.87800
C  -0.34500 41.32200 31.19900
C  1.80800 44.22700 31.35500
C  1.14200 44.46800 32.72000
H  0.94000 43.11900 33.59000
N  -1.03100 42.39600 25.83100
C  -1.78200 41.93100 26.92900
C  -3.05500 41.34700 26.42100
C  -2.96900 41.43800 24.94500
C  -1.68600 42.12700 24.67200
C  -4.06900 40.74400 27.36100
C  -3.98100 41.02000 23.88100
O  -3.90700 41.27700 22.63100
C  -5.23200 40.21600 24.25800
N  1.19100 42.90000 23.78000
C  0.15000 42.66000 22.96500
C  0.48100 42.72400 21.43900
C  1.92700 43.46100 21.56800
C  2.26400 43.37600 23.07400
C  0.58900 41.33400 20.66400
C  1.86700 44.84900 20.88200
C  1.26200 45.98500 21.65200
N  2.91700 43.53700 25.95100
C  3.89200 43.71000 24.96900
C  5.16600 43.80800 25.62500
C  4.96900 43.63700 26.98900
C  3.61000 43.51300 27.18000
C  6.50300 43.84500 24.83600
C  5.63600 43.49900 28.24000
O  6.86200 43.40800 28.43400
C  4.51600 43.43900 29.36800
C  4.83600 42.30000 30.27100
O  5.21800 41.17300 29.99700
O  4.69800 42.77500 31.56700
C  5.09900 41.95200 32.70300
H  -2.12500 41.64000 28.97700
H  -1.82700 42.24000 22.59100
H  4.37800 44.06200 23.05000
H  2.17700 42.09300 30.91200
H  -0.59700 43.35200 30.74700
H  -1.03000 41.71000 31.95300
H  0.51300 41.01600 31.79800
H  -0.76100 40.54000 30.56300
H  1.50300 45.07000 30.73500
H  2.87400 44.44200 31.42800
H  0.23900 45.04600 32.52400
H  1.69500 45.19600 33.31300
H  -5.08000 40.87600 26.97400
H  -4.03500 41.25600 28.32300
H  -3.93600 39.67000 27.48900
H  -4.94700 39.42200 24.94900
H  -5.46800 39.64100 23.36300
H  -6.01600 40.93400 24.49700
H  -0.31600 43.29000 20.95700
H  2.71800 42.88100 21.09300
H  0.18400 40.55500 21.31100
H  1.59900 41.04200 20.37400
H  0.04700 41.35600 19.71900
H  1.42000 44.78400 19.89000
H  2.89200 45.18900 20.73200
H  0.87000 45.72000 22.63400
H  0.53300 46.38300 20.94600
H  2.04800 46.74000 21.68200
H  6.50000 43.43800 23.82500
H  7.16200 43.17100 25.38400
H  6.89500 44.86200 24.84900
H  4.56500 44.32300 30.00400
H  6.14300 42.18600 32.91600
H  4.87000 40.89100 32.60200
H  4.43000 42.19800 33.52800

