158

Mg 2.38400 -1.23700 44.76100
C  5.54600 0.12300 44.25700
C  1.01400 1.41400 42.89200
C  -0.41100 -2.99000 44.48500
C  4.12400 -4.27000 45.85400
N  3.09800 0.47700 43.66300
C  4.46000 0.88800 43.67300
C  4.64000 2.13600 42.79800
C  3.18400 2.67400 42.52300
C  2.35300 1.44200 43.03900
C  2.82000 4.08300 43.18800
C  5.52900 1.88500 41.49200
C  6.47700 2.96200 41.14700
H  6.19100 3.55600 39.74800
N  0.54200 -0.85500 43.89400
C  0.08700 0.33200 43.27100
C  -1.37500 0.32400 43.23600
C  -1.71200 -0.97300 43.61800
C  -0.55200 -1.66500 44.03400
C  -2.18000 1.51400 42.71500
C  -3.18100 -1.48100 43.60100
O  -4.00800 -0.70300 43.19400
C  -3.62500 -2.76400 44.12300
N  1.97000 -3.39700 44.94400
C  0.66100 -3.76000 44.93700
C  0.47700 -5.15200 45.63900
C  1.89400 -5.65700 45.60800
C  2.76400 -4.36700 45.55200
C  -0.19800 -5.01700 47.05200
C  2.33700 -6.58000 44.42600
C  2.33100 -8.06100 44.68900
N  4.40100 -1.92600 45.19300
C  4.92200 -3.16800 45.52500
C  6.32400 -3.07800 45.70100
C  6.64300 -1.77300 45.24800
C  5.45000 -1.17300 44.83300
C  7.28500 -4.10400 46.19300
C  7.74200 -0.85300 45.08400
O  8.93500 -0.95700 45.28600
C  7.04100 0.41000 44.34600
C  7.32100 1.65700 45.16700
O  6.71000 2.03600 46.15500
O  8.43600 2.31800 44.67700
C  9.04000 3.40000 45.44700
H  0.46300 2.28800 42.53700
H  -1.37400 -3.49300 44.37800
H  4.64500 -5.15500 46.22400
H  5.23000 2.80700 43.42300
H  3.09400 2.69800 41.43700
H  3.64500 4.56000 43.71700
H  1.96600 3.91300 43.84400
H  2.64000 4.79000 42.37800
H  4.81500 1.77300 40.67600
H  6.09400 0.95300 41.46600
H  7.44100 2.48000 40.98800
H  6.57900 3.69000 41.95100
H  -1.86400 1.68000 41.68600
H  -1.75100 2.33900 43.28400
H  -3.27000 1.49500 42.72000
H  -4.70800 -2.66600 44.05400
H  -3.29600 -2.91900 45.15000
H  -3.26500 -3.47400 43.37800
H  -0.12700 -5.72000 44.93200
H  2.17200 -6.23400 46.49000
H  -0.57700 -3.99900 47.14500
H  0.54400 -5.38200 47.76200
H  -1.01400 -5.74000 47.04300
H  3.34200 -6.31200 44.10000
H  1.55700 -6.41200 43.68400
H  1.97900 -8.31600 45.68900
H  3.37500 -8.36600 44.61200
H  1.74300 -8.59200 43.94100
H  8.31000 -3.73400 46.22100
H  7.16000 -4.93000 45.49300
H  7.00900 -4.43000 47.19600
H  7.49500 0.56700 43.36800
H  10.05300 3.01700 45.56700
H  8.57000 3.52500 46.42200
H  9.17900 4.35400 44.93700
Mg 44.75700 4.06700 48.10000
C  42.63100 6.75500 47.76400
C  41.98200 1.91900 47.76400
C  46.81000 1.62800 47.63800
C  47.43800 6.45800 47.78300
N  42.58100 4.28300 47.81700
C  41.98500 5.51000 47.65000
C  40.50000 5.30700 47.26100
C  40.28800 3.80500 47.65900
C  41.67000 3.29800 47.76300
C  39.49500 3.59300 49.01300
C  40.25700 5.53300 45.76900
C  39.08700 6.39200 45.26200
H  39.42500 7.30800 43.95900
N  44.45500 2.03100 47.88000
C  43.24700 1.33300 47.82300
C  43.55700 -0.05500 47.72300
C  44.96700 -0.14400 47.61700
C  45.50300 1.19900 47.68300
C  42.57900 -1.18900 47.49900
C  45.72100 -1.48300 47.35600
O  45.11500 -2.55500 47.47000
C  47.17600 -1.61400 47.19100
N  46.79500 4.09000 47.76400
C  47.43400 2.88400 47.75300
C  48.95000 3.00600 47.65700
C  49.14400 4.55100 47.67600
C  47.72600 5.09700 47.79200
C  49.84200 2.28400 48.69400
C  49.90100 5.01300 46.40500
C  49.25700 5.24900 45.03800
N  45.06500 6.23000 47.95200
C  46.16100 7.03800 47.84600
C  45.72200 8.45900 47.64600
C  44.33600 8.33400 47.72200
C  43.98700 7.03800 47.91700
C  46.56600 9.66500 47.47100
C  43.10600 9.12600 47.74000
O  42.94800 10.33300 47.71800
C  41.93600 8.12600 47.61100
C  40.99000 8.47600 48.67000
O  40.95300 7.94800 49.78800
O  40.04400 9.35200 48.22200
C  39.01700 9.94900 49.14300
H  41.20100 1.16100 47.67200
H  47.54700 0.83700 47.48700
H  48.27300 7.15900 47.71800
H  39.89900 6.02000 47.82600
H  39.76200 3.32300 46.83500
H  40.19800 3.32800 49.80200
H  38.85800 2.70900 48.99700
H  38.92100 4.50400 49.18500
H  40.06000 4.57000 45.29800
H  41.11800 5.89100 45.20400
H  38.58800 6.89800 46.08900
H  38.23900 5.82100 44.88300
H  42.80100 -1.53300 46.48800
H  41.55900 -0.86000 47.69300
H  42.99100 -2.02300 48.06800
H  47.80100 -1.45400 48.06900
H  47.44200 -0.87200 46.43800
H  47.46600 -2.59900 46.82500
H  49.22000 2.54300 46.70800
H  49.75100 5.03200 48.44300
H  50.68500 2.91100 48.98500
H  50.25600 1.32700 48.37400
H  49.14900 2.06000 49.50500
H  50.54600 4.18600 46.10800
H  50.52900 5.85900 46.68400
H  49.86300 4.77200 44.26800
H  49.08200 6.30800 44.85200
H  48.31800 4.69600 45.08300
H  47.09300 9.83400 48.41100
H  46.13700 10.63300 47.21400
H  47.41600 9.54100 46.79900
H  41.44100 8.48500 46.70800
H  38.64300 10.88300 48.72400
H  39.43100 10.13700 50.13400
H  38.22000 9.21700 49.27500

