158

Mg 35.19900 2.01800 29.17900
C  32.63900 2.80000 31.43600
C  37.38600 1.95200 31.76000
C  37.53300 1.00200 26.97800
C  32.78700 2.27500 26.60400
N  35.03100 2.44300 31.38200
C  33.90500 2.66200 32.09100
C  34.19700 2.69900 33.61200
C  35.76200 2.72200 33.70000
C  36.14400 2.37100 32.18800
C  36.43400 4.00900 34.17000
C  33.58700 1.53000 34.53300
C  33.32900 1.73900 36.02900
H  34.01900 2.92900 36.69800
N  37.18300 1.49900 29.32000
C  37.94600 1.53500 30.51700
C  39.24900 1.06200 30.22500
C  39.37300 0.75500 28.87200
C  37.97900 1.01700 28.30600
C  40.24700 1.10600 31.37600
C  40.53000 0.19100 28.08500
O  40.34100 -0.16300 26.92800
C  41.75700 -0.12700 28.76000
N  35.20600 1.79800 27.10400
C  36.26200 1.29200 26.44400
C  35.92900 1.20800 24.89700
C  34.48600 1.65200 24.79500
C  34.12100 1.88500 26.24600
C  36.92600 1.97500 24.02100
C  33.49500 0.77700 23.96500
C  32.90600 -0.43600 24.76400
N  33.21200 2.50700 29.04500
C  32.35900 2.50700 27.94000
C  31.13200 3.06700 28.32400
C  31.17400 3.13500 29.68700
C  32.43800 2.76700 30.06800
C  30.01700 3.43000 27.38500
C  30.41000 3.36300 30.82800
O  29.17800 3.58400 30.92700
C  31.29400 3.16800 32.00300
C  31.40200 4.44000 32.82700
O  32.07200 5.45600 32.51700
O  30.58500 4.20500 33.94500
C  30.56600 5.22300 34.98600
H  38.08500 2.00800 32.59600
H  38.35400 0.66100 26.34300
H  32.07600 2.42400 25.78900
H  33.85800 3.65800 34.00300
H  36.21900 1.92100 34.28200
H  37.06500 3.81500 35.03700
H  35.69000 4.77400 34.39400
H  37.06000 4.43500 33.38600
H  34.24400 0.69300 34.29800
H  32.56300 1.32000 34.22500
H  33.73000 0.78300 36.36400
H  32.28000 1.64700 36.31300
H  39.86800 0.49700 32.19600
H  40.20900 2.14900 31.68900
H  41.29100 0.89500 31.14300
H  41.53000 -0.62100 29.70500
H  42.23500 0.82500 28.99100
H  42.47300 -0.65800 28.13200
H  36.07300 0.12800 24.88200
H  34.48400 2.62100 24.29600
H  36.48800 2.43700 23.13600
H  37.72600 1.26000 23.82900
H  37.45800 2.73300 24.59500
H  34.09000 0.36700 23.15000
H  32.78500 1.53600 23.63600
H  31.83600 -0.23600 24.81900
H  33.44000 -0.59800 25.70100
H  33.01600 -1.42200 24.31300
H  30.40700 3.94600 26.50700
H  29.24100 4.02200 27.87000
H  29.60600 2.50000 26.99300
H  30.72600 2.44100 32.58300
H  29.60000 5.70200 35.14500
H  31.37000 5.95300 34.89300
H  30.69600 4.58200 35.85700
Mg 46.67000 24.77100 28.28400
C  47.55700 27.11600 30.87200
C  45.24200 22.85000 30.71500
C  46.64900 22.23500 25.94200
C  48.42800 26.73000 26.03200
N  46.49600 24.92500 30.56100
C  46.90500 25.99300 31.34600
C  46.38800 25.89100 32.75400
C  45.79300 24.36200 32.76700
C  45.84000 23.97400 31.25800
C  46.52400 23.27500 33.69600
C  45.39800 26.98600 33.08900
C  45.28200 27.23800 34.67100
H  43.92500 27.80400 35.20800
N  46.02300 22.85900 28.24800
C  45.38800 22.26200 29.38000
C  44.80000 20.98600 28.89600
C  45.14100 20.82600 27.53000
C  45.98300 22.00000 27.17500
C  44.13700 20.12100 29.91900
C  44.82200 19.72300 26.61300
O  45.09800 19.70900 25.36400
C  44.18600 18.41300 27.25200
N  47.60400 24.42700 26.37800
C  47.39700 23.34700 25.56800
C  48.29500 23.49500 24.31000
C  48.26600 25.06000 24.16700
C  48.10800 25.44300 25.59700
C  49.71500 22.89500 24.50300
C  47.16200 25.49700 23.23700
C  47.62800 26.22500 21.95600
N  47.70900 26.57600 28.35500
C  48.25300 27.26100 27.28200
C  48.63000 28.60200 27.77000
C  48.39500 28.53500 29.13600
C  47.86200 27.30600 29.49300
C  49.40200 29.62700 27.04800
C  48.64800 29.23600 30.38700
O  49.18600 30.35600 30.53700
C  48.06500 28.38200 31.54700
C  49.09600 28.23000 32.66500
O  50.13400 27.60700 32.52200
O  48.68700 28.76800 33.88500
C  49.47300 28.43500 35.08800
H  44.66100 22.48300 31.56400
H  46.63300 21.46100 25.17200
H  48.91500 27.37100 25.29400
H  47.22100 25.89600 33.45700
H  44.77400 24.45000 33.14300
H  46.70100 22.36000 33.13000
H  46.03900 23.08000 34.65200
H  47.46700 23.72500 34.00500
H  44.38300 26.72800 32.78800
H  45.51200 27.92200 32.54100
H  46.06200 27.93300 34.98200
H  45.56300 26.33200 35.20900
H  43.27000 19.53500 29.61500
H  43.64200 20.71600 30.68600
H  44.87800 19.59400 30.52100
H  43.12900 18.50000 27.50300
H  44.84200 18.18500 28.09200
H  44.26800 17.54300 26.60100
H  47.81400 23.02700 23.45100
H  49.24600 25.37600 23.81100
H  49.64300 22.33300 25.43400
H  50.53700 23.60700 24.57700
H  50.01800 22.12400 23.79400
H  46.59600 26.29100 23.72600
H  46.60000 24.58400 23.04100
H  47.33300 27.27200 22.01800
H  47.07100 25.76900 21.13700
H  48.70600 26.21800 21.79600
H  49.73900 30.37700 27.76300
H  48.70400 30.13800 26.38400
H  50.29300 29.20900 26.57900
H  47.30800 28.86200 32.16800
H  49.57500 29.29000 35.75600
H  50.48100 28.08000 34.87000
H  49.04300 27.64400 35.70200

