158

Mg 24.02900 -6.86500 45.47500
C  26.15900 -4.66400 43.86400
C  21.41400 -5.47800 43.41600
C  22.23200 -9.73500 45.82400
C  26.77800 -8.62700 46.80600
N  23.86600 -5.18000 43.81400
C  24.90700 -4.30100 43.48400
C  24.47200 -3.19500 42.47600
C  22.82200 -3.32000 42.69200
C  22.65600 -4.75600 43.28700
C  22.25400 -2.16700 43.57500
C  24.94500 -3.45300 40.98200
C  25.49900 -2.21600 40.18400
H  24.94500 -1.89300 38.79100
N  22.01100 -7.41500 44.89800
C  21.04900 -6.68900 44.10300
C  19.83300 -7.44800 44.03700
C  20.07400 -8.68500 44.71400
C  21.49700 -8.69100 45.15900
C  18.58800 -6.96900 43.37800
C  18.92700 -9.67700 44.86900
O  17.80200 -9.41400 44.44400
C  19.01600 -10.95700 45.74000
N  24.48100 -9.03600 46.00200
C  23.51900 -9.87800 46.31400
C  24.07300 -11.17200 46.91600
C  25.60100 -10.81500 47.35800
C  25.64300 -9.45700 46.59800
C  23.23900 -11.91600 48.02900
C  26.67200 -11.80100 46.85600
C  27.45400 -12.62100 47.93600
N  26.01400 -6.62600 45.54500
C  27.01500 -7.35600 46.12200
C  28.23500 -6.64200 45.93900
C  28.00800 -5.65600 44.99900
C  26.59900 -5.71800 44.71700
C  29.58000 -6.90100 46.61500
C  28.61000 -4.55500 44.26400
O  29.76900 -4.19500 44.32400
C  27.43200 -3.99300 43.29300
C  27.38700 -2.55500 43.41200
O  27.62000 -1.77400 42.46400
O  26.88100 -2.14900 44.63900
C  26.89100 -0.67700 44.83300
H  20.70600 -4.85100 42.86900
H  21.69300 -10.68000 45.91100
H  27.63900 -9.01000 47.35800
H  24.79800 -2.26400 42.93900
H  22.34300 -3.17100 41.72400
H  21.53800 -1.56900 43.01100
H  22.98400 -1.51900 44.06000
H  21.68800 -2.45000 44.46200
H  24.03700 -3.81300 40.49800
H  25.73200 -4.20300 40.89900
H  26.57800 -2.33500 40.08200
H  25.43900 -1.38400 40.88500
H  18.21700 -7.56100 42.54100
H  18.76400 -5.97000 42.97700
H  17.70700 -6.88200 44.01400
H  19.33600 -10.56900 46.70700
H  19.63400 -11.68800 45.21800
H  18.03800 -11.41400 45.89300
H  24.02100 -11.88200 46.09000
H  25.50500 -10.57500 48.41700
H  22.35100 -11.31000 48.21300
H  23.77300 -11.84500 48.97700
H  22.98900 -12.95700 47.82500
H  27.45100 -11.23000 46.35200
H  26.16200 -12.40100 46.10200
H  27.00200 -12.45400 48.91400
H  28.52900 -12.46000 47.84900
H  27.26900 -13.69200 47.85600
H  29.41000 -7.19700 47.65000
H  30.15900 -5.98500 46.73000
H  30.16500 -7.66300 46.09800
H  27.53700 -4.26600 42.24300
H  27.90000 -0.28200 44.70900
H  26.61400 -0.48300 45.87000
H  26.27600 -0.16300 44.09400
Mg 45.00000 2.97000 46.56500
C  42.67500 5.66500 46.15500
C  42.49900 0.82000 45.98200
C  47.30500 0.64700 46.78100
C  47.55600 5.45500 46.26800
N  42.77000 3.22300 46.10000
C  42.07000 4.37900 45.94300
C  40.59000 4.12900 45.65700
C  40.48400 2.58200 45.83300
C  42.01800 2.13900 45.80100
C  39.76400 2.19800 47.21900
C  40.29000 4.59300 44.12100
C  38.98500 5.26700 43.94900
H  38.15700 4.94900 42.65400
N  44.95700 0.92700 46.43400
C  43.81900 0.21000 46.20700
C  44.10900 -1.23100 46.13400
C  45.55100 -1.29400 46.46600
C  46.01500 0.07600 46.65400
C  43.15500 -2.28700 45.70600
C  46.31800 -2.59400 46.70200
O  45.85600 -3.63600 46.48700
C  47.71600 -2.57200 47.21200
N  47.04500 3.00500 46.21100
C  47.74300 1.95200 46.72800
C  49.23000 2.27300 46.83800
C  49.41300 3.63000 46.09500
C  47.91700 4.10500 46.09500
C  49.71800 2.27800 48.35000
C  49.96900 3.46800 44.65500
C  51.47200 3.05900 44.44100
N  45.15500 5.10400 46.44000
C  46.24000 5.96200 46.44000
C  45.86200 7.32000 46.40300
C  44.44100 7.26700 46.33800
C  44.08600 5.88700 46.38000
C  46.74600 8.51300 46.35100
C  43.19100 8.02400 46.32600
O  43.00400 9.21500 46.43400
C  41.93700 7.01200 46.22300
C  41.14900 7.06100 47.50400
O  41.28000 6.28900 48.41400
O  40.07800 7.93500 47.45900
C  39.16100 7.76000 48.61700
H  41.70300 0.07400 45.93400
H  48.13000 -0.03900 46.98600
H  48.38600 6.16300 46.31600
H  39.96300 4.66400 46.37000
H  39.93800 2.15000 44.99500
H  38.91400 1.55600 46.98900
H  39.40500 3.12300 47.67000
H  40.49400 1.76400 47.90300
H  40.37300 3.77000 43.41200
H  41.06900 5.32400 43.90300
H  39.21900 6.33100 43.92200
H  38.30000 5.10500 44.78100
H  43.67500 -3.06200 45.14200
H  42.51700 -1.80300 44.96600
H  42.58100 -2.75100 46.50700
H  48.25200 -2.31600 46.29800
H  48.17600 -3.51800 47.49600
H  47.70800 -1.84300 48.02300
H  49.70500 1.46200 46.28500
H  49.99600 4.34000 46.68100
H  50.46500 3.02900 48.60600
H  50.04700 1.29600 48.69300
H  48.76600 2.49900 48.83100
H  49.61500 4.39700 44.20900
H  49.40500 2.65400 44.19900
H  52.17200 3.87600 44.26400
H  51.52200 2.29400 43.66700
H  51.76300 2.71900 45.43600
H  46.55200 9.20800 47.16800
H  46.45100 9.08200 45.47000
H  47.81900 8.31900 46.32400
H  41.21300 7.28900 45.45700
H  39.30800 8.41800 49.47400
H  39.10400 6.79000 49.11100
H  38.12900 7.99200 48.35300

