158

Mg 9.23800 4.28000 27.70000
C  10.51600 2.68000 30.56700
C  7.46600 6.34000 29.81800
C  7.54100 5.38100 25.09400
C  11.03300 2.08400 25.70200
N  9.22700 4.63100 29.98200
C  9.73400 3.76200 30.88200
C  9.31300 4.19100 32.31000
C  8.28300 5.35200 32.04900
C  8.30500 5.47500 30.53800
C  6.86500 5.23600 32.61800
C  10.57500 4.34400 33.24300
C  10.59500 5.53600 34.17100
H  11.54100 5.51000 35.32400
N  7.77200 5.74300 27.47600
C  7.17500 6.49300 28.43300
C  6.27500 7.47000 27.81500
C  6.28800 7.24700 26.39900
C  7.21100 6.04100 26.28900
C  5.51200 8.54200 28.67600
C  5.65200 8.12900 25.26200
O  5.82000 7.87800 24.08100
C  4.77500 9.24200 25.67600
N  9.18600 3.75300 25.69500
C  8.34800 4.35500 24.83600
C  8.63700 3.83000 23.44200
C  9.93500 2.98000 23.61500
C  10.13200 2.96900 25.11900
C  7.44100 3.09800 22.81000
C  11.21600 3.39000 22.85100
C  11.88400 2.20300 22.07600
N  10.45800 2.64600 27.98900
C  11.20000 1.84900 27.09900
C  11.93800 0.89600 27.77600
C  11.68600 1.14900 29.12800
C  10.81200 2.25300 29.21900
C  12.62800 -0.33300 27.16800
C  11.91700 0.62300 30.46500
O  12.53800 -0.31900 30.88600
C  11.23100 1.63400 31.46800
C  10.41500 0.89900 32.52700
O  9.25300 0.55000 32.33300
O  11.13700 0.93500 33.73100
C  10.47600 0.47800 34.95100
H  6.95700 7.03700 30.48700
H  7.18000 5.88300 24.19400
H  11.58600 1.36400 25.09600
H  8.88700 3.28600 32.74300
H  8.70800 6.27700 32.43800
H  6.54800 6.13800 33.14100
H  6.79400 4.36200 33.26700
H  6.07500 5.22800 31.86700
H  11.49000 4.44500 32.66000
H  10.61000 3.54300 33.98100
H  9.61300 5.52400 34.64300
H  10.77200 6.48900 33.67300
H  5.49400 9.51600 28.18800
H  5.92500 8.67300 29.67700
H  4.49400 8.20600 28.87300
H  4.18000 9.60300 24.83700
H  5.33300 10.09100 26.07000
H  4.15900 8.90600 26.51000
H  8.90000 4.72500 22.87800
H  9.72500 1.95000 23.32700
H  6.61200 3.07900 23.51700
H  7.80000 2.09800 22.56800
H  7.18800 3.66500 21.91400
H  12.03800 3.88300 23.36900
H  10.90000 4.09800 22.08600
H  11.54800 2.32900 21.04600
H  11.47300 1.24500 22.39400
H  12.97000 2.13400 22.13900
H  13.66800 -0.07900 26.96500
H  12.15100 -0.83200 26.32400
H  12.65800 -1.03600 28.00000
H  11.96100 2.12800 32.10900
H  10.68200 1.29200 35.64600
H  10.88800 -0.48000 35.26700
H  9.39400 0.43400 34.83100
Mg 36.82000 48.12900 24.58300
C  37.02000 46.14800 27.47600
C  35.69300 50.80500 26.48000
C  36.45400 49.86300 21.82600
C  37.80900 45.30600 22.67400
N  36.40400 48.39300 26.66800
C  36.65400 47.52600 27.69600
C  36.34000 48.13300 29.09600
C  35.85600 49.57500 28.70500
C  36.02000 49.63100 27.18800
C  34.41700 49.76900 29.16200
C  37.48700 48.13700 30.11600
C  37.09500 47.65900 31.53900
H  35.63700 47.73500 32.04400
N  36.23200 50.09600 24.19800
C  35.70500 51.04300 25.11400
C  35.36100 52.27200 24.43400
C  35.50600 52.01700 23.00200
C  36.11200 50.61000 22.92800
C  34.88900 53.51400 25.08800
C  35.28600 53.01300 21.92500
O  35.54600 52.75500 20.77900
C  34.92800 54.42100 22.14400
N  36.84100 47.56400 22.46900
C  36.83600 48.54100 21.50400
C  37.09200 47.95600 20.07100
C  37.68200 46.51900 20.48300
C  37.46800 46.44500 21.98100
C  35.90800 48.01300 19.10800
C  39.07000 46.22500 19.97400
C  40.14400 46.94700 20.75500
N  37.36300 46.19200 24.99100
C  37.75800 45.14200 24.07900
C  38.07000 43.96100 24.90300
C  37.75400 44.28400 26.25000
C  37.33500 45.67500 26.20000
C  38.48600 42.59800 24.33300
C  37.60900 43.83100 27.62500
O  37.71600 42.67200 28.05400
C  37.14800 45.05300 28.51200
C  35.77900 44.63800 29.10500
O  34.70800 44.62300 28.51600
O  35.96000 44.17200 30.40900
C  34.92200 43.33100 30.91500
H  35.23600 51.56400 27.11800
H  36.38200 50.55000 20.98000
H  38.10700 44.41500 22.11600
H  35.54900 47.50000 29.49800
H  36.57500 50.34500 28.98400
H  34.05300 49.34500 30.09800
H  33.88900 49.41700 28.27600
H  34.26300 50.84700 29.11800
H  37.96700 49.11300 30.18600
H  38.28500 47.47000 29.79100
H  37.72000 48.14700 32.28700
H  37.45000 46.63200 31.61600
H  35.63700 54.30600 25.14500
H  34.60800 53.26500 26.11200
H  33.96600 53.95700 24.71500
H  33.90500 54.53200 22.50400
H  35.04200 54.94400 21.19500
H  35.60700 54.80200 22.90700
H  37.96800 48.50300 19.72100
H  36.98400 45.77400 20.10000
H  34.99400 48.19000 19.67600
H  35.93400 47.07000 18.56300
H  36.04200 48.83900 18.41000
H  39.13200 46.48600 18.91800
H  39.22200 45.14900 20.06700
H  40.96300 47.26100 20.10700
H  40.64900 46.30000 21.47300
H  39.82700 47.82400 21.31800
H  38.57400 42.58700 23.24700
H  37.73500 41.87000 24.63800
H  39.36700 42.30800 24.90700
H  37.89100 45.27500 29.27800
H  34.58000 42.65300 30.13400
H  34.22500 43.96500 31.46300
H  35.44300 42.76500 31.68700

