158

Mg 48.27600 25.21700 28.30300
C  49.21300 27.45100 30.86800
C  47.55600 22.93700 30.66500
C  47.62600 23.13100 25.76800
C  49.18900 27.79300 25.90900
N  48.50800 25.22900 30.57900
C  48.69500 26.27600 31.39500
C  48.40200 25.92700 32.85800
C  47.97700 24.45100 32.75600
C  48.02400 24.14100 31.24000
C  48.99200 23.49000 33.56900
C  47.42500 26.96100 33.43000
C  47.86200 27.60100 34.76900
H  47.04100 27.54500 35.99900
N  47.65400 23.30500 28.22500
C  47.34400 22.55000 29.32100
C  46.75900 21.28100 28.88800
C  46.88200 21.23600 27.45900
C  47.45400 22.61500 27.13900
C  46.28600 20.24300 29.75400
C  46.56400 20.10200 26.45300
O  46.68700 20.23200 25.29400
C  45.92400 18.86400 26.98000
N  48.43800 25.42400 26.17500
C  48.00400 24.37900 25.30500
C  48.13700 24.81900 23.84400
C  48.41100 26.38500 23.93600
C  48.68000 26.58800 25.43800
C  49.22800 23.97900 23.07000
C  47.30700 27.18300 23.42200
C  46.00600 27.25000 24.28200
N  49.22600 27.07300 28.34000
C  49.50700 28.01600 27.30600
C  50.05900 29.21700 27.86900
C  49.91900 29.05800 29.23900
C  49.42500 27.73800 29.49600
C  50.57600 30.43600 27.16100
C  50.06500 29.72000 30.51300
O  50.50800 30.84000 30.76600
C  49.68400 28.73000 31.57900
C  50.87300 28.36600 32.49600
O  51.54200 27.37400 32.36300
O  50.85800 29.16600 33.58400
C  51.91300 29.01200 34.61200
H  47.36400 22.33200 31.55300
H  47.33400 22.49400 24.93000
H  49.34200 28.51100 25.10000
H  49.36200 26.06100 33.35700
H  46.93200 24.36400 33.05300
H  49.81300 23.03700 33.01300
H  48.53500 22.59500 33.99200
H  49.26700 24.04700 34.46400
H  46.47700 26.42400 33.46200
H  47.19800 27.82000 32.79900
H  47.91700 28.64200 34.44900
H  48.84400 27.21800 35.04700
H  46.87900 19.33000 29.80300
H  45.24500 20.07600 29.47500
H  46.32100 20.66500 30.75800
H  46.64000 18.09600 27.27300
H  45.39400 18.42800 26.13300
H  45.12400 18.98200 27.71100
H  47.10400 24.60500 23.56900
H  49.37100 26.64300 23.48900
H  50.07100 24.59800 22.76200
H  48.79400 23.63000 22.13300
H  49.63000 23.17500 23.68700
H  47.01200 26.71500 22.48200
H  47.63900 28.21900 23.35600
H  46.19800 27.16300 25.35100
H  45.32000 26.47700 23.93600
H  45.55000 28.21300 24.05300
H  50.06300 30.56400 26.20800
H  51.63700 30.29000 26.95700
H  50.35800 31.34900 27.71500
H  48.79400 29.04100 32.12600
H  52.63700 28.26900 34.27700
H  51.49600 28.70000 35.57000
H  52.22300 30.03000 34.84700
Mg -6.12500 24.70900 26.94100
C  -4.94500 26.68300 29.74000
C  -8.01000 22.97800 29.01000
C  -6.96700 22.99100 24.20000
C  -3.95400 26.85700 24.90200
N  -6.24300 24.74800 29.15900
C  -5.78200 25.60500 30.06700
C  -6.39200 25.33100 31.46700
C  -7.27200 24.08800 31.18000
C  -7.22200 23.91100 29.72300
C  -6.76700 22.83300 31.97100
C  -7.15000 26.51600 32.19200
C  -7.12600 26.73000 33.76200
H  -6.66600 25.51100 34.54500
N  -7.37600 23.19200 26.62400
C  -8.03800 22.58200 27.64600
C  -8.96500 21.64500 27.01700
C  -8.67000 21.57400 25.57500
C  -7.65800 22.60900 25.40900
C  -9.96600 20.98000 27.83600
C  -9.29700 20.73700 24.51200
O  -9.12100 20.95200 23.31900
C  -10.18200 19.53200 24.80600
N  -5.48400 24.91300 24.85300
C  -5.93200 23.95300 24.01100
C  -5.30300 24.15600 22.60500
C  -4.39800 25.39300 22.76300
C  -4.54700 25.70000 24.26000
C  -4.50900 22.87700 22.08000
C  -4.74400 26.58900 21.82400
C  -6.16200 27.18300 21.97900
N  -4.79000 26.46300 27.14600
C  -4.03200 27.19000 26.28000
C  -3.44300 28.37500 26.94800
C  -3.68300 28.13700 28.28800
C  -4.48800 26.97900 28.38200
C  -2.66200 29.42200 26.22900
C  -3.52700 28.68500 29.59100
O  -2.90500 29.64500 29.94900
C  -4.24400 27.75500 30.51600
C  -3.44300 27.27500 31.63200
O  -2.52900 26.50900 31.54800
O  -3.82200 27.92500 32.80800
C  -3.03300 27.59100 34.01800
H  -8.72800 22.40400 29.59900
H  -7.10000 22.30500 23.36100
H  -3.31300 27.48200 24.27600
H  -5.52400 25.12100 32.09100
H  -8.27100 24.39100 31.49200
H  -7.05000 21.90400 31.47500
H  -7.39800 22.78600 32.85900
H  -5.77300 22.87400 32.41600
H  -8.18200 26.53900 31.84300
H  -6.69300 27.45100 31.86700
H  -8.08900 27.12800 34.08200
H  -6.46900 27.57200 33.97800
H  -10.47100 20.17100 27.30900
H  -10.79700 21.60700 28.15900
H  -9.57300 20.37000 28.65000
H  -9.85000 18.91200 25.63900
H  -10.29600 18.91500 23.91500
H  -11.12100 19.91400 25.20700
H  -6.05400 24.30000 21.82800
H  -3.35500 25.11900 22.60500
H  -3.53800 23.12600 21.65200
H  -5.21300 22.28900 21.49200
H  -4.32300 22.17100 22.88900
H  -4.72000 26.28200 20.77800
H  -3.99000 27.33400 22.07800
H  -6.69200 26.71800 22.81100
H  -6.62100 26.99300 21.00900
H  -5.98600 28.25400 22.07300
H  -3.34100 29.96000 25.56800
H  -1.76800 29.00500 25.76600
H  -2.27800 30.04800 27.03500
H  -5.07500 28.32300 30.93500
H  -3.04500 26.51400 34.18500
H  -3.58000 28.05500 34.83900
H  -2.00500 27.94400 33.94300

