158

Mg 40.39600 9.88000 29.80300
C  42.67300 10.75700 32.34600
C  38.26700 8.67200 32.21400
C  38.46700 8.84100 27.43700
C  42.70900 10.95200 27.36300
N  40.55300 9.63200 32.02200
C  41.48800 10.17000 32.86100
C  41.13800 10.01400 34.37000
C  39.71600 9.25800 34.31000
C  39.46000 9.21700 32.81000
C  39.69800 7.90400 35.03600
C  41.02200 11.37900 35.14000
C  40.19600 11.40800 36.47500
H  40.71700 12.17500 37.63600
N  38.55500 8.89200 29.83600
C  37.84700 8.41700 30.90100
C  36.61200 7.80600 30.41900
C  36.62500 7.95200 29.00700
C  37.92500 8.55700 28.64500
C  35.65000 7.12000 31.40800
C  35.57500 7.58100 28.07400
O  35.69300 7.82900 26.90200
C  34.26500 7.08300 28.59100
N  40.67000 9.71100 27.72100
C  39.73000 9.20300 26.99200
C  39.88600 9.37600 25.53600
C  41.21400 10.09600 25.42000
C  41.59300 10.26200 26.93700
C  39.82600 7.96300 24.82300
C  41.15600 11.50100 24.60300
C  40.79400 12.79500 25.24800
N  42.32300 10.54000 29.82500
C  43.07800 11.05900 28.73600
C  44.28700 11.70700 29.26200
C  44.14400 11.56600 30.70700
C  42.99900 10.87700 30.97600
C  45.30500 12.45500 28.47000
C  44.78400 11.96400 31.98600
O  45.78800 12.63400 32.20400
C  43.73500 11.45200 33.13400
C  44.46800 10.53800 34.06700
O  45.26100 9.64900 33.70500
O  43.99700 10.80100 35.34600
C  44.37700 9.84100 36.38500
H  37.60100 8.32400 33.00600
H  37.84900 8.56600 26.57900
H  43.44200 11.42300 26.70400
H  41.96200 9.44400 34.80000
H  38.87300 9.89000 34.59000
H  39.39500 7.05300 34.42600
H  38.83000 7.79100 35.68500
H  40.61000 7.60500 35.55200
H  40.43900 12.02200 34.48100
H  42.00600 11.81200 35.31800
H  40.16200 10.38300 36.84400
H  39.16300 11.68400 36.26200
H  34.67100 7.59900 31.43300
H  36.13100 7.01400 32.38100
H  35.42000 6.12900 31.01500
H  34.49700 6.11100 29.02600
H  33.61500 6.86200 27.74500
H  33.77900 7.64300 29.39100
H  39.24300 10.17100 25.15800
H  42.02300 9.53500 24.95300
H  39.84100 7.25700 25.65400
H  40.69000 7.94900 24.15900
H  38.88500 7.78300 24.30400
H  40.50900 11.38800 23.73300
H  42.14800 11.56700 24.15800
H  41.59100 13.47800 24.95600
H  40.74900 12.63600 26.32600
H  39.81000 13.13500 24.92500
H  44.90100 12.88800 27.55500
H  46.06600 11.72600 28.19300
H  45.70200 13.22600 29.13000
H  43.52400 12.35900 33.69900
H  45.37000 10.03700 36.79100
H  44.28700 8.82100 36.01100
H  43.63100 10.03400 37.15500
Mg 36.80900 50.20500 26.78400
C  37.22800 47.80800 29.22200
C  35.72600 52.37500 29.11000
C  36.27700 52.55300 24.30300
C  37.75300 47.93300 24.37600
N  36.21100 49.96100 28.86300
C  36.52500 48.89800 29.69200
C  36.18100 49.30000 31.16500
C  35.43800 50.70600 31.00700
C  35.90000 51.02800 29.58000
C  33.86800 50.74700 31.18800
C  37.51300 49.36600 32.08200
C  37.35500 48.96900 33.53200
H  35.95500 49.01900 34.16100
N  36.21700 52.28800 26.73400
C  35.82200 52.92400 27.81300
C  35.62100 54.35000 27.46400
C  35.67400 54.36300 26.02400
C  36.01400 53.02100 25.63200
C  35.29100 55.38800 28.54900
C  35.33000 55.46600 25.05600
O  35.17300 55.25800 23.88100
C  35.15700 56.81800 25.63300
N  36.88700 50.12800 24.70500
C  36.70600 51.29500 23.93700
C  36.98000 50.96000 22.40000
C  37.70200 49.57900 22.53900
C  37.42100 49.21700 23.90100
C  35.65400 50.85400 21.52000
C  39.19600 49.64900 22.08900
C  40.20600 49.75900 23.24600
N  37.35300 48.28700 26.72900
C  37.69700 47.44100 25.70000
C  38.15200 46.20900 26.19800
C  37.99500 46.28700 27.57800
C  37.45400 47.52700 27.87900
C  38.80900 45.07600 25.47200
C  38.27700 45.62900 28.86300
O  38.80400 44.52700 29.03300
C  37.69700 46.57700 29.98900
C  36.62400 45.93000 30.75100
O  35.52700 45.51500 30.34200
O  37.08900 45.77400 32.06300
C  36.03500 45.25800 32.94700
H  35.37700 53.03100 29.91000
H  35.95100 53.24900 23.52700
H  38.17100 47.20300 23.68000
H  35.52700 48.55100 31.60900
H  35.82100 51.42000 31.73600
H  33.37100 50.79100 30.21900
H  33.54300 51.55800 31.84100
H  33.60500 49.76400 31.57900
H  37.91200 50.37900 32.03900
H  38.21500 48.68800 31.59600
H  38.03500 49.52200 34.18100
H  37.62500 47.91500 33.58700
H  36.21800 55.94600 28.41400
H  35.20000 55.01900 29.57000
H  34.41400 55.88900 28.13900
H  34.21300 56.95100 26.16200
H  35.38500 57.61000 24.91900
H  35.93600 56.84900 26.39500
H  37.64400 51.72200 21.99100
H  37.11500 48.80100 22.05200
H  34.84400 51.19900 22.16300
H  35.44700 49.87700 21.08300
H  35.74500 51.40900 20.58600
H  39.38300 50.54800 21.50100
H  39.34800 48.83500 21.38000
H  40.72900 50.71600 23.27200
H  40.91900 48.96500 23.02300
H  39.90600 49.54300 24.27100
H  39.41800 45.47900 24.66300
H  38.07800 44.36000 25.09400
H  39.53600 44.58300 26.11700
H  38.58700 46.72400 30.60100
H  35.22500 45.97100 32.78900
H  36.45000 45.23700 33.95400
H  35.66700 44.24500 32.78600

