158

Mg 42.98500 41.64900 25.81300
C  42.24900 43.84900 28.32600
C  44.20300 39.51700 28.01800
C  43.89000 39.82700 23.10800
C  41.87500 44.17300 23.39300
N  43.28600 41.75100 27.92000
C  42.86500 42.70400 28.79400
C  42.92600 42.24800 30.25600
C  43.71700 40.85700 30.13600
C  43.75600 40.72000 28.59200
C  45.07600 40.79400 30.92800
C  41.52300 42.15800 30.90000
C  41.51700 41.54700 32.29600
H  41.00500 42.28100 33.55700
N  43.91400 39.91800 25.63200
C  44.27100 39.15900 26.67200
C  44.70400 37.83000 26.15800
C  44.56300 37.92100 24.75200
C  44.10500 39.29600 24.41000
C  45.10400 36.78400 27.10200
C  44.76900 36.77600 23.76700
O  44.58600 36.96600 22.56100
C  45.20800 35.43100 24.25800
N  42.81800 42.01700 23.54200
C  43.39200 41.04600 22.70200
C  43.33100 41.53000 21.21400
C  42.47100 42.85700 21.36200
C  42.37300 43.03300 22.87600
C  44.77500 41.81000 20.57300
C  41.02000 42.72500 20.72600
C  40.08200 41.69900 21.48200
N  42.29600 43.65500 25.80600
C  41.79200 44.49600 24.78900
C  41.32100 45.73700 25.38900
C  41.44900 45.56100 26.80400
C  42.03300 44.26600 26.97000
C  40.80900 46.90500 24.60600
C  41.25900 46.10700 28.09200
O  40.84600 47.21500 28.40700
C  41.85200 45.04800 29.15300
C  42.88600 45.64900 29.94200
O  43.89400 46.23100 29.57300
O  42.52100 45.37600 31.26700
C  43.50500 45.82200 32.35000
H  44.47700 38.77200 28.76700
H  44.13700 39.18600 22.25900
H  41.52200 44.98100 22.74800
H  43.52600 42.94700 30.83800
H  43.10700 40.03400 30.50800
H  45.28300 41.72600 31.45400
H  45.83600 40.52800 30.19400
H  44.97200 40.01800 31.68600
H  40.83600 41.60200 30.26200
H  41.08600 43.11700 31.18100
H  42.50500 41.14300 32.51700
H  40.88900 40.65700 32.28200
H  45.30000 37.12400 28.11900
H  46.05700 36.37700 26.76400
H  44.48100 35.89000 27.06600
H  44.44500 34.95000 24.87000
H  46.14400 35.60200 24.78800
H  45.33100 34.78100 23.39100
H  42.90600 40.78800 20.53800
H  42.97100 43.76400 21.02000
H  44.98000 42.88100 20.55600
H  44.81700 41.32900 19.59600
H  45.51700 41.32700 21.20900
H  41.14100 42.51600 19.66300
H  40.51500 43.69100 20.71000
H  39.31300 42.24000 22.03200
H  40.59600 41.07700 22.21600
H  39.60400 41.06800 20.73300
H  40.25700 46.62400 23.70900
H  41.64200 47.52500 24.27400
H  40.11900 47.47200 25.23200
H  40.91800 44.81400 29.66300
H  44.42000 46.32900 32.04100
H  43.89300 44.87400 32.72200
H  42.97600 46.39400 33.11200
Mg -11.76200 17.12100 41.50500
C  -8.72300 15.43600 40.83000
C  -10.38200 19.95300 39.99600
C  -14.82300 18.39100 41.26900
C  -13.08900 13.97700 42.50300
N  -9.86600 17.55100 40.40600
C  -8.76200 16.71900 40.25400
C  -7.58200 17.38600 39.60600
C  -8.10500 18.82100 39.47700
C  -9.54000 18.81100 39.98600
C  -7.26000 19.93200 40.17200
C  -7.20200 16.71000 38.28500
C  -5.79300 16.09500 38.14400
H  -4.98700 16.42300 36.85500
N  -12.49200 18.99200 40.86700
C  -11.75300 20.01800 40.32900
C  -12.61300 21.07500 40.02400
C  -13.93900 20.71100 40.43000
C  -13.79800 19.30100 40.89500
C  -12.21600 22.40900 39.50500
C  -15.17800 21.64600 40.52700
O  -15.12400 22.86000 40.36100
C  -16.50600 21.07600 40.95400
N  -13.70600 16.33300 41.91000
C  -14.83800 17.07200 41.70400
C  -16.10500 16.24200 41.88700
C  -15.57100 14.93800 42.61800
C  -14.02800 15.00900 42.25000
C  -17.33800 16.84400 42.57700
C  -16.31800 13.69500 42.13500
C  -16.37800 12.56400 43.17800
N  -11.12900 15.11700 41.71000
C  -11.72000 13.98700 42.20200
C  -10.73100 12.98300 42.45900
C  -9.55400 13.47500 41.86600
C  -9.84900 14.79400 41.40000
C  -11.08800 11.57500 42.98500
C  -8.16500 13.06500 41.59600
O  -7.50500 12.06500 41.83100
C  -7.52900 14.42100 41.04200
C  -6.32700 14.83700 41.87500
O  -6.35000 15.43000 42.92100
O  -5.17800 14.48600 41.19700
C  -4.00600 14.69300 42.02800
H  -9.93600 20.86500 39.59200
H  -15.85600 18.67600 41.06300
H  -13.41100 13.01000 42.89500
H  -6.70600 17.31300 40.25100
H  -8.08200 19.05300 38.41200
H  -7.04600 20.75000 39.48400
H  -6.37100 19.49700 40.63000
H  -7.88300 20.33800 40.96900
H  -7.25800 17.37800 37.42500
H  -8.00400 16.00100 38.08000
H  -5.80800 15.00500 38.15300
H  -5.26500 16.50900 39.00300
H  -11.14100 22.57300 39.58100
H  -12.43100 23.18900 40.23500
H  -12.67100 22.78400 38.58800
H  -17.16600 21.92800 41.11600
H  -16.38100 20.50700 41.87500
H  -17.03700 20.41900 40.26500
H  -16.46400 15.93700 40.90400
H  -15.55400 15.05700 43.70200
H  -18.20400 17.00800 41.93500
H  -17.07100 17.82000 42.98000
H  -17.66700 16.22700 43.41300
H  -15.81400 13.45200 41.19900
H  -17.35200 13.88400 41.84800
H  -17.44200 12.40800 43.35300
H  -15.87100 12.77100 44.12000
H  -15.99000 11.68100 42.67100
H  -11.66500 10.90600 42.34700
H  -11.65600 11.72800 43.90300
H  -10.21800 10.92300 43.06700
H  -7.19000 14.13700 40.04500
H  -3.11100 14.19200 41.66200
H  -4.09300 14.50600 43.09800
H  -3.81800 15.76000 41.90500

