158

Mg 26.11600 52.03800 25.59900
C  23.91500 52.95400 28.21000
C  28.41600 51.43100 28.20600
C  28.37300 51.77200 23.32200
C  23.72800 53.19700 23.34000
N  26.19400 52.23600 27.89800
C  25.11400 52.45800 28.69600
C  25.44700 52.15200 30.21100
C  26.93500 51.85900 30.20300
C  27.26200 51.91400 28.69900
C  27.83600 52.73000 31.11300
C  24.52200 51.02800 30.79900
C  24.07300 51.39800 32.26000
H  24.41900 50.62600 33.52700
N  28.06300 51.49200 25.79300
C  28.88200 51.27800 26.86900
C  30.18600 50.92700 26.46000
C  30.17500 50.86900 25.04100
C  28.83700 51.35100 24.63100
C  31.22600 50.73000 27.49200
C  31.36500 50.56700 24.12100
O  31.25900 50.59000 22.88700
C  32.70100 50.21900 24.61900
N  26.05200 52.52400 23.66300
C  27.13600 52.21200 22.88100
C  26.94300 52.57000 21.37800
C  25.40200 52.85200 21.40600
C  25.00700 52.80500 22.89900
C  27.76500 53.91200 21.01000
C  24.51500 51.83900 20.50900
C  23.68300 52.44200 19.34800
N  24.21500 52.92300 25.68800
C  23.31600 53.25200 24.69800
C  22.08500 53.69600 25.26800
C  22.23800 53.54800 26.67700
C  23.54900 53.04300 26.84000
C  20.79700 54.12100 24.68700
C  21.60000 53.69200 27.95800
O  20.45400 54.02400 28.26900
C  22.68300 53.30800 29.03400
C  22.75000 54.25100 30.18100
O  23.27900 55.35700 30.08200
O  21.99200 53.82600 31.20500
C  21.85400 54.79200 32.29800
H  29.07800 51.07700 28.99900
H  29.05500 51.60000 22.48600
H  23.03900 53.40200 22.51700
H  25.31900 53.03600 30.83500
H  27.08700 50.85600 30.60200
H  27.18800 53.17400 31.86900
H  28.32600 53.49000 30.50500
H  28.60600 52.20000 31.67300
H  25.18400 50.18700 31.00500
H  23.67600 50.81300 30.14600
H  22.99700 51.55300 32.34400
H  24.41100 52.39000 32.56000
H  30.94700 51.23100 28.41900
H  32.20600 51.09000 27.18100
H  31.39200 49.65800 27.59400
H  32.64900 49.64100 25.54200
H  33.23400 51.16900 24.61600
H  33.26700 49.63300 23.89500
H  27.31600 51.79800 20.70500
H  25.18400 53.85100 21.02800
H  28.62700 53.61200 20.41300
H  28.19200 54.46200 21.84800
H  27.13700 54.62400 20.47500
H  23.86900 51.26900 21.17700
H  25.14500 51.02300 20.15600
H  23.02700 53.25900 19.64900
H  23.03500 51.66800 18.93700
H  24.37400 52.70700 18.54800
H  20.92100 54.27400 23.61400
H  20.58500 55.04200 25.22900
H  19.99700 53.38700 24.77900
H  22.25100 52.39600 29.44600
H  22.67100 54.56600 32.98300
H  20.93700 54.75500 32.88500
H  22.07500 55.82700 32.03600
Mg -9.96400 17.18100 42.52200
C  -6.47900 16.79600 42.28400
C  -9.51500 20.43100 41.63300
C  -13.30500 17.50800 42.39300
C  -10.17200 13.69700 42.67800
N  -8.05200 18.44800 41.97000
C  -6.78700 18.12100 41.97000
C  -5.89300 19.39800 41.62700
C  -6.90600 20.60700 41.54600
C  -8.27800 19.82300 41.78900
C  -6.62500 21.89700 42.35400
C  -5.05300 19.21500 40.38500
C  -5.56700 18.20800 39.27600
H  -4.88100 18.50100 37.85900
N  -11.29200 18.76400 42.18100
C  -10.85700 19.98800 41.82300
C  -12.05300 20.80200 41.56400
C  -13.25600 20.05800 41.86900
C  -12.69200 18.74000 42.27000
C  -11.90300 22.19000 41.00100
C  -14.72600 20.48700 41.82700
O  -15.13900 21.58900 41.37000
C  -15.86300 19.59800 42.20900
N  -11.47200 15.72200 42.29000
C  -12.81700 16.18100 42.33800
C  -13.75200 14.93800 42.63800
C  -12.72600 13.81700 42.59000
C  -11.36400 14.43500 42.56600
C  -14.47100 15.12300 44.05800
C  -12.97500 12.73700 41.45500
C  -13.04300 11.23600 41.87900
N  -8.60300 15.52900 42.65400
C  -8.86900 14.15900 42.74400
C  -7.66100 13.41800 42.82900
C  -6.68100 14.41400 42.74100
C  -7.25500 15.69300 42.54500
C  -7.46600 11.94300 42.88100
C  -5.32600 14.63600 42.71500
O  -4.30000 13.91300 42.73000
C  -5.15800 16.16800 42.49300
C  -4.31700 16.65900 43.71000
O  -3.15700 17.02900 43.60800
O  -5.09600 16.72100 44.83400
C  -4.52400 17.60600 45.86700
H  -9.26600 21.47200 41.41600
H  -14.38000 17.33200 42.47600
H  -10.30900 12.61700 42.76500
H  -5.25900 19.58500 42.49300
H  -6.90500 20.93900 40.50800
H  -5.59500 21.90300 42.71200
H  -7.28000 21.92200 43.22500
H  -6.79600 22.69800 41.63500
H  -4.00000 19.14700 40.66000
H  -4.96800 20.10300 39.75800
H  -6.65400 18.15700 39.20500
H  -5.25900 17.19900 39.54900
H  -11.16200 22.09700 40.20700
H  -11.40700 22.93900 41.61800
H  -12.89900 22.44400 40.63800
H  -15.99100 18.87400 41.40400
H  -16.74900 20.19500 42.42300
H  -15.61000 19.14300 43.16700
H  -14.47500 14.88800 41.82400
H  -12.63000 13.29400 43.54100
H  -14.45000 14.16800 44.58300
H  -15.44300 15.48100 43.71700
H  -13.93300 15.85600 44.65900
H  -12.19000 12.89600 40.71600
H  -13.90400 13.02900 40.96500
H  -13.98500 10.71700 41.69800
H  -12.76500 11.07600 42.92100
H  -12.23300 10.70700 41.37700
H  -8.34900 11.34300 42.66000
H  -6.96400 11.56200 43.77000
H  -6.66400 11.66300 42.20000
H  -4.62300 16.48300 41.59700
H  -3.85900 18.34200 45.41500
H  -4.03000 17.12900 46.71300
H  -5.24300 18.25700 46.36400

