158

Mg 41.98100 41.32300 26.44100
C  41.00100 43.61800 28.92600
C  43.54300 39.32100 28.75000
C  42.79100 39.03900 24.01100
C  40.93600 43.52200 23.95900
N  42.27600 41.55800 28.50600
C  41.69100 42.43100 29.46600
C  41.98100 42.16300 30.90900
C  42.92400 40.85700 30.73600
C  42.94400 40.52400 29.19800
C  44.41100 40.98900 31.24200
C  40.73500 41.88300 31.80700
C  40.43600 42.86400 32.93200
H  40.07900 42.27800 34.29700
N  43.05000 39.43500 26.42100
C  43.65100 38.82500 27.52700
C  44.22200 37.60800 27.17500
C  43.92600 37.43800 25.76900
C  43.25100 38.68100 25.31800
C  44.84500 36.59500 28.10400
C  44.43000 36.31800 24.86200
O  44.15900 36.41700 23.68300
C  45.29500 35.06700 25.33400
N  41.94300 41.32600 24.29300
C  42.26600 40.25600 23.52500
C  41.93800 40.49800 22.01400
C  41.18100 41.82700 22.09800
C  41.29600 42.24300 23.52800
C  43.17600 40.52700 21.10900
C  39.76800 41.92200 21.65400
C  39.68600 41.81900 20.15300
N  41.12900 43.20400 26.42200
C  40.77400 43.98100 25.29900
C  40.16000 45.19400 25.74400
C  40.17900 45.16200 27.14800
C  40.81700 43.91400 27.50300
C  39.56400 46.24000 24.94300
C  39.91500 45.79000 28.42100
O  39.36600 46.81800 28.64000
C  40.46200 44.83700 29.59400
C  41.48000 45.63600 30.27900
O  42.63700 45.75600 30.03400
O  40.97500 46.02300 31.46200
C  41.84500 46.81600 32.38600
H  44.01500 38.82700 29.60100
H  43.09300 38.33900 23.22900
H  40.55600 44.20800 23.19900
H  42.40800 43.08800 31.29800
H  42.49100 40.10600 31.39800
H  44.48400 40.32400 32.10300
H  44.52300 42.03900 31.51300
H  45.07500 40.61000 30.46500
H  40.81300 40.88500 32.23800
H  39.95900 41.97100 31.04600
H  39.64800 43.58600 32.71500
H  41.28700 43.52300 33.10300
H  45.92300 36.74300 28.03100
H  44.39600 35.62300 27.90000
H  44.53800 36.75800 29.13700
H  45.62300 34.45500 24.49300
H  44.54400 34.51200 25.89700
H  46.10600 35.31200 26.01900
H  41.30700 39.66600 21.70300
H  41.81200 42.52000 21.54100
H  43.05900 41.25700 20.30800
H  43.20100 39.53200 20.66400
H  44.12800 40.73900 21.59400
H  39.31000 42.77400 22.15600
H  39.37000 41.00500 22.08800
H  40.52400 42.30200 19.65000
H  38.78800 42.30500 19.77000
H  39.53900 40.77300 19.88300
H  38.95000 45.71000 24.21600
H  40.31800 46.83800 24.43100
H  38.90000 46.88300 25.52100
H  39.81100 44.63600 30.44400
H  42.39800 46.18000 33.07700
H  41.27900 47.42200 33.09400
H  42.57200 47.46800 31.90200
Mg 0.34100 43.72500 26.15700
C  2.47600 43.98000 28.91800
C  -2.26400 43.22700 28.24700
C  -1.56900 43.40200 23.48200
C  3.07700 44.33800 24.09900
N  0.16600 43.75200 28.37100
C  1.16700 43.87300 29.31800
C  0.64400 43.66200 30.76800
C  -0.84700 43.18000 30.46100
C  -1.00000 43.34300 28.92200
C  -1.16500 41.69600 30.91800
C  0.91800 44.86400 31.72000
C  0.95400 44.50500 33.26000
H  0.52600 43.07000 33.69000
N  -1.64100 43.34800 25.92000
C  -2.57900 43.22800 26.83300
C  -3.84600 42.92700 26.21100
C  -3.64200 42.95500 24.81900
C  -2.22500 43.20800 24.70500
C  -5.15000 42.76200 26.95700
C  -4.66600 42.64500 23.71800
O  -4.33500 42.57000 22.53800
C  -6.07300 42.45000 23.97800
N  0.71100 43.90000 24.07400
C  -0.24400 43.68900 23.15100
C  0.24000 43.94300 21.77200
C  1.59200 44.47300 21.99500
C  1.80300 44.26100 23.46300
C  0.07200 42.68900 20.83300
C  1.88600 45.93900 21.71600
C  2.10000 46.38300 20.25200
N  2.34600 43.99800 26.38200
C  3.35700 44.22100 25.44400
C  4.58000 44.35300 26.16500
C  4.30700 44.15700 27.50200
C  2.95800 44.00300 27.60400
C  5.83300 44.58500 25.38400
C  4.84300 44.03400 28.85000
O  6.00800 43.98800 29.21400
C  3.72500 44.01900 29.83000
C  3.84500 42.90400 30.80700
O  3.71800 41.74000 30.47500
O  4.17000 43.36900 32.08700
C  4.19000 42.32400 33.09500
H  -3.06000 42.89600 28.91800
H  -2.32900 43.36400 22.69900
H  3.99500 44.41800 23.51400
H  1.12500 42.74800 31.11500
H  -1.63800 43.77800 30.91300
H  -1.37200 40.93100 30.16900
H  -1.93000 41.72300 31.69400
H  -0.26500 41.32500 31.40700
H  0.15700 45.60700 31.48200
H  1.92200 45.22700 31.50200
H  0.29500 45.28900 33.63200
H  1.89900 44.73500 33.75200
H  -5.78500 43.64300 26.86000
H  -5.05800 42.42600 27.99000
H  -5.79200 41.97800 26.55600
H  -6.21600 41.54300 24.56400
H  -6.58300 42.34800 23.02000
H  -6.50200 43.34900 24.42000
H  -0.34500 44.76100 21.35300
H  2.23700 43.76700 21.47300
H  -0.94700 42.30300 20.87700
H  0.82600 41.94600 21.09300
H  0.21700 42.87100 19.76800
H  2.81200 46.23600 22.20600
H  1.08600 46.53600 22.15400
H  3.03000 46.93700 20.12300
H  1.35100 47.15100 20.06100
H  2.11000 45.52200 19.58400
H  6.54600 44.74000 26.19400
H  5.77200 45.33600 24.59700
H  6.12700 43.68000 24.85300
H  3.81600 44.93700 30.41100
H  5.19600 41.96700 33.31400
H  3.47300 41.52200 32.91700
H  3.87000 42.73600 34.05200

