158

Mg 16.84100 -3.47500 28.31300
C  15.73500 -1.27700 30.84900
C  18.67900 -5.08300 30.61800
C  18.10000 -5.26400 25.79700
C  15.26900 -1.38600 25.97200
N  17.21900 -3.10800 30.52000
C  16.65800 -2.21300 31.32300
C  16.99500 -2.43600 32.80700
C  18.10300 -3.53200 32.74000
C  17.98500 -3.99100 31.22700
C  19.48600 -3.01100 33.04800
C  15.73500 -2.98900 33.57000
C  15.67900 -2.53400 35.03100
H  16.93300 -2.08400 35.79300
N  18.08200 -5.12100 28.20900
C  18.69000 -5.70400 29.30500
C  19.25900 -6.93200 28.94500
C  19.14100 -7.02600 27.51900
C  18.34800 -5.80500 27.09900
C  20.01000 -7.87800 29.80800
C  19.72300 -8.00000 26.46300
O  19.47000 -7.90800 25.27400
C  20.46400 -9.19600 26.89800
N  16.82000 -3.30500 26.20600
C  17.45300 -4.15300 25.42500
C  17.38500 -3.77400 23.92000
C  16.28600 -2.71600 23.94300
C  16.13600 -2.37400 25.44900
C  18.71000 -3.36400 23.26400
C  14.85900 -3.14800 23.37100
C  14.42800 -2.24600 22.20200
N  15.81600 -1.70200 28.26300
C  15.06000 -1.10200 27.29100
C  14.28700 0.04100 27.80100
C  14.49600 -0.06200 29.15200
C  15.42000 -1.10600 29.43800
C  13.48500 0.94400 27.03400
C  14.28600 0.73000 30.37100
O  13.81400 1.85800 30.52000
C  14.92300 -0.17000 31.53300
C  15.68600 0.76000 32.37300
O  16.80300 1.22800 32.08300
O  14.95700 1.16100 33.44300
C  15.68200 2.07300 34.27300
H  19.31300 -5.56900 31.36200
H  18.53600 -5.86500 24.99600
H  14.80900 -0.72400 25.23500
H  17.25600 -1.45900 33.21300
H  18.02500 -4.42000 33.36700
H  19.45600 -2.10000 33.64500
H  20.05300 -2.80000 32.14100
H  20.09100 -3.74500 33.58100
H  15.89400 -4.06000 33.68800
H  14.76400 -2.73300 33.14700
H  15.27100 -3.40400 35.54600
H  15.08500 -1.62300 35.09100
H  21.06900 -7.62600 29.75100
H  20.05000 -8.95300 29.63200
H  19.66700 -7.86400 30.84300
H  19.90300 -9.90100 27.51100
H  21.18600 -8.55500 27.40200
H  20.89000 -9.66600 26.01200
H  17.07300 -4.68700 23.41200
H  16.58000 -1.82700 23.38500
H  18.65700 -2.36200 22.83900
H  18.80900 -3.99500 22.38100
H  19.54800 -3.46700 23.95300
H  14.06500 -3.00000 24.10300
H  14.91600 -4.14900 22.94200
H  13.66200 -1.62600 22.66800
H  13.95900 -2.86200 21.43400
H  15.10200 -1.65500 21.58100
H  13.94400 1.24000 26.09100
H  13.17900 1.87700 27.50600
H  12.67400 0.30700 26.68000
H  14.03500 -0.52200 32.05800
H  16.19900 2.85100 33.71000
H  16.28900 1.54200 35.00600
H  15.01400 2.67600 34.88800
Mg 39.95400 8.20500 29.25200
C  41.74800 9.85300 31.86300
C  37.48400 7.35300 31.52600
C  38.38200 6.80700 26.71300
C  42.75300 8.84400 27.17000
N  39.78600 8.52900 31.51800
C  40.59000 9.23800 32.33400
C  39.92700 9.34300 33.73200
C  38.67300 8.36000 33.63900
C  38.59500 8.13100 32.07500
C  38.89900 7.08200 34.49200
C  39.69300 10.76800 34.30800
C  38.68400 10.83600 35.48300
H  39.07200 11.64600 36.73600
N  38.15600 7.22800 29.16400
C  37.30300 6.97100 30.18400
C  36.17300 6.29900 29.56700
C  36.37400 6.16300 28.16800
C  37.66600 6.77900 27.93900
C  34.88200 6.06600 30.28600
C  35.53700 5.43900 27.16600
O  35.89200 5.33200 25.99000
C  34.38300 4.57600 27.62900
N  40.50400 7.82200 27.23300
C  39.60800 7.27000 26.38200
C  40.12700 7.33200 24.87200
C  41.60300 7.96600 25.15400
C  41.69600 8.17700 26.63100
C  40.31500 5.94100 24.28600
C  41.66800 9.34900 24.32900
C  40.55300 10.39600 24.69500
N  41.85000 9.03400 29.49100
C  42.78200 9.25600 28.49500
C  43.89200 10.00200 29.11100
C  43.48100 10.35600 30.39800
C  42.22900 9.71000 30.58000
C  45.19800 10.28100 28.41600
C  43.84900 11.11300 31.58600
O  44.86300 11.72500 31.85000
C  42.70500 10.82400 32.62900
C  43.44200 10.23300 33.79700
O  44.19600 9.30000 33.78700
O  43.26200 11.19700 34.77300
C  44.06600 10.93800 36.01300
H  36.70700 7.12000 32.25800
H  37.93300 6.47800 25.77300
H  43.49900 9.16200 26.43900
H  40.77200 8.91600 34.27200
H  37.76000 8.87500 33.93600
H  39.68300 7.28500 35.22200
H  39.26500 6.25300 33.88600
H  37.92700 6.95500 34.96700
H  39.28100 11.39700 33.51900
H  40.63700 11.14300 34.70500
H  38.44700 9.81900 35.79400
H  37.71000 11.15400 35.10900
H  34.72300 6.57400 31.23700
H  34.76300 5.00200 30.48900
H  34.05000 6.36500 29.64900
H  34.77700 4.01700 28.47900
H  34.16300 3.95500 26.76100
H  33.52900 5.18800 27.91800
H  39.55200 7.89000 24.13300
H  42.43200 7.36800 24.77700
H  39.92000 5.21500 24.99600
H  41.39000 5.77900 24.20500
H  39.74400 5.80400 23.36700
H  41.78500 9.08600 23.27800
H  42.60500 9.78900 24.66900
H  39.85200 10.04900 25.45500
H  39.95900 10.63000 23.81200
H  41.13200 11.27700 24.97300
H  46.03200 10.14100 29.10400
H  45.10900 11.25900 27.94400
H  45.25700 9.51600 27.64200
H  42.13700 11.73800 32.80000
H  43.59000 11.36100 36.89700
H  45.08500 11.32400 35.96500
H  44.11100 9.87000 36.22200

