158

Mg 30.39400 59.15800 40.57600
C  27.46100 57.57700 39.61700
C  32.10900 56.38300 39.51700
C  33.35300 60.92400 40.47800
C  28.58900 62.07500 41.06000
N  29.82000 57.23600 39.63200
C  28.57400 56.79200 39.32100
C  28.66200 55.43900 38.57200
C  30.05500 54.91700 38.89800
C  30.73500 56.23500 39.45500
C  29.95900 53.79700 39.95100
C  28.45100 55.69300 37.04900
C  27.40100 54.81700 36.39100
H  26.91100 55.16100 34.99700
N  32.43700 58.71200 40.14800
C  32.88300 57.47500 39.80100
C  34.33300 57.49400 39.54800
C  34.70600 58.84000 39.79200
C  33.46300 59.56000 40.11000
C  35.13500 56.28000 39.14600
C  36.12200 59.33800 39.66000
O  37.02600 58.53100 39.49700
C  36.46500 60.82300 39.86700
N  30.85400 61.17000 40.79000
C  32.12600 61.61000 40.72400
C  32.18800 63.09300 41.06700
C  30.71300 63.55100 41.63500
C  29.98700 62.24500 41.13000
C  33.36000 63.68200 41.97300
C  30.34300 64.98600 41.12500
C  29.98600 66.04800 42.25900
N  28.46200 59.70800 40.51100
C  27.80100 60.93900 40.72300
C  26.35800 60.86100 40.56400
C  26.16700 59.53800 40.07800
C  27.49900 58.91300 40.05300
C  25.34800 62.03300 40.60700
C  25.20500 58.49900 39.65200
O  24.00400 58.52400 39.43100
C  26.00900 57.19100 39.29000
C  25.46400 56.13300 40.15600
O  25.77100 55.82400 41.32500
O  24.47500 55.44400 39.49600
C  23.49900 54.57700 40.24900
H  32.50700 55.41800 39.19700
H  34.15400 61.65300 40.34100
H  27.98700 62.95000 41.31400
H  27.85000 54.80300 38.92400
H  30.48400 54.65400 37.93200
H  30.39300 54.12600 40.89600
H  30.45000 52.89100 39.59800
H  28.91800 53.59300 40.20000
H  29.42000 55.70800 36.55100
H  28.17800 56.73300 36.86600
H  26.53000 54.61800 37.01600
H  27.77000 53.79300 36.34700
H  34.59500 55.38700 39.45800
H  36.01900 56.22500 39.78100
H  35.26000 56.40100 38.07000
H  35.82700 61.46400 39.25900
H  37.49200 60.87500 39.50500
H  36.49200 61.18200 40.89600
H  32.43900 63.59400 40.13300
H  30.76800 63.51800 42.72400
H  32.86600 64.21400 42.78700
H  33.94500 64.40000 41.39900
H  34.10200 62.93500 42.25200
H  29.51000 64.90300 40.42600
H  31.21100 65.39700 40.61000
H  28.92800 66.30000 42.19100
H  30.58300 66.95600 42.16900
H  30.23100 65.67000 43.25100
H  24.31200 61.70200 40.68700
H  25.48300 62.71600 39.76900
H  25.57900 62.56900 41.52800
H  25.97000 56.86700 38.25000
H  22.56900 55.03400 40.58600
H  23.92700 54.13700 41.14900
H  23.27300 53.68200 39.66900
Mg 6.89500 56.29800 41.91800
C  5.90300 52.95600 41.95900
C  9.86200 55.25100 40.59900
C  7.57800 59.52600 41.26900
C  3.69400 57.28500 43.08800
N  7.68000 54.33400 41.17200
C  7.07000 53.12100 41.26300
C  7.99000 52.06800 40.54000
C  9.39800 52.77500 40.70200
C  8.98000 54.22400 40.79600
C  10.35400 52.28700 41.81200
C  7.69100 51.82700 39.01700
C  7.84800 50.41100 38.52400
H  7.02000 49.99900 37.33300
N  8.62500 57.30900 41.22200
C  9.75300 56.68300 40.79200
C  10.62800 57.71000 40.32400
C  9.98800 58.95600 40.43000
C  8.69000 58.68500 41.02700
C  11.98100 57.39900 39.63100
C  10.52900 60.31500 39.93400
O  11.55200 60.40300 39.26300
C  9.84000 61.67200 40.17500
N  5.75500 58.18500 42.03400
C  6.26600 59.33200 41.64500
C  5.34100 60.47700 41.82900
C  4.11700 59.82100 42.61000
C  4.47200 58.29300 42.53100
C  5.78900 61.83700 42.50200
C  2.70800 60.17800 41.99000
C  1.64700 60.87500 42.87200
N  5.07400 55.34000 42.42900
C  3.99300 55.84300 43.06100
C  3.12000 54.74800 43.51600
C  3.78300 53.63700 42.97000
C  5.00700 54.00100 42.41200
C  1.77400 54.83200 44.20200
C  3.74200 52.17900 42.74400
O  2.78500 51.39700 42.94000
C  5.12800 51.71200 42.25400
C  4.91500 50.78100 41.09600
O  4.50700 51.06100 39.95000
O  5.21800 49.51800 41.47300
C  4.63900 48.44500 40.66800
H  10.86700 54.87700 40.39200
H  7.77000 60.53600 40.90000
H  2.74700 57.49000 43.59100
H  8.05300 51.16000 41.14000
H  10.04800 52.79300 39.82700
H  9.98100 51.53700 42.50900
H  10.70800 53.10800 42.43500
H  11.12300 51.66700 41.34900
H  8.31100 52.54100 38.47500
H  6.63800 52.07600 38.88300
H  7.51300 49.81100 39.37000
H  8.90600 50.27200 38.30100
H  11.79100 57.66500 38.59100
H  12.14000 56.33000 39.48500
H  12.81700 57.96400 40.04200
H  9.59400 61.94500 41.20100
H  8.90600 61.61100 39.61600
H  10.47500 62.44000 39.73400
H  4.98300 60.67500 40.81900
H  4.10700 60.06000 43.67300
H  6.01400 62.42400 41.61200
H  6.70200 61.62900 43.05900
H  5.05200 62.28000 43.17300
H  2.20500 59.27900 41.63400
H  2.88100 60.80900 41.11800
H  1.90600 60.76900 43.92500
H  0.67500 60.41100 42.70800
H  1.59000 61.93800 42.63500
H  1.59900 54.10200 44.99300
H  1.12800 54.54300 43.37300
H  1.56300 55.85100 44.52700
H  5.72200 51.18600 43.00100
H  4.80000 48.68700 39.61800
H  3.56900 48.30300 40.82100
H  5.06400 47.47100 40.91000

