158

Mg 40.37500 9.05800 29.83600
C  42.12600 10.13600 32.52300
C  38.08400 7.65300 31.72600
C  38.74900 7.91100 26.99900
C  42.93700 10.29700 27.70600
N  40.32000 8.78000 31.89900
C  41.05500 9.36900 32.88600
C  40.34900 9.29100 34.24900
C  39.16500 8.41800 33.95400
C  39.19600 8.26200 32.40300
C  39.17200 7.07500 34.81900
C  39.85900 10.71400 34.77000
C  39.55900 10.74700 36.31300
H  40.09400 11.76700 37.30800
N  38.61400 7.88900 29.42500
C  37.78300 7.47100 30.38900
C  36.59900 6.90900 29.82700
C  36.81200 6.86900 28.39200
C  38.10400 7.60000 28.24800
C  35.57100 6.24400 30.68600
C  36.01500 6.22900 27.25400
O  36.40500 6.30200 26.09600
C  34.78200 5.45400 27.56800
N  40.75200 9.16900 27.57700
C  39.94500 8.52300 26.68200
C  40.37200 8.96900 25.27100
C  41.84500 9.53600 25.48500
C  41.86800 9.72700 27.01800
C  40.32200 7.87000 24.12700
C  42.04200 10.83400 24.66700
C  41.14800 12.02900 25.06700
N  42.16200 9.98500 30.04200
C  43.08900 10.46800 29.11300
C  44.26200 11.05400 29.79300
C  43.80300 10.98500 31.12100
C  42.58300 10.35300 31.22400
C  45.42600 11.79700 29.27600
C  44.25400 11.42100 32.45400
O  45.28500 11.97300 32.84600
C  43.15700 10.91400 33.41300
C  43.83100 10.05200 34.44100
O  44.43600 8.99600 34.20600
O  43.71300 10.63900 35.66400
C  44.41000 9.96900 36.76800
H  37.29600 7.34400 32.41700
H  38.23800 7.70200 26.05700
H  43.78100 10.69400 27.13600
H  41.07200 8.84500 34.93300
H  38.25600 8.98000 34.16600
H  39.40200 6.22800 34.17300
H  38.15800 6.96400 35.20300
H  39.85400 7.02100 35.66800
H  38.94900 11.05000 34.27300
H  40.59300 11.52000 34.78600
H  39.69000 9.75100 36.73400
H  38.47500 10.81700 36.22800
H  34.59700 6.22600 30.19500
H  35.61900 6.76800 31.64000
H  35.82300 5.19100 30.81700
H  34.84800 4.63800 28.28800
H  34.32900 5.19400 26.61200
H  34.16800 6.20600 28.06500
H  39.67900 9.74300 24.94100
H  42.62700 8.78800 25.35400
H  40.27400 6.91800 24.65500
H  41.21100 7.95800 23.50100
H  39.42400 7.90400 23.51000
H  41.81600 10.54800 23.64000
H  43.09000 11.12700 24.72500
H  40.50800 12.21800 24.20600
H  41.77400 12.87200 25.35900
H  40.48000 11.74900 25.88200
H  46.11700 11.10100 28.80000
H  46.00800 12.26700 30.06800
H  45.13000 12.58500 28.58300
H  42.61800 11.66500 33.99100
H  43.79500 9.96400 37.66800
H  45.34100 10.49200 36.98400
H  44.63300 8.92400 36.55300
Mg 49.19600 46.47600 42.73200
C  45.87200 47.00500 41.57600
C  49.12700 43.38200 41.26200
C  52.51500 46.32200 43.35300
C  49.16500 49.92900 43.68800
N  47.74600 45.40600 41.45400
C  46.47200 45.80200 41.13800
C  45.75900 44.70200 40.31800
C  46.57300 43.44600 40.63600
C  47.92000 44.06500 41.13200
C  45.94700 42.57600 41.72000
C  45.66100 45.13100 38.77700
C  44.44200 44.79100 37.91300
H  44.63300 44.12500 36.56000
N  50.65400 45.05300 42.38200
C  50.37500 43.78300 41.78400
C  51.60700 43.05100 41.75300
C  52.57500 43.86400 42.42500
C  51.90200 45.10700 42.79500
C  51.74300 41.70000 41.12400
C  54.03100 43.48800 42.73000
O  54.45300 42.41300 42.36200
C  55.05800 44.39200 43.43300
N  50.60700 47.99900 43.41800
C  51.93500 47.67500 43.62900
C  52.70700 48.90000 44.06000
C  51.61000 50.00400 44.18300
C  50.34900 49.24900 43.80900
C  53.46800 48.63100 45.36300
C  51.84100 51.29900 43.23700
C  51.98900 52.54700 44.05300
N  47.79900 48.10000 42.82900
C  47.94200 49.39300 43.22600
C  46.65500 50.09700 43.22800
C  45.79000 49.15700 42.57400
C  46.54100 47.94300 42.32300
C  46.39500 51.43500 43.67500
C  44.45900 48.95400 42.08200
O  43.45300 49.66800 42.17600
C  44.46600 47.53700 41.33000
C  43.33700 46.66300 41.81000
O  43.35300 45.86700 42.72600
O  42.19300 46.99900 41.10900
C  41.00300 46.43300 41.65100
H  48.98800 42.33700 40.97800
H  53.56600 46.43000 43.62700
H  49.28600 50.94200 44.07900
H  44.73500 44.53500 40.65300
H  46.80800 42.88900 39.73000
H  44.97600 42.92100 42.07700
H  46.58200 42.68300 42.59900
H  45.96800 41.50000 41.55000
H  46.58500 44.75500 38.33700
H  45.76800 46.21300 38.70000
H  43.86000 45.70600 37.80400
H  43.86400 44.00600 38.39900
H  52.49100 41.06000 41.59100
H  51.95800 41.78800 40.05900
H  50.76400 41.22000 41.12800
H  54.65600 44.81100 44.35600
H  55.30600 45.19600 42.74000
H  55.91300 43.73000 43.56800
H  53.48400 49.18600 43.35100
H  51.43900 50.35700 45.20000
H  54.54800 48.66700 45.21400
H  53.18400 47.63800 45.70900
H  53.12900 49.34800 46.11100
H  50.96900 51.48700 42.61100
H  52.69800 51.23100 42.56800
H  52.55900 52.30700 44.95100
H  51.04400 53.01000 44.33800
H  52.55000 53.25500 43.44400
H  47.11200 52.09300 43.18400
H  46.56900 51.43400 44.75100
H  45.35300 51.69900 43.49600
H  44.25700 47.74700 40.28100
H  40.47700 46.09000 40.75900
H  40.40200 47.10700 42.26100
H  41.11400 45.57600 42.31600

