158

Mg 47.87900 14.46000 28.17300
C  45.85500 14.58200 31.04000
C  49.80500 17.03100 29.66900
C  49.86000 14.60600 25.40800
C  45.52800 12.76800 26.51400
N  47.80700 15.63200 30.16800
C  47.04800 15.33900 31.24400
C  47.70400 15.94700 32.45900
C  48.54300 17.07700 31.88500
C  48.70400 16.59600 30.43100
C  48.07000 18.50500 31.96400
C  48.37600 14.89800 33.31100
C  48.10100 14.90400 34.77100
H  49.20900 14.65000 35.75700
N  49.67700 15.61500 27.64300
C  50.38000 16.53600 28.42900
C  51.56900 17.00800 27.69900
C  51.57400 16.30900 26.43300
C  50.37800 15.42600 26.47200
C  52.55100 17.97900 28.36900
C  52.59000 16.50600 25.32600
O  52.51500 15.84700 24.26800
C  53.63200 17.55300 25.46600
N  47.70600 13.86400 26.26900
C  48.61400 13.96100 25.28900
C  48.19300 13.36500 23.94800
C  46.79600 12.78100 24.34200
C  46.67100 13.12000 25.82700
C  48.07200 14.38700 22.80200
C  46.45400 11.28400 23.98100
C  47.13600 10.16500 24.73500
N  46.09900 13.82100 28.61900
C  45.18100 13.17400 27.81900
C  44.02700 12.80900 28.60100
C  44.22300 13.36700 29.82200
C  45.48800 13.93100 29.83700
C  42.83000 12.14500 28.09200
C  43.60200 13.60200 31.08500
O  42.47300 13.35100 31.49300
C  44.65000 14.35500 31.89600
C  44.01700 15.56200 32.51500
O  44.10500 16.73600 32.20100
O  43.56800 15.10900 33.75500
C  43.07300 16.20300 34.66900
H  50.33400 17.82000 30.20700
H  50.52400 14.53400 24.54400
H  44.67600 12.15400 26.21500
H  46.89800 16.44700 32.99600
H  49.48400 17.15600 32.42900
H  47.47800 18.80200 31.09900
H  48.88800 19.21200 32.10300
H  47.48900 18.72600 32.86000
H  49.46100 15.00400 33.27200
H  48.19600 13.92800 32.84700
H  47.36700 14.17800 35.12100
H  47.72100 15.90200 34.98700
H  52.44300 19.04100 28.15300
H  53.61900 17.82000 28.21600
H  52.56400 17.85300 29.45200
H  54.48800 17.34000 26.10500
H  53.20300 18.48700 25.83000
H  54.07600 17.63700 24.47400
H  48.78400 12.54400 23.54200
H  46.05200 13.37500 23.81200
H  47.07000 14.37200 22.37300
H  48.89200 14.26000 22.09600
H  48.38600 15.34500 23.21500
H  46.72400 11.18200 22.92900
H  45.39100 11.07700 24.10800
H  47.82400 9.63800 24.07400
H  46.36000 9.48700 25.09100
H  47.63800 10.57900 25.61000
H  42.86000 11.05800 28.01700
H  42.50000 12.66900 27.19500
H  42.07100 12.24800 28.86700
H  44.84500 13.65100 32.70500
H  42.16400 16.59200 34.21000
H  43.76700 17.03900 34.76100
H  42.88700 15.79600 35.66300
Mg 26.06300 51.99500 25.87100
C  23.73500 52.96100 28.48400
C  28.23200 51.15000 28.28700
C  28.19300 51.30800 23.33500
C  23.74200 53.07700 23.41700
N  26.03200 52.30000 28.20800
C  24.98000 52.51700 29.04600
C  25.28300 52.18700 30.51900
C  26.70300 51.49800 30.41200
C  27.05600 51.67300 28.88700
C  27.78600 52.01600 31.36300
C  24.19600 51.16800 31.09600
C  23.18900 51.53900 32.11600
H  23.26900 50.93100 33.50200
N  28.00100 51.52400 25.82000
C  28.71900 51.09400 26.88700
C  30.01700 50.71500 26.46400
C  30.01400 50.68500 25.01300
C  28.69200 51.17600 24.64100
C  31.16600 50.38300 27.42300
C  31.06600 50.38600 23.94300
O  30.92800 50.46800 22.74300
C  32.42600 49.97900 24.44500
N  25.99500 52.30700 23.70800
C  27.03500 51.91300 22.92300
C  26.74900 52.32100 21.45600
C  25.19800 52.60900 21.43800
C  24.99300 52.72300 22.93200
C  27.72100 53.37000 20.83500
C  24.31900 51.51200 20.76700
C  23.18200 52.06800 19.87700
N  24.20300 52.88500 25.87400
C  23.33400 53.16200 24.80000
C  22.05300 53.57900 25.34300
C  22.21100 53.53700 26.73900
C  23.45300 53.08000 27.03400
C  20.90400 54.11000 24.55800
C  21.47600 53.86400 27.99900
O  20.34200 54.33000 28.17500
C  22.48200 53.55400 29.11000
C  22.72900 54.67300 29.96900
O  23.67900 55.42400 29.92900
O  21.76100 54.91700 30.87900
C  21.80700 56.20300 31.56500
H  28.90400 50.77900 29.06300
H  28.85800 51.01400 22.52000
H  22.96700 53.26600 22.67100
H  25.27500 53.08400 31.13800
H  26.68200 50.42200 30.58800
H  28.37700 51.18700 31.75200
H  27.39000 52.68600 32.12600
H  28.43700 52.64300 30.75300
H  24.66500 50.25600 31.46600
H  23.52500 50.85400 30.29700
H  22.16800 51.52100 31.73400
H  23.46900 52.56600 32.35100
H  30.97900 50.57100 28.48000
H  32.04500 50.97200 27.16000
H  31.43700 49.33300 27.31700
H  32.38700 49.30200 25.29800
H  32.93600 50.87400 24.80300
H  32.86800 49.45300 23.59900
H  26.91200 51.40000 20.89500
H  24.96200 53.59600 21.04000
H  28.51500 52.81300 20.33900
H  28.27700 53.90000 21.60900
H  27.31900 54.03400 20.07100
H  23.92400 50.84600 21.53300
H  25.02600 50.89200 20.21500
H  22.28900 51.58700 20.27600
H  23.24700 51.78100 18.82800
H  22.99300 53.13000 20.03100
H  20.80800 55.15200 24.86300
H  19.99800 53.56700 24.82700
H  21.13000 54.18500 23.49400
H  22.00900 52.78600 29.72300
H  22.59700 56.09500 32.30800
H  20.91300 56.52200 32.10100
H  22.28500 56.90300 30.88100

