158

Mg 35.95800 49.26600 26.07400
C  36.19100 47.30500 29.12900
C  34.92500 51.94500 27.98800
C  35.62300 50.93800 23.34500
C  37.27400 46.42600 24.34500
N  35.56200 49.53000 28.25200
C  35.71200 48.62400 29.28200
C  35.49200 49.34500 30.60200
C  34.94700 50.75000 30.19100
C  35.11200 50.74800 28.68200
C  33.44700 51.22200 30.70300
C  36.87700 49.36600 31.34000
C  36.80700 49.27200 32.91200
H  35.48700 49.10500 33.63200
N  35.28700 51.17000 25.71700
C  34.95700 52.15200 26.61400
C  34.78600 53.41900 25.88700
C  34.94100 53.12900 24.53300
C  35.24500 51.68800 24.44900
C  34.61800 54.79700 26.60100
C  35.01500 54.04500 23.29400
O  35.41900 53.68200 22.16300
C  34.62600 55.50600 23.49500
N  36.31500 48.65700 24.15700
C  36.17600 49.64000 23.18300
C  36.80400 49.15800 21.83800
C  37.34100 47.70000 22.21800
C  36.99100 47.59800 23.64900
C  35.79800 49.27800 20.69800
C  38.83400 47.46500 21.95300
C  39.39100 47.92500 20.60400
N  36.58900 47.29300 26.62100
C  37.00900 46.28600 25.76900
C  37.45100 45.14100 26.54800
C  37.13300 45.48600 27.89400
C  36.62900 46.80200 27.87300
C  38.07000 43.86600 26.08000
C  37.14100 45.03100 29.31500
O  37.49400 43.96100 29.83600
C  36.50700 46.20200 30.19900
C  35.30700 45.52100 30.88500
O  34.19300 45.35800 30.48300
O  35.77600 45.02800 32.09900
C  34.93100 44.27900 32.99400
H  34.66800 52.85400 28.53600
H  35.59900 51.50500 22.41200
H  37.75100 45.67100 23.71600
H  34.72400 48.84900 31.19500
H  35.64700 51.47600 30.60600
H  33.07000 50.55500 31.47800
H  32.72200 51.10900 29.89700
H  33.52200 52.22200 31.13000
H  37.30600 50.35300 31.16600
H  37.61600 48.67800 30.93100
H  37.19300 50.24700 33.21200
H  37.43700 48.45700 33.26900
H  34.87200 54.88300 27.65700
H  33.54800 54.99100 26.51800
H  35.03700 55.68800 26.13200
H  35.48000 56.03900 23.91100
H  33.74400 55.59700 24.12900
H  34.33500 55.92100 22.53000
H  37.66800 49.76300 21.56200
H  36.86500 46.95400 21.58100
H  35.16400 48.39200 20.71100
H  36.36100 49.34000 19.76700
H  35.22600 50.19600 20.84000
H  39.12200 46.41900 22.04900
H  39.31100 48.00000 22.77400
H  38.58300 48.04400 19.88200
H  40.01000 47.22300 20.04400
H  40.02400 48.81200 20.62500
H  37.35600 43.04300 26.06200
H  38.82600 43.43500 26.73800
H  38.50100 43.98100 25.08600
H  37.15500 46.65900 30.94700
H  34.30300 44.97400 33.55200
H  35.35600 43.56200 33.69600
H  34.22400 43.66800 32.43200
Mg -12.54100 38.37700 41.42800
C  -10.31200 35.88200 40.42800
C  -10.26900 40.69600 40.04000
C  -14.93000 40.65800 41.67500
C  -14.79900 35.80000 42.21500
N  -10.60400 38.22600 40.18400
C  -9.89900 37.09200 39.97400
C  -8.51600 37.43100 39.30900
C  -8.47400 38.97800 39.25100
C  -9.85100 39.36200 39.91900
C  -7.26400 39.74600 39.76400
C  -8.33200 36.80600 37.87500
C  -7.19500 35.79100 37.75200
H  -6.14700 36.13800 36.71000
N  -12.61100 40.37300 40.92700
C  -11.53500 41.14600 40.42000
C  -12.04300 42.47700 40.31800
C  -13.42400 42.51400 40.71600
C  -13.66300 41.16800 41.19100
C  -11.06800 43.59900 39.83400
C  -14.28000 43.67600 40.65100
O  -13.80000 44.73800 40.38000
C  -15.72800 43.66900 40.98800
N  -14.68300 38.26200 41.78500
C  -15.36500 39.38300 41.96400
C  -16.81900 39.03400 42.35000
C  -16.75500 37.41500 42.53800
C  -15.38400 37.07300 42.13000
C  -17.30600 39.93800 43.61500
C  -17.84800 36.71000 41.69100
C  -18.60100 35.56500 42.42900
N  -12.52900 36.23800 41.50400
C  -13.46300 35.35000 41.95500
C  -12.87700 34.06700 42.01900
C  -11.59000 34.25300 41.48200
C  -11.46400 35.58200 41.07800
C  -13.48900 32.86000 42.63300
C  -10.34000 33.55000 41.21900
O  -10.04100 32.41800 41.47800
C  -9.46800 34.65100 40.46100
C  -8.22600 34.75100 41.18200
O  -8.01100 35.53100 42.11400
O  -7.31900 33.89100 40.69100
C  -6.01300 33.55700 41.37200
H  -9.49500 41.40900 39.74900
H  -15.72000 41.37300 41.91400
H  -15.60700 35.11800 42.48800
H  -7.72100 37.07500 39.96500
H  -8.53400 39.35700 38.23100
H  -6.66400 40.32700 39.06400
H  -6.58900 38.97500 40.13700
H  -7.52300 40.31800 40.65500
H  -8.07700 37.60100 37.17400
H  -9.19300 36.28300 37.45900
H  -7.60000 34.80900 37.50700
H  -6.71400 35.72400 38.72800
H  -10.18500 43.21400 39.32300
H  -10.74100 44.20400 40.68000
H  -11.56700 44.22500 39.09400
H  -16.14500 42.90500 40.33200
H  -16.19700 44.62700 40.76300
H  -15.84400 43.51600 42.06100
H  -17.35600 39.28600 41.43600
H  -16.74300 37.04500 43.56300
H  -18.01600 40.63000 43.16300
H  -16.39600 40.37800 44.02300
H  -17.83100 39.36400 44.37900
H  -17.28900 36.25700 40.87200
H  -18.62900 37.40200 41.37700
H  -19.66300 35.48800 42.19500
H  -18.44800 35.54400 43.50800
H  -18.05200 34.67700 42.11600
H  -14.44800 32.71000 42.13700
H  -13.60100 33.17600 43.67000
H  -12.94700 31.92000 42.53500
H  -9.27700 34.25500 39.46400
H  -5.48000 32.83000 40.75800
H  -6.23500 33.20000 42.37800
H  -5.36400 34.43000 41.31700

