158

Mg 46.23700 25.29700 28.30900
C  47.45700 27.34900 30.90000
C  45.46800 22.90500 30.74100
C  45.70200 22.98300 25.83200
C  47.56900 27.40400 25.94800
N  46.44400 25.15400 30.60800
C  46.92600 26.20700 31.40000
C  46.79200 25.80500 32.87000
C  46.16900 24.34000 32.86000
C  46.03100 24.08800 31.35700
C  46.98400 23.23100 33.57900
C  46.09900 26.92300 33.73300
C  45.42400 26.40000 35.02200
H  45.63200 27.36300 36.20300
N  45.60600 23.22100 28.22400
C  45.35200 22.46600 29.36700
C  44.97400 21.08900 28.91200
C  45.12400 20.98300 27.50000
C  45.41200 22.44900 27.06100
C  44.60400 19.91800 29.86600
C  44.88700 19.79800 26.56200
O  45.00900 19.95200 25.36600
C  44.52400 18.42700 27.20000
N  46.67900 25.13200 26.24000
C  46.23700 24.18500 25.41400
C  46.31600 24.60100 23.91900
C  46.79800 26.08600 24.00600
C  47.04000 26.23800 25.46900
C  47.36400 23.78100 23.12100
C  45.82800 27.15600 23.42900
C  45.81100 27.40400 21.95100
N  47.29100 27.08600 28.35600
C  47.74600 27.84400 27.26100
C  48.41100 29.03300 27.78600
C  48.28200 28.92000 29.22400
C  47.63800 27.69600 29.48600
C  49.02600 30.17200 27.16200
C  48.54200 29.57600 30.47500
O  49.07300 30.65000 30.64200
C  48.10200 28.58300 31.61100
C  49.37200 28.30100 32.41900
O  50.11500 27.32500 32.28800
O  49.40900 29.08500 33.49900
C  50.27800 28.48300 34.60900
H  45.10900 22.21200 31.50500
H  45.47900 22.38800 24.94400
H  47.88400 28.16000 25.22400
H  47.81900 25.80200 33.23700
H  45.21700 24.32500 33.39000
H  47.40000 22.46100 32.92900
H  46.35800 22.92200 34.41600
H  47.81100 23.75700 34.05500
H  45.32600 27.40600 33.13500
H  46.88400 27.64800 33.94500
H  45.90300 25.48400 35.36600
H  44.35700 26.33800 34.81100
H  45.36300 19.13600 29.87700
H  43.64000 19.57200 29.49200
H  44.38000 20.21100 30.89200
H  44.24000 17.79100 26.36100
H  43.65500 18.67100 27.81100
H  45.27900 18.03100 27.87800
H  45.33900 24.49500 23.44800
H  47.74200 26.14100 23.46300
H  47.46300 24.34900 22.19700
H  46.95100 22.79700 22.89700
H  48.32800 23.68000 23.61900
H  46.02400 28.10300 23.93100
H  44.89600 26.69900 23.75900
H  46.62800 28.07000 21.67400
H  44.85700 27.90000 21.77200
H  45.75100 26.45500 21.41800
H  50.02500 30.30900 27.57700
H  48.56100 31.13300 27.38200
H  49.12400 30.03400 26.08500
H  47.34300 29.06800 32.22500
H  50.16900 29.29100 35.33300
H  51.32100 28.39300 34.30500
H  49.93600 27.47500 34.84200
Mg 6.07200 54.63300 41.02400
C  5.84900 51.05400 40.66800
C  9.17900 54.36700 39.43700
C  5.89300 57.90700 40.54100
C  2.70000 54.55900 41.97900
N  7.29700 52.86800 39.92200
C  7.01000 51.52400 39.95200
C  8.16700 50.70500 39.38400
C  9.35900 51.77500 39.19700
C  8.64900 53.09500 39.59300
C  10.72700 51.41600 39.82600
C  7.89700 49.94100 38.01900
C  7.03600 50.77000 37.05700
H  6.53800 50.00700 35.81000
N  7.37600 56.01400 40.29200
C  8.61100 55.66600 39.73900
C  9.39200 56.90600 39.68700
C  8.45100 57.96900 39.78700
C  7.16500 57.35300 40.22400
C  10.89400 56.98700 39.39600
C  8.74400 59.40800 39.53000
O  9.85600 59.69800 39.13700
C  7.76700 60.47400 39.72600
N  4.51800 56.00300 41.12400
C  4.70800 57.31500 40.93700
C  3.51900 58.17800 41.32700
C  2.44100 57.10500 41.69000
C  3.28300 55.78700 41.60600
C  3.86500 59.07900 42.54000
C  1.17800 56.99400 40.85000
C  0.08200 57.99100 41.37400
N  4.57700 53.19900 41.35200
C  3.27800 53.32500 41.77200
C  2.83300 52.05500 42.19800
C  3.82600 51.16300 41.81900
C  4.82500 51.88800 41.23700
C  1.58500 51.68800 42.95500
C  4.07700 49.75500 41.72300
O  3.55800 48.73400 42.17300
C  5.44700 49.64200 40.98800
C  5.25400 48.64300 39.91300
O  4.66500 48.75800 38.85100
O  5.98000 47.51600 40.30000
C  5.79100 46.37600 39.32700
H  10.14800 54.36800 38.93400
H  5.76100 58.99100 40.53200
H  1.76500 54.62800 42.53800
H  8.41500 49.88100 40.05300
H  9.62000 51.88200 38.14400
H  10.47300 50.62700 40.53500
H  11.18800 52.31600 40.23200
H  11.43700 51.06700 39.07700
H  7.46700 48.95500 38.19600
H  8.80800 49.70800 37.46800
H  7.72700 51.57600 36.80900
H  6.20600 51.23000 37.59300
H  11.25100 57.77300 40.06300
H  11.16200 57.34100 38.40100
H  11.41200 56.08500 39.72100
H  6.91100 60.23000 39.09600
H  8.27500 61.38100 39.39900
H  7.34300 60.58600 40.72300
H  3.33100 58.86200 40.50000
H  2.09800 57.19900 42.72000
H  3.21300 58.97100 43.40700
H  3.68500 60.09500 42.18900
H  4.88400 58.83500 42.84200
H  0.80000 56.01300 41.13600
H  1.31700 57.02200 39.76900
H  -0.80300 57.49200 41.76900
H  -0.17300 58.65500 40.54800
H  0.39500 58.57800 42.23800
H  0.91700 52.54700 42.89800
H  1.69300 51.41000 44.00300
H  1.02900 50.89800 42.45000
H  6.16500 49.20300 41.68000
H  6.06100 46.72400 38.33000
H  4.75900 46.03200 39.39400
H  6.53100 45.62000 39.59000

