158

Mg 25.06800 2.03300 30.05000
C  27.14300 2.02800 32.80300
C  22.36700 1.83100 32.27500
C  22.90000 1.83200 27.38800
C  27.78500 1.81400 27.92100
N  24.76500 2.12600 32.29400
C  25.78800 2.19900 33.18900
C  25.29300 2.45900 34.68600
C  23.69100 1.97500 34.50400
C  23.55200 1.93000 32.96800
C  23.41600 0.59400 35.10700
C  25.52400 3.95100 35.16900
C  26.64400 4.09100 36.32600
H  26.41400 5.03100 37.47500
N  22.95200 1.96000 29.83900
C  22.01600 1.88300 30.90300
C  20.69200 1.82700 30.33400
C  20.83900 1.69700 28.94000
C  22.25300 1.88300 28.63600
C  19.46900 1.73700 31.17300
C  19.80900 1.40600 27.91700
O  19.97800 1.32600 26.70200
C  18.39900 1.11400 28.33700
N  25.34200 1.71200 27.97800
C  24.31800 1.78000 27.10500
C  24.83800 1.94300 25.64700
C  26.36100 1.97200 25.86600
C  26.49500 1.84100 27.34200
C  24.38700 0.72200 24.70700
C  27.01900 3.25100 25.25100
C  26.72700 4.63700 25.89600
N  27.06000 1.89100 30.20900
C  28.04600 1.79200 29.29600
C  29.32800 1.84200 30.02500
C  29.02900 1.95500 31.35000
C  27.64300 1.94100 31.43100
C  30.67600 1.65800 29.33600
C  29.60200 2.01100 32.70500
O  30.75400 2.00200 33.05000
C  28.37100 2.16800 33.66600
C  28.44800 1.21200 34.78800
O  28.15200 0.03300 34.68500
O  29.09600 1.80400 35.89900
C  29.02900 0.91400 37.13300
H  21.54800 1.86400 32.99700
H  22.31000 1.92800 26.47400
H  28.59900 1.95300 27.20600
H  25.73900 1.69300 35.32100
H  23.11800 2.75400 35.00600
H  22.53100 0.17700 34.62700
H  23.12500 0.80800 36.13500
H  24.25400 -0.10300 35.10800
H  24.55700 4.37100 35.44600
H  25.93100 4.49600 34.31700
H  27.53800 4.35200 35.76000
H  26.84300 3.09900 36.73200
H  18.83300 2.57300 30.88100
H  19.62300 1.76500 32.25200
H  18.88500 0.82200 31.07200
H  17.93200 1.97400 28.81800
H  18.42800 0.26200 29.01700
H  17.90800 0.90200 27.38800
H  24.50400 2.85300 25.14900
H  26.82400 1.12900 25.35100
H  24.65600 1.07100 23.71000
H  23.33100 0.45300 24.66900
H  25.07100 -0.06200 25.03100
H  26.81900 3.40700 24.19100
H  28.10000 3.23900 25.39300
H  27.68200 5.09700 26.14900
H  26.13500 4.42100 26.78500
H  26.26100 5.44200 25.32700
H  30.68200 2.40900 28.54600
H  30.77700 0.63800 28.96400
H  31.47200 1.95000 30.02200
H  28.36300 3.17400 34.08500
H  30.01100 0.94600 37.60400
H  28.84100 -0.14500 36.95800
H  28.29300 1.15100 37.90100
Mg -1.79000 33.43000 26.93100
C  -3.58700 31.71200 29.34500
C  -0.55900 35.48700 29.32800
C  -0.54000 35.32000 24.48500
C  -3.45100 31.49600 24.38100
N  -2.10000 33.67300 28.99800
C  -2.82500 32.74800 29.87800
C  -2.59100 33.10700 31.36100
C  -1.70100 34.35600 31.29100
C  -1.46300 34.54600 29.74000
C  -2.28300 35.55400 32.08700
C  -2.04000 31.90300 32.25100
C  -2.94700 31.57400 33.49100
H  -2.16900 31.44800 34.80500
N  -0.56600 35.18700 26.92700
C  -0.10600 35.79400 27.99900
C  0.87000 36.82200 27.49400
C  0.77400 36.87000 26.05000
C  -0.16700 35.80700 25.75600
C  1.73900 37.57200 28.43500
C  1.52400 37.74400 25.10100
O  1.45400 37.66000 23.88000
C  2.29300 38.80700 25.61200
N  -2.01600 33.45800 24.68400
C  -1.33000 34.33600 23.96900
C  -1.54600 34.14800 22.47300
C  -2.39700 32.84700 22.41500
C  -2.60600 32.50600 23.92900
C  -2.02500 35.42600 21.66000
C  -1.78600 31.64000 21.69100
C  -0.85800 30.71800 22.48400
N  -3.17700 31.94800 26.77400
C  -3.80200 31.22400 25.70500
C  -4.77800 30.32400 26.22400
C  -4.73100 30.45500 27.63300
C  -3.73200 31.48000 27.90700
C  -5.54600 29.28400 25.37400
C  -5.26200 29.93900 28.92900
O  -6.01200 28.94200 29.12100
C  -4.53500 30.77500 29.98800
C  -5.44300 31.47900 30.92600
O  -5.83600 32.62900 30.92700
O  -5.86100 30.53200 31.86300
C  -6.68000 31.15300 32.90300
H  -0.03400 36.12600 30.04000
H  0.01900 35.82900 23.69800
H  -4.07700 30.94200 23.67900
H  -3.61700 33.21900 31.71100
H  -0.80400 34.14000 31.87200
H  -2.51700 36.39200 31.43100
H  -1.61900 35.94200 32.86000
H  -3.26600 35.32500 32.50000
H  -1.05700 32.08600 32.68500
H  -1.93100 30.99600 31.65600
H  -3.53300 30.67300 33.30600
H  -3.55900 32.43200 33.76700
H  1.34000 38.58400 28.49700
H  2.78900 37.40900 28.19000
H  1.62300 37.19400 29.45100
H  2.77700 39.37200 24.81500
H  3.09800 38.38000 26.20900
H  1.67900 39.49100 26.19700
H  -0.58200 33.91100 22.02400
H  -3.40000 33.09400 22.06700
H  -2.10000 36.23600 22.38500
H  -2.96400 35.31000 21.11800
H  -1.17900 35.75300 21.05500
H  -1.11600 31.98600 20.90400
H  -2.49500 31.05600 21.10300
H  -0.64400 31.09600 23.48400
H  0.03300 30.60400 21.86500
H  -1.32800 29.74300 22.61200
H  -4.84600 28.98700 24.59300
H  -6.50000 29.62100 24.96800
H  -5.77200 28.35100 25.88900
H  -4.00100 30.04900 30.60100
H  -6.22900 32.04500 33.33700
H  -6.89400 30.42600 33.68700
H  -7.63300 31.40100 32.43500

