158

Mg -2.19700 17.00400 26.35500
C  -2.44300 14.87500 28.96300
C  -3.40100 19.61300 28.43900
C  -2.13100 19.15700 23.75400
C  -1.98000 14.38200 24.15500
N  -2.69700 17.27100 28.53700
C  -2.73600 16.21900 29.39200
C  -3.07600 16.71100 30.76100
C  -3.62000 18.20500 30.56300
C  -3.29200 18.39700 29.08900
C  -5.13300 18.52700 30.77500
C  -1.86000 16.71300 31.71800
C  -2.08600 15.91000 33.03100
H  -2.71600 16.71000 34.18500
N  -2.53400 19.13200 26.13400
C  -2.92000 20.01900 27.10500
C  -2.73400 21.40200 26.61400
C  -2.25000 21.23800 25.30700
C  -2.34200 19.76800 24.98900
C  -3.01900 22.57500 27.45100
C  -1.76500 22.32900 24.42300
O  -1.52900 22.14300 23.20600
C  -1.49200 23.63900 25.01800
N  -2.16300 16.80500 24.22100
C  -2.05500 17.80900 23.41900
C  -1.96200 17.30900 21.97300
C  -2.02000 15.77700 22.07100
C  -1.95400 15.67200 23.56400
C  -3.14900 17.84100 21.06400
C  -0.89300 15.11100 21.31000
C  0.48200 15.31900 21.89300
N  -2.17800 15.01600 26.49000
C  -2.12900 14.06900 25.54300
C  -2.17900 12.72100 26.13400
C  -2.23700 12.98600 27.49800
C  -2.27100 14.38100 27.67100
C  -2.33300 11.47600 25.38200
C  -2.25900 12.35600 28.78400
O  -2.17000 11.18800 29.06700
C  -2.43900 13.54900 29.80400
C  -1.35200 13.36100 30.84800
O  -0.24500 13.80700 30.78800
O  -1.95800 12.59000 31.82700
C  -1.03200 11.96700 32.80300
H  -3.79600 20.45300 29.01300
H  -1.93900 19.77900 22.87700
H  -1.73200 13.51100 23.54400
H  -3.91800 16.11500 31.11300
H  -3.15200 18.97800 31.17300
H  -5.65500 17.70800 31.27000
H  -5.69300 18.76200 29.87000
H  -5.30700 19.37500 31.43600
H  -1.65700 17.73900 32.02600
H  -0.95000 16.46200 31.17200
H  -1.16900 15.59900 33.53100
H  -2.87900 15.22100 32.73800
H  -2.96800 22.29700 28.50400
H  -3.93600 23.15300 27.32800
H  -2.22000 23.31200 27.53500
H  -1.14000 24.31000 24.23500
H  -0.69200 23.58500 25.75600
H  -2.49400 23.97700 25.28400
H  -1.03500 17.66600 21.52400
H  -2.97000 15.40500 21.68900
H  -3.85300 18.47300 21.60500
H  -3.74800 17.04700 20.61800
H  -2.83700 18.48300 20.24100
H  -0.88100 15.59400 20.33300
H  -1.01700 14.03700 21.17500
H  1.18000 15.92000 21.31000
H  0.88600 14.31000 21.81000
H  0.44000 15.68700 22.91800
H  -2.05500 10.57300 25.92600
H  -2.02200 11.59100 24.34300
H  -3.42100 11.40300 25.37800
H  -3.38700 13.28600 30.27400
H  -0.34800 11.39200 32.17900
H  -1.60900 11.23600 33.36800
H  -0.47700 12.67700 33.41700
Mg 15.70500 51.67300 25.58000
C  17.72200 50.83800 28.27000
C  13.15300 52.41500 28.05800
C  13.60400 52.37600 23.14100
C  18.05200 50.42100 23.32600
N  15.44600 51.64000 27.92200
C  16.45600 51.33100 28.74800
C  16.06400 51.60900 30.20700
C  14.53100 51.71400 30.10500
C  14.34300 51.92700 28.63400
C  13.82100 50.36900 30.59100
C  16.86600 52.82500 30.72900
C  16.23900 53.42200 31.98900
H  15.42800 52.48800 32.92500
N  13.71200 52.27600 25.55000
C  12.86100 52.53800 26.66900
C  11.62300 53.07300 26.10800
C  11.68300 53.10900 24.76700
C  13.01000 52.55900 24.36300
C  10.37000 53.19800 26.98200
C  10.63900 53.60700 23.78500
O  10.81500 53.81200 22.59600
C  9.31600 54.00000 24.32200
N  15.78900 51.32900 23.57900
C  14.79900 51.86200 22.70000
C  15.20900 51.60600 21.21200
C  16.76300 51.40600 21.32300
C  16.80000 50.92500 22.81300
C  14.34000 50.51900 20.50900
C  17.63600 52.72500 21.04600
C  18.78500 52.46800 19.92500
N  17.55000 50.76900 25.69400
C  18.43000 50.33900 24.70300
C  19.67500 49.81500 25.40200
C  19.43900 50.09900 26.76000
C  18.13100 50.58100 26.93100
C  20.92600 49.24800 24.81200
C  20.04300 50.02000 28.09100
O  21.07900 49.54100 28.46600
C  18.96000 50.39300 29.12900
C  18.70900 49.22700 30.06300
O  18.49000 48.03600 29.81900
O  19.00800 49.68100 31.39100
C  18.55900 48.75600 32.43600
H  12.32400 52.55200 28.75600
H  12.98500 52.56900 22.26300
H  18.84300 49.98600 22.71100
H  16.31100 50.75600 30.83800
H  14.11200 52.62300 30.53800
H  13.20700 50.48100 31.48500
H  14.52000 49.53200 30.59800
H  13.23700 50.17800 29.69100
H  16.90000 53.58800 29.95100
H  17.87900 52.56900 31.03900
H  15.67700 54.32800 31.76200
H  17.08300 53.77700 32.58000
H  9.59900 52.43600 26.86300
H  9.98000 54.21500 26.94400
H  10.60900 53.20500 28.04500
H  8.70200 53.19800 24.73300
H  8.72200 54.30300 23.46100
H  9.26900 54.85100 25.00100
H  14.95400 52.51000 20.66000
H  17.02600 50.68300 20.55100
H  15.15300 49.98900 20.01200
H  13.74200 50.96300 19.71300
H  13.70300 49.94800 21.18400
H  18.09500 52.80400 22.03100
H  17.03700 53.60000 20.79100
H  18.60100 51.63400 19.24800
H  19.73100 52.30900 20.44300
H  18.86700 53.33800 19.27300
H  21.50800 48.74600 25.58400
H  21.44900 50.06600 24.31700
H  20.70800 48.51100 24.03800
H  19.48000 51.11700 29.75800
H  19.23400 47.90400 32.51600
H  17.54200 48.40600 32.26100
H  18.54000 49.31900 33.36900

