158

Mg 42.60800 3.67700 48.25800
C  40.92100 6.66500 47.96900
C  39.79900 1.96200 47.67900
C  44.41100 0.78700 47.99700
C  45.63800 5.54100 48.19000
N  40.67800 4.28500 47.84500
C  40.12400 5.54000 47.80900
C  38.63500 5.62900 47.57100
C  38.27600 4.08300 47.70000
C  39.64900 3.33700 47.75200
C  37.43800 3.68400 48.92400
C  38.16300 6.17500 46.15700
C  39.04300 5.77600 44.95100
H  39.38500 6.82800 43.86100
N  42.13900 1.58700 48.10100
C  40.91900 1.11900 47.79900
C  40.84100 -0.32200 47.70100
C  42.18300 -0.70400 47.81700
C  42.97300 0.54400 47.98900
C  39.61200 -1.16600 47.43000
C  42.68900 -2.13200 47.66600
O  41.86500 -3.02800 47.47600
C  44.17700 -2.53100 47.53400
N  44.72600 3.23700 48.04400
C  45.19500 1.98200 48.06800
C  46.70300 1.91700 48.20300
C  47.10200 3.43400 48.02200
C  45.75900 4.13500 48.00200
C  47.26700 1.31800 49.56600
C  47.83000 3.73100 46.71200
C  48.91400 4.84000 46.72400
N  43.23600 5.68300 48.00900
C  44.44200 6.30400 48.19700
C  44.29700 7.75600 48.25600
C  42.90900 7.93600 48.14200
C  42.33000 6.67500 48.07300
C  45.34300 8.68100 48.20500
C  41.93500 8.94400 48.03000
O  41.99000 10.15900 47.97900
C  40.55300 8.11100 47.99400
C  39.66000 8.47500 49.10900
O  39.58600 7.87400 50.21200
O  38.85500 9.51700 48.75100
C  37.67100 9.77200 49.68500
H  38.87100 1.45100 47.41500
H  45.06100 -0.09000 47.96700
H  46.61300 6.00400 48.35700
H  38.29700 6.27600 48.38000
H  37.71700 3.78500 46.81300
H  36.99600 4.56500 49.39100
H  37.98800 3.01300 49.58400
H  36.54100 3.23800 48.49400
H  37.96000 7.24600 46.15300
H  37.30500 5.62700 45.76800
H  38.73200 4.83200 44.50500
H  40.06600 5.62600 45.29500
H  39.74500 -1.96800 46.70400
H  38.77100 -0.55200 47.10900
H  39.31000 -1.69200 48.33600
H  44.67200 -1.99300 46.72500
H  44.05800 -3.57300 47.23600
H  44.77800 -2.53300 48.44300
H  47.09900 1.36300 47.35200
H  47.67100 3.80200 48.87500
H  47.64500 0.31300 49.37900
H  46.51500 1.36700 50.35300
H  48.14700 1.88500 49.86900
H  47.04700 4.09900 46.05000
H  48.23300 2.87100 46.17700
H  48.71800 5.42200 45.82300
H  49.91500 4.43900 46.56800
H  48.77900 5.57500 47.51700
H  45.76000 8.76500 47.20100
H  46.16400 8.30000 48.81300
H  45.08200 9.64500 48.63900
H  40.02200 8.43300 47.09800
H  36.85200 9.09200 49.44800
H  37.35900 10.79600 49.47900
H  37.96900 9.60300 50.71900
Mg -0.26900 43.42500 26.85700
C  1.71800 43.35700 29.77200
C  -2.95100 42.27700 28.76100
C  -2.17100 43.55600 24.09500
C  2.57600 44.06300 24.90200
N  -0.55600 42.93100 29.04400
C  0.35600 43.00700 30.04100
C  -0.27200 42.76800 31.35600
C  -1.63600 42.05700 30.96800
C  -1.74800 42.47100 29.50600
C  -1.60700 40.50200 31.00000
C  -0.39600 44.10900 32.15700
C  0.17800 44.11800 33.66200
H  -0.20100 42.89300 34.58600
N  -2.31100 43.01200 26.46100
C  -3.16400 42.54200 27.40600
C  -4.46100 42.40600 26.71600
C  -4.30600 42.82100 25.34700
C  -2.90200 43.23100 25.26400
C  -5.72400 41.87400 27.43000
C  -5.28000 42.87000 24.24300
O  -4.99400 43.26900 23.10200
C  -6.64600 42.36900 24.37600
N  0.08700 43.75700 24.75300
C  -0.85600 43.78000 23.83100
C  -0.32300 44.41000 22.46800
C  1.15800 44.50300 22.83300
C  1.29500 44.04200 24.28100
C  -0.53100 43.49900 21.26900
C  1.76000 45.86500 22.39900
C  1.73600 47.02400 23.45700
N  1.74900 43.71900 27.18000
C  2.81700 43.90300 26.29700
C  4.02500 44.03200 27.07600
C  3.65100 43.80500 28.39100
C  2.26700 43.58400 28.43200
C  5.39700 44.37500 26.50900
C  4.12900 43.69300 29.77200
O  5.27200 43.68700 30.21800
C  2.87300 43.51600 30.71100
C  3.23900 42.35300 31.60500
O  2.93300 41.16700 31.39700
O  3.88900 42.77800 32.72200
C  4.37300 41.77800 33.64400
H  -3.68700 41.66300 29.28400
H  -2.80600 43.77100 23.23300
H  3.46400 44.46200 24.40700
H  0.32700 42.06700 31.93800
H  -2.47900 42.37600 31.58100
H  -2.07200 40.11500 31.90700
H  -0.57600 40.15200 30.95100
H  -2.16300 40.09600 30.15500
H  -1.41400 44.49600 32.19900
H  0.08400 44.83200 31.49700
H  -0.15800 45.03100 34.15400
H  1.25800 44.25700 33.61300
H  -6.59600 42.52400 27.35900
H  -5.46500 41.62800 28.46000
H  -5.76100 40.95100 26.85100
H  -6.46600 41.36500 24.75900
H  -7.29300 42.63400 23.54000
H  -7.06000 42.92700 25.21600
H  -0.83800 45.36700 22.38500
H  1.64000 43.73000 22.23500
H  -1.59600 43.49700 21.03900
H  -0.29200 42.46200 21.50600
H  0.01000 43.72100 20.35000
H  1.28400 46.22700 21.48800
H  2.75100 45.60700 22.02400
H  1.38700 47.90700 22.92200
H  2.80200 47.16100 23.64000
H  1.15800 46.81300 24.35700
H  5.90700 43.41100 26.52300
H  5.91400 45.03600 27.20500
H  5.32600 44.83800 25.52500
H  2.70400 44.42900 31.28100
H  3.58900 41.41000 34.30500
H  5.19300 42.20700 34.22100
H  4.82900 40.96200 33.08300

