158

Mg 30.01200 57.89800 40.18900
C  27.60000 55.79500 38.94900
C  32.51700 56.02200 39.08500
C  32.11200 60.64500 40.86700
C  27.28400 60.31300 40.90500
N  29.98600 56.06100 39.21200
C  28.93700 55.36500 38.75400
C  29.35200 53.92800 38.30300
C  30.88200 53.97500 38.51200
C  31.20500 55.45500 38.87600
C  31.61000 52.93300 39.45100
C  28.98100 53.53700 36.79600
C  28.86100 54.68400 35.80500
H  27.86600 54.55600 34.65400
N  32.04500 58.20600 40.14000
C  32.91100 57.28000 39.60500
C  34.23400 57.74000 39.85900
C  34.16900 59.08100 40.29000
C  32.70100 59.38400 40.42500
C  35.47000 56.95300 39.59200
C  35.43000 60.07700 40.44800
O  36.57500 59.79500 40.12500
C  35.24100 61.47600 41.07900
N  29.73000 60.22000 40.73400
C  30.80200 61.01000 41.06500
C  30.29800 62.43400 41.61100
C  28.79200 62.12600 41.72900
C  28.53000 60.78800 41.07200
C  30.96700 63.03900 42.88000
C  27.90200 63.30000 41.40100
C  27.19200 63.89300 42.61800
N  27.88400 58.04400 40.02100
C  26.94100 59.03400 40.38400
C  25.64000 58.58900 40.00900
C  25.84200 57.33600 39.41000
C  27.22300 57.06200 39.49000
C  24.37100 59.40300 40.08100
C  25.16600 56.24400 38.75200
O  24.02500 56.15200 38.41800
C  26.29800 55.15800 38.50800
C  25.88400 53.99900 39.26600
O  26.25300 53.61600 40.42100
O  24.85400 53.38600 38.59500
C  23.96000 52.45400 39.31300
H  33.37200 55.38800 38.84300
H  32.71500 61.44900 41.29400
H  26.44000 60.95900 41.15700
H  28.87000 53.29900 39.05200
H  31.37200 53.94200 37.53900
H  30.88800 52.18900 39.78700
H  32.12000 53.47700 40.24600
H  32.41400 52.45800 38.88800
H  28.06300 52.95200 36.86400
H  29.77700 52.86300 36.48100
H  29.80800 54.95800 35.33800
H  28.57400 55.59100 36.33600
H  35.27800 55.88400 39.49100
H  36.36800 57.12500 40.18400
H  35.63400 57.18000 38.53800
H  36.20600 61.90300 41.35100
H  34.76800 61.34100 42.05100
H  34.81100 62.13900 40.32800
H  30.40000 63.13900 40.78600
H  28.75100 61.88900 42.79200
H  31.74500 62.39800 43.29500
H  30.24000 63.24100 43.66600
H  31.49900 63.97000 42.68300
H  27.15800 63.09000 40.63300
H  28.49200 64.13400 41.02200
H  27.82300 64.55400 43.21100
H  26.83300 63.18500 43.36500
H  26.35000 64.49100 42.26900
H  24.48200 60.11800 40.89600
H  23.54600 58.71700 40.27200
H  24.19700 59.97600 39.17000
H  26.24500 55.04200 37.42500
H  23.56800 51.82000 38.51900
H  23.20000 53.10100 39.75100
H  24.50900 51.84800 40.03400
Mg 1.10700 43.60400 25.17700
C  2.85000 43.34600 28.26600
C  -1.58900 42.31700 26.71000
C  -0.14500 43.38600 22.17500
C  4.42700 44.21700 23.65000
N  0.65800 43.00800 27.28600
C  1.45000 43.16900 28.34500
C  0.62400 42.94600 29.62000
C  -0.80000 42.42400 29.11400
C  -0.62000 42.59500 27.64300
C  -1.40200 41.09100 29.58700
C  0.57200 44.16800 30.53700
C  0.90800 43.98400 32.02600
H  0.51300 42.61400 32.68100
N  -0.70600 43.05100 24.56600
C  -1.67100 42.39600 25.31200
C  -2.74200 42.05300 24.48600
C  -2.41400 42.42800 23.18800
C  -1.06500 43.05100 23.24300
C  -3.96600 41.22300 25.05200
C  -3.14700 42.06700 21.88900
O  -2.69900 42.26100 20.76100
C  -4.43300 41.43800 21.95400
N  2.00700 43.83900 23.28500
C  1.19900 43.59500 22.14700
C  1.97000 43.65000 20.86600
C  3.19500 44.43800 21.36300
C  3.27300 44.11500 22.85700
C  2.20700 42.19800 20.42600
C  3.03100 45.95400 21.19200
C  4.19800 46.72200 20.58700
N  3.26600 43.85500 25.77200
C  4.44000 44.08500 25.04400
C  5.53100 44.15400 25.98600
C  4.97300 43.70400 27.20000
C  3.59500 43.70500 27.04300
C  6.96900 44.29500 25.68100
C  5.27400 43.47300 28.56800
O  6.37300 43.49500 29.06400
C  3.97700 43.29900 29.31100
C  4.03100 42.07700 30.18200
O  4.01600 40.90300 29.80200
O  4.13700 42.40700 31.46400
C  4.14400 41.36300 32.50100
H  -2.39600 41.82400 27.25700
H  -0.59200 43.41100 21.17900
H  5.42800 44.43000 23.27000
H  1.13700 42.13500 30.13700
H  -1.61100 43.13400 29.27500
H  -0.79100 40.22900 29.31700
H  -2.44100 40.97600 29.28100
H  -1.55600 41.16500 30.66400
H  -0.46500 44.43100 30.74300
H  1.13600 45.03100 30.18200
H  0.60900 44.70500 32.78800
H  1.96000 44.26700 32.05800
H  -4.86400 41.83400 24.96000
H  -3.84700 40.91600 26.09100
H  -4.03600 40.30200 24.47300
H  -5.03100 41.71500 22.82200
H  -4.35800 40.35000 21.94700
H  -5.04000 41.57200 21.05900
H  1.34200 44.13900 20.12100
H  4.10100 44.05200 20.89600
H  2.70900 41.63600 21.21300
H  2.85400 42.14300 19.55000
H  1.29300 41.63900 20.22200
H  2.86000 46.38200 22.18000
H  2.09400 46.15000 20.67000
H  4.97800 45.98600 20.39300
H  4.48000 47.45400 21.34400
H  3.92800 47.17200 19.63100
H  7.56100 43.84500 26.47800
H  7.17300 45.36500 25.70100
H  7.12600 43.82000 24.71200
H  3.91800 44.12800 30.01700
H  3.36300 40.60800 32.40700
H  4.05200 41.98400 33.39200
H  5.12200 40.88200 32.52500

