158

Mg 47.21900 16.87300 27.74200
C  45.37200 16.49200 30.64600
C  49.31400 19.01500 29.44800
C  48.42900 18.05800 24.73300
C  44.51300 15.42900 25.97400
N  47.28100 17.73300 29.76900
C  46.54400 17.25100 30.83300
C  47.08400 17.73000 32.18300
C  48.19300 18.74000 31.78800
C  48.28200 18.53700 30.24200
C  47.97000 20.07600 32.46700
C  47.51400 16.52600 33.06700
C  47.45800 16.67900 34.63100
H  46.67500 17.88300 35.11900
N  48.73400 18.17400 27.18200
C  49.58400 18.91900 28.04500
C  50.62900 19.56600 27.26000
C  50.38900 19.29600 25.85600
C  49.12400 18.52800 25.89900
C  51.70400 20.47500 27.99500
C  51.13300 19.55300 24.54200
O  50.80900 19.23400 23.43600
C  52.48000 20.20300 24.60000
N  46.52800 16.75700 25.64100
C  47.29500 17.27300 24.60900
C  46.60400 16.88200 23.20800
C  45.63900 15.80600 23.70400
C  45.49700 16.02400 25.19500
C  45.91700 18.16800 22.66500
C  45.96400 14.37200 23.32600
C  45.08500 13.61500 22.25900
N  45.44400 15.95400 28.18600
C  44.39900 15.38000 27.39900
C  43.30400 14.99500 28.19700
C  43.63700 15.35800 29.47300
C  44.91500 15.99800 29.44000
C  42.02500 14.43400 27.71100
C  43.20900 15.31200 30.88400
O  42.21300 14.87700 31.36000
C  44.37500 16.07700 31.72800
C  43.66100 17.12600 32.47800
O  43.68000 18.30400 32.06200
O  43.08900 16.61400 33.65200
C  42.18900 17.56500 34.26800
H  49.93200 19.64100 30.09500
H  48.75200 18.31300 23.72200
H  43.72300 14.95300 25.39000
H  46.25600 18.25100 32.66400
H  49.17500 18.37000 32.08400
H  47.20000 20.14200 33.23600
H  47.65100 20.82300 31.74000
H  48.95300 20.40200 32.80600
H  48.59200 16.51300 32.90900
H  47.09900 15.58000 32.72000
H  48.45400 16.86700 35.03300
H  47.00800 15.80400 35.09800
H  52.66900 19.97600 28.08600
H  51.33700 20.68500 28.99900
H  51.93000 21.34800 27.38300
H  53.18800 19.80400 23.87300
H  53.02500 20.13600 25.54200
H  52.39800 21.25900 24.34200
H  47.40900 16.49700 22.58200
H  44.63700 15.92100 23.29100
H  46.67600 18.43900 21.93200
H  45.82000 19.03100 23.32400
H  45.00300 17.88900 22.14100
H  46.06400 13.78100 24.23600
H  46.94100 14.51800 22.86600
H  44.82200 12.64500 22.68100
H  45.71700 13.54000 21.37400
H  44.22000 14.21300 21.97500
H  41.71300 14.92500 26.78900
H  41.21400 14.60200 28.41900
H  42.18600 13.37100 27.53000
H  44.73000 15.36400 32.47200
H  42.72600 18.46500 34.56900
H  41.81400 17.07000 35.16400
H  41.35500 17.88000 33.64100
Mg 47.18700 25.90800 29.16800
C  48.12700 27.95400 31.83400
C  45.87100 23.62600 31.52800
C  46.64000 23.60400 26.80800
C  48.71400 28.02100 26.99300
N  46.90500 25.85800 31.51100
C  47.34000 26.90600 32.34000
C  46.79400 26.62200 33.75000
C  46.28700 25.09100 33.73100
C  46.30700 24.84400 32.20400
C  47.07000 24.03300 34.64700
C  45.60800 27.62700 34.14300
C  45.75100 28.44800 35.49600
H  46.33200 27.65100 36.70500
N  46.36000 23.85800 29.18900
C  45.91400 23.14800 30.23300
C  45.33600 21.91800 29.74200
C  45.43000 21.85900 28.33900
C  46.15500 23.12900 28.03800
C  44.63600 20.89500 30.59300
C  44.96500 20.84000 27.26400
O  45.12200 21.02400 26.06100
C  44.24900 19.49700 27.65200
N  47.74400 25.80500 27.18800
C  47.35700 24.74500 26.37400
C  47.55900 25.11800 24.90900
C  48.16800 26.57400 24.89300
C  48.19900 26.89400 26.40400
C  48.41800 24.16700 24.07300
C  47.32000 27.57100 24.05300
C  48.08800 28.21000 22.87500
N  48.26200 27.54400 29.35700
C  48.78900 28.36600 28.38100
C  49.35200 29.53300 28.98500
C  49.13500 29.41200 30.34500
C  48.42900 28.18300 30.52200
C  50.20000 30.50600 28.14200
C  49.36600 30.08000 31.62000
O  50.02900 31.07100 31.85400
C  48.69200 29.12100 32.67500
C  49.74300 28.75600 33.67200
O  50.30500 27.66500 33.85200
O  49.70900 29.81800 34.60500
C  50.42300 29.53600 35.91800
H  45.34400 22.94100 32.19600
H  46.43100 23.02100 25.90900
H  48.99900 28.86300 26.35900
H  47.68600 26.67200 34.37500
H  45.25100 25.01400 34.05800
H  46.45300 23.51000 35.37900
H  47.93900 24.41500 35.18200
H  47.61400 23.33100 34.01400
H  44.62500 27.17300 34.01800
H  45.66400 28.34000 33.32100
H  44.77300 28.74400 35.87700
H  46.29500 29.37000 35.29300
H  43.58300 20.89200 30.31100
H  44.74600 21.18400 31.63800
H  45.04500 19.89100 30.48000
H  43.31600 19.83500 28.10400
H  44.91100 19.07200 28.40600
H  44.01100 18.85600 26.80300
H  46.54500 25.12800 24.50900
H  49.18200 26.50600 24.50000
H  48.08100 23.13300 24.14200
H  49.45700 24.27100 24.38800
H  48.31200 24.46400 23.03000
H  46.94200 28.33800 24.72900
H  46.44300 27.11900 23.58800
H  47.41100 28.40100 22.04200
H  48.79100 27.47900 22.47400
H  48.65900 29.11600 23.07900
H  49.64900 31.21500 27.52500
H  50.96800 29.92200 27.63500
H  50.71100 31.25100 28.75100
H  47.91300 29.71400 33.15500
H  50.66400 30.44700 36.46500
H  51.38200 29.02800 35.81400
H  49.75900 28.87900 36.47900

