158

Mg 7.89200 3.22100 27.83200
C  9.73400 1.76000 30.54400
C  6.01500 4.64600 30.18000
C  6.22900 4.37900 25.33500
C  9.51000 0.97100 25.71200
N  7.87500 3.20000 30.11700
C  8.86000 2.71600 30.93600
C  8.64700 3.09500 32.44100
C  7.25600 3.87900 32.25900
C  6.98000 3.92200 30.74500
C  6.08600 3.12900 32.98900
C  9.79700 3.95100 33.09300
C  9.47200 4.79400 34.33800
H  10.43900 4.58300 35.47400
N  6.27100 4.30200 27.79100
C  5.62200 4.83100 28.86700
C  4.61300 5.68600 28.35300
C  4.75600 5.74700 26.92800
C  5.82100 4.79200 26.60100
C  3.48600 6.32200 29.27000
C  3.98400 6.56100 25.90300
O  3.97200 6.36500 24.67000
C  3.07200 7.64200 26.33700
N  7.64900 2.50000 25.76800
C  7.00800 3.30200 24.94200
C  7.19300 2.88300 23.48200
C  8.32500 1.80500 23.60000
C  8.48900 1.68200 25.13700
C  5.91700 2.44800 22.70800
C  9.69000 2.26400 23.06800
C  10.39600 1.09900 22.41300
N  9.37900 1.70700 27.99900
C  9.98100 0.97800 27.01500
C  10.97700 0.12300 27.65900
C  10.93900 0.43700 28.99700
C  9.97300 1.44700 29.15400
C  11.75800 -0.92100 26.90200
C  11.64800 0.17500 30.22200
O  12.66700 -0.41700 30.41200
C  10.91700 1.05700 31.31700
C  10.44000 0.17800 32.38900
O  9.64200 -0.70200 32.32000
O  11.13100 0.48300 33.59600
C  10.80400 -0.30600 34.77500
H  5.49100 5.28600 30.89400
H  5.68200 4.88700 24.53800
H  10.03700 0.44300 24.91400
H  8.57900 2.10500 32.89100
H  7.29900 4.90700 32.62000
H  6.59400 2.42600 33.64900
H  5.49300 2.58500 32.25300
H  5.51000 3.82900 33.59400
H  10.11900 4.62300 32.29700
H  10.60400 3.26000 33.33700
H  8.50100 4.46700 34.71100
H  9.27500 5.80900 33.99300
H  3.62900 5.93700 30.28000
H  2.49000 6.07900 28.89900
H  3.64100 7.39600 29.17000
H  2.91600 8.31800 25.49600
H  3.54600 8.25000 27.10700
H  2.13200 7.24200 26.71800
H  7.60100 3.80500 23.06600
H  7.99200 0.87000 23.15100
H  4.98000 2.49200 23.26400
H  5.85100 1.38900 22.46100
H  5.87800 2.89700 21.71500
H  10.24600 2.67100 23.91400
H  9.50300 3.09700 22.39100
H  10.69900 1.47000 21.43400
H  9.75000 0.23300 22.27000
H  11.25800 0.80800 23.01300
H  12.62500 -1.20300 27.49800
H  12.23300 -0.48400 26.02400
H  11.12800 -1.79800 26.75200
H  11.59700 1.82600 31.68300
H  10.39200 0.39300 35.50200
H  11.70500 -0.70100 35.24600
H  10.10900 -1.12000 34.57200
Mg 30.22200 58.18400 40.10300
C  27.62400 55.67300 39.50600
C  32.39800 55.68500 39.36900
C  32.50300 60.58900 40.07900
C  27.65600 60.43200 40.74500
N  30.00000 55.83200 39.62300
C  28.88400 55.17500 39.21800
C  29.27000 53.75300 38.69200
C  30.83600 53.63600 39.10900
C  31.11000 55.09600 39.40700
C  31.10200 52.60600 40.27800
C  29.17400 53.59600 37.13500
C  27.75100 53.17500 36.66800
H  27.00500 54.13400 35.65600
N  32.19000 58.15200 39.72300
C  32.93600 57.03200 39.50300
C  34.29400 57.40900 39.35600
C  34.37300 58.83000 39.41000
C  33.01700 59.28400 39.69400
C  35.49100 56.43500 39.34700
C  35.66100 59.66600 39.29800
O  36.75400 59.15400 39.09100
C  35.67500 61.12100 39.52000
N  30.05300 60.31000 40.17800
C  31.18400 61.06300 40.27200
C  30.79300 62.48100 40.77800
C  29.24400 62.42600 41.07200
C  28.96600 60.94800 40.68400
C  31.73600 63.06800 41.89800
C  28.33400 63.42800 40.19600
C  27.21700 64.11200 40.97800
N  28.10700 58.14300 40.13800
C  27.25100 59.16300 40.44900
C  25.87900 58.62400 40.34600
C  26.00300 57.22600 40.06700
C  27.34600 57.00100 39.91800
C  24.66200 59.44700 40.62600
C  25.32200 55.93300 39.90000
O  24.11500 55.76000 39.96800
C  26.28400 54.84500 39.42400
C  26.18700 53.71400 40.48200
O  26.66200 53.70800 41.54900
O  25.47800 52.61900 40.00600
C  25.44300 51.48800 40.94700
H  33.13400 54.91700 39.12500
H  33.19600 61.38200 40.36600
H  26.90900 61.16800 41.04700
H  28.58600 53.07600 39.20400
H  31.47700 53.33500 38.28100
H  31.92900 51.95700 39.99000
H  30.21800 52.00400 40.48800
H  31.53200 53.01300 41.19300
H  29.81500 52.76100 36.85200
H  29.47000 54.55900 36.72000
H  27.10800 52.94600 37.51800
H  27.77200 52.20700 36.16800
H  36.04400 56.53700 38.41400
H  35.31600 55.39300 39.61500
H  36.12400 56.81100 40.15100
H  34.92500 61.58700 38.88200
H  36.68600 61.49700 39.36200
H  35.47900 61.45600 40.53800
H  30.83800 63.08800 39.87400
H  28.99200 62.59700 42.11800
H  32.33200 62.23700 42.27600
H  31.28700 63.50600 42.78900
H  32.31000 63.84500 41.39400
H  27.92300 62.91200 39.32800
H  29.06200 64.16000 39.84600
H  27.42500 65.17700 41.07700
H  27.22900 63.61300 41.94700
H  26.38500 63.88600 40.31100
H  23.80700 58.87300 40.98200
H  24.45100 59.75900 39.60300
H  24.88400 60.24500 41.33400
H  25.95400 54.40700 38.48200
H  25.57900 50.50800 40.49000
H  24.43400 51.31800 41.32300
H  26.05000 51.53000 41.85200

