158

Mg -0.58900 7.50200 26.00500
C  0.43400 9.24100 28.79900
C  -1.02400 4.73700 27.95500
C  -1.24200 5.68600 23.28100
C  -0.29700 10.33400 24.13600
N  -0.22100 7.01100 28.12300
C  0.10300 7.91000 29.12500
C  -0.19100 7.37800 30.49200
C  -0.34700 5.83400 30.17700
C  -0.52500 5.81400 28.67100
C  0.76800 4.91100 30.62300
C  -1.50700 8.00300 31.19100
C  -1.28600 8.65800 32.56500
H  -0.12400 8.04200 33.30600
N  -1.03700 5.51600 25.62700
C  -1.21100 4.55200 26.58600
C  -1.61100 3.28700 26.00200
C  -1.51200 3.43800 24.58800
C  -1.23500 4.95200 24.42400
C  -1.87400 2.00800 26.83700
C  -1.69300 2.45600 23.39700
O  -1.52500 2.79000 22.24300
C  -2.18300 1.07500 23.62600
N  -0.79700 7.93600 23.93000
C  -1.12400 7.04800 23.00500
C  -1.31500 7.68500 21.60200
C  -1.10500 9.23000 22.00100
C  -0.71900 9.21200 23.41700
C  -0.32700 7.22900 20.57400
C  -2.36600 10.13900 21.89500
C  -2.34900 11.55000 21.42100
N  0.01600 9.40200 26.31400
C  0.04100 10.53400 25.50400
C  0.57700 11.71700 26.15300
C  0.70100 11.22400 27.44900
C  0.35500 9.81000 27.53100
C  0.90200 13.09100 25.60700
C  1.16300 11.61100 28.72900
O  1.61000 12.63600 29.13500
C  0.79500 10.34800 29.64500
C  2.08000 10.01900 30.33400
O  2.88200 9.13500 30.12400
O  2.28900 10.97400 31.32900
C  3.66400 11.06800 31.84900
H  -1.28100 3.94000 28.65600
H  -1.52000 5.08300 22.41400
H  -0.26000 11.29000 23.61000
H  0.67100 7.55000 31.13600
H  -1.24900 5.49700 30.68800
H  1.60500 5.43300 31.08900
H  1.14600 4.36700 29.75800
H  0.36800 4.12900 31.26800
H  -2.32400 7.28200 31.22900
H  -1.83300 8.83700 30.57000
H  -2.19900 8.42200 33.11200
H  -1.19500 9.74300 32.51500
H  -2.94300 1.88900 27.01100
H  -1.42300 2.05500 27.82800
H  -1.40000 1.14000 26.37900
H  -2.53500 0.59600 22.71300
H  -3.08800 1.20100 24.21900
H  -1.49600 0.37800 24.10600
H  -2.36500 7.56100 21.33700
H  -0.23200 9.58800 21.45600
H  -0.80200 6.48200 19.93900
H  0.51200 6.73500 21.06500
H  -0.01200 8.05000 19.93000
H  -2.85800 10.25600 22.86000
H  -3.21800 9.63400 21.44000
H  -3.26900 11.65000 20.84500
H  -1.50500 11.80000 20.77900
H  -2.29700 12.16600 22.31900
H  0.17100 13.48900 24.90400
H  1.86500 12.95000 25.11600
H  0.94200 13.79900 26.43500
H  0.04700 10.57800 30.40400
H  4.30500 11.01300 30.97000
H  3.82200 10.21900 32.51400
H  3.82400 12.08900 32.19700
Mg -11.17400 37.17900 42.14100
C  -8.86900 34.62600 41.52200
C  -8.90700 39.45000 40.65700
C  -13.61300 39.47200 42.40800
C  -13.37700 34.75300 43.38100
N  -9.28000 36.96000 40.94000
C  -8.51700 35.82700 40.88600
C  -7.33900 36.04500 40.00400
C  -7.19200 37.64600 40.04400
C  -8.53600 38.05900 40.59700
C  -5.97100 38.05800 40.93700
C  -7.50600 35.34400 38.65900
C  -6.37700 34.35800 38.25700
H  -5.51300 34.83100 37.08100
N  -11.34600 39.18500 41.56300
C  -10.25800 39.95000 41.10000
C  -10.71400 41.32500 40.90000
C  -12.05600 41.36100 41.30000
C  -12.42300 39.97400 41.83700
C  -9.81000 42.33100 40.41800
C  -12.91800 42.57900 41.13100
O  -12.45000 43.56200 40.62600
C  -14.38000 42.66900 41.58400
N  -13.19600 37.15400 42.79100
C  -14.00700 38.26600 42.90600
C  -15.47100 37.94800 43.30100
C  -15.37200 36.33800 43.62900
C  -13.88800 36.02400 43.19900
C  -16.07200 38.93900 44.33000
C  -16.47900 35.48100 42.93800
C  -17.14700 34.29300 43.82100
N  -11.14900 35.07500 42.47400
C  -12.10400 34.26400 43.07100
C  -11.57100 32.96100 43.15500
C  -10.25400 33.02800 42.56500
C  -10.05700 34.33200 42.17300
C  -12.34000 31.74000 43.53100
C  -9.08400 32.25700 42.19100
O  -8.85000 31.06100 42.36600
C  -8.15400 33.34700 41.47600
C  -6.82500 33.27300 42.11600
O  -5.87900 32.59400 41.80800
O  -6.81100 34.15500 43.19300
C  -5.48300 34.50900 43.68300
H  -8.23900 40.20600 40.23900
H  -14.41700 40.21000 42.36500
H  -14.10300 34.13300 43.91100
H  -6.53900 35.47600 40.47800
H  -7.08500 37.98500 39.01300
H  -5.52400 38.91100 40.42600
H  -5.34100 37.17500 41.04400
H  -6.25300 38.39600 41.93400
H  -7.69600 36.09500 37.89200
H  -8.46700 34.83500 38.73600
H  -6.73100 33.36500 37.98100
H  -5.83300 34.18100 39.18500
H  -10.01800 42.52400 39.36600
H  -8.82800 41.95200 40.70100
H  -9.93000 43.30200 40.90000
H  -14.30200 42.40100 42.63700
H  -14.98000 41.89700 41.10200
H  -14.71500 43.69300 41.41300
H  -15.97700 38.01200 42.33800
H  -15.46200 36.26300 44.71200
H  -16.63500 39.68900 43.77500
H  -15.38000 39.47300 44.98100
H  -16.80000 38.54800 45.04100
H  -16.00800 35.03600 42.06100
H  -17.22500 36.08700 42.42500
H  -16.82700 33.34300 43.39300
H  -18.23700 34.31800 43.79000
H  -16.80500 34.17000 44.84900
H  -12.50900 31.21600 42.59000
H  -13.29300 32.03800 43.96800
H  -11.68700 31.24500 44.24900
H  -7.97400 32.98000 40.46500
H  -5.57800 35.14400 44.56500
H  -4.97700 35.21800 43.02800
H  -4.89200 33.64100 43.97700

