158

Mg -0.58300 7.59400 26.34600
C  0.11400 9.55200 29.09300
C  -0.77300 4.88800 28.57200
C  -1.04400 5.47000 23.70000
C  -0.37800 10.32900 24.21900
N  -0.27000 7.25200 28.54300
C  -0.15500 8.30300 29.42700
C  -0.33700 7.76500 30.91000
C  -0.57300 6.26900 30.73800
C  -0.56900 6.12300 29.21000
C  0.45800 5.35800 31.52200
C  -1.46400 8.45800 31.71800
C  -1.29100 8.76500 33.19100
H  -0.05700 8.19500 33.90200
N  -0.66300 5.45300 26.11400
C  -0.81200 4.57900 27.19300
C  -1.12300 3.22000 26.69800
C  -1.23000 3.34800 25.23500
C  -0.92900 4.82500 24.94700
C  -1.22600 1.99400 27.56700
C  -1.53300 2.29600 24.13600
O  -1.62200 2.61100 22.96600
C  -1.67600 0.85400 24.51000
N  -0.80400 7.85100 24.27800
C  -0.98800 6.81700 23.34100
C  -1.13700 7.42900 21.93200
C  -0.99700 8.96800 22.12500
C  -0.71200 9.08400 23.61000
C  -0.09400 6.85000 20.91200
C  -2.24900 9.83000 21.79800
C  -3.35400 10.01100 22.81100
N  -0.07700 9.53500 26.53400
C  -0.09600 10.55600 25.63000
C  0.26200 11.79100 26.30300
C  0.38700 11.43400 27.66100
C  0.15600 10.04900 27.76500
C  0.56500 13.11300 25.61300
C  0.72600 11.97400 29.02600
O  1.14900 13.07400 29.33600
C  0.45400 10.73200 29.95200
C  1.61000 10.62000 30.86900
O  2.72900 10.28900 30.55400
O  1.23800 11.37400 31.91700
C  2.32000 11.83100 32.79400
H  -0.93100 4.06100 29.26800
H  -1.23700 4.78900 22.86800
H  -0.39100 11.22900 23.60000
H  0.63100 7.94000 31.37900
H  -1.56500 6.11400 31.16100
H  -0.12700 4.59500 32.03500
H  1.10700 5.97800 32.14000
H  0.99400 4.87200 30.70700
H  -2.42100 7.93900 31.65100
H  -1.72900 9.37800 31.19600
H  -2.21400 8.38800 33.63200
H  -1.20800 9.83000 33.41100
H  -0.41100 1.29900 27.36600
H  -2.11700 1.43100 27.28800
H  -1.29400 2.20400 28.63400
H  -1.92200 0.28600 23.61300
H  -2.50300 0.76200 25.21500
H  -0.71200 0.56400 24.92700
H  -2.12000 7.20300 21.51900
H  -0.19300 9.50200 21.62000
H  -0.50700 6.17200 20.16500
H  0.60400 6.18500 21.42100
H  0.55400 7.58200 20.43000
H  -2.65100 9.38500 20.88800
H  -1.84700 10.76300 21.40300
H  -3.02200 10.16400 23.83800
H  -4.07500 9.20100 22.70000
H  -3.85800 10.94700 22.56700
H  0.97300 13.76500 26.38500
H  -0.43900 13.46300 25.37300
H  1.09400 12.92800 24.67800
H  -0.41900 10.97900 30.55600
H  3.14900 12.29900 32.26400
H  2.72100 10.97300 33.33400
H  1.89500 12.48500 33.55600
Mg 34.74900 2.78400 29.11300
C  33.04200 3.87700 32.04100
C  37.61300 2.34200 31.02500
C  36.50200 2.03200 26.25900
C  31.95500 3.40200 27.24500
N  35.32000 3.22300 31.30400
C  34.40300 3.49500 32.36000
C  35.00700 3.42500 33.70000
C  36.49200 3.04500 33.36100
C  36.49100 2.84000 31.79100
C  37.57900 4.05100 33.77500
C  34.23600 2.48000 34.64600
C  34.30400 2.86600 36.13700
H  35.43800 3.67400 36.79700
N  36.71900 2.13400 28.72800
C  37.76100 2.06200 29.62600
C  39.02300 1.67000 28.95500
C  38.69600 1.47400 27.51400
C  37.23400 1.91000 27.47700
C  40.25700 1.43100 29.66000
C  39.56500 1.01300 26.30200
O  39.13000 0.84500 25.14200
C  41.04800 0.66300 26.51000
N  34.34300 2.86200 27.03400
C  35.17700 2.40100 26.00000
C  34.41100 2.26200 24.68700
C  32.92100 2.49400 25.14200
C  33.11400 2.93900 26.56600
C  34.92300 3.29500 23.58000
C  31.92100 1.37400 24.85800
C  30.94900 1.48700 23.65200
N  32.94500 3.60200 29.46700
C  31.87200 3.69800 28.64400
C  30.68200 4.08400 29.34500
C  31.11100 4.25800 30.70800
C  32.51200 3.93100 30.73300
C  29.36900 4.24600 28.71500
C  30.67800 4.59200 32.06800
O  29.63200 4.85600 32.53500
C  31.92100 4.36300 32.93400
C  32.24500 5.63700 33.66400
O  32.87100 6.56400 33.22400
O  31.59200 5.50000 34.91800
C  31.79500 6.59600 35.84200
H  38.54200 2.24300 31.59100
H  37.06900 1.65400 25.40600
H  31.01700 3.45700 26.68900
H  34.77900 4.44600 34.00800
H  36.75000 2.08500 33.80800
H  38.32900 3.48700 34.32900
H  37.21900 4.87900 34.38600
H  38.04000 4.60400 32.95700
H  34.82500 1.56600 34.57900
H  33.21100 2.34000 34.30300
H  34.14100 1.88400 36.58100
H  33.40400 3.43500 36.36800
H  41.13800 1.44900 29.01800
H  40.30100 0.51400 30.24800
H  40.36800 2.24000 30.38200
H  41.51100 1.58900 26.85100
H  41.53100 0.23400 25.63200
H  41.03300 -0.07100 27.31600
H  34.60500 1.27600 24.26400
H  32.55000 3.41100 24.68400
H  35.54900 2.72200 22.89600
H  35.71000 3.91900 24.00200
H  34.04100 3.78000 23.16100
H  31.31000 1.15900 25.73500
H  32.51800 0.50900 24.56900
H  31.01100 0.52600 23.14200
H  31.37500 2.24600 22.99600
H  29.89600 1.76200 23.70700
H  29.53000 4.47600 27.66200
H  28.88500 5.15500 29.07200
H  28.70100 3.38900 28.80300
H  31.68400 3.49900 33.55500
H  32.50300 6.34800 36.63300
H  30.83300 6.82900 36.29700
H  31.97700 7.55000 35.34700

