158

Mg -1.93100 17.51100 27.32100
C  -2.10300 15.47900 30.18000
C  -2.39700 20.24500 29.34200
C  -2.00300 19.36200 24.52200
C  -2.09900 14.61600 25.42200
N  -2.21300 17.79800 29.49500
C  -2.14800 16.83800 30.41600
C  -2.27500 17.46000 31.82000
C  -2.78300 18.94300 31.52200
C  -2.38400 19.04200 30.00400
C  -4.28900 19.15800 31.82400
C  -0.93900 17.45200 32.63300
C  -1.12500 16.83900 34.07200
H  -0.07500 17.16700 35.19100
N  -1.94800 19.47900 26.98500
C  -2.12900 20.43100 27.96600
C  -2.20200 21.69400 27.34200
C  -2.02300 21.52600 25.96800
C  -2.02700 20.02400 25.73400
C  -2.21300 23.01300 28.08100
C  -1.83300 22.54000 24.88200
O  -1.67500 22.22400 23.70400
C  -1.72100 23.98500 25.18600
N  -1.93200 17.02700 25.23000
C  -1.95700 18.00800 24.29600
C  -1.86000 17.30200 22.85800
C  -1.64300 15.82900 23.12700
C  -1.93300 15.78700 24.68300
C  -2.94900 17.60100 21.85100
C  -0.25600 15.20400 22.80400
C  1.08100 15.92900 23.08600
N  -2.19600 15.44500 27.71900
C  -2.27000 14.42400 26.80800
C  -2.25000 13.16900 27.51900
C  -2.17900 13.52100 28.87000
C  -2.10000 14.93500 28.91200
C  -2.23100 11.79100 26.93500
C  -2.11000 13.04300 30.22600
O  -2.14000 11.90800 30.69400
C  -2.12500 14.31800 31.12200
C  -0.86900 14.16000 31.90700
O  0.22400 14.55400 31.46800
O  -1.00500 13.56000 33.13900
C  0.18900 13.35500 33.94000
H  -2.42200 21.05900 30.07000
H  -1.96600 19.91100 23.57900
H  -1.93600 13.74700 24.78100
H  -2.97600 16.83800 32.37600
H  -2.19100 19.68900 32.05300
H  -4.59400 18.44800 32.59300
H  -4.79000 19.13300 30.85700
H  -4.35100 20.16000 32.25000
H  -0.46400 18.41900 32.79900
H  -0.17300 16.93800 32.05200
H  -1.26400 15.75800 34.07200
H  -2.00900 17.26100 34.55000
H  -3.10100 23.54500 27.74100
H  -1.35700 23.60800 27.76200
H  -2.13000 23.01800 29.16700
H  -0.79600 24.10700 25.74900
H  -2.56500 24.30700 25.79600
H  -1.67000 24.46300 24.20700
H  -0.91400 17.67200 22.46300
H  -2.37400 15.21500 22.60100
H  -3.68800 18.27800 22.28000
H  -3.56200 16.71200 21.70100
H  -2.59600 18.07400 20.93400
H  -0.25500 14.92800 21.75000
H  -0.28500 14.25600 23.34100
H  1.77500 15.25200 23.58300
H  1.02200 16.86400 23.64400
H  1.63400 16.05600 22.15500
H  -1.45800 11.72100 26.16900
H  -3.20200 11.47500 26.55500
H  -1.84900 11.13700 27.71900
H  -2.93300 14.36900 31.85200
H  -0.20300 12.71500 34.73100
H  0.69100 14.26200 34.27700
H  0.88700 12.77700 33.33600
Mg -11.37400 38.39000 41.96700
C  -9.17700 35.69400 41.25400
C  -9.07100 40.49000 40.28000
C  -13.60600 40.77500 42.24500
C  -13.58000 36.07500 43.37000
N  -9.46900 38.08100 40.69900
C  -8.79500 36.89100 40.56700
C  -7.56600 37.05300 39.63900
C  -7.49600 38.60100 39.36900
C  -8.66600 39.12900 40.23000
C  -6.14900 39.28900 39.52500
C  -7.73800 36.14800 38.33400
C  -6.53600 35.29600 38.02700
H  -5.41200 35.91400 37.11000
N  -11.33500 40.42400 41.41700
C  -10.32900 41.07300 40.72800
C  -10.70700 42.46000 40.63900
C  -11.95300 42.62800 41.27600
C  -12.35400 41.24900 41.68300
C  -9.77300 43.51900 40.18100
C  -12.67800 43.90200 41.47000
O  -12.09200 44.88600 41.06200
C  -14.12400 44.06200 42.14200
N  -13.38200 38.33000 42.57100
C  -14.04800 39.54100 42.67600
C  -15.47400 39.38200 43.24100
C  -15.40900 37.90000 43.67200
C  -14.06700 37.35900 43.11900
C  -15.93900 40.46300 44.37000
C  -16.69400 37.13700 43.33500
C  -17.21800 36.21400 44.43700
N  -11.44000 36.28200 42.25600
C  -12.33800 35.51900 42.98300
C  -11.82200 34.17300 43.24500
C  -10.55300 34.28800 42.58300
C  -10.38600 35.50900 41.91700
C  -12.49300 33.12200 44.12500
C  -9.34600 33.45900 42.36800
O  -9.06900 32.28400 42.53900
C  -8.40600 34.41500 41.39500
C  -7.01700 34.67300 41.88800
O  -6.02100 34.12800 41.44000
O  -6.98500 35.70400 42.79100
C  -5.71000 36.08300 43.30200
H  -8.39600 41.18100 39.77100
H  -14.38700 41.53900 42.26100
H  -14.35200 35.50000 43.88500
H  -6.64600 36.78700 40.16000
H  -7.66500 38.79300 38.31000
H  -6.31700 40.05800 40.27800
H  -5.83000 39.71900 38.57500
H  -5.39000 38.59200 39.88000
H  -7.86900 36.88800 37.54500
H  -8.58100 35.45900 38.38300
H  -6.88300 34.33500 37.64700
H  -5.95100 35.09600 38.92400
H  -9.76600 43.72300 39.11100
H  -8.79100 43.13500 40.45900
H  -9.77800 44.43200 40.77600
H  -14.20400 43.60000 43.12600
H  -14.85500 43.61700 41.46700
H  -14.31700 45.13300 42.20600
H  -16.14100 39.54500 42.39400
H  -15.40100 37.91000 44.76200
H  -15.32500 41.36200 44.33200
H  -15.77200 39.92100 45.30000
H  -16.98200 40.77700 44.43100
H  -16.58800 36.51300 42.44800
H  -17.45100 37.86800 43.05200
H  -18.18700 36.59700 44.75600
H  -16.43000 35.95600 45.14500
H  -17.52400 35.26300 44.00200
H  -12.97500 32.40800 43.45800
H  -13.24600 33.43700 44.84700
H  -11.73700 32.45200 44.53400
H  -8.32100 33.95400 40.41100
H  -5.44500 37.10100 43.01700
H  -4.85600 35.49200 42.97300
H  -5.81400 36.01800 44.38600

