158

Mg 52.62400 24.87200 44.27700
C  49.61300 26.71200 43.94300
C  50.85500 22.05600 44.06300
C  55.52400 23.32800 44.09800
C  54.36400 28.00500 44.32000
N  50.38500 24.54000 44.10000
C  49.35200 25.37500 44.02000
C  48.09000 24.63800 43.78100
C  48.43700 23.19700 44.19400
C  49.98800 23.20000 44.08900
C  47.87800 22.83800 45.63600
C  47.56500 24.90700 42.32800
C  48.58200 24.65800 41.11900
H  48.28300 25.41300 39.83000
N  53.13100 23.00200 44.22800
C  52.23600 21.94600 43.99200
C  53.05700 20.76500 43.77800
C  54.37500 21.03200 44.06600
C  54.37200 22.56200 44.14000
C  52.44000 19.41600 43.42500
C  55.45100 20.03300 44.26900
O  55.20500 18.80800 44.15600
C  56.83800 20.41000 44.71900
N  54.65600 25.61900 43.85900
C  55.65100 24.73300 44.07000
C  57.02900 25.36400 44.06300
C  56.73500 26.87600 44.15900
C  55.15000 26.86200 44.11300
C  58.04700 24.65800 45.02000
C  57.32800 27.73300 43.01100
C  58.03300 29.03000 43.51000
N  52.16100 26.99700 44.25000
C  52.97900 28.11400 44.23300
C  52.10900 29.27800 44.20200
C  50.81400 28.78500 44.03300
C  50.85400 27.37300 44.01000
C  52.43200 30.66200 44.15000
C  49.37400 29.20600 44.03500
O  48.86300 30.29800 44.16600
C  48.60800 27.91800 43.66400
C  48.31800 28.25200 42.24200
O  49.11000 28.10600 41.26200
O  47.03600 28.69900 42.08600
C  46.48000 29.14100 40.77300
H  50.29300 21.12700 43.94100
H  56.43500 22.73200 44.00900
H  54.93300 28.93400 44.39700
H  47.43700 25.05800 44.54600
H  47.98200 22.51300 43.47700
H  48.33600 23.46700 46.40000
H  48.06300 21.79600 45.89700
H  46.83000 23.13700 45.63900
H  46.95600 25.79200 42.14300
H  46.86800 24.08600 42.15600
H  48.48200 23.64000 40.74200
H  49.60900 24.73700 41.47700
H  53.12100 18.86200 42.77900
H  51.44100 19.56800 43.01500
H  52.26900 18.86800 44.35100
H  57.40800 19.58400 45.14500
H  56.84600 21.28600 45.36800
H  57.42800 20.69600 43.84800
H  57.34000 25.09000 43.05500
H  56.98600 27.21200 45.16500
H  58.61900 23.94100 44.43200
H  57.48500 24.21600 45.84300
H  58.65900 25.44800 45.45600
H  56.66500 28.08100 42.21900
H  58.11300 27.18000 42.49500
H  58.08000 29.20600 44.58500
H  57.66000 29.94600 43.05200
H  59.04900 29.10600 43.12100
H  52.17600 31.14300 43.20600
H  53.52000 30.68900 44.09800
H  52.10400 31.21800 45.02900
H  47.63500 27.88100 44.15400
H  46.79700 28.53600 39.92400
H  46.77200 30.19100 40.76900
H  45.39400 29.11900 40.87000
Mg -4.89100 24.97700 25.51900
C  -3.30100 26.00900 28.41500
C  -7.11000 23.16100 27.37800
C  -5.95700 23.56100 22.66100
C  -2.24200 26.48600 23.59600
N  -5.06600 24.57200 27.71000
C  -4.44500 25.26400 28.72700
C  -5.07900 24.96100 30.10600
C  -6.23700 23.92200 29.73700
C  -6.19100 23.89400 28.17300
C  -5.98400 22.48400 30.40100
C  -5.68600 26.27500 30.72600
C  -5.32200 26.66400 32.10300
H  -4.89600 25.51300 33.09300
N  -6.32200 23.53500 25.07600
C  -7.16800 22.92400 25.99900
C  -8.14300 22.12200 25.31800
C  -7.82800 22.17700 23.95500
C  -6.66700 23.16400 23.82000
C  -9.22300 21.34200 26.02600
C  -8.50500 21.45000 22.81600
O  -8.05100 21.57200 21.66300
C  -9.70800 20.65400 23.03700
N  -4.25100 25.10400 23.44900
C  -4.84200 24.40700 22.46100
C  -4.36700 24.77000 21.03700
C  -3.21700 25.80100 21.35000
C  -3.25500 25.83900 22.87300
C  -3.90500 23.51500 20.18400
C  -3.37000 27.22300 20.74800
C  -2.34800 27.66800 19.74200
N  -3.15700 26.05800 25.87600
C  -2.24400 26.67100 25.00300
C  -1.31100 27.43500 25.76600
C  -1.68500 27.20200 27.09500
C  -2.74600 26.28600 27.11300
C  -0.36100 28.50500 25.16000
C  -1.38300 27.55500 28.45500
O  -0.59900 28.37000 28.84400
C  -2.37300 26.74000 29.36700
C  -1.58200 25.92400 30.29000
O  -1.08400 24.84400 29.95400
O  -1.29100 26.61500 31.39100
C  -0.46600 25.99400 32.37800
H  -7.91900 22.66700 27.91900
H  -6.20700 23.17700 21.67000
H  -1.31800 26.89800 23.18500
H  -4.38200 24.54000 30.83100
H  -7.13400 24.39500 30.13600
H  -6.06000 21.65500 29.69700
H  -6.66000 22.39800 31.25200
H  -4.96800 22.35900 30.77500
H  -6.77000 26.15900 30.70800
H  -5.50800 27.10400 30.04100
H  -6.27000 26.97600 32.53900
H  -4.66100 27.52900 32.16500
H  -10.22600 21.61800 25.70100
H  -9.39600 21.54900 27.08200
H  -9.02400 20.28800 25.83300
H  -9.34400 19.85100 23.67800
H  -10.12900 20.32600 22.08700
H  -10.57300 21.17300 23.45200
H  -5.27400 25.24300 20.66000
H  -2.24900 25.37500 21.08500
H  -4.37600 23.64900 19.21000
H  -4.19400 22.59800 20.69700
H  -2.81700 23.52200 20.11700
H  -3.36700 27.96600 21.54500
H  -4.28000 27.19800 20.14900
H  -2.80200 27.84600 18.76700
H  -1.58100 26.91200 19.57700
H  -1.88900 28.58100 20.12200
H  -0.14300 29.20500 25.96700
H  -0.78500 28.93300 24.25200
H  0.61800 28.11500 24.88200
H  -3.01900 27.40800 29.93700
H  0.59900 26.04900 32.14800
H  -0.83300 24.97900 32.52800
H  -0.66300 26.51200 33.31600

