158

Mg 17.30200 -0.56500 28.57300
C  15.96700 0.64500 31.57800
C  19.45500 -2.49800 30.53900
C  18.40600 -1.94400 25.79900
C  15.17000 1.46800 26.74400
N  17.72800 -0.88300 30.83600
C  17.04600 -0.24900 31.84900
C  17.52000 -0.69700 33.25000
C  18.82900 -1.50700 32.89600
C  18.66300 -1.71100 31.34700
C  20.14200 -0.82500 33.36500
C  16.33800 -1.51600 33.91200
C  15.87600 -0.95100 35.37300
H  16.98400 -0.56300 36.33000
N  18.72200 -1.99500 28.24300
C  19.49000 -2.69700 29.13000
C  20.21600 -3.77000 28.43900
C  19.84700 -3.67100 27.05700
C  18.94400 -2.49200 26.97900
C  21.19200 -4.73600 29.14400
C  20.22500 -4.51700 25.79600
O  19.75400 -4.34300 24.68900
C  21.29700 -5.55800 26.03800
N  16.99900 -0.21000 26.54500
C  17.57000 -0.85700 25.59400
C  17.16400 -0.35700 24.18200
C  16.08300 0.78200 24.55900
C  16.01900 0.65600 26.03700
C  18.27400 0.10500 23.22900
C  14.61300 0.76000 23.88200
C  14.39100 0.61900 22.35700
N  15.82000 0.78300 29.01600
C  15.08500 1.56100 28.10400
C  14.18800 2.41600 28.88900
C  14.50300 2.13600 30.21900
C  15.49800 1.10600 30.27800
C  13.21800 3.40800 28.36300
C  14.31500 2.48000 31.63500
O  13.50200 3.27600 32.09600
C  15.24600 1.58700 32.54400
C  16.15800 2.55300 33.14900
O  17.10500 3.11700 32.59400
O  15.76200 2.82300 34.42300
C  16.59300 3.79800 35.13300
H  20.10600 -3.12400 31.15200
H  18.69700 -2.45500 24.87900
H  14.67200 2.31100 26.26000
H  17.65900 0.21800 33.82600
H  18.75200 -2.52800 33.27100
H  20.64900 -0.58600 32.43000
H  20.84100 -1.43300 33.93900
H  19.98100 0.12200 33.88100
H  16.78700 -2.47900 34.15600
H  15.57400 -1.62600 33.14200
H  15.35800 -1.75700 35.89300
H  15.16300 -0.13800 35.23800
H  22.25200 -4.73200 28.89300
H  20.81000 -5.74700 28.99700
H  21.07100 -4.63000 30.22200
H  22.22900 -5.00000 26.12500
H  21.34200 -6.15100 25.12400
H  21.02000 -6.22600 26.85400
H  16.71300 -1.23900 23.72600
H  16.44100 1.78400 24.32000
H  18.06100 1.13800 22.95200
H  18.35200 -0.52900 22.34600
H  19.24100 0.19500 23.72500
H  14.10100 1.67800 24.17200
H  14.08300 -0.05900 24.36700
H  15.30500 0.19900 21.93700
H  14.32500 1.63000 21.95500
H  13.46800 0.05400 22.22600
H  12.92700 3.10600 27.35600
H  13.72200 4.37000 28.27300
H  12.41000 3.47900 29.09000
H  14.69600 1.06100 33.32400
H  16.34800 4.83000 34.88500
H  17.62900 3.50600 34.96000
H  16.48600 3.62200 36.20400
Mg 47.78700 15.63000 27.62800
C  46.08500 15.79400 30.67200
C  50.17900 17.64300 28.89700
C  49.12300 15.79300 24.54400
C  44.92900 14.02300 26.33900
N  48.11800 16.57500 29.61800
C  47.33500 16.46600 30.71300
C  47.99500 17.06300 31.88600
C  49.26600 17.80700 31.30100
C  49.12600 17.39500 29.79600
C  49.33200 19.31200 31.63100
C  48.38600 15.98800 33.01800
C  47.94700 16.38800 34.45800
H  47.76600 17.86200 34.88600
N  49.47100 16.54600 26.81500
C  50.36900 17.32100 27.53700
C  51.48300 17.84000 26.66000
C  51.19600 17.23000 25.39800
C  49.91600 16.52300 25.50900
C  52.62700 18.62000 27.13700
C  52.03000 17.19200 24.14200
O  51.74400 16.56000 23.10800
C  53.31000 17.89900 24.10200
N  47.23300 14.86000 25.74100
C  47.93200 15.12400 24.62400
C  47.14600 14.70100 23.37800
C  45.82900 14.11700 23.98700
C  45.99100 14.37300 25.45800
C  46.99000 15.91200 22.39400
C  45.46300 12.64000 23.60500
C  46.17100 11.59100 24.40700
N  45.86800 14.92100 28.42000
C  44.84200 14.30300 27.69000
C  43.71200 14.00100 28.63600
C  44.17800 14.52300 29.87700
C  45.50400 15.10000 29.68000
C  42.48700 13.22900 28.30900
C  43.91600 14.79300 31.32100
O  42.92500 14.52700 31.99000
C  45.13900 15.46900 31.89300
C  44.65100 16.74100 32.58000
O  44.58600 17.90600 32.25600
O  44.15700 16.30200 33.77300
C  43.40000 17.21800 34.63500
H  50.95500 18.26500 29.34800
H  49.49500 16.03500 23.54600
H  43.99900 13.65100 25.90500
H  47.33700 17.81200 32.32600
H  50.18300 17.27000 31.54100
H  49.23600 19.86500 30.69600
H  50.28700 19.67000 32.01700
H  48.47300 19.67600 32.19400
H  49.47100 15.93000 32.93500
H  48.05500 14.97800 32.77700
H  48.72800 15.93000 35.06500
H  47.09600 15.76800 34.73800
H  52.89100 19.56400 26.66000
H  53.50700 17.98000 27.08100
H  52.42700 18.92500 28.16400
H  53.06900 18.94000 24.31400
H  53.87700 17.73100 23.18700
H  53.92700 17.49000 24.90200
H  47.73100 13.84800 23.03300
H  45.02300 14.79900 23.71800
H  47.57200 15.65200 21.51000
H  47.51100 16.76100 22.83600
H  45.96400 16.04900 22.05400
H  45.78300 12.64900 22.56300
H  44.38700 12.47600 23.54900
H  46.73100 11.96900 25.26200
H  46.65500 10.95900 23.66300
H  45.44700 10.89600 24.83200
H  42.16700 13.36200 27.27600
H  41.60000 13.52200 28.87000
H  42.47500 12.15600 28.50400
H  45.63600 14.87900 32.66200
H  42.66100 17.82100 34.10800
H  44.11000 17.78700 35.23500
H  42.77100 16.58200 35.25700

