158

Mg -2.34900 17.14800 26.00600
C  -2.34800 15.04300 29.03700
C  -2.75800 19.87400 28.18500
C  -2.33800 19.01600 23.43700
C  -2.54600 14.16400 24.20700
N  -2.66600 17.35500 28.42700
C  -2.57800 16.40400 29.43400
C  -2.61400 17.09700 30.83500
C  -2.93200 18.56800 30.48500
C  -2.66100 18.65500 28.91200
C  -4.32800 19.09400 30.91200
C  -1.55300 16.80300 31.88700
C  -1.56500 17.49400 33.23500
H  -2.12700 16.69000 34.43400
N  -2.53300 19.20400 25.77500
C  -2.63700 20.16800 26.78200
C  -2.44500 21.44400 26.15100
C  -2.18900 21.15400 24.69300
C  -2.34200 19.75700 24.59600
C  -2.61600 22.76600 26.82300
C  -1.90900 22.13000 23.49000
O  -1.82700 21.75900 22.36400
C  -1.79200 23.61100 23.76800
N  -2.55600 16.64000 24.03000
C  -2.49200 17.62700 23.13400
C  -2.59200 17.03100 21.72800
C  -2.27400 15.51000 21.99800
C  -2.50200 15.40900 23.48100
C  -3.87500 17.32800 20.94600
C  -0.81700 14.97100 21.71800
C  0.34800 15.90400 22.10100
N  -2.43400 15.07800 26.45400
C  -2.44900 13.92300 25.59700
C  -2.33200 12.75900 26.35700
C  -2.27300 13.14000 27.63300
C  -2.34300 14.54100 27.69800
C  -2.44600 11.33900 25.83600
C  -2.10700 12.61900 28.93800
O  -2.09700 11.44400 29.28400
C  -2.13900 13.85500 29.92600
C  -0.83100 13.97800 30.68400
O  0.17500 14.65700 30.28900
O  -0.93500 13.29700 31.87000
C  0.17600 13.50100 32.78800
H  -2.98200 20.72200 28.83500
H  -2.36000 19.57500 22.49900
H  -2.32900 13.25400 23.64400
H  -3.53200 16.64700 31.21400
H  -2.16400 19.17000 30.97000
H  -4.86800 19.30900 29.98900
H  -4.29300 20.09300 31.34600
H  -4.87300 18.39800 31.54900
H  -0.60400 16.87700 31.35700
H  -1.72200 15.74000 32.05800
H  -1.99900 18.49300 33.20000
H  -0.49600 17.61600 33.41200
H  -2.48900 22.77600 27.90600
H  -3.55800 23.18400 26.46800
H  -1.77800 23.43000 26.61300
H  -1.76700 24.17100 22.83300
H  -0.95100 23.75000 24.44700
H  -2.70100 23.86500 24.31300
H  -1.75600 17.47900 21.19200
H  -2.92500 14.84400 21.43200
H  -4.52600 16.45800 21.03400
H  -3.80600 17.67000 19.91300
H  -4.34800 18.18100 21.43300
H  -0.59000 14.84400 20.65900
H  -0.65400 14.02600 22.23600
H  1.04800 15.90700 21.26600
H  0.93900 15.52700 22.93500
H  0.12200 16.96700 22.18700
H  -1.96700 10.66800 26.54900
H  -1.94800 11.26700 24.86900
H  -3.48000 11.02300 25.69700
H  -2.97200 13.67000 30.60500
H  -0.11100 14.34000 33.42100
H  1.09600 13.69800 32.23800
H  0.35200 12.54900 33.29100
Mg 42.87300 3.91500 47.18700
C  40.55700 6.35100 47.40200
C  40.48100 1.58900 47.41800
C  45.28200 1.44700 46.84000
C  45.34900 6.24300 46.15900
N  40.79100 3.98500 47.26400
C  40.01700 5.07400 47.47300
C  38.55500 4.65800 47.49100
C  38.65900 3.18500 47.83600
C  40.07800 2.88200 47.52300
C  38.40600 2.83200 49.37200
C  37.74800 5.02100 46.17300
C  38.23700 4.62800 44.85100
H  38.39800 5.76200 43.77400
N  42.85800 1.81100 46.98000
C  41.75700 1.06600 47.11500
C  42.10400 -0.35900 47.10800
C  43.47000 -0.47900 46.85000
C  43.96700 0.97800 46.83700
C  41.04400 -1.47300 47.17300
C  44.29400 -1.83200 46.71000
O  43.81900 -2.92400 46.82700
C  45.71900 -1.72700 46.40300
N  44.98400 3.83700 46.43400
C  45.80000 2.73100 46.68100
C  47.27300 3.07800 46.65800
C  47.25800 4.53900 46.02400
C  45.76200 4.93500 46.18800
C  48.03600 2.98900 48.11200
C  47.82000 4.62800 44.54800
C  49.14400 5.30500 44.32700
N  43.02500 5.89800 46.95500
C  44.07300 6.79900 46.53000
C  43.60900 8.18300 46.59900
C  42.29700 8.04800 47.04600
C  41.96400 6.66000 47.14400
C  44.48500 9.43000 46.35900
C  41.07700 8.83000 47.34500
O  40.84700 10.04500 47.33800
C  39.91800 7.73300 47.56300
C  39.20000 7.91800 48.79000
O  39.53600 7.37600 49.83200
O  38.14600 8.73000 48.63700
C  37.11800 8.94300 49.69000
H  39.68500 0.84800 47.51800
H  46.07200 0.69900 46.93400
H  46.20100 6.81500 45.78600
H  38.04000 5.21100 48.27600
H  37.99500 2.58600 47.21300
H  38.12100 3.77100 49.84700
H  39.34500 2.55400 49.85200
H  37.67600 2.02600 49.44000
H  37.73300 6.11100 46.20500
H  36.76000 4.59800 46.35800
H  37.43700 4.04200 44.40000
H  39.13400 4.01100 44.91200
H  40.30300 -1.64200 46.39200
H  40.49100 -1.31400 48.09900
H  41.48900 -2.45900 47.30900
H  46.28000 -1.55800 47.32200
H  45.85200 -1.03100 45.57500
H  46.11800 -2.63700 45.95700
H  47.72900 2.34300 45.99500
H  47.86600 5.19900 46.64200
H  47.41900 2.35600 48.75000
H  48.26900 3.92900 48.61200
H  49.03100 2.54600 48.05000
H  47.06300 5.05900 43.89400
H  47.97200 3.61300 44.18200
H  49.77300 4.68700 43.68600
H  49.66000 5.44900 45.27600
H  49.01500 6.22900 43.76300
H  45.53800 9.15700 46.42000
H  44.23500 10.28200 46.99100
H  44.33200 9.74000 45.32500
H  39.19200 7.92600 46.77300
H  37.53900 8.93000 50.69500
H  36.42400 8.10300 49.66900
H  36.56100 9.86700 49.53400

