158

Mg 2.05900 8.70300 26.88800
C  2.64600 10.18300 29.91500
C  2.48800 5.59200 28.47000
C  1.77500 7.11800 23.79900
C  2.32300 11.74200 25.17800
N  2.36700 7.99400 29.02600
C  2.32100 8.84500 30.08400
C  2.19800 8.07200 31.42900
C  2.36500 6.59100 30.93700
C  2.42000 6.71200 29.41800
C  3.57500 5.86200 31.58300
C  0.87600 8.37300 32.16800
C  0.97200 8.45300 33.70800
H  2.20000 7.78200 34.41000
N  1.88200 6.69000 26.29300
C  2.10700 5.58700 27.05700
C  1.82500 4.42300 26.31200
C  1.45800 4.87000 25.00300
C  1.68300 6.31800 24.99900
C  1.93400 2.99500 26.88000
C  1.00400 4.10300 23.83000
O  0.50400 4.65300 22.84700
C  1.26600 2.61400 23.76200
N  2.05700 9.33100 24.80900
C  2.02300 8.51800 23.73900
C  2.18600 9.33000 22.43700
C  1.69400 10.67300 22.94700
C  1.95000 10.63900 24.41300
C  3.65100 9.27400 21.93000
C  0.24100 11.07900 22.69100
C  -0.10600 12.40300 21.90600
N  2.60000 10.56200 27.40500
C  2.66800 11.70500 26.59600
C  3.17900 12.75600 27.49300
C  3.09800 12.24100 28.78400
C  2.70000 10.88800 28.69000
C  3.45100 14.20800 27.11600
C  3.18800 12.54500 30.18700
O  3.44500 13.59400 30.75900
C  2.90600 11.24800 30.96200
C  3.93800 11.01500 32.01900
O  5.03600 10.46800 31.94700
O  3.43000 11.55300 33.22900
C  4.49300 11.78800 34.20000
H  2.50000 4.66200 29.04300
H  1.82900 6.65300 22.81200
H  2.55800 12.69800 24.70500
H  3.09700 8.39900 31.95200
H  1.49500 5.96700 31.14100
H  4.19200 6.53700 32.17700
H  4.24700 5.36100 30.88700
H  3.15400 5.01700 32.12700
H  0.22700 7.54600 31.88200
H  0.39500 9.26400 31.76700
H  0.02200 8.05200 34.06000
H  0.98100 9.50400 33.99800
H  2.82200 2.53800 26.44500
H  1.06800 2.35800 26.70100
H  2.08500 3.00800 27.96000
H  2.27000 2.30000 24.04800
H  1.11400 2.22100 22.75700
H  0.61400 2.02500 24.40800
H  1.55600 8.96400 21.62700
H  2.24500 11.47400 22.45500
H  4.38600 8.83000 22.60300
H  3.91100 10.33200 21.92900
H  3.65900 8.76000 20.96900
H  -0.24500 11.14000 23.66500
H  -0.26200 10.28100 22.14500
H  0.77200 12.51100 21.26900
H  -0.17700 13.29800 22.52500
H  -1.02700 12.37600 21.32400
H  3.77100 14.87800 27.91400
H  2.59700 14.66600 26.61700
H  4.34400 14.06200 26.50900
H  1.98000 11.29800 31.53400
H  5.40000 12.14700 33.71300
H  4.75400 10.88500 34.75200
H  4.14100 12.47200 34.97200
Mg 47.20300 24.86100 27.80000
C  48.20200 27.21900 30.30300
C  46.65600 22.59800 30.26000
C  46.47600 22.83700 25.34800
C  48.25900 27.31700 25.36700
N  47.44500 24.94500 30.12200
C  47.82900 25.98800 30.91700
C  47.73300 25.58300 32.39500
C  47.23000 24.12000 32.32200
C  47.09800 23.82800 30.84600
C  48.10600 23.04200 33.12300
C  46.94100 26.71400 33.26100
C  45.91100 26.35200 34.39800
H  45.94900 27.21100 35.72000
N  46.67000 22.90000 27.79700
C  46.53000 22.12100 28.95600
C  46.09000 20.82300 28.50200
C  45.84400 20.89200 27.08000
C  46.37900 22.22300 26.66400
C  45.75600 19.58300 29.44000
C  45.25200 19.84400 26.12800
O  45.00200 20.09700 24.96300
C  44.97600 18.44100 26.59100
N  47.15400 25.17800 25.67900
C  46.81400 24.10700 24.92400
C  47.25400 24.41100 23.48600
C  47.44600 25.96400 23.43200
C  47.66000 26.19400 24.93300
C  48.59000 23.61900 23.12900
C  46.10400 26.61900 22.99400
C  46.23600 27.96800 22.33800
N  48.06400 26.92100 27.71600
C  48.42600 27.75900 26.68400
C  48.93200 28.96800 27.27100
C  48.74100 28.87900 28.68700
C  48.28400 27.53700 28.87900
C  49.47100 30.18300 26.55000
C  48.93100 29.55300 29.94000
O  49.48200 30.66800 30.13300
C  48.51800 28.48600 31.01700
C  49.69900 28.25200 31.95900
O  50.56900 27.40300 31.82000
O  49.61700 29.11400 32.96800
C  50.56300 28.97200 34.08200
H  46.48700 21.77000 30.95000
H  46.19600 22.16200 24.53600
H  48.70700 28.02900 24.67000
H  48.75400 25.61400 32.77700
H  46.35300 23.96700 32.95000
H  47.58000 22.53600 33.93300
H  48.99600 23.51900 33.53400
H  48.28800 22.32900 32.31900
H  46.40700 27.38100 32.58300
H  47.76400 27.31700 33.64400
H  46.16300 25.34300 34.72400
H  44.91500 26.47800 33.97500
H  44.68200 19.39900 29.41700
H  45.99500 19.65500 30.50100
H  46.29100 18.70900 29.06700
H  44.16300 18.35200 27.31100
H  45.94100 18.15200 27.00800
H  44.71600 17.78700 25.75900
H  46.50900 24.04300 22.78000
H  48.29900 26.26600 22.82400
H  49.27300 23.68600 23.97500
H  49.03900 24.03400 22.22700
H  48.33800 22.56500 23.00700
H  45.52000 26.62300 23.91400
H  45.62600 25.93900 22.28900
H  46.03300 27.70700 21.30000
H  47.26600 28.32100 22.40200
H  45.58700 28.71700 22.79200
H  49.12200 31.01000 27.16700
H  49.17600 30.48900 25.54600
H  50.55600 30.17400 26.65400
H  47.66500 28.93200 31.52800
H  49.98100 28.78600 34.98500
H  51.02800 29.94100 34.26500
H  51.31200 28.21200 33.85700

