158

Mg 26.78300 51.89600 25.45600
C  24.23000 52.36300 27.91400
C  28.85100 51.08100 28.06300
C  29.26700 51.39000 23.18400
C  24.58700 52.95300 23.05100
N  26.52400 51.68700 27.79800
C  25.39000 51.82500 28.54600
C  25.59500 51.57100 30.02300
C  27.19500 51.45700 30.07100
C  27.60200 51.48000 28.57400
C  27.82100 52.54500 31.00000
C  24.86800 50.30200 30.52100
C  24.31800 50.38000 31.91200
H  24.85900 49.36100 32.92800
N  28.69900 51.20900 25.57600
C  29.39600 51.04900 26.78400
C  30.76600 50.56900 26.43300
C  30.88900 50.53700 25.03600
C  29.59000 51.05100 24.52300
C  31.68500 50.13300 27.50000
C  32.02200 49.95500 24.18000
O  31.85400 49.81800 22.97500
C  33.32700 49.80300 24.88600
N  26.90200 52.21600 23.47800
C  28.00400 51.86200 22.69600
C  27.68300 51.89300 21.19000
C  26.16800 52.17900 21.16100
C  25.83400 52.46600 22.64300
C  28.52400 53.00400 20.44600
C  25.30100 51.04600 20.54700
C  23.92000 51.51300 20.06300
N  24.82500 52.53500 25.46700
C  24.08400 52.95400 24.38700
C  22.80000 53.32200 24.82900
C  22.80700 53.14200 26.24300
C  24.06700 52.62400 26.56300
C  21.65100 53.79800 24.05300
C  21.99000 53.16200 27.41300
O  20.82700 53.53500 27.56700
C  22.90100 52.73900 28.56800
C  23.15600 53.86500 29.44300
O  23.88700 54.80600 29.20300
O  22.46700 53.70400 30.68700
C  22.70200 54.80200 31.63700
H  29.53000 50.80000 28.87100
H  30.07400 51.32000 22.45200
H  23.85400 53.21900 22.28700
H  25.36700 52.37500 30.72200
H  27.61300 50.52100 30.44300
H  27.08500 52.79900 31.76200
H  28.06200 53.39200 30.35700
H  28.71500 52.19900 31.51900
H  25.57100 49.46900 30.54000
H  24.05200 50.12900 29.81900
H  23.25500 50.14100 31.92700
H  24.36700 51.37300 32.35700
H  31.91400 49.07900 27.34200
H  31.31700 50.33800 28.50500
H  32.63600 50.64400 27.64700
H  33.43900 50.60500 25.61500
H  34.03600 50.09100 24.11000
H  33.47400 48.77700 25.22300
H  27.80400 50.95600 20.64600
H  25.90600 53.08600 20.61600
H  27.86200 53.77700 20.05500
H  29.18000 52.61900 19.66600
H  29.13300 53.49900 21.20300
H  25.09300 50.30700 21.32100
H  25.92400 50.56400 19.79300
H  23.67300 50.98300 19.14300
H  23.85200 52.58900 19.90400
H  23.28900 51.26600 20.91700
H  21.92600 53.71100 23.00200
H  21.39800 54.84400 24.22600
H  20.66400 53.39000 24.26800
H  22.45800 51.90100 29.10600
H  22.58800 55.75900 31.12800
H  23.71800 54.85300 32.02800
H  21.98000 54.74800 32.45200
Mg 7.14400 53.09100 40.41700
C  6.84000 49.63700 40.23100
C  10.54900 52.70300 39.72100
C  7.12600 56.18700 39.21000
C  3.66000 53.30100 40.96000
N  8.50600 51.30200 40.17500
C  8.16900 50.08500 40.03600
C  9.41200 49.18900 39.79000
C  10.57300 50.21500 40.00600
C  9.81900 51.55400 40.05100
C  11.45800 50.03600 41.30800
C  9.56800 48.54100 38.44500
C  9.25400 49.27500 37.11600
H  8.02800 48.92300 36.26800
N  8.63300 54.44300 39.74600
C  9.98200 54.01700 39.52700
C  10.67600 55.19600 39.11000
C  9.67100 56.31500 39.00100
C  8.39600 55.72400 39.40200
C  12.15000 55.30700 38.75300
C  9.97800 57.75500 38.71000
O  11.11600 58.12400 38.44400
C  8.91800 58.77500 38.72100
N  5.62700 54.47800 40.07300
C  5.89200 55.70700 39.51000
C  4.60900 56.57100 39.46300
C  3.69300 55.79000 40.43700
C  4.28200 54.42300 40.41600
C  4.83600 58.02900 39.93700
C  2.12200 55.87600 40.24300
C  1.45800 56.58200 41.43500
N  5.53200 51.81900 40.58400
C  4.21300 52.04400 40.92000
C  3.51900 50.79500 41.18000
C  4.47900 49.76500 40.79000
C  5.72000 50.45700 40.42900
C  2.17800 50.54800 41.54600
C  4.74000 48.31800 40.69100
O  3.98800 47.37200 40.92200
C  6.24700 48.20900 40.27800
C  6.12700 47.58800 38.87100
O  5.65400 48.17900 37.90900
O  6.54700 46.25500 38.88600
C  6.25100 45.50900 37.62100
H  11.60000 52.64100 39.42800
H  7.07800 57.06000 38.55500
H  2.62400 53.32500 41.30600
H  9.48200 48.45700 40.59400
H  11.25200 50.20000 39.15300
H  11.40100 49.08100 41.83000
H  11.10100 50.89200 41.88200
H  12.52500 50.23800 41.21900
H  8.95700 47.64300 38.53100
H  10.58200 48.17500 38.28400
H  10.10600 49.39600 36.44700
H  9.15100 50.30000 37.47100
H  12.10000 55.71600 37.74400
H  12.60000 54.31600 38.70200
H  12.67500 55.95500 39.45500
H  8.41800 58.76000 39.69000
H  8.17300 58.62900 37.93800
H  9.41200 59.74700 38.71300
H  4.14200 56.62200 38.47900
H  3.80800 56.08600 41.48000
H  4.19300 58.63900 39.30300
H  5.83900 58.42800 39.79200
H  4.48900 58.25500 40.94500
H  1.62100 54.92700 40.04900
H  1.83700 56.52500 39.41500
H  1.75800 57.62600 41.51700
H  1.67600 55.98300 42.31900
H  0.37500 56.53700 41.31300
H  2.02700 49.74400 42.26600
H  1.63600 50.32100 40.62800
H  1.71900 51.39200 42.06100
H  6.85000 47.47700 40.81400
H  6.60100 44.48300 37.73500
H  6.98000 45.82600 36.87500
H  5.22200 45.60900 37.27600

