158

Mg -2.01000 17.17800 26.34500
C  -2.58400 14.71100 28.63600
C  -2.58900 19.71600 28.56500
C  -1.69200 19.48900 23.70100
C  -2.36000 14.65100 23.84300
N  -2.68900 17.20000 28.37500
C  -2.76300 16.01400 29.20600
C  -2.92100 16.48200 30.72100
C  -2.97400 18.07100 30.55300
C  -2.73300 18.36800 29.07300
C  -4.25700 18.75900 31.17300
C  -1.81000 15.89500 31.61200
C  -1.61500 16.69100 32.98100
H  -1.06100 15.92300 34.22200
N  -2.11600 19.30800 26.22000
C  -2.28500 20.13100 27.30100
C  -2.19000 21.51600 26.83300
C  -1.88300 21.47100 25.40200
C  -1.86700 20.02500 25.05600
C  -2.39200 22.81200 27.68100
C  -1.75000 22.60500 24.40300
O  -1.36500 22.43300 23.19600
C  -1.89100 24.08200 24.83100
N  -2.00700 17.06600 24.04500
C  -1.84500 18.15800 23.25700
C  -1.93300 17.75400 21.79500
C  -2.37900 16.24400 21.85000
C  -2.20600 15.95000 23.34000
C  -2.83900 18.78700 20.99700
C  -1.61600 15.27300 20.89700
C  -2.48200 14.42200 19.97600
N  -2.13100 15.09400 26.18400
C  -2.23700 14.17800 25.18600
C  -2.40200 12.86400 25.72400
C  -2.49800 13.01400 27.09800
C  -2.37800 14.35500 27.30300
C  -2.44500 11.63700 24.91400
C  -2.59700 12.25800 28.35600
O  -2.62500 11.06400 28.45500
C  -2.59300 13.34800 29.41000
C  -1.36500 13.07700 30.17900
O  -0.20900 13.40900 29.85100
O  -1.63700 12.32900 31.29500
C  -0.64300 12.14600 32.36300
H  -2.76300 20.56900 29.22400
H  -1.56200 20.15300 22.84400
H  -2.69400 14.01900 23.01800
H  -3.86700 16.04500 31.04000
H  -2.05600 18.48000 30.97300
H  -3.76600 19.53100 31.76600
H  -4.67100 18.08100 31.91900
H  -5.02300 18.99200 30.43400
H  -0.86100 15.86900 31.07700
H  -2.08800 14.86800 31.85000
H  -2.58100 17.07200 33.31100
H  -1.00200 17.57900 32.82800
H  -1.45500 23.36700 27.71900
H  -2.74700 22.71100 28.70700
H  -3.05600 23.40700 27.05400
H  -2.87300 24.28400 25.25800
H  -1.77600 24.74900 23.97700
H  -1.13100 24.34400 25.56800
H  -0.92700 17.69600 21.37900
H  -3.42200 16.19900 21.53600
H  -3.29900 19.56300 21.60900
H  -3.50700 18.29400 20.29200
H  -2.05500 19.28400 20.42500
H  -0.86600 14.63500 21.36600
H  -1.08000 15.99300 20.27800
H  -2.77400 15.05500 19.13800
H  -3.36600 14.01700 20.46700
H  -1.95500 13.59300 19.50300
H  -3.25100 11.83700 24.20800
H  -2.66700 10.81300 25.59200
H  -1.47100 11.43300 24.47000
H  -3.37900 13.26800 30.16000
H  0.14500 12.89800 32.34300
H  -0.18200 11.16700 32.49600
H  -1.27100 12.33700 33.23300
Mg 36.80400 49.82600 25.54000
C  36.98100 47.90200 28.44400
C  35.41500 52.46400 27.38200
C  36.20100 51.61000 22.67900
C  37.57000 47.03200 23.69200
N  36.27800 50.08000 27.63000
C  36.52100 49.22200 28.68400
C  36.22300 49.88000 30.03200
C  35.63000 51.30800 29.62200
C  35.78300 51.28200 28.07600
C  34.22000 51.71300 30.12200
C  37.43700 49.92900 31.03200
C  37.16000 49.67900 32.48600
H  35.81400 49.92600 33.20900
N  35.94300 51.74600 25.11600
C  35.46600 52.63400 26.01200
C  35.11100 53.89800 25.39400
C  35.41000 53.67100 23.99600
C  35.90500 52.30600 23.89400
C  34.61700 55.16300 26.05700
C  35.27300 54.76400 22.90700
O  35.63400 54.57000 21.79400
C  34.82500 56.12100 23.20000
N  36.68300 49.33900 23.49300
C  36.59600 50.24900 22.49100
C  37.02300 49.65100 21.15700
C  37.48100 48.21400 21.48700
C  37.15900 48.18700 22.94400
C  35.93200 49.87000 20.10000
C  39.00000 47.84500 21.15200
C  39.13000 47.23000 19.72100
N  37.20500 47.86700 25.90600
C  37.49200 46.82400 25.03900
C  37.86700 45.68400 25.80200
C  37.62000 46.02700 27.15200
C  37.20900 47.34600 27.12400
C  38.17100 44.28200 25.37500
C  37.65000 45.49400 28.58000
O  37.91600 44.37800 28.99600
C  37.29600 46.79700 29.44700
C  36.12300 46.44200 30.24300
O  34.97400 46.66900 29.88500
O  36.51100 45.80600 31.36500
C  35.47800 45.48600 32.33500
H  35.00800 53.23000 28.04600
H  36.21200 52.26100 21.80200
H  37.84600 46.11200 23.17200
H  35.39000 49.29800 30.42700
H  36.30700 52.12500 29.87100
H  34.09900 51.10200 31.01700
H  33.49200 51.37500 29.38400
H  34.09700 52.75600 30.41300
H  37.96200 50.88400 31.00500
H  38.17300 49.20700 30.67800
H  37.68200 50.40700 33.10800
H  37.59800 48.68600 32.59100
H  33.60100 55.32300 25.69800
H  35.10300 56.11100 25.82600
H  34.73000 55.19200 27.14000
H  34.01600 56.28500 23.91300
H  34.45100 56.63100 22.31200
H  35.75000 56.65400 23.41800
H  37.82300 50.24600 20.71500
H  36.78600 47.46900 21.09900
H  35.36700 48.94000 20.04900
H  36.39900 50.15500 19.15700
H  35.39400 50.71800 20.52500
H  39.43600 47.10100 21.81900
H  39.59400 48.73200 21.37100
H  39.47100 48.01400 19.04500
H  38.12400 46.91500 19.44600
H  39.83500 46.40200 19.65200
H  39.22400 44.03700 25.24100
H  37.58300 44.26500 24.45700
H  37.68400 43.51300 25.97400
H  38.08800 46.98900 30.17000
H  35.45300 44.40600 32.18800
H  34.49900 45.90600 32.10600
H  35.75800 45.88100 33.31100

