158

Mg 0.67100 8.09300 26.30400
C  1.47900 10.02300 29.13300
C  0.73200 5.29000 28.16100
C  0.49900 6.27300 23.42000
C  1.23900 10.93100 24.41100
N  1.15900 7.73800 28.38500
C  1.30800 8.63800 29.37700
C  1.17600 7.97300 30.73700
C  1.23000 6.46600 30.36300
C  1.05400 6.47100 28.83800
C  2.59600 5.73800 30.76700
C  -0.07100 8.40700 31.50600
C  -0.00300 8.61300 33.04000
H  1.22700 8.05200 33.80800
N  0.45700 6.10900 25.88100
C  0.52800 5.14100 26.78900
C  0.28300 3.89100 26.13000
C  0.17300 4.11400 24.74300
C  0.37900 5.57900 24.62300
C  0.19300 2.55700 26.92800
C  -0.17500 3.07500 23.62300
O  -0.31700 3.45100 22.47500
C  -0.38400 1.58000 23.96800
N  0.90500 8.53500 24.14900
C  0.63100 7.61400 23.18400
C  0.64500 8.38900 21.78100
C  1.07400 9.80300 22.12600
C  1.07900 9.77700 23.65100
C  1.50300 7.70800 20.63400
C  0.24400 10.95900 21.44200
C  -1.15000 11.20200 22.19300
N  1.06400 10.15200 26.70000
C  1.15500 11.16700 25.84000
C  1.31900 12.42900 26.50000
C  1.37500 12.05800 27.85800
C  1.29800 10.66200 27.90200
C  1.48500 13.80300 25.92100
C  1.66800 12.48300 29.21200
O  1.92100 13.61800 29.67100
C  1.51100 11.16200 30.13800
C  2.72300 11.08500 30.99100
O  3.81800 10.77200 30.66300
O  2.36000 11.53600 32.20900
C  3.46600 11.68200 33.27900
H  0.63800 4.38000 28.75800
H  0.52500 5.63900 22.53100
H  1.50300 11.86700 23.91400
H  2.06000 8.26700 31.30300
H  0.36700 5.91700 30.74000
H  3.01800 5.18800 29.92600
H  2.32800 5.00000 31.52300
H  3.26400 6.45100 31.25100
H  -0.81500 7.61800 31.39700
H  -0.46300 9.32300 31.06300
H  -0.84400 8.36400 33.68700
H  0.12600 9.69400 33.09300
H  0.42600 1.67900 26.32600
H  -0.82000 2.26400 27.20300
H  0.92600 2.52100 27.73500
H  -0.76400 1.13700 23.04800
H  -1.16900 1.63600 24.72100
H  0.56100 1.13900 24.28700
H  -0.33900 8.28900 21.32300
H  2.02100 10.03600 21.63900
H  1.87200 6.72800 20.93600
H  2.25000 8.39700 20.23900
H  0.88900 7.52600 19.75300
H  0.11000 10.63100 20.41100
H  0.85800 11.85000 21.31100
H  -1.89700 11.53400 21.47200
H  -1.02600 12.08100 22.82500
H  -1.44400 10.35400 22.81100
H  1.44200 14.58400 26.68000
H  0.71500 14.05200 25.19100
H  2.43800 13.75000 25.39400
H  0.69700 11.24800 30.85800
H  3.16500 11.20900 34.21400
H  3.36500 12.75200 33.46000
H  4.46300 11.32500 33.02000
Mg 47.29800 25.02400 29.01000
C  48.23100 27.49600 31.52400
C  46.30800 23.10600 31.59400
C  46.83900 22.65800 26.82400
C  48.61400 27.14400 26.63800
N  47.23400 25.35000 31.37100
C  47.49100 26.45800 32.15200
C  47.19200 26.17300 33.63500
C  46.87800 24.64600 33.58700
C  46.82600 24.30300 32.12200
C  47.76900 23.59400 34.34800
C  46.08600 27.15500 34.13400
C  46.57900 28.09300 35.23600
H  47.07700 27.43100 36.60600
N  46.50400 23.21100 29.18800
C  46.14700 22.53700 30.34400
C  45.69300 21.23500 29.95400
C  45.65000 21.14900 28.53100
C  46.34400 22.41900 28.09000
C  45.25000 20.29800 30.98500
C  45.17500 20.05700 27.64300
O  45.25600 20.14400 26.41300
C  44.64200 18.73300 28.17300
N  47.99500 24.84100 27.14800
C  47.57100 23.77200 26.38500
C  47.93000 23.96500 24.91300
C  48.40100 25.42300 24.81100
C  48.32100 25.85800 26.29900
C  48.94900 22.96700 24.25500
C  47.58400 26.42000 23.88700
C  48.43800 27.33400 23.03200
N  48.31000 26.87400 29.08300
C  48.73400 27.66900 28.02100
C  49.20300 28.87800 28.44400
C  49.04400 28.85000 29.84100
C  48.54500 27.60100 30.17900
C  49.74600 30.04700 27.55600
C  49.14100 29.68800 31.06600
O  49.67800 30.84700 31.10600
C  48.66500 28.74600 32.21800
C  49.80100 28.50600 33.16400
O  50.65600 27.66000 33.06200
O  49.81000 29.47000 34.14000
C  50.80100 29.15500 35.19600
H  45.85600 22.50000 32.38200
H  46.67500 22.01600 25.95700
H  48.83600 27.79000 25.78600
H  48.13400 26.48500 34.08600
H  45.88200 24.47600 33.99500
H  48.19100 22.93800 33.58700
H  47.15500 23.09700 35.09900
H  48.57000 24.15000 34.83500
H  45.24800 26.55000 34.48000
H  45.74400 27.74800 33.28600
H  45.74300 28.76200 35.43900
H  47.50500 28.60400 34.97100
H  44.23300 20.04600 30.68300
H  45.23000 20.67900 32.00600
H  45.76500 19.33800 31.03200
H  45.19200 18.39000 29.04900
H  44.55900 18.02500 27.34900
H  43.66800 19.01300 28.57400
H  46.96300 23.96600 24.41100
H  49.47200 25.36800 24.61600
H  49.95200 23.39500 24.23500
H  48.76600 22.48800 23.29400
H  48.99700 22.16200 24.98800
H  47.05800 27.13100 24.52300
H  46.91900 25.79400 23.29200
H  48.47800 26.98200 22.00100
H  49.42100 27.50200 23.47200
H  48.00300 28.33200 23.09100
H  49.43500 31.05600 27.82800
H  49.53600 29.92800 26.49300
H  50.82800 30.08000 27.68900
H  47.87800 29.28500 32.74600
H  50.50200 28.24900 35.72300
H  50.90500 29.97300 35.90800
H  51.81400 29.03900 34.81200

