158

Mg 8.56500 47.03400 25.33600
C  6.86300 47.06100 28.30000
C  11.22300 48.27700 27.03600
C  10.26900 46.72600 22.48200
C  5.58300 46.87600 23.55400
N  8.92400 47.66200 27.37000
C  8.14200 47.50300 28.46900
C  8.79200 47.90500 29.81800
C  10.07400 48.57400 29.28700
C  10.09700 48.21200 27.78600
C  10.15800 50.13900 29.57700
C  9.04400 46.76800 30.81300
C  8.82000 47.12100 32.30500
H  8.48100 45.91900 33.19500
N  10.47800 47.43000 24.84000
C  11.48300 47.93800 25.63300
C  12.76400 47.78700 24.97300
C  12.53700 47.46500 23.59700
C  11.09500 47.23800 23.53900
C  14.10600 47.99200 25.71700
C  13.50500 47.08800 22.45600
O  13.18800 46.59200 21.39700
C  15.06600 47.41000 22.73600
N  7.98400 46.77400 23.27300
C  8.90300 46.59900 22.29600
C  8.30800 46.08400 21.02900
C  6.78900 46.48600 21.21900
C  6.72100 46.73200 22.77200
C  8.91800 46.56900 19.63800
C  5.93700 45.36000 20.67100
C  4.35800 45.50200 20.68900
N  6.64800 46.89200 25.75900
C  5.51000 46.87100 24.92700
C  4.25800 46.78300 25.75100
C  4.77900 46.77100 27.08900
C  6.24500 46.84800 27.03100
C  2.77300 46.59200 25.34800
C  4.38300 46.78900 28.47900
O  3.30700 46.73700 28.98800
C  5.73000 46.85300 29.27300
C  5.76200 45.59800 30.10200
O  6.08400 44.48600 29.73800
O  5.35300 45.82400 31.40700
C  5.46400 44.65800 32.31800
H  12.04700 48.57000 27.69000
H  10.82300 46.41400 21.59500
H  4.59800 46.90000 23.08300
H  8.19200 48.69500 30.27000
H  10.98600 48.09700 29.64500
H  10.70000 50.75100 28.85500
H  10.56500 50.24300 30.58300
H  9.13500 50.51100 29.53000
H  10.04500 46.36300 30.66400
H  8.40800 45.91600 30.57700
H  8.19700 48.01100 32.40200
H  9.82200 47.41500 32.61800
H  13.92400 48.35800 26.72700
H  14.67400 48.78500 25.23100
H  14.69000 47.07200 25.73100
H  15.41100 46.75300 23.53500
H  15.17300 48.47100 22.96100
H  15.69200 47.24500 21.85900
H  8.46900 45.00700 20.98800
H  6.64000 47.45500 20.74300
H  9.82500 47.14600 19.81600
H  8.18400 47.15300 19.08300
H  9.22800 45.68400 19.08300
H  6.25000 44.42400 21.13300
H  6.22700 45.31600 19.62100
H  4.16200 46.52300 21.01700
H  4.05200 44.77500 21.44200
H  3.83600 45.32200 19.75000
H  2.52800 45.62200 25.78100
H  2.58700 46.52500 24.27600
H  2.16600 47.40400 25.74700
H  5.55500 47.74400 29.87700
H  5.72000 45.06800 33.29500
H  6.34200 44.03200 32.15900
H  4.57500 44.03800 32.19700
Mg -0.66600 42.67400 26.05300
C  1.98800 42.60100 28.32400
C  -2.82700 42.38300 28.69000
C  -3.15100 42.90800 23.86300
C  1.64700 43.31300 23.48400
N  -0.42100 42.40400 28.29100
C  0.74000 42.54900 28.96500
C  0.53600 42.68500 30.40900
C  -1.00900 42.41600 30.55800
C  -1.44700 42.37300 29.06800
C  -1.30800 41.18200 31.47400
C  0.93600 44.08500 30.93600
C  0.55000 44.46300 32.41600
H  0.49100 43.29000 33.42400
N  -2.66800 42.55400 26.25000
C  -3.38900 42.35800 27.41900
C  -4.76300 42.34600 27.07900
C  -4.95300 42.58200 25.72900
C  -3.56300 42.66400 25.19300
C  -5.80100 42.26100 28.09800
C  -6.25800 42.78700 24.91000
O  -6.26800 43.01000 23.66800
C  -7.67300 42.62400 25.55800
N  -0.71000 42.96900 23.91400
C  -1.89400 43.05400 23.27500
C  -1.80000 43.41900 21.79400
C  -0.18000 43.50200 21.66300
C  0.26100 43.30400 23.09800
C  -2.50300 42.43200 20.72700
C  0.30600 44.81300 20.93800
C  0.75400 45.98200 21.84200
N  1.42400 42.80000 25.87900
C  2.19600 43.09100 24.81000
C  3.54500 43.00100 25.17900
C  3.53300 42.73000 26.53100
C  2.18700 42.70600 26.91000
C  4.73000 43.17700 24.29700
C  4.34700 42.54400 27.70200
O  5.56600 42.48300 27.74500
C  3.35900 42.52700 28.95400
C  3.67600 41.44000 29.80800
O  3.61300 40.24700 29.49600
O  3.93600 41.88400 31.06000
C  4.08500 40.85900 32.12400
H  -3.50800 42.43300 29.54200
H  -3.99800 42.98600 23.17700
H  2.36000 43.56400 22.69500
H  1.13000 41.88700 30.85400
H  -1.52400 43.24900 31.03600
H  -2.11500 41.63000 32.05400
H  -0.49800 40.84400 32.11900
H  -1.70400 40.32900 30.92200
H  0.72400 44.89300 30.23600
H  2.01600 44.05400 31.08400
H  -0.36300 45.05500 32.36200
H  1.29300 45.21100 32.69000
H  -6.33100 43.21300 28.06100
H  -5.47300 42.04000 29.11400
H  -6.63600 41.60100 27.86200
H  -7.72900 41.59300 25.90600
H  -8.40800 42.90100 24.80200
H  -7.87100 43.27000 26.41400
H  -2.22400 44.42300 21.78900
H  0.17100 42.66500 21.05900
H  -1.86800 42.11300 19.90000
H  -3.37500 42.85900 20.23200
H  -2.83200 41.51500 21.21600
H  -0.56200 45.07100 20.33100
H  1.16900 44.49100 20.35700
H  0.53900 45.91700 22.90900
H  0.36600 46.93400 21.48000
H  1.81900 46.16600 21.69900
H  5.20300 44.06100 24.72400
H  4.50400 43.12200 23.23200
H  5.31000 42.26000 24.40100
H  3.53400 43.45200 29.50300
H  4.96400 40.22000 32.04300
H  3.16700 40.27600 32.20400
H  4.12500 41.51100 32.99700

