158

Mg 41.30600 9.57600 29.94900
C  42.66400 10.66800 33.01300
C  38.89500 7.86800 31.72200
C  40.38500 8.20100 27.00900
C  44.25000 10.76800 28.35600
N  40.96900 9.19000 32.16200
C  41.52200 9.88200 33.22700
C  40.68700 9.76600 34.46200
C  39.53700 8.78000 33.99800
C  39.77800 8.59200 32.50600
C  39.33900 7.41800 34.78600
C  40.19800 11.03800 35.18100
C  40.31300 10.99800 36.71300
H  40.73700 12.20800 37.62400
N  39.74200 8.27600 29.44400
C  38.79700 7.67400 30.32400
C  37.86200 6.91800 29.49500
C  38.23100 7.06600 28.09600
C  39.52300 7.82500 28.10300
C  36.60000 6.30700 30.01400
C  37.39600 6.78500 26.85300
O  37.72400 7.18900 25.76900
C  36.26300 5.89600 27.05000
N  42.15900 9.55500 27.93600
C  41.56400 8.92200 26.90800
C  42.43000 9.07900 25.58800
C  43.44300 10.21800 26.02900
C  43.30800 10.21500 27.54900
C  42.98900 7.67700 25.20200
C  43.06700 11.69600 25.47400
C  41.59000 12.13600 25.53400
N  42.97900 10.59900 30.49800
C  44.05400 11.01900 29.70200
C  44.81200 11.97000 30.54100
C  44.37000 11.76500 31.83900
C  43.23600 10.90600 31.76100
C  46.01500 12.75900 30.02100
C  44.72700 11.95900 33.19600
O  45.74800 12.47400 33.71900
C  43.50900 11.46900 34.02300
C  43.97800 10.55500 35.09800
O  44.77800 9.64000 34.93500
O  43.55500 11.04500 36.33900
C  44.09100 10.42700 37.53700
H  38.11200 7.41000 32.33000
H  40.04500 7.97500 25.99700
H  45.04300 11.31100 27.83900
H  41.33900 9.19000 35.11900
H  38.55600 9.25600 34.00900
H  38.32400 7.09200 35.01000
H  39.88800 7.45300 35.72700
H  39.94500 6.69800 34.23500
H  39.13800 11.15400 34.95700
H  40.76600 11.86800 34.76200
H  40.64700 10.01900 37.05600
H  39.24600 10.96600 36.93400
H  36.71600 5.23900 29.83000
H  35.68400 6.63800 29.52600
H  36.60000 6.40900 31.09900
H  35.76900 5.53000 26.15000
H  35.50200 6.41000 27.63700
H  36.57600 4.94300 27.47700
H  41.72700 9.42900 24.83300
H  44.49400 10.05700 25.79200
H  43.00400 6.93900 26.00400
H  43.98200 7.84700 24.78500
H  42.33200 7.22500 24.46000
H  43.24100 11.64200 24.39900
H  43.67300 12.45100 25.97700
H  41.54400 13.20400 25.74500
H  41.14200 11.63900 26.39400
H  41.10000 11.86000 24.60000
H  46.00100 12.66400 28.93500
H  46.98300 12.38800 30.36000
H  45.91300 13.78500 30.37300
H  42.92200 12.33100 34.33900
H  43.31400 10.57700 38.28700
H  45.01000 10.84700 37.94500
H  44.14000 9.36600 37.29100
Mg -12.76100 16.11800 41.87700
C  -9.72300 14.41100 41.49500
C  -11.19500 18.93200 40.65300
C  -15.74000 17.42700 41.48300
C  -14.22700 13.00100 42.68500
N  -10.76000 16.54900 41.02700
C  -9.68800 15.70300 41.03200
C  -8.39600 16.45000 40.57500
C  -8.81000 18.00800 40.71600
C  -10.35800 17.85900 40.82600
C  -8.16100 18.70200 41.92600
C  -7.85200 16.20400 39.08200
C  -6.33500 16.18200 39.00900
H  -5.77100 16.92200 37.80400
N  -13.45600 17.98100 41.06600
C  -12.64100 19.06100 40.77000
C  -13.43300 20.24900 40.53100
C  -14.79700 19.80200 40.67900
C  -14.75400 18.33500 41.12500
C  -12.88200 21.63800 40.05900
C  -16.06300 20.71100 40.62000
O  -16.07100 21.92000 40.25100
C  -17.42200 20.10000 40.88000
N  -14.64100 15.28600 42.04500
C  -15.68300 16.10300 41.95500
C  -16.97800 15.45100 42.29900
C  -16.50500 13.99300 42.61900
C  -15.05500 14.03300 42.41300
C  -17.70900 16.08300 43.46000
C  -17.21800 12.83600 41.70500
C  -17.95300 11.83700 42.57900
N  -12.12900 14.12600 42.14800
C  -12.83000 12.95000 42.47700
C  -11.90700 11.87800 42.68400
C  -10.65700 12.41600 42.35600
C  -10.85600 13.72000 41.95400
C  -12.12700 10.51900 43.22000
C  -9.24100 12.15200 42.28000
O  -8.56500 11.15300 42.50700
C  -8.56700 13.44200 41.66000
C  -7.44300 13.89300 42.56200
O  -7.59500 14.45400 43.65600
O  -6.27200 13.88000 41.82900
C  -5.12600 14.53500 42.45900
H  -10.72400 19.85400 40.30400
H  -16.76900 17.79100 41.44400
H  -14.75700 12.09100 42.97200
H  -7.60900 16.11700 41.25200
H  -8.60000 18.67400 39.87900
H  -8.66900 18.62900 42.88800
H  -8.04100 19.74700 41.64200
H  -7.18000 18.23300 41.99700
H  -8.30400 16.90700 38.38200
H  -8.20500 15.21400 38.79400
H  -6.07000 15.12500 39.03200
H  -5.83500 16.52300 39.91500
H  -13.42400 21.86700 39.14200
H  -11.80600 21.66800 39.88700
H  -13.18300 22.43200 40.74200
H  -18.15400 20.88800 40.70300
H  -17.38100 19.85100 41.94000
H  -17.72200 19.31000 40.19200
H  -17.71700 15.47000 41.49900
H  -16.62000 13.67800 43.65600
H  -17.27700 15.87200 44.43900
H  -18.78500 15.92800 43.39000
H  -17.47100 17.13800 43.59600
H  -16.40000 12.26400 41.26700
H  -17.79000 13.27200 40.88700
H  -18.90100 11.62600 42.08400
H  -18.24600 12.25700 43.54000
H  -17.42600 10.88900 42.69300
H  -12.29700 10.50100 44.29600
H  -11.24700 9.89100 43.07900
H  -13.00200 10.03900 42.78100
H  -8.14800 13.17800 40.68900
H  -5.17100 15.61600 42.32900
H  -4.20700 14.15800 42.00900
H  -4.91500 14.28200 43.49800

