158

Mg 8.60300 3.47300 27.73700
C  10.19900 1.96900 30.50100
C  6.44800 5.17400 29.87500
C  6.93400 4.79700 25.05800
C  10.27900 1.33000 25.57400
N  8.20500 3.31900 30.00800
C  9.12400 2.86700 30.94900
C  8.72700 3.44300 32.39300
C  7.51600 4.40800 32.08100
C  7.33200 4.29900 30.56200
C  6.20100 4.22000 32.82300
C  9.81000 4.03700 33.30400
C  9.44700 5.24000 34.29100
H  10.23900 5.13100 35.60700
N  6.86500 4.82900 27.52400
C  6.15900 5.38100 28.49600
C  5.15800 6.32400 27.93700
C  5.32100 6.27200 26.56000
C  6.45600 5.30400 26.29600
C  4.26000 7.14700 28.78700
C  4.65500 6.95000 25.41900
O  4.92600 6.76400 24.26400
C  3.69800 8.08300 25.73900
N  8.64800 3.16400 25.75900
C  7.88300 3.79900 24.78700
C  8.37000 3.62400 23.40500
C  9.46200 2.60100 23.58500
C  9.46700 2.31300 25.09800
C  7.21800 3.29000 22.32500
C  10.86800 3.06000 22.91600
C  11.24600 2.51200 21.53600
N  9.96300 1.92000 27.91100
C  10.59400 1.15600 26.96500
C  11.43700 0.23500 27.65800
C  11.38200 0.62900 28.97300
C  10.43000 1.65000 29.08200
C  12.24600 -0.80900 27.00000
C  11.94300 0.31800 30.27300
O  12.82000 -0.46000 30.53100
C  11.24600 1.26000 31.39400
C  10.60900 0.41300 32.39300
O  9.69200 -0.34500 32.20800
O  11.22200 0.64800 33.57200
C  10.57900 0.18900 34.76900
H  5.86500 5.74500 30.60100
H  6.41200 5.06400 24.13700
H  10.84300 0.80000 24.80300
H  8.19200 2.69500 32.97900
H  7.80500 5.45600 32.15800
H  5.83200 5.21500 33.07600
H  6.44200 3.71200 33.75700
H  5.51500 3.60500 32.24100
H  10.69400 4.23500 32.69700
H  10.13000 3.14000 33.83400
H  8.39600 5.15400 34.56600
H  9.69400 6.16800 33.77600
H  4.44100 8.19200 28.53600
H  4.29400 7.03700 29.87100
H  3.22900 6.98700 28.46900
H  3.27800 8.42900 24.79400
H  4.25300 8.87100 26.24700
H  2.93800 7.58200 26.33800
H  8.82000 4.55300 23.05200
H  9.22900 1.63200 23.14300
H  7.70100 2.87000 21.44200
H  6.68100 4.14500 21.91400
H  6.58100 2.50300 22.72800
H  11.69000 2.65900 23.50800
H  10.90900 4.13500 23.09300
H  11.40000 3.27200 20.77000
H  10.38600 1.90400 21.25600
H  12.18700 1.97500 21.42100
H  13.11000 -1.06500 27.61200
H  12.61100 -0.39800 26.05900
H  11.73000 -1.76400 26.89700
H  12.02600 1.84900 31.87700
H  11.36400 0.34600 35.50900
H  10.31600 -0.85700 34.61300
H  9.72700 0.72700 35.18400
Mg 0.69300 42.34300 25.54600
C  2.36700 42.54200 28.73700
C  -2.02700 41.10200 27.16600
C  -0.62000 41.74300 22.56300
C  3.79900 43.06400 24.04800
N  0.22600 42.00300 27.67900
C  1.01800 42.18500 28.80600
C  0.18100 41.93600 30.09700
C  -1.18700 41.34500 29.48500
C  -0.99500 41.48200 28.00100
C  -1.38100 39.88400 29.95000
C  -0.02200 43.22800 31.03300
C  0.34900 42.98500 32.50500
H  0.03400 41.66400 33.07400
N  -1.08600 41.46900 24.96700
C  -2.13800 41.10800 25.77000
C  -3.24300 40.72100 24.98400
C  -2.82600 40.95100 23.59600
C  -1.46700 41.32500 23.64100
C  -4.53000 40.10000 25.57900
C  -3.67200 40.94300 22.35000
O  -3.18000 41.14900 21.21000
C  -5.18000 40.78700 22.50700
N  1.45800 42.43400 23.60300
C  0.69900 42.24800 22.57300
C  1.51900 42.48400 21.26500
C  2.87400 42.98400 21.76000
C  2.70600 42.84600 23.25600
C  1.46300 41.29000 20.23900
C  3.27800 44.41100 21.42800
C  4.37800 44.57500 20.28500
N  2.58700 42.81100 26.20600
C  3.77600 43.08500 25.51000
C  4.92500 43.37200 26.39000
C  4.36400 43.14400 27.63400
C  3.00300 42.81600 27.49100
C  6.29600 43.86200 26.06200
C  4.63900 43.18500 29.06500
O  5.61000 43.57100 29.66400
C  3.39100 42.83100 29.85200
C  3.71700 41.64800 30.55600
O  4.09300 40.60100 30.01200
O  3.62100 41.86400 31.90100
C  4.21000 40.83200 32.75700
H  -2.90800 40.63000 27.60500
H  -1.03100 41.71100 21.55100
H  4.75000 43.26800 23.55100
H  0.65400 41.16100 30.70000
H  -1.92300 41.96000 30.00200
H  -2.46700 39.89500 30.04500
H  -0.86200 39.61400 30.87000
H  -1.21000 39.16400 29.14900
H  -1.07500 43.50600 31.08100
H  0.53400 44.14700 30.84500
H  -0.20500 43.70000 33.11400
H  1.39700 43.16100 32.74800
H  -4.24600 39.36300 26.33100
H  -5.00700 39.51100 24.79600
H  -5.21800 40.82000 26.02200
H  -5.61000 40.95700 21.52000
H  -5.61600 41.46000 23.24500
H  -5.44000 39.74200 22.67800
H  0.89100 43.25300 20.81600
H  3.63000 42.22900 21.54400
H  1.22600 40.30300 20.63700
H  2.42100 41.10700 19.75200
H  0.76700 41.47800 19.42200
H  3.70700 44.88000 22.31400
H  2.39400 44.98400 21.15000
H  3.91200 44.12600 19.40800
H  5.30900 44.11800 20.61900
H  4.55100 45.61800 20.02000
H  6.25400 44.42200 25.12800
H  6.88300 42.94500 26.01500
H  6.74600 44.52200 26.80400
H  3.10400 43.64900 30.51400
H  4.27500 39.89600 32.20200
H  3.53600 40.68200 33.60000
H  5.15400 41.23200 33.12800

