158

Mg 34.35000 2.28300 29.82300
C  31.92100 3.51600 32.13000
C  36.60300 2.43800 32.54100
C  36.67600 1.36800 27.65500
C  32.02700 2.86500 27.15000
N  34.21200 2.78800 32.00600
C  33.13200 3.26800 32.69200
C  33.40700 3.44900 34.16700
C  34.95800 3.46400 34.21400
C  35.26400 2.84100 32.83600
C  35.55500 4.85100 34.30200
C  32.77800 2.23800 34.96800
C  33.17100 1.99700 36.36100
H  33.60100 3.12200 37.31100
N  36.30900 1.81700 30.09600
C  37.05500 1.88100 31.25900
C  38.38400 1.45100 30.96700
C  38.46000 1.17300 29.56100
C  37.11700 1.43200 29.04700
C  39.45100 1.15600 32.02600
C  39.62300 0.73400 28.66300
O  39.42800 0.43500 27.51100
C  41.09900 0.65200 29.19000
N  34.34300 2.18000 27.74600
C  35.38100 1.77600 27.06900
C  35.19300 1.75000 25.52400
C  33.70200 1.88000 25.49700
C  33.32200 2.45800 26.84500
C  35.98000 2.88200 24.72700
C  32.82400 0.56400 25.12600
C  32.73400 0.31200 23.64900
N  32.35600 2.96300 29.64200
C  31.59200 3.23900 28.50700
C  30.20900 3.55700 28.96300
C  30.35900 3.67000 30.35200
C  31.67500 3.33400 30.73900
C  28.93600 3.92400 28.06600
C  29.53900 3.99200 31.53800
O  28.34900 4.16500 31.75400
C  30.58100 4.00400 32.72300
C  30.61200 5.37300 33.37800
O  30.78500 6.41000 32.77900
O  30.47000 5.20000 34.77000
C  30.76600 6.37600 35.59500
H  37.37400 2.57900 33.30200
H  37.45500 1.22000 26.90400
H  31.29000 2.93200 26.34700
H  32.85800 4.30700 34.55500
H  35.32500 2.91300 35.08000
H  34.74700 5.57800 34.22100
H  36.31300 5.09200 33.55700
H  35.90500 5.02500 35.31900
H  32.96500 1.31700 34.41600
H  31.70300 2.40100 34.89200
H  34.05100 1.37300 36.20600
H  32.56500 1.26800 36.89900
H  40.28100 1.86100 31.97200
H  39.83500 0.13600 32.04300
H  39.16000 1.23900 33.07300
H  41.33900 1.69000 29.42000
H  41.72200 0.28300 28.37600
H  41.17800 0.14300 30.15100
H  35.54500 0.81500 25.09000
H  33.44500 2.54900 24.67600
H  35.27700 3.22800 23.96900
H  36.85000 2.43300 24.24900
H  36.24100 3.72500 25.36700
H  31.79700 0.64200 25.48300
H  33.32400 -0.20900 25.70900
H  32.92300 -0.75000 23.49100
H  33.48800 0.87200 23.09500
H  31.75500 0.58800 23.25800
H  28.20300 4.39500 28.72000
H  28.50700 2.96900 27.76100
H  29.21500 4.45000 27.15400
H  30.18700 3.31300 33.46700
H  29.88500 7.00200 35.74000
H  31.50900 7.04900 35.16800
H  31.12100 5.97300 36.54300
Mg 36.37800 49.46000 26.20100
C  36.63600 47.47900 29.07800
C  34.75100 51.80300 28.19300
C  35.86700 51.32000 23.39600
C  37.60600 46.77500 24.32500
N  35.57400 49.52700 28.42500
C  35.96000 48.65900 29.40100
C  35.47300 49.26100 30.75200
C  34.74900 50.56600 30.44300
C  34.99900 50.66700 28.93000
C  33.17000 50.49900 30.80200
C  36.66500 49.49100 31.69400
C  36.38300 49.33400 33.28200
H  34.88800 49.53700 33.71900
N  35.48300 51.25900 25.82800
C  35.00600 52.14800 26.85400
C  34.71500 53.41900 26.18700
C  35.20500 53.40500 24.82500
C  35.50900 51.97300 24.61100
C  34.02000 54.59200 27.02000
C  35.44700 54.51500 23.84000
O  35.97600 54.24300 22.75600
C  35.28200 55.97400 24.20300
N  36.58300 49.11400 24.16800
C  36.39200 50.01400 23.20100
C  36.77600 49.43800 21.84400
C  37.44700 48.05400 22.26100
C  37.25800 48.01800 23.71000
C  35.66500 49.31100 20.77900
C  38.96900 47.89800 21.79100
C  39.99300 48.66900 22.69600
N  37.06500 47.49700 26.58500
C  37.48700 46.49400 25.71200
C  37.89100 45.32400 26.50500
C  37.55200 45.70600 27.82400
C  37.01100 47.00400 27.80800
C  38.50800 44.04400 25.95100
C  37.44600 45.17900 29.14400
O  37.73000 44.05600 29.60700
C  37.00400 46.36200 30.00600
C  35.92100 45.68000 30.82900
O  34.85600 45.32600 30.36700
O  36.25100 45.48800 32.13000
C  35.28900 44.91600 33.05000
H  34.32300 52.61000 28.79100
H  35.66100 51.83500 22.45600
H  38.01600 46.01600 23.65400
H  34.73300 48.47700 30.91400
H  35.10200 51.47700 30.92600
H  32.67000 50.26300 29.86300
H  32.85000 51.47700 31.15900
H  32.92900 49.74200 31.54900
H  37.18300 50.44400 31.59400
H  37.46300 48.79900 31.42500
H  37.21200 49.79000 33.82200
H  36.62600 48.27300 33.34100
H  34.81400 55.29300 27.27800
H  33.59200 54.29000 27.97600
H  33.38100 55.17800 26.35900
H  34.23600 56.28000 24.22200
H  35.88100 56.49600 23.45700
H  35.60700 56.09200 25.23600
H  37.54200 50.01500 21.32600
H  36.87300 47.22300 21.85000
H  34.94000 48.54300 21.04700
H  36.10800 49.31300 19.78300
H  35.09700 50.24100 20.79700
H  39.03000 48.21400 20.74900
H  39.20500 46.84100 21.67000
H  40.49300 49.40700 22.06800
H  40.63200 47.92400 23.17100
H  39.47100 49.21000 23.48500
H  37.67000 43.48500 25.53400
H  38.91200 43.48800 26.79800
H  39.17500 44.32600 25.13600
H  37.77200 46.54000 30.75900
H  35.10200 43.85600 32.87700
H  34.37600 45.51100 33.09100
H  35.78600 44.92100 34.02000

