158

Mg 1.74500 -1.77100 44.51400
C  5.13800 -1.19800 43.69000
C  0.91300 0.61700 42.30800
C  -1.42300 -2.88600 44.75000
C  2.91300 -4.50800 46.35200
N  2.90800 -0.53300 42.94000
C  4.28100 -0.46600 42.88300
C  4.60200 0.65900 41.88300
C  3.28900 1.41200 41.68100
C  2.29500 0.46200 42.29900
C  3.11000 2.82500 42.28500
C  5.38200 0.20700 40.63600
C  6.48300 1.11800 40.16200
H  7.04400 0.90900 38.72000
N  -0.00700 -1.22500 43.62800
C  -0.18600 -0.10300 42.82700
C  -1.59000 0.13200 42.64300
C  -2.24500 -0.90800 43.29600
C  -1.19000 -1.73800 43.91200
C  -2.21100 1.25800 41.88100
C  -3.69200 -0.96300 43.40800
O  -4.43500 -0.13100 42.86800
C  -4.47500 -1.96200 44.24900
N  0.91900 -3.49900 45.29300
C  -0.46800 -3.71300 45.30400
C  -0.77500 -4.83400 46.33400
C  0.61400 -5.49800 46.53200
C  1.58600 -4.42900 46.03000
C  -1.53300 -4.37700 47.63200
C  0.88700 -6.88000 45.84300
C  1.35500 -8.01100 46.71800
N  3.62000 -2.54000 45.16200
C  3.93900 -3.57500 45.96400
C  5.42000 -3.79200 46.06900
C  5.92800 -2.86200 45.24700
C  4.79000 -2.11500 44.64800
C  6.11500 -4.87000 46.72600
C  7.17200 -2.31000 44.67400
O  8.31600 -2.61100 44.89100
C  6.67600 -1.11600 43.73900
C  7.15100 0.16900 44.41000
O  6.61200 0.78500 45.28800
O  8.35100 0.52500 43.85400
C  8.96800 1.78400 44.31900
H  0.58600 1.50500 41.76300
H  -2.45200 -3.17000 44.98400
H  3.12200 -5.39700 46.95100
H  5.20000 1.44500 42.34500
H  3.08500 1.56400 40.62100
H  3.65700 3.68700 41.90500
H  3.35800 2.68100 43.33700
H  2.07700 3.07800 42.04700
H  4.68700 0.25700 39.79800
H  5.77800 -0.80400 40.72700
H  7.28900 1.01400 40.88800
H  6.11100 2.12800 40.33800
H  -2.76600 1.96600 42.49500
H  -2.92600 0.76600 41.22200
H  -1.41900 1.77800 41.34100
H  -5.51300 -1.89800 43.92200
H  -4.37300 -1.96300 45.33400
H  -4.31600 -2.98900 43.92100
H  -1.47800 -5.50500 45.83900
H  0.90900 -5.63300 47.57300
H  -1.09200 -4.72900 48.56500
H  -2.51100 -4.85400 47.57900
H  -1.59400 -3.31900 47.38000
H  1.58400 -6.81100 45.00800
H  -0.03700 -7.24400 45.39600
H  1.30500 -7.84500 47.79400
H  2.42600 -8.01500 46.51900
H  0.84000 -8.93200 46.44300
H  6.21600 -4.71500 47.80000
H  7.09100 -5.03200 46.26800
H  5.56300 -5.77900 46.48500
H  7.17500 -1.12700 42.76900
H  8.34000 2.58500 43.92900
H  9.88400 1.96100 43.75500
H  9.10700 1.98500 45.38200
Mg -1.16100 34.78100 26.35200
C  -2.89600 32.97600 28.85900
C  -0.37100 37.14400 28.73200
C  0.16100 36.68900 23.88500
C  -2.68600 32.75600 23.90600
N  -1.68800 35.06600 28.51200
C  -2.27800 34.15300 29.31700
C  -2.17200 34.63400 30.78600
C  -1.73600 36.06200 30.74500
C  -1.20000 36.13900 29.23500
C  -2.81600 37.10400 31.05500
C  -1.28900 33.67400 31.66700
C  -2.01000 33.04100 32.93900
H  -1.07000 32.90600 34.22100
N  -0.18600 36.59200 26.33600
C  0.06200 37.38600 27.42200
C  0.74200 38.59800 26.90900
C  0.96200 38.42200 25.54100
C  0.35800 37.18500 25.21500
C  1.11900 39.75200 27.76200
C  1.75200 39.28400 24.52900
O  1.93500 39.04200 23.34700
C  2.23500 40.53000 24.93500
N  -1.43500 34.85000 24.16800
C  -0.58000 35.63400 23.37700
C  -0.73500 35.30200 21.93600
C  -1.50500 33.88700 22.06200
C  -1.90800 33.84400 23.48700
C  -1.45900 36.41300 21.05300
C  -0.58700 32.68200 21.66400
C  0.54100 32.28400 22.63000
N  -2.48300 33.15300 26.28000
C  -3.01600 32.47400 25.22100
C  -3.80700 31.37400 25.81500
C  -3.83600 31.50300 27.24500
C  -2.94200 32.61300 27.49100
C  -4.45500 30.36400 24.91400
C  -4.28000 31.02100 28.45700
O  -5.02200 30.11400 28.68700
C  -3.69500 31.99300 29.59000
C  -4.81200 32.60900 30.32700
O  -5.28100 33.61400 29.96300
O  -5.22600 31.84000 31.40100
C  -6.18700 32.57000 32.20600
H  -0.15100 37.86200 29.52500
H  0.48900 37.29500 23.03800
H  -2.99500 31.95100 23.23500
H  -3.15300 34.64600 31.26100
H  -0.95100 36.24800 31.47700
H  -2.82200 37.22400 32.13900
H  -3.75800 36.85200 30.57000
H  -2.45100 38.01600 30.58400
H  -0.47000 34.20800 32.15000
H  -0.89100 32.86100 31.06000
H  -2.54200 32.09600 32.82700
H  -2.76000 33.79300 33.18600
H  0.55500 39.86600 28.68700
H  1.02200 40.65200 27.15400
H  2.15900 39.58800 28.04200
H  2.78400 40.50300 25.87600
H  1.32400 41.11300 25.07300
H  2.84800 41.03900 24.19100
H  0.21000 35.02500 21.46900
H  -2.43200 33.81600 21.49200
H  -0.70100 36.73900 20.34100
H  -1.56500 37.33900 21.61800
H  -2.43400 36.10600 20.67300
H  -0.08900 32.95900 20.73400
H  -1.10700 31.73900 21.49900
H  0.50300 31.21700 22.85100
H  0.66400 33.01100 23.43300
H  1.36400 32.49900 21.94900
H  -5.38100 30.85200 24.60800
H  -4.72800 29.39300 25.32800
H  -3.78800 30.32100 24.05300
H  -3.02300 31.37900 30.19000
H  -5.68600 33.45700 32.59300
H  -6.44900 31.90200 33.02700
H  -7.10200 32.77200 31.64900

