158

Mg 0.94900 7.68300 25.41200
C  1.37200 9.91700 28.13100
C  1.05400 5.03600 27.52400
C  0.42700 5.88100 22.77800
C  1.36000 10.67100 23.27700
N  1.00300 7.50100 27.60600
C  1.09100 8.56400 28.55000
C  1.17000 7.98700 29.96100
C  1.18900 6.40300 29.74200
C  1.10700 6.28900 28.22400
C  2.46000 5.69600 30.31800
C  0.00300 8.44000 30.85300
C  0.42300 8.81100 32.24200
H  1.54600 7.95500 32.95000
N  0.60800 5.73800 25.19800
C  0.78500 4.76900 26.19100
C  0.61300 3.48800 25.59200
C  0.35300 3.65500 24.20500
C  0.39400 5.14700 23.98300
C  0.64900 2.19800 26.37300
C  0.19200 2.55700 23.14500
O  0.11700 2.87100 21.99800
C  0.19900 1.06200 23.54700
N  1.01400 8.24400 23.27000
C  0.59600 7.26400 22.47000
C  0.60000 7.83200 20.94800
C  0.86200 9.31800 21.16800
C  1.02600 9.43800 22.69400
C  1.65700 7.10100 20.10400
C  -0.21500 10.28400 20.50600
C  -1.56800 10.51900 21.29300
N  1.36300 9.80000 25.58100
C  1.50300 10.87300 24.63900
C  1.64600 12.20900 25.31900
C  1.63000 11.87300 26.71000
C  1.48400 10.40900 26.78200
C  1.92700 13.63100 24.63300
C  1.84500 12.41800 28.05800
O  2.08900 13.57600 28.37700
C  1.64700 11.19900 29.03300
C  2.94400 11.10400 29.78700
O  4.07000 11.29600 29.28100
O  2.73700 11.05300 31.14200
C  3.83200 11.51800 31.99000
H  1.15000 4.12900 28.12400
H  0.23000 5.32400 21.86000
H  1.51000 11.58800 22.70400
H  2.03400 8.42000 30.46500
H  0.27200 5.93200 30.09700
H  2.77500 6.36200 31.12300
H  3.24300 5.69800 29.56000
H  2.19700 4.72700 30.74100
H  -0.73000 7.63800 30.77300
H  -0.33000 9.37300 30.39800
H  -0.44000 8.94800 32.89300
H  0.85700 9.80900 32.29400
H  -0.28800 1.64200 26.31600
H  0.66700 2.29500 27.45900
H  1.38800 1.51300 25.95700
H  -0.55300 0.80000 24.29300
H  1.16100 0.75800 23.95900
H  -0.12200 0.65400 22.58900
H  -0.42200 7.73800 20.58100
H  1.88800 9.50100 20.84900
H  1.04700 6.40100 19.53200
H  2.50200 6.67100 20.64100
H  2.16100 7.79100 19.42600
H  -0.55400 9.75900 19.61200
H  0.39600 11.18000 20.39500
H  -1.70100 11.58500 21.47600
H  -1.55100 10.11700 22.30600
H  -2.42900 10.09600 20.77400
H  0.95700 14.12500 24.58300
H  2.27100 13.55700 23.60100
H  2.56200 14.25400 25.26300
H  0.89200 11.39500 29.79400
H  3.73600 11.09900 32.99100
H  3.82000 12.60800 31.96200
H  4.83000 11.27300 31.62600
Mg 26.87700 50.45300 26.94900
C  24.83500 51.47300 29.66800
C  29.16100 49.17600 29.24200
C  28.88300 49.72000 24.44600
C  24.50100 51.61300 24.77800
N  26.95400 50.26300 29.18900
C  25.98600 50.77900 30.11800
C  26.40400 50.31700 31.53600
C  27.86500 49.84800 31.36400
C  28.04100 49.73500 29.86900
C  28.97900 50.75700 32.04500
C  25.47300 49.16200 32.02100
C  24.24800 49.55100 32.87500
H  24.36800 49.01500 34.27700
N  28.81400 49.58400 26.83900
C  29.50800 49.06100 27.87500
C  30.75100 48.38900 27.35100
C  30.82500 48.62900 25.94300
C  29.46900 49.32400 25.67500
C  31.76700 47.64800 28.28100
C  31.79200 48.35500 24.89800
O  31.66800 48.67100 23.71900
C  33.03800 47.59700 25.28800
N  26.82900 50.86300 24.87300
C  27.76500 50.41200 24.03100
C  27.42900 50.75300 22.56700
C  25.84900 50.94500 22.70100
C  25.68300 51.19600 24.20200
C  28.19500 52.01100 21.97300
C  24.98800 49.70400 22.14200
C  23.80000 50.10000 21.28000
N  25.08100 51.51700 27.10200
C  24.22300 51.91200 26.15900
C  22.99200 52.49900 26.83200
C  23.25000 52.34600 28.17700
C  24.50500 51.65200 28.30600
C  21.83800 53.17200 26.19000
C  22.69500 52.61300 29.48900
O  21.73900 53.29600 29.73300
C  23.66000 51.97300 30.52400
C  24.08700 53.01100 31.51000
O  25.15100 53.63100 31.50200
O  23.12100 53.18800 32.49400
C  23.53400 54.19800 33.46600
H  29.81700 48.63700 29.92900
H  29.39100 49.44400 23.52000
H  23.69700 51.87800 24.08900
H  26.32100 51.15200 32.23300
H  27.95500 48.82900 31.74100
H  29.17700 51.53600 31.30900
H  29.90600 50.18700 32.09800
H  28.69000 50.95000 33.07900
H  25.95500 48.43100 32.67000
H  25.15700 48.62500 31.12700
H  23.29400 49.25800 32.43700
H  24.13000 50.63100 32.95800
H  31.61400 48.00200 29.30000
H  32.80100 47.72900 27.94400
H  31.36900 46.63700 28.36900
H  33.52400 48.04400 26.15500
H  33.80400 47.62000 24.51300
H  32.74500 46.59400 25.60000
H  27.52800 49.89300 21.90400
H  25.67100 51.84400 22.11100
H  29.19100 51.97900 22.41300
H  27.58600 52.89500 22.16100
H  28.32300 51.93100 20.89300
H  24.55000 49.33200 23.06800
H  25.52700 48.89300 21.65200
H  23.83900 49.76700 20.24300
H  23.57000 51.16300 21.34900
H  22.93800 49.59900 21.72100
H  21.60400 54.14200 26.62900
H  20.95000 52.54900 26.08400
H  22.09300 53.34400 25.14400
H  23.18800 51.15900 31.07400
H  23.68200 55.15600 32.96700
H  24.40100 53.85000 34.02800
H  22.69900 54.33300 34.15300

