158

Mg 42.99000 41.41800 25.42200
C  42.24000 43.84000 27.83900
C  43.76200 39.27900 27.88500
C  43.54600 39.31500 23.00100
C  41.95300 43.92100 22.94000
N  43.19200 41.62000 27.63900
C  42.72300 42.61500 28.42100
C  42.81900 42.23000 29.94100
C  43.36300 40.75400 29.88400
C  43.46300 40.50200 28.38700
C  44.74000 40.56200 30.70500
C  41.49600 42.41500 30.76400
C  41.42300 41.71100 32.14200
H  41.45800 42.66100 33.33000
N  43.64500 39.59100 25.43800
C  43.84900 38.80400 26.53700
C  44.10000 37.48800 26.09700
C  44.20300 37.48900 24.71000
C  43.79900 38.85200 24.29200
C  44.22300 36.28100 27.12100
C  44.51700 36.33100 23.76700
O  44.76500 36.41400 22.55300
C  44.43300 34.91200 24.22600
N  42.65300 41.60000 23.31400
C  43.01200 40.51500 22.53700
C  42.77700 40.76000 20.97000
C  42.11200 42.14400 21.03500
C  42.19900 42.58200 22.49300
C  44.14700 40.76300 20.17500
C  40.68200 42.12100 20.46900
C  39.66600 41.37900 21.29200
N  42.44200 43.46800 25.34800
C  42.10000 44.30400 24.28200
C  41.90100 45.62500 24.83800
C  41.76800 45.41400 26.20500
C  42.13300 44.14000 26.47300
C  41.61400 46.84800 24.02200
C  41.45600 46.17600 27.37300
O  41.07000 47.31300 27.50300
C  41.64600 45.09300 28.57200
C  42.71700 45.64000 29.41100
O  43.89500 45.81800 29.17600
O  42.11200 46.12700 30.62500
C  43.06600 46.84900 31.48200
H  43.79800 38.50200 28.65100
H  43.79700 38.55400 22.25900
H  41.67500 44.67000 22.19500
H  43.44400 42.93200 30.49300
H  42.67900 39.97800 30.22800
H  44.75300 39.90300 31.57400
H  45.13200 41.55900 30.90500
H  45.45500 40.07600 30.04200
H  40.69900 42.25000 30.03800
H  41.34300 43.48800 30.87600
H  42.27900 41.06400 32.33200
H  40.51300 41.11300 32.19900
H  43.50400 35.49900 26.87900
H  43.86200 36.51200 28.12300
H  45.26700 35.96800 27.10600
H  43.54300 34.76600 24.83700
H  45.27000 34.55600 24.82600
H  44.47400 34.23000 23.37600
H  42.04000 40.05400 20.58600
H  42.67500 42.88900 20.47300
H  44.98400 40.35600 20.74300
H  44.42100 41.79100 19.93900
H  44.07200 40.12800 19.29300
H  40.72400 41.62200 19.50000
H  40.38100 43.16200 20.36000
H  39.17400 40.56700 20.75600
H  38.95100 42.13200 21.62200
H  40.03300 40.85200 22.17300
H  42.53000 47.22100 23.56600
H  41.30200 47.71300 24.60700
H  40.77100 46.56000 23.39300
H  40.68900 44.92600 29.06600
H  43.54800 47.71300 31.02400
H  43.88700 46.23100 31.84600
H  42.51000 47.21800 32.34400
Mg 6.98100 53.63600 41.58400
C  6.74400 50.14600 41.52900
C  10.26700 53.19500 40.16700
C  7.15700 56.86200 40.61600
C  3.77800 53.85000 42.50100
N  8.32900 51.89100 41.12100
C  7.96500 50.61700 41.08200
C  9.15800 49.70000 40.74300
C  10.39700 50.71700 40.81100
C  9.64100 52.05700 40.73700
C  11.31200 50.44700 42.13400
C  9.17100 48.84700 39.44100
C  8.96500 49.66600 38.20400
H  7.76600 49.27600 37.24000
N  8.49700 54.82200 40.54700
C  9.73000 54.45200 40.02600
C  10.47700 55.65500 39.69400
C  9.66800 56.79600 39.92400
C  8.37500 56.18000 40.37800
C  11.93500 55.63200 39.28100
C  10.09300 58.24600 39.80900
O  11.15600 58.65300 39.36500
C  9.22600 59.33700 40.32900
N  5.64700 55.02900 41.55000
C  5.99000 56.28900 41.13500
C  4.72200 57.13100 41.17300
C  3.65200 56.27800 41.95500
C  4.41300 54.92400 42.03800
C  4.64100 58.56100 41.81200
C  2.30500 56.14800 41.29100
C  1.10800 56.07100 42.28200
N  5.52200 52.31200 42.12400
C  4.26900 52.52800 42.60800
C  3.68300 51.24800 42.93700
C  4.57800 50.25100 42.57100
C  5.68800 51.01100 41.99300
C  2.36000 50.98500 43.55000
C  4.75500 48.87900 42.52400
O  4.03700 47.94500 42.77700
C  6.18000 48.76500 41.68200
C  5.72800 48.14100 40.34300
O  4.97000 48.66500 39.49300
O  6.04800 46.79100 40.36500
C  5.43400 45.94700 39.38200
H  11.29200 52.99100 39.85200
H  7.05400 57.92800 40.40300
H  2.75300 53.85100 42.87800
H  9.19200 48.92000 41.50400
H  11.06800 50.59000 39.96100
H  12.36400 50.57500 41.87900
H  11.18900 49.41800 42.47400
H  11.13600 51.20200 42.90000
H  8.43600 48.04200 39.46400
H  10.18400 48.47500 39.28800
H  9.83800 49.48700 37.57600
H  8.88000 50.73400 38.40100
H  12.13600 54.66700 38.81600
H  12.63500 55.81500 40.09600
H  12.13100 56.39700 38.53000
H  8.45700 59.63200 39.61500
H  9.78800 60.25700 40.48800
H  8.88900 58.99600 41.30800
H  4.49800 57.25600 40.11400
H  3.59000 56.54000 43.01100
H  5.66500 58.81800 42.08700
H  3.96400 58.89200 42.60000
H  4.36900 59.15900 40.94200
H  2.37800 55.21000 40.74100
H  2.14700 56.88900 40.50700
H  0.54600 57.00400 42.26000
H  1.51600 55.95800 43.28700
H  0.40200 55.26500 42.08200
H  1.57200 51.72600 43.41000
H  2.39000 50.69200 44.60000
H  1.99200 50.13600 42.97500
H  6.85100 48.06400 42.18000
H  6.22000 45.54100 38.74500
H  4.66700 46.30700 38.69600
H  4.99300 45.03600 39.78600

