158

Mg 24.56800 -5.77300 46.14300
C  26.67200 -3.64400 44.54400
C  22.02900 -4.64500 44.20800
C  22.79500 -8.60700 46.98600
C  27.35900 -7.14200 47.95100
N  24.43400 -4.20500 44.56600
C  25.41800 -3.47600 44.06000
C  24.91600 -2.44600 43.05700
C  23.30700 -2.67100 43.15800
C  23.24600 -3.95000 44.02200
C  22.46800 -1.50200 43.67100
C  25.56300 -2.61500 41.67000
C  25.70900 -1.28600 40.92900
H  25.10800 -1.21800 39.44800
N  22.59400 -6.47800 45.71900
C  21.69200 -5.83400 44.87600
C  20.51300 -6.63100 44.78600
C  20.73700 -7.82000 45.53300
C  22.08300 -7.73900 46.09900
C  19.30100 -6.27300 43.96800
C  19.68300 -8.90600 45.72800
O  18.64900 -8.84700 45.10000
C  19.86100 -10.05900 46.64900
N  24.96400 -7.62400 47.24700
C  24.12200 -8.61700 47.47600
C  24.69700 -9.75000 48.37300
C  26.10200 -9.20200 48.75000
C  26.17400 -7.89300 47.86100
C  23.78000 -10.02000 49.58800
C  27.39800 -10.11900 48.70200
C  28.14800 -10.20200 49.95200
N  26.61400 -5.36700 46.32800
C  27.61100 -5.95800 47.16700
C  28.83700 -5.25500 46.96900
C  28.57700 -4.30700 45.88000
C  27.15400 -4.50900 45.51800
C  30.13100 -5.54200 47.71800
C  29.16200 -3.28600 45.02000
O  30.27600 -2.76100 45.14600
C  27.96300 -2.85900 44.06200
C  27.85800 -1.35200 44.24500
O  27.23700 -0.70300 45.07600
O  28.81800 -0.82900 43.37200
C  28.68900 0.68500 43.18100
H  21.16600 -4.19700 43.71100
H  22.27800 -9.49700 47.35200
H  28.17300 -7.60400 48.51300
H  25.29800 -1.49600 43.43000
H  22.84100 -2.83100 42.18600
H  21.89000 -1.19600 42.79900
H  23.08500 -0.75700 44.17300
H  21.72500 -1.87000 44.37800
H  24.79900 -3.07900 41.04500
H  26.41400 -3.29600 41.69900
H  26.75900 -0.99400 40.91800
H  25.08200 -0.53800 41.41400
H  19.05700 -7.06100 43.25600
H  19.37900 -5.28600 43.51300
H  18.35400 -6.16600 44.49700
H  19.81900 -9.80000 47.70700
H  20.76600 -10.60100 46.37300
H  18.94500 -10.61200 46.44300
H  24.79100 -10.72700 47.89800
H  26.07300 -8.74400 49.73900
H  24.25600 -9.64200 50.49300
H  23.65900 -11.10300 49.59100
H  22.89700 -9.41700 49.37500
H  28.07100 -9.78400 47.91200
H  27.06600 -11.07800 48.30500
H  29.07300 -9.66900 49.73500
H  28.22400 -11.24900 50.24400
H  27.62300 -9.68800 50.75700
H  30.83200 -4.73400 47.50700
H  30.52800 -6.46100 47.28800
H  29.91000 -5.61300 48.78300
H  28.17000 -2.94000 42.99500
H  27.60900 0.82300 43.13100
H  28.96300 1.02600 42.18200
H  29.04100 1.26300 44.03500
Mg 17.34300 -1.56500 28.53600
C  16.73500 0.42800 31.34600
C  19.35800 -3.60800 30.37100
C  18.65000 -2.88500 25.71200
C  15.95300 1.01500 26.48700
N  17.75000 -1.64900 30.66100
C  17.47800 -0.72500 31.62900
C  18.06100 -1.15100 32.93300
C  19.01600 -2.38400 32.62300
C  18.68400 -2.56900 31.12800
C  20.55600 -2.05100 32.86500
C  16.76900 -1.44700 33.71600
C  16.70100 -0.80200 35.09000
H  17.93700 -0.21600 35.76900
N  18.53900 -3.14800 28.12100
C  19.28000 -3.89800 29.00100
C  19.97300 -4.95100 28.30200
C  19.74500 -4.82100 26.92500
C  18.94800 -3.57500 26.86100
C  20.77300 -6.12000 29.04200
C  20.29200 -5.67600 25.73200
O  20.20700 -5.37100 24.55600
C  20.96500 -7.04600 26.00300
N  17.33200 -0.96900 26.37000
C  17.94700 -1.69100 25.46700
C  17.86800 -1.07400 24.07800
C  16.84500 0.11200 24.32000
C  16.62500 0.03700 25.80400
C  19.27800 -0.58800 23.53600
C  15.56500 0.28700 23.32800
C  14.20000 -0.07400 23.89000
N  16.40200 0.30300 28.78500
C  15.86400 1.16000 27.86700
C  15.12300 2.23000 28.54300
C  15.55400 2.03900 29.90700
C  16.24500 0.79800 30.04800
C  14.22300 3.23300 28.00200
C  15.42900 2.62300 31.19900
O  14.81300 3.58300 31.60000
C  16.20000 1.58200 32.25500
C  17.15200 2.43200 32.97500
O  18.23300 2.65700 32.45700
O  16.63400 3.01200 34.06300
C  17.45800 4.02800 34.67000
H  19.90100 -4.31500 31.00200
H  19.06500 -3.39300 24.83900
H  15.66900 1.79700 25.78000
H  18.56900 -0.24100 33.25200
H  18.74200 -3.28600 33.17000
H  21.20700 -2.26200 32.01700
H  20.89000 -2.66000 33.70400
H  20.61600 -0.97800 33.05000
H  16.68400 -2.49500 34.00600
H  15.85200 -1.16000 33.20100
H  16.27700 -1.54000 35.77100
H  16.01900 0.04400 35.00400
H  21.79600 -5.97800 28.69500
H  20.37000 -7.12600 28.92700
H  20.80900 -5.91100 30.11200
H  20.27300 -7.62900 26.61100
H  21.99000 -7.05500 26.37200
H  20.91600 -7.46200 24.99700
H  17.48700 -1.76200 23.32300
H  17.35100 1.04100 24.05600
H  19.13200 0.39700 23.09300
H  19.78000 -1.31400 22.89700
H  19.84300 -0.49200 24.46200
H  15.72100 -0.20900 22.37000
H  15.61300 1.33200 23.02300
H  13.77900 0.71600 24.51200
H  14.22400 -0.87300 24.63200
H  13.55700 -0.42300 23.08300
H  14.65800 4.23200 28.02300
H  13.30100 3.19700 28.58300
H  14.01300 3.03700 26.95000
H  15.52900 1.24300 33.04300
H  18.46400 3.63400 34.81600
H  17.04500 4.37000 35.61900
H  17.56100 4.90500 34.03100

