158

Mg -0.38100 7.52300 26.11700
C  0.35500 9.49000 28.82100
C  -0.27300 4.65200 28.32300
C  -0.91600 5.41400 23.52500
C  -0.21500 10.21600 24.02900
N  0.00700 7.11300 28.32400
C  0.24700 8.13700 29.22400
C  0.11100 7.53500 30.65600
C  0.14500 5.97200 30.46200
C  -0.07800 5.88600 28.97200
C  1.48600 5.36600 30.89200
C  -1.09700 8.02500 31.55200
C  -0.95900 8.33900 33.03800
H  0.35800 7.88800 33.68600
N  -0.50900 5.28800 25.92300
C  -0.45200 4.37000 26.96500
C  -0.55400 3.02300 26.40400
C  -0.76900 3.17300 25.02600
C  -0.74600 4.66300 24.77600
C  -0.73900 1.77200 27.18600
C  -0.95200 2.07100 23.94400
O  -1.10000 2.32200 22.80000
C  -0.89000 0.58200 24.25800
N  -0.44800 7.77700 24.04000
C  -0.75200 6.77800 23.17700
C  -0.84500 7.34000 21.67800
C  -0.84000 8.89600 21.91900
C  -0.54000 9.00100 23.43000
C  0.25300 6.87500 20.66100
C  -2.03800 9.69400 21.26300
C  -3.27500 9.69200 22.19700
N  0.05600 9.48600 26.33400
C  0.13800 10.45600 25.40900
C  0.51100 11.72400 26.00300
C  0.68200 11.40300 27.38700
C  0.32000 10.04200 27.51400
C  0.63700 13.02200 25.27800
C  0.98100 11.90300 28.74100
O  1.40700 12.97700 29.13500
C  0.58800 10.68000 29.70200
C  1.81400 10.56400 30.57200
O  2.91900 10.35800 30.14300
O  1.49700 10.68100 31.94700
C  2.65700 10.82600 32.82500
H  -0.30000 3.85200 29.06600
H  -1.13600 4.71200 22.71700
H  -0.19400 11.06600 23.34400
H  1.01800 7.78400 31.20700
H  -0.67000 5.55300 31.05300
H  1.97300 4.82000 30.08400
H  1.45800 4.81600 31.83300
H  2.25400 6.13300 30.99400
H  -1.85700 7.25500 31.42200
H  -1.43500 8.96800 31.12200
H  -1.84100 8.18100 33.66000
H  -0.87500 9.42500 33.03800
H  0.11100 1.10700 27.03800
H  -1.66500 1.24900 26.94700
H  -0.76900 1.76800 28.27600
H  -0.95400 -0.02800 23.35700
H  -1.74000 0.31700 24.88600
H  0.04500 0.39500 24.78600
H  -1.78300 7.12600 21.16700
H  0.03800 9.35300 21.46200
H  1.08200 6.31600 21.09600
H  0.66100 7.68800 20.05900
H  -0.27300 6.21500 19.97100
H  -2.24300 9.17200 20.32800
H  -1.71200 10.69500 20.98000
H  -3.36000 10.62400 22.75600
H  -3.22600 8.88100 22.92400
H  -4.16500 9.42600 21.62600
H  1.13800 12.89700 24.31800
H  1.22400 13.64200 25.95600
H  -0.31900 13.51200 25.09200
H  -0.31700 10.99000 30.22300
H  3.48300 10.14300 32.62200
H  2.37400 10.77200 33.87600
H  2.85700 11.88500 32.66500
Mg -11.38500 37.69600 41.87500
C  -9.38400 35.26100 40.48600
C  -9.42200 40.08500 40.26200
C  -13.85900 39.96400 42.42300
C  -13.41800 35.15100 43.26200
N  -9.68400 37.61100 40.41900
C  -8.93800 36.53000 40.13300
C  -7.62000 36.89300 39.44200
C  -7.60200 38.40400 39.56400
C  -9.01300 38.78800 40.11200
C  -6.39800 38.95000 40.41300
C  -7.60600 36.35300 37.96600
C  -6.40900 35.47600 37.58100
H  -5.68800 35.94200 36.33700
N  -11.50100 39.78800 41.67700
C  -10.58300 40.55000 40.88600
C  -11.08600 41.86800 40.84300
C  -12.41700 41.84400 41.40500
C  -12.65100 40.51800 41.90600
C  -10.29200 42.98700 40.17600
C  -13.23000 43.08800 41.47300
O  -12.87500 44.08800 40.87100
C  -14.49100 43.08800 42.29700
N  -13.35300 37.61400 42.70000
C  -14.17100 38.63800 42.74500
C  -15.52500 38.32500 43.38300
C  -15.34000 36.81000 43.72600
C  -13.93500 36.45900 43.23300
C  -16.00800 39.20700 44.53600
C  -16.48900 35.93800 43.19300
C  -17.05800 34.76900 44.13900
N  -11.48500 35.53400 41.82700
C  -12.20100 34.70100 42.70300
C  -11.70400 33.36400 42.53500
C  -10.60800 33.57400 41.60500
C  -10.50900 34.90500 41.21900
C  -12.25200 32.18100 43.13600
C  -9.63700 32.83000 40.89700
O  -9.46300 31.65000 40.74000
C  -8.77200 33.85900 40.15900
C  -7.32800 33.75500 40.61300
O  -6.44400 33.41000 39.87900
O  -7.18900 34.05900 41.96000
C  -5.81700 34.19000 42.42900
H  -8.70300 40.85800 39.98400
H  -14.74800 40.59300 42.51000
H  -14.07000 34.46200 43.80300
H  -6.81300 36.45700 40.03100
H  -7.52800 38.93100 38.61300
H  -6.21400 40.00200 40.19400
H  -5.51200 38.32900 40.28000
H  -6.64200 39.01900 41.47300
H  -7.63000 37.21400 37.29800
H  -8.52400 35.79600 37.77700
H  -6.77500 34.46300 37.41100
H  -5.79800 35.46100 38.48300
H  -10.70400 43.37600 39.24500
H  -9.28600 42.70400 39.86500
H  -10.20800 43.90900 40.75200
H  -14.68100 44.14000 42.51100
H  -14.23600 42.58600 43.23000
H  -15.28700 42.61800 41.72000
H  -16.20500 38.47700 42.54400
H  -15.28000 36.55200 44.78300
H  -16.22900 38.61900 45.42700
H  -16.98100 39.66500 44.35800
H  -15.32200 40.02700 44.74800
H  -16.21500 35.62500 42.18500
H  -17.37500 36.54400 43.00000
H  -16.62100 33.81300 43.84900
H  -18.13900 34.66500 44.05300
H  -16.74400 34.92200 45.17200
H  -12.73100 31.57600 42.36700
H  -13.02900 32.53300 43.81400
H  -11.48300 31.60700 43.65300
H  -8.83500 33.60400 39.10100
H  -5.42700 33.18100 42.30000
H  -5.72600 34.57000 43.44700
H  -5.22600 34.79200 41.73800

