158

Mg -2.77000 16.77800 26.69800
C  -3.18400 14.65200 29.46600
C  -3.08000 19.48400 28.81800
C  -2.35900 18.80000 24.01700
C  -2.67200 13.99700 24.53500
N  -2.97000 16.96900 28.91000
C  -3.13900 15.93100 29.82900
C  -3.23700 16.47300 31.22800
C  -3.26300 18.11800 30.95100
C  -3.06200 18.25400 29.46600
C  -4.60500 18.75200 31.37500
C  -2.21600 15.88100 32.22400
C  -1.71900 16.71200 33.32300
H  -1.36900 16.10000 34.64500
N  -2.84800 18.78900 26.46000
C  -2.94600 19.76500 27.44200
C  -2.81600 21.06900 26.88000
C  -2.59400 20.91000 25.48100
C  -2.64000 19.45400 25.22400
C  -2.78700 22.41200 27.64000
C  -2.18000 21.94400 24.39500
O  -1.97500 21.61900 23.23200
C  -1.80100 23.38400 24.85000
N  -2.40900 16.43900 24.63600
C  -2.30900 17.44900 23.79800
C  -2.15500 16.96400 22.31700
C  -2.16800 15.35200 22.48200
C  -2.38800 15.25200 23.98400
C  -3.38700 17.28900 21.44000
C  -0.84200 14.68700 22.01000
C  -0.98700 13.94100 20.66800
N  -2.95500 14.71800 26.93200
C  -2.94200 13.71500 25.92200
C  -3.19800 12.40000 26.59100
C  -3.24300 12.75100 28.01200
C  -3.05700 14.14200 28.18900
C  -3.44500 11.11700 25.99800
C  -3.48200 12.21800 29.33200
O  -3.63900 11.02900 29.68900
C  -3.40600 13.42700 30.34200
C  -2.26100 13.12400 31.25500
O  -1.09500 13.25400 30.88700
O  -2.58400 12.56900 32.51100
C  -1.44300 11.92300 33.19700
H  -3.02700 20.34200 29.49200
H  -2.21600 19.35600 23.08900
H  -2.54700 13.12400 23.89100
H  -4.23700 16.19300 31.56100
H  -2.36200 18.48200 31.44400
H  -4.39400 19.41200 32.21600
H  -5.30400 17.94300 31.58700
H  -5.06400 19.28500 30.54200
H  -1.34600 15.45300 31.72600
H  -2.71700 15.03700 32.69700
H  -2.38600 17.56000 33.48300
H  -0.77300 17.20200 33.08800
H  -3.03000 22.39400 28.70200
H  -3.46200 23.14000 27.18900
H  -1.77800 22.77100 27.44000
H  -2.68500 23.79000 25.34100
H  -1.58000 24.05100 24.01600
H  -0.88300 23.18800 25.40500
H  -1.29500 17.37900 21.79100
H  -2.94000 14.75300 21.99900
H  -4.22700 17.65100 22.03300
H  -3.83400 16.42100 20.95500
H  -3.03400 17.94900 20.64800
H  -0.36500 14.15300 22.83300
H  -0.13400 15.48600 21.78900
H  -1.97000 13.49100 20.52800
H  -0.27500 13.13500 20.84700
H  -0.58800 14.65900 19.95100
H  -3.63600 11.26800 24.93600
H  -4.29600 10.67700 26.51800
H  -2.55000 10.54700 26.24900
H  -4.31600 13.38300 30.94000
H  -1.66300 10.85900 33.28100
H  -1.43200 12.42100 34.16700
H  -0.48900 12.02400 32.68000
Mg 50.34600 45.17900 42.70800
C  47.19400 46.05100 41.58800
C  50.02800 42.10100 41.70200
C  53.74800 44.90100 42.94200
C  50.85200 48.78100 43.16600
N  48.86400 44.28000 41.66900
C  47.55200 44.74200 41.37900
C  46.65500 43.67300 40.77600
C  47.64600 42.39800 40.81600
C  48.92000 42.92700 41.46100
C  47.04200 41.18300 41.64900
C  46.27000 44.03200 39.28400
C  47.31900 44.65600 38.35500
H  47.82300 43.86100 37.16100
N  51.71400 43.66900 42.48500
C  51.34400 42.38100 42.09300
C  52.50000 41.48300 41.98800
C  53.61000 42.31600 42.39200
C  53.03500 43.67800 42.67200
C  52.33200 40.02000 41.62600
C  55.04000 41.72200 42.55800
O  55.25800 40.60500 42.19800
C  56.09600 42.47500 43.34800
N  51.99300 46.69400 43.01300
C  53.29900 46.21300 43.20900
C  54.22000 47.48200 43.37600
C  53.28600 48.68100 43.65700
C  51.98300 48.02700 43.17800
C  55.33500 47.46500 44.48900
C  53.65100 50.16300 43.17700
C  53.93400 51.09000 44.33400
N  49.29900 47.11800 42.36500
C  49.57600 48.45800 42.72000
C  48.33200 49.24100 42.67300
C  47.36400 48.28400 42.26900
C  47.96700 47.05700 42.06200
C  48.18200 50.63500 43.24800
C  45.95900 48.16100 41.84700
O  45.09500 48.97300 41.63700
C  45.73500 46.66900 41.54900
C  44.76900 46.07300 42.48800
O  43.56300 45.93600 42.23400
O  45.34300 45.63700 43.68000
C  44.39000 45.07400 44.62300
H  49.82300 41.10500 41.30500
H  54.83000 44.76000 42.89700
H  50.86100 49.85600 43.36100
H  45.78400 43.45800 41.39500
H  47.84900 41.95500 39.84100
H  46.21000 41.54500 42.25200
H  47.74600 40.94100 42.44600
H  46.94900 40.38100 40.91700
H  45.48500 44.77200 39.43900
H  45.81900 43.09500 38.95600
H  48.28800 44.71700 38.85200
H  47.00300 45.61000 37.93300
H  52.95000 39.71600 40.78100
H  51.28400 39.83100 41.39300
H  52.58400 39.49200 42.54500
H  56.61900 43.20900 42.73600
H  56.82500 41.74600 43.70100
H  55.61200 42.92800 44.21400
H  54.74700 47.46600 42.42100
H  53.10000 48.72300 44.73000
H  56.22900 47.12000 43.96900
H  55.08100 46.66700 45.18800
H  55.53200 48.45300 44.90600
H  52.86900 50.55200 42.52600
H  54.54500 50.15700 42.55200
H  54.55700 50.54600 45.04400
H  52.94800 51.29700 44.75100
H  54.46300 51.93000 43.88300
H  48.75000 51.19500 42.50500
H  48.61800 50.77300 44.23700
H  47.14200 50.96100 43.29600
H  45.30600 46.52100 40.55800
H  44.97300 44.55600 45.38500
H  43.63200 44.40300 44.21700
H  43.85700 45.85300 45.16900

