158

Mg -1.55500 17.28900 26.35100
C  -2.59900 15.25100 29.02700
C  -2.78400 20.04600 28.02000
C  -1.09700 19.01200 23.50000
C  -1.20500 14.30300 24.32800
N  -2.50600 17.61300 28.33800
C  -2.85800 16.61600 29.21800
C  -3.32500 17.31400 30.48500
C  -3.88700 18.64900 29.85900
C  -2.96800 18.85800 28.69000
C  -5.38000 18.65300 29.48100
C  -2.13300 17.53000 31.39300
C  -2.36600 17.09600 32.88700
H  -1.21400 16.67000 33.74100
N  -1.71700 19.25300 25.88300
C  -2.15100 20.23900 26.75300
C  -1.95100 21.48000 26.04700
C  -1.45100 21.20200 24.74100
C  -1.39500 19.79800 24.66600
C  -2.42700 22.81500 26.68800
C  -1.12900 22.12600 23.59300
O  -0.78800 21.75100 22.47500
C  -1.19400 23.53000 23.82500
N  -1.42100 16.66400 24.20000
C  -1.09400 17.65100 23.34500
C  -0.98500 17.07200 21.87400
C  -0.61800 15.54500 22.24100
C  -1.16600 15.46900 23.67900
C  -2.18000 17.32800 21.00400
C  0.89600 15.08100 22.20600
C  1.90700 15.86200 23.01300
N  -1.76700 15.25300 26.57900
C  -1.53500 14.14400 25.75800
C  -1.90800 12.97300 26.47000
C  -2.19500 13.32200 27.78300
C  -2.12900 14.71800 27.76000
C  -1.76300 11.59500 25.87200
C  -2.47400 12.78900 29.10900
O  -2.52400 11.63100 29.46400
C  -2.89800 14.01300 29.93800
C  -2.18000 13.94300 31.23800
O  -1.03300 14.18800 31.39700
O  -3.06700 13.55500 32.20400
C  -2.46800 12.99400 33.42600
H  -3.21100 20.94800 28.46200
H  -1.15700 19.48200 22.51700
H  -1.17300 13.47500 23.61700
H  -4.08200 16.65300 30.90800
H  -3.71800 19.48700 30.53600
H  -5.78200 17.64700 29.35600
H  -5.40700 19.17100 28.52300
H  -5.98100 19.03800 30.30600
H  -1.75200 18.55000 31.33500
H  -1.18500 17.12600 31.03800
H  -3.02800 16.23500 32.79600
H  -2.92400 17.90300 33.36100
H  -2.87800 22.80700 27.68000
H  -3.19300 23.20100 26.01600
H  -1.47800 23.34900 26.74400
H  -2.21600 23.76300 24.12500
H  -0.84000 24.09800 22.96500
H  -0.60200 23.73600 24.71700
H  -0.09300 17.50000 21.41700
H  -1.25200 14.89500 21.63700
H  -2.79800 18.05700 21.52900
H  -2.75700 16.40300 21.01400
H  -1.84200 17.58400 20.00000
H  1.03100 15.30300 21.14800
H  0.86000 14.00100 22.35400
H  1.45200 16.64900 23.61300
H  2.64000 16.28600 22.32700
H  2.36300 15.04900 23.57900
H  -2.12900 11.63800 24.84600
H  -2.19700 10.78400 26.45700
H  -0.71000 11.42900 25.64600
H  -3.95700 13.83900 30.13000
H  -1.72800 13.73200 33.73500
H  -1.90000 12.07600 33.27900
H  -3.16000 12.84700 34.25600
Mg 35.74300 49.32100 25.00200
C  36.01100 47.88800 28.23900
C  34.77700 52.22100 26.49500
C  35.66400 50.57900 21.96000
C  36.58800 46.13900 23.68000
N  35.52100 49.93900 27.18000
C  35.64600 49.21100 28.29900
C  35.40600 50.06600 29.58500
C  34.84200 51.38200 28.98100
C  35.03700 51.16800 27.44800
C  33.46700 51.85200 29.51300
C  36.65600 50.17600 30.52200
C  36.49300 49.74100 32.01500
H  35.16100 50.08400 32.66300
N  35.30500 51.14300 24.31200
C  34.85400 52.21700 25.06400
C  34.54600 53.32500 24.19000
C  34.88600 52.87700 22.84400
C  35.36400 51.46100 23.01200
C  34.00500 54.59400 24.61700
C  34.78000 53.64300 21.44500
O  35.20800 53.19400 20.36700
C  34.24600 55.03700 21.47600
N  35.80800 48.46700 23.06100
C  35.91500 49.20300 21.97200
C  36.27000 48.42400 20.63900
C  36.74000 47.03100 21.28300
C  36.25000 47.19300 22.76400
C  34.97500 48.24100 19.75900
C  38.27100 46.72000 21.08600
C  38.63700 45.28500 20.56000
N  36.23500 47.41000 25.72600
C  36.53000 46.24300 25.10000
C  36.64100 45.17800 26.04700
C  36.47200 45.79700 27.25700
C  36.22500 47.11200 27.04700
C  37.02000 43.73300 25.73400
C  36.49300 45.55500 28.68300
O  36.81100 44.60800 29.31700
C  36.06000 46.84100 29.33700
C  34.84000 46.85000 30.14300
O  33.75300 47.25900 29.81300
O  35.02700 46.11600 31.29900
C  33.93000 46.05700 32.23500
H  34.53500 53.15600 27.00500
H  35.73000 51.08700 20.99600
H  37.01400 45.23100 23.25000
H  34.52000 49.64700 30.06100
H  35.53000 52.13600 29.36600
H  32.83300 51.01800 29.81400
H  33.08800 52.41000 28.65700
H  33.72500 52.44400 30.39200
H  36.95500 51.22000 30.61700
H  37.51000 49.61200 30.14800
H  37.35000 50.01300 32.63000
H  36.74200 48.68000 32.03600
H  34.76900 55.33700 24.39100
H  33.80400 54.66800 25.68500
H  33.06500 54.86200 24.13400
H  33.33600 55.04900 22.07600
H  34.08400 55.44300 20.47700
H  35.04400 55.70700 21.79300
H  37.08000 48.99000 20.18000
H  36.16600 46.13200 21.05700
H  34.10800 48.26200 20.41900
H  35.11600 47.26500 19.29600
H  34.91500 49.08900 19.07600
H  38.77700 46.75500 22.05100
H  38.67000 47.43500 20.36600
H  37.74700 44.66300 20.46000
H  39.35500 44.77000 21.19800
H  39.20700 45.26700 19.63100
H  37.78000 43.67100 24.95500
H  36.19100 43.11100 25.39700
H  37.49800 43.19900 26.55500
H  36.88400 47.10000 30.00200
H  33.08200 45.66200 31.67500
H  33.66400 47.02900 32.65100
H  34.03200 45.42800 33.12000

