158

Mg 1.80800 -1.55000 44.24400
C  5.23900 -0.95200 43.57600
C  1.02900 0.96000 42.28400
C  -1.41100 -2.66300 44.38300
C  2.89900 -4.57200 45.87700
N  3.01800 -0.25100 43.10000
C  4.36400 -0.10200 42.93700
C  4.81400 0.93300 41.92700
C  3.43000 1.74100 41.73200
C  2.40600 0.78200 42.40400
C  3.42800 3.13500 42.28500
C  5.46800 0.39700 40.62800
C  6.73200 1.21800 40.29400
H  7.04700 1.41900 38.80500
N  -0.06100 -0.86300 43.59300
C  -0.11200 0.22100 42.79900
C  -1.49200 0.47300 42.48800
C  -2.23700 -0.50500 43.20200
C  -1.25900 -1.36900 43.85500
C  -2.07400 1.63900 41.59400
C  -3.77100 -0.60700 43.19600
O  -4.39800 0.23300 42.59700
C  -4.43200 -1.84500 43.92500
N  0.95600 -3.47400 44.89000
C  -0.42300 -3.59300 44.87700
C  -0.85200 -4.87600 45.54700
C  0.48400 -5.31400 46.26800
C  1.53300 -4.43700 45.65900
C  -2.00900 -4.79100 46.57500
C  0.76900 -6.88200 46.30500
C  1.04100 -7.63800 47.65700
N  3.70300 -2.62500 44.70400
C  4.01000 -3.77400 45.34800
C  5.40000 -3.98400 45.48800
C  5.94100 -2.88000 44.79100
C  4.90600 -2.09100 44.31900
C  6.11700 -5.19200 46.15600
C  7.16700 -2.23600 44.41400
O  8.36400 -2.53500 44.61900
C  6.77000 -0.93400 43.64100
C  7.21200 0.23800 44.51100
O  6.68600 0.65200 45.58200
O  8.32800 0.72000 43.82600
C  8.71500 2.01700 44.30100
H  0.77200 1.80600 41.64300
H  -2.38500 -3.12700 44.55400
H  3.15400 -5.34900 46.60100
H  5.56500 1.56200 42.40500
H  3.25300 1.82500 40.66000
H  2.44600 3.61000 42.28800
H  4.16800 3.77400 41.80200
H  3.71700 3.19500 43.33400
H  4.85200 0.64800 39.76500
H  5.75700 -0.65000 40.72100
H  7.62000 0.70100 40.65700
H  6.71400 2.23300 40.69200
H  -2.73900 1.27800 40.81000
H  -1.30700 2.30100 41.19200
H  -2.70300 2.23200 42.25900
H  -5.50000 -1.63100 43.90000
H  -3.99100 -1.92800 44.91900
H  -4.26600 -2.76100 43.35900
H  -1.16300 -5.63200 44.82700
H  0.44400 -4.92600 47.28600
H  -2.86800 -5.21400 46.05500
H  -2.28700 -3.79200 46.91200
H  -1.70800 -5.37200 47.44700
H  1.60700 -7.06300 45.63200
H  -0.06800 -7.40100 45.83800
H  0.62600 -8.64500 47.71000
H  0.71400 -6.97800 48.46100
H  2.10700 -7.79600 47.81900
H  6.08900 -5.04500 47.23500
H  7.18700 -5.27500 45.96400
H  5.56300 -6.10600 45.94400
H  7.14900 -0.83400 42.62400
H  8.02500 2.80800 44.00700
H  9.69200 2.22800 43.86500
H  8.80200 2.12900 45.38200
Mg 25.21400 -5.37800 45.99800
C  27.48700 -3.40900 44.21700
C  22.75000 -4.38700 43.86900
C  23.33800 -8.01100 46.87000
C  27.88300 -6.50700 47.90300
N  25.16700 -4.11500 44.22400
C  26.19000 -3.37600 43.70700
C  25.62800 -2.31300 42.72000
C  24.10300 -2.42300 42.92200
C  24.00400 -3.71100 43.72200
C  23.40600 -1.32100 43.69000
C  26.05800 -2.62400 41.22400
C  26.43000 -1.37500 40.34300
H  25.74000 -1.18900 38.95000
N  23.30300 -6.11300 45.42500
C  22.40000 -5.48900 44.64800
C  21.07600 -6.01700 44.72200
C  21.11700 -7.08000 45.65400
C  22.58500 -7.14900 46.01200
C  19.88100 -5.56300 43.90300
C  20.03300 -8.15300 46.00700
O  18.84600 -8.05700 45.57500
C  20.41200 -9.35000 46.86400
N  25.50400 -7.01800 47.13200
C  24.59400 -7.96800 47.33500
C  25.14400 -9.14200 48.17800
C  26.59600 -8.58200 48.56700
C  26.68600 -7.26200 47.85200
C  24.28000 -9.49900 49.40300
C  27.83300 -9.57800 48.24300
C  28.14000 -10.58100 49.39800
N  27.36400 -5.04400 46.17600
C  28.26800 -5.46800 47.09600
C  29.50700 -4.75300 46.92500
C  29.22900 -3.93700 45.75700
C  27.96400 -4.19200 45.31000
C  30.76100 -4.93000 47.68700
C  29.84600 -2.97200 44.84000
O  30.97700 -2.49500 44.82100
C  28.63700 -2.51600 43.85100
C  28.26700 -1.08000 44.09100
O  27.88000 -0.58300 45.17400
O  28.34300 -0.28800 42.97000
C  28.14300 1.17200 43.11400
H  21.83500 -3.91500 43.50800
H  22.90300 -8.90900 47.31300
H  28.75500 -6.85500 48.46100
H  26.03600 -1.33000 42.95300
H  23.57600 -2.39300 41.96800
H  24.16000 -0.60100 44.00800
H  22.90900 -1.63000 44.61000
H  22.68900 -0.81200 43.04600
H  25.25300 -3.25800 40.85200
H  26.93200 -3.26700 41.32400
H  27.45900 -1.63200 40.09100
H  26.52200 -0.46400 40.93500
H  20.10800 -5.13500 42.92600
H  19.37600 -4.79000 44.48200
H  19.19300 -6.38000 43.68400
H  19.56800 -10.02700 46.99600
H  20.73600 -8.85100 47.77800
H  21.24500 -9.91400 46.44500
H  25.21700 -10.01000 47.52300
H  26.54300 -8.46300 49.64900
H  23.93000 -10.52200 49.27100
H  23.43900 -8.81800 49.53700
H  24.79000 -9.53800 50.36600
H  28.68700 -8.93900 48.01700
H  27.57300 -10.18800 47.37900
H  29.10900 -10.35500 49.84200
H  28.34200 -11.59600 49.05500
H  27.42700 -10.65500 50.21900
H  30.80800 -5.93900 48.09800
H  30.76700 -4.22300 48.51700
H  31.60000 -4.75200 47.01500
H  28.98500 -2.56700 42.81900
H  28.84300 1.58000 43.84200
H  27.11600 1.40700 43.39300
H  28.43600 1.62500 42.16600

