158

Mg -2.36500 16.96600 26.15800
C  -2.28000 14.63300 28.75400
C  -2.93500 19.27200 28.50700
C  -2.63500 19.17500 23.70500
C  -2.16900 14.55100 23.80000
N  -2.97300 16.88000 28.42600
C  -2.59600 15.84700 29.26900
C  -2.83200 16.31000 30.71700
C  -3.00700 17.89100 30.63900
C  -2.83100 18.06400 29.10000
C  -4.41700 18.40100 31.15000
C  -1.61700 16.06700 31.65000
C  -1.47400 16.76100 33.03200
H  -1.71000 16.07300 34.36700
N  -2.70600 18.92100 26.06600
C  -2.89900 19.77200 27.18100
C  -3.10700 21.12300 26.73000
C  -3.07200 21.08900 25.28000
C  -2.84300 19.66900 24.96000
C  -3.33100 22.22000 27.78900
C  -3.13700 22.20500 24.25400
O  -3.14700 22.09700 23.03700
C  -3.26100 23.57300 24.84500
N  -2.46800 16.85400 23.98700
C  -2.56000 17.88800 23.20200
C  -2.40400 17.55500 21.67400
C  -2.27700 15.95600 21.73700
C  -2.32700 15.72100 23.26700
C  -3.55700 18.02400 20.85800
C  -0.93200 15.44700 21.06500
C  0.36900 15.85100 21.78100
N  -2.26000 15.08600 26.26800
C  -2.09700 14.19600 25.14200
C  -1.90200 12.89900 25.67400
C  -2.01200 13.07700 27.07400
C  -2.26200 14.34800 27.40300
C  -1.83400 11.64700 25.01700
C  -1.80700 12.25800 28.27600
O  -1.40200 11.09200 28.43800
C  -2.10700 13.26600 29.49100
C  -0.97400 13.04400 30.40300
O  0.08100 13.62300 30.19700
O  -1.31700 12.26800 31.43500
C  -0.23200 11.83200 32.27900
H  -3.01400 20.06700 29.25200
H  -2.72900 19.93800 22.93000
H  -1.88400 13.74200 23.12400
H  -3.72800 15.80900 31.08300
H  -2.18200 18.35800 31.17500
H  -4.33900 18.96000 32.08300
H  -5.01900 17.51600 31.35600
H  -4.95300 19.03900 30.44700
H  -0.70700 15.96500 31.05900
H  -1.86300 15.06500 32.00200
H  -1.99000 17.71000 33.17500
H  -0.42000 17.03100 33.09700
H  -3.77900 23.08100 27.29300
H  -2.34600 22.52300 28.14500
H  -3.96200 21.94700 28.63500
H  -4.32200 23.71500 25.05200
H  -2.95900 24.31700 24.10800
H  -2.65300 23.58700 25.74900
H  -1.51000 18.06300 21.31400
H  -3.15000 15.60000 21.19000
H  -3.32300 18.99400 20.42100
H  -4.44800 18.06000 21.48500
H  -3.64900 17.37100 19.99000
H  -0.79600 15.99200 20.13000
H  -0.96000 14.35900 21.00300
H  0.16900 16.53600 22.60400
H  1.02900 16.38900 21.10100
H  0.83800 14.97900 22.23900
H  -1.40000 11.84500 24.03700
H  -2.84000 11.23000 25.05500
H  -1.15300 11.11900 25.68600
H  -2.98800 12.83700 29.97000
H  -0.05800 12.67300 32.95000
H  0.64100 11.54700 31.69000
H  -0.59000 11.02000 32.91200
Mg 35.85900 1.02300 30.02800
C  33.62700 2.47300 32.61600
C  38.41600 1.50300 32.34500
C  37.81800 0.28500 27.63700
C  33.14200 1.27200 27.83800
N  35.96200 1.83500 32.23700
C  34.93100 2.26500 33.07500
C  35.45400 2.44000 34.50900
C  37.02600 2.34700 34.32700
C  37.15200 1.83600 32.84000
C  37.64600 3.67100 34.43700
C  34.97600 1.25800 35.43000
C  34.44600 1.68500 36.77600
H  34.78700 3.03500 37.42700
N  37.87900 0.71000 30.01800
C  38.78400 1.03600 31.04900
C  40.16800 0.72000 30.56200
C  39.97300 0.25900 29.21900
C  38.53800 0.32000 28.88000
C  41.39500 0.83200 31.50000
C  41.09100 -0.15200 28.22900
O  40.80500 -0.44500 27.08800
C  42.42400 -0.40400 28.83500
N  35.49400 0.88400 28.07100
C  36.47500 0.50000 27.22100
C  35.95700 0.59700 25.81900
C  34.44500 0.27400 25.97600
C  34.31700 0.79600 27.36900
C  36.30100 1.92200 25.12000
C  33.99600 -1.18400 26.00300
C  33.46900 -1.67900 24.63200
N  33.86600 1.77500 30.09200
C  32.93900 1.78800 29.14100
C  31.67200 2.23300 29.58900
C  31.89100 2.50800 30.92300
C  33.26100 2.21800 31.23000
C  30.36700 2.35400 28.79400
C  31.20000 3.03800 32.14200
O  30.11100 3.55000 32.29500
C  32.35500 3.03800 33.24700
C  32.58000 4.46900 33.71900
O  33.38100 5.24000 33.17900
O  31.75900 4.80000 34.75000
C  31.92900 6.14500 35.33700
H  39.14200 1.63500 33.15000
H  38.46100 0.15000 26.76500
H  32.42200 1.44100 27.03500
H  35.06800 3.40700 34.83200
H  37.49800 1.64900 35.01900
H  36.94400 4.50400 34.49100
H  38.19200 3.92700 33.52900
H  38.29800 3.55600 35.30200
H  35.77400 0.55500 35.66800
H  34.19200 0.78600 34.83800
H  34.90900 0.97300 37.45900
H  33.37300 1.52000 36.87400
H  40.99900 0.87800 32.51400
H  41.89300 1.76200 31.22500
H  42.16000 0.05500 31.48600
H  42.32700 -1.13300 29.64000
H  42.84300 0.55700 29.13300
H  43.11000 -0.79100 28.08100
H  36.35800 -0.27800 25.30700
H  33.77400 0.87400 25.36100
H  35.61200 2.76200 25.02800
H  36.60900 1.66800 24.10600
H  37.19800 2.36300 25.55400
H  33.26200 -1.34800 26.79200
H  34.87400 -1.80800 26.16700
H  33.46900 -1.06300 23.73200
H  32.43600 -1.97200 24.82200
H  33.98700 -2.59200 24.33900
H  30.09800 3.37900 29.04800
H  29.62300 1.61000 29.07800
H  30.60400 2.40900 27.73100
H  31.96100 2.48800 34.10200
H  31.19300 6.57000 36.02100
H  32.03600 6.93900 34.59800
H  32.77700 6.00800 36.00900

