158

Mg 45.01300 4.77500 48.41200
C  42.76100 7.40100 47.77400
C  42.39500 2.52200 47.77800
C  47.24400 2.27600 48.06400
C  47.53700 7.16000 48.31800
N  42.75200 4.99800 47.80100
C  42.13000 6.16900 47.58000
C  40.69300 5.89600 47.16300
C  40.53700 4.34100 47.36300
C  41.98100 3.89900 47.60200
C  39.65100 3.94600 48.55300
C  40.48900 6.31100 45.64100
C  39.32700 7.13300 45.32700
H  38.82200 7.02800 43.89100
N  44.86400 2.69200 48.19600
C  43.70700 1.97900 48.03700
C  44.01100 0.61400 47.94000
C  45.46800 0.44900 48.00700
C  45.91500 1.85200 48.12100
C  43.00500 -0.45700 47.75300
C  46.21700 -0.88000 47.93800
O  45.65400 -2.00200 47.77800
C  47.71700 -0.83000 48.14400
N  47.08000 4.75100 48.38100
C  47.76800 3.55500 48.08100
C  49.31000 3.87200 47.91700
C  49.41400 5.30200 48.35700
C  47.91900 5.80600 48.37300
C  50.15400 2.83700 48.72800
C  50.43300 6.21200 47.52500
C  51.20300 7.27200 48.31400
N  45.21300 6.82200 48.10600
C  46.20700 7.67100 48.21300
C  45.76200 9.03700 48.07300
C  44.43500 8.94800 47.93200
C  44.09600 7.61800 47.93600
C  46.63600 10.21600 48.13500
C  43.24300 9.79600 47.75700
O  43.12400 10.99200 47.81100
C  42.13900 8.83500 47.54600
C  41.13600 9.09400 48.63200
O  41.23000 8.65400 49.77000
O  40.17800 9.97300 48.20000
C  39.22700 10.37700 49.20900
H  41.62800 1.76500 47.60000
H  48.02700 1.59700 47.72100
H  48.22800 7.97500 48.54500
H  40.00800 6.34400 47.88300
H  40.15000 3.78200 46.51100
H  38.88800 4.71400 48.68000
H  40.26300 3.91800 49.45400
H  39.01900 3.08500 48.33400
H  40.49900 5.43000 44.99900
H  41.30400 7.00100 45.42100
H  39.70400 8.14800 45.45700
H  38.45900 6.99300 45.97100
H  43.39100 -1.30000 48.32600
H  42.91700 -0.71100 46.69600
H  42.02400 -0.22800 48.16700
H  47.95500 -1.88900 48.23700
H  48.08300 -0.28200 49.01300
H  48.16300 -0.53500 47.19400
H  49.60500 3.78300 46.87200
H  49.76000 5.26500 49.39000
H  50.92300 2.37100 48.11100
H  49.54700 2.08000 49.22300
H  50.63300 3.32400 49.57800
H  49.80600 6.73100 46.80100
H  51.05600 5.50600 46.97400
H  50.97000 8.27000 47.94200
H  52.28200 7.15100 48.21200
H  51.13900 7.24800 49.40200
H  46.36200 10.59900 49.11800
H  46.47800 10.89200 47.29500
H  47.69800 9.98900 48.22300
H  41.66500 8.99400 46.57700
H  39.34600 11.40600 49.54800
H  39.18900 9.74500 50.09700
H  38.25200 10.36300 48.72100
Mg 49.70700 34.60500 26.15200
C  47.80200 33.49000 28.94900
C  49.93400 37.59900 27.76400
C  51.38800 35.77500 23.43800
C  48.95600 31.68500 24.51700
N  48.95000 35.43400 28.23500
C  48.24400 34.83400 29.15500
C  47.97300 35.74800 30.33600
C  48.54500 37.14700 29.81900
C  49.05600 36.79300 28.41700
C  47.60300 38.36800 29.84200
C  48.58000 35.24500 31.73600
C  47.55000 35.00100 32.95800
H  47.73900 35.81200 34.28600
N  50.65400 36.39400 25.74900
C  50.73400 37.48500 26.53700
C  51.56800 38.48400 25.92800
C  52.02300 37.96200 24.68400
C  51.35300 36.64300 24.50700
C  51.84500 39.88100 26.57900
C  53.02800 38.59700 23.66400
O  53.41900 37.94500 22.69100
C  53.36000 40.01700 23.74200
N  50.01100 33.89200 24.27900
C  50.85900 34.50900 23.34600
C  51.13200 33.53400 22.17400
C  50.47000 32.19600 22.57200
C  49.75100 32.57700 23.86800
C  50.68200 34.10200 20.70300
C  51.47600 30.96900 22.81000
C  51.15500 29.69000 22.05900
N  48.59100 32.94000 26.57100
C  48.34900 31.84500 25.77200
C  47.48700 30.94100 26.44300
C  47.17200 31.56200 27.63400
C  47.95000 32.75000 27.73100
C  47.08900 29.60100 25.92000
C  46.41500 31.40600 28.84000
O  45.59500 30.61700 29.24800
C  46.92000 32.59900 29.80400
C  47.67900 32.00800 30.91200
O  48.85500 31.85800 31.05000
O  46.73600 31.57200 31.83700
C  47.13300 30.98100 33.10700
H  50.10300 38.57300 28.23000
H  51.95200 36.16200 22.58600
H  48.91000 30.72500 23.99900
H  46.90800 35.73900 30.56600
H  49.36900 37.49200 30.44400
H  48.04000 39.21000 30.37900
H  46.62100 38.15400 30.26200
H  47.53200 38.70400 28.80700
H  49.35700 35.92000 32.09300
H  49.02800 34.27200 31.53500
H  47.52400 33.95800 33.27600
H  46.57700 35.23700 32.52800
H  52.89900 39.90300 26.85500
H  51.28600 40.11900 27.48400
H  51.66200 40.60900 25.78800
H  53.67100 40.25900 24.75900
H  52.47100 40.61100 23.52900
H  54.26700 40.14900 23.15200
H  52.18900 33.27700 22.10000
H  49.66900 31.87200 21.90700
H  50.32400 35.13000 20.76700
H  49.97800 33.54200 20.08800
H  51.62600 34.25400 20.17900
H  51.52500 30.80300 23.88600
H  52.50000 31.28900 22.61800
H  52.08500 29.47800 21.53100
H  50.36200 29.87200 21.33300
H  50.67600 28.94200 22.69100
H  47.43900 28.94300 26.71500
H  47.51300 29.33800 24.95100
H  46.00000 29.56500 25.97200
H  46.05100 33.05600 30.27700
H  48.22000 30.91800 33.16800
H  46.77800 29.95700 33.21700
H  46.66700 31.60300 33.87200

