158

Mg 9.02400 4.42500 28.04100
C  10.35600 2.80000 30.91200
C  7.46000 6.52000 30.22700
C  7.64100 5.76400 25.37800
C  10.52000 1.95000 26.00500
N  8.94200 4.56300 30.36900
C  9.57600 3.85500 31.29800
C  9.31700 4.41600 32.75600
C  8.42800 5.64000 32.40100
C  8.29900 5.60700 30.89100
C  6.98100 5.42200 33.07400
C  10.66000 4.70000 33.59000
C  10.61200 5.65700 34.80000
H  11.12800 5.18900 36.12700
N  7.81300 6.02200 27.77500
C  7.18500 6.71100 28.83000
C  6.34800 7.65800 28.26100
C  6.40600 7.49400 26.85800
C  7.30200 6.35100 26.61100
C  5.57000 8.72400 29.02100
C  5.68000 8.26300 25.79300
O  5.78900 8.02900 24.58300
C  4.56400 9.33000 26.16400
N  9.20500 3.95600 25.88200
C  8.34600 4.64700 25.09500
C  8.64500 4.24900 23.66700
C  9.52200 2.94600 23.80200
C  9.74400 2.93100 25.29600
C  7.31800 4.07200 22.86100
C  10.76200 2.92900 22.90500
C  10.76800 1.82500 21.79200
N  10.25300 2.78900 28.31500
C  10.74800 1.85600 27.38600
C  11.58400 0.89100 28.12100
C  11.42700 1.24700 29.47800
C  10.63700 2.39400 29.52800
C  12.22700 -0.35600 27.60400
C  11.78600 0.84600 30.82900
O  12.50000 -0.08000 31.19700
C  11.22400 1.86700 31.76600
C  10.34100 1.23100 32.75900
O  9.23300 0.86800 32.52900
O  10.96300 1.18900 33.94800
C  10.12900 0.47200 34.95200
H  6.83300 7.18100 30.83000
H  7.29500 6.34400 24.52100
H  11.00800 1.18700 25.39600
H  8.72600 3.75300 33.38700
H  8.95300 6.52500 32.76100
H  6.63600 6.36500 33.49900
H  7.07900 4.64800 33.83400
H  6.28300 5.12500 32.29200
H  11.40400 4.97200 32.84100
H  10.85700 3.80500 34.18000
H  9.60700 5.96900 35.08300
H  11.13200 6.57100 34.51400
H  5.94300 8.84000 30.03900
H  4.52800 8.41500 28.93800
H  5.60200 9.74000 28.62800
H  3.87100 8.95300 26.91500
H  3.96900 9.64400 25.30600
H  5.02200 10.25100 26.52500
H  9.20300 5.01300 23.12500
H  8.95800 2.03100 23.62400
H  7.31400 3.13800 22.29900
H  7.24200 4.94600 22.21500
H  6.47600 4.15600 23.54800
H  11.63700 2.64100 23.48900
H  10.98800 3.88800 22.43900
H  11.40600 1.06900 22.24900
H  11.21700 2.24000 20.89000
H  9.79400 1.37300 21.60300
H  11.47800 -1.08800 27.30400
H  12.96100 -0.69300 28.33600
H  12.70800 -0.00500 26.69100
H  12.06000 2.38100 32.24000
H  9.21500 1.03300 35.14500
H  10.61300 0.44600 35.92800
H  9.90400 -0.54900 34.64600
Mg 9.11700 47.74900 25.48500
C  6.90400 48.12800 28.12600
C  11.65300 48.57800 27.63400
C  11.24100 47.05100 22.99700
C  6.38300 47.41500 23.28400
N  9.26700 48.10400 27.63800
C  8.23300 48.12100 28.55800
C  8.69800 48.37400 29.97800
C  10.12600 49.00700 29.69100
C  10.41700 48.46000 28.24100
C  10.26800 50.61500 29.87900
C  8.75100 47.12000 30.88500
C  9.06400 47.48800 32.35200
H  9.24600 46.33000 33.33500
N  11.14100 47.77300 25.32700
C  12.02700 48.24600 26.30700
C  13.34300 48.16400 25.79300
C  13.25400 47.53500 24.49400
C  11.83000 47.42300 24.22900
C  14.59500 48.50800 26.58900
C  14.41900 47.21900 23.60400
O  14.31400 46.65400 22.49000
C  15.79700 47.41700 24.04700
N  8.84800 47.36700 23.44800
C  9.87800 46.99400 22.68700
C  9.41300 46.50100 21.30200
C  7.91300 46.51200 21.42800
C  7.67400 47.21400 22.81200
C  9.99700 47.39100 20.17300
C  7.39600 45.06700 21.30800
C  6.01300 44.97500 20.72900
N  7.06900 47.93800 25.54900
C  6.02200 47.81500 24.57900
C  4.76400 48.01200 25.24800
C  5.09000 48.17300 26.57900
C  6.44600 48.06300 26.78400
C  3.38600 47.86800 24.67100
C  4.48400 48.45300 27.85700
O  3.29300 48.58800 28.08600
C  5.63600 48.32600 28.96100
C  5.46500 47.27500 29.85900
O  5.47300 46.05100 29.54800
O  5.26500 47.68700 31.10500
C  5.29800 46.71900 32.19700
H  12.40700 49.00900 28.29500
H  11.90400 46.62100 22.24200
H  5.53900 47.28200 22.60400
H  8.06200 49.10400 30.47900
H  10.93300 48.59800 30.30000
H  9.26500 51.00700 30.05300
H  10.67600 51.17000 29.03400
H  10.98500 50.85800 30.66300
H  9.54700 46.47800 30.50800
H  7.87400 46.48900 30.74200
H  8.18400 48.06600 32.63500
H  9.92600 48.14900 32.44100
H  14.38700 48.79900 27.61800
H  15.09800 49.38500 26.18300
H  15.32200 47.69900 26.67300
H  16.14000 46.88100 24.93200
H  15.83500 48.48100 24.28200
H  16.40300 47.09000 23.20200
H  9.85300 45.52900 21.08000
H  7.57300 47.24800 20.69900
H  11.03500 47.69900 20.29700
H  9.30500 48.23100 20.11400
H  9.86800 46.90800 19.20400
H  7.25800 44.78900 22.35300
H  8.09600 44.43400 20.76300
H  5.25300 44.44500 21.30200
H  6.07700 44.51200 19.74400
H  5.53100 45.93600 20.55000
H  3.24300 48.73700 24.03000
H  2.74300 47.86800 25.55100
H  3.33600 46.97500 24.04700
H  5.76500 49.29200 29.44900
H  4.34300 46.61800 32.71300
H  5.97800 47.08900 32.96400
H  5.59700 45.68100 32.05500

