158

Mg 24.39900 -5.09000 46.70000
C  26.21400 -2.40000 45.05500
C  21.57000 -4.00900 45.12200
C  23.07200 -8.04300 47.35100
C  27.49800 -6.21100 47.93400
N  24.00000 -3.48700 45.20500
C  24.87500 -2.49000 44.66900
C  24.09400 -1.70900 43.67000
C  22.63600 -1.95400 44.03600
C  22.70800 -3.25500 44.81900
C  21.99100 -0.80000 44.77900
C  24.62000 -1.96700 42.21800
C  25.12100 -0.77500 41.37100
H  26.03200 -1.04200 40.16600
N  22.50600 -5.91700 46.33400
C  21.48600 -5.34700 45.63600
C  20.38800 -6.26400 45.55900
C  20.76600 -7.44600 46.31800
C  22.11800 -7.16600 46.82700
C  19.05700 -5.85200 44.85200
C  19.90700 -8.64600 46.43900
O  18.82600 -8.78300 45.92800
C  20.28500 -9.77400 47.25900
N  25.19200 -6.86000 47.57300
C  24.41400 -7.98300 47.70900
C  25.22500 -9.11000 48.25400
C  26.53100 -8.45700 48.69700
C  26.47500 -7.10400 48.05100
C  24.42600 -10.04100 49.25500
C  27.77600 -9.30000 48.32100
C  28.73500 -9.46000 49.41200
N  26.44800 -4.46100 46.54000
C  27.54200 -5.00300 47.23100
C  28.71400 -4.06500 47.01700
C  28.25400 -3.08300 46.12900
C  26.86000 -3.37300 45.85900
C  30.03900 -4.27700 47.56800
C  28.73000 -1.86000 45.41800
O  29.77600 -1.26500 45.36800
C  27.35800 -1.37700 44.63300
C  27.04300 -0.01300 44.97900
O  26.22100 0.46000 45.72100
O  27.82900 0.74100 44.21600
C  27.64300 2.19100 44.20100
H  20.63500 -3.71400 44.64000
H  22.73900 -9.08200 47.38700
H  28.38200 -6.54100 48.48400
H  24.41600 -0.68000 43.82700
H  22.05100 -1.99100 43.11800
H  22.74000 -0.08700 45.12100
H  21.49100 -1.23700 45.64400
H  21.26300 -0.29200 44.14700
H  23.90500 -2.62800 41.72800
H  25.42600 -2.70100 42.21100
H  25.45200 0.00100 42.06100
H  24.28000 -0.29300 40.87300
H  19.22400 -5.93000 43.77800
H  18.81600 -4.79500 44.97300
H  18.21200 -6.47300 45.15000
H  19.38000 -10.35000 47.45200
H  20.60400 -9.30600 48.19000
H  20.95400 -10.48000 46.76600
H  25.52300 -9.79000 47.45500
H  26.40900 -8.29500 49.76800
H  24.94200 -10.11000 50.21200
H  24.21600 -10.98600 48.75500
H  23.46000 -9.62700 49.54500
H  28.41600 -8.73200 47.64600
H  27.44400 -10.24900 47.90100
H  29.68400 -9.02100 49.10500
H  28.84400 -10.53800 49.53600
H  28.27900 -9.02700 50.30200
H  30.63300 -4.96800 46.97000
H  30.05300 -4.68900 48.57700
H  30.48600 -3.28800 47.66900
H  27.69700 -1.50300 43.60500
H  27.84000 2.56700 45.20500
H  26.65100 2.59500 44.00300
H  28.28200 2.79500 43.55600
Mg 54.23500 24.67100 43.45900
C  51.66300 27.05300 43.29300
C  51.85700 22.23600 43.00600
C  56.72900 22.53900 42.87500
C  56.64400 27.35200 43.57400
N  52.02600 24.70000 43.13000
C  51.22500 25.79200 43.03800
C  49.77700 25.30300 42.91800
C  49.79800 23.76500 43.37400
C  51.28700 23.51700 43.17900
C  49.46000 23.56100 44.86900
C  49.11700 25.52300 41.47400
C  49.82400 24.95800 40.22300
H  50.40200 25.89800 39.18600
N  54.31500 22.56800 43.04600
C  53.19400 21.75900 42.96600
C  53.65100 20.39300 42.71100
C  55.09200 20.46700 42.64100
C  55.41800 21.87400 42.91500
C  52.75500 19.30400 42.37500
C  56.04000 19.28800 42.16600
O  55.58300 18.20400 41.91500
C  57.46700 19.47900 41.91500
N  56.40800 24.96100 42.95600
C  57.20500 23.86500 42.98700
C  58.64800 24.24500 42.94200
C  58.57700 25.86700 42.97800
C  57.13200 26.10000 43.17800
C  59.41300 23.69900 44.13400
C  59.11900 26.57100 41.68900
C  59.93100 27.79900 41.83800
N  54.24800 26.77900 43.43300
C  55.27000 27.74700 43.59600
C  54.67400 29.05400 43.82700
C  53.28500 28.81600 43.61900
C  53.02600 27.45400 43.39800
C  55.27500 30.35200 44.05000
C  51.95000 29.48000 43.66800
O  51.60800 30.64200 43.85500
C  50.85800 28.30800 43.21300
C  50.48600 28.78400 41.87400
O  51.17400 28.59500 40.89800
O  49.20600 29.35500 41.83900
C  48.69300 29.75600 40.55700
H  51.11000 21.51000 42.67500
H  57.51800 21.79500 43.00300
H  57.38600 28.14600 43.68300
H  49.21900 25.85800 43.67200
H  49.12200 23.16100 42.76900
H  48.60400 24.18100 45.13400
H  50.31800 23.89200 45.45400
H  49.31500 22.52000 45.15600
H  48.84800 26.56900 41.33100
H  48.17200 24.97900 41.49000
H  49.09900 24.29600 39.74900
H  50.64000 24.37200 40.64700
H  52.70900 19.20500 41.29100
H  51.79100 19.69100 42.70500
H  52.98100 18.43800 42.99700
H  57.58200 20.42000 41.37800
H  57.87400 18.63500 41.35800
H  57.89400 19.51000 42.91800
H  59.04200 23.82900 42.01400
H  59.18700 26.17600 43.82600
H  59.44100 24.44100 44.93200
H  60.38800 23.29800 43.85700
H  58.90900 22.82900 44.55400
H  58.18600 26.82300 41.18500
H  59.60500 25.78300 41.11300
H  60.28900 27.89900 42.86200
H  59.37100 28.68200 41.52700
H  60.86600 27.73200 41.28300
H  54.49700 31.05200 43.74300
H  56.14600 30.51200 43.41500
H  55.47300 30.47600 45.11500
H  50.09000 28.42200 43.97800
H  48.94300 29.08200 39.73800
H  48.91500 30.78000 40.25900
H  47.60900 29.69300 40.65400

