158

Mg 4.91600 53.26000 41.16100
C  3.05500 50.31000 41.23500
C  7.40700 51.60300 39.60500
C  6.12500 56.28200 40.39800
C  1.81600 55.01000 42.00400
N  4.97200 51.15400 40.22200
C  4.23500 50.08600 40.47500
C  4.81400 48.80700 39.90500
C  6.30400 49.16000 39.81900
C  6.25600 50.74100 39.85000
C  7.20200 48.51600 40.85300
C  4.19500 48.47000 38.52300
C  4.29300 47.06500 37.99400
H  4.94900 46.89200 36.61400
N  6.57000 53.83100 40.31300
C  7.49500 53.01200 39.59900
C  8.52800 53.74700 39.04700
C  8.29300 55.08500 39.42500
C  6.89700 55.13800 40.00300
C  9.70800 53.04600 38.42800
C  9.29600 56.24700 39.30300
O  10.32100 56.09400 38.66200
C  9.13900 57.50300 40.01600
N  4.12200 55.33900 41.38700
C  4.89900 56.35800 40.94500
C  4.21200 57.67400 41.01300
C  2.78500 57.24300 41.54500
C  2.91400 55.79600 41.61100
C  4.86800 58.78400 41.93700
C  1.52800 57.74900 40.65000
C  0.35700 58.39700 41.44200
N  2.96600 52.77000 41.76300
C  1.80400 53.57100 42.03800
C  0.70300 52.67200 42.40000
C  1.24400 51.35600 42.22600
C  2.51000 51.52600 41.69700
C  -0.65600 53.09900 42.84100
C  0.89800 49.98800 42.22900
O  -0.14900 49.34800 42.42300
C  2.16800 49.27400 41.82800
C  1.77000 48.12600 41.02500
O  1.04700 48.22500 40.02200
O  2.27700 46.93300 41.53300
C  2.07400 45.71500 40.85200
H  8.19400 51.00300 39.14400
H  6.60200 57.16500 39.96700
H  0.92500 55.56800 42.29800
H  4.75900 48.01200 40.64900
H  6.63500 48.78500 38.85100
H  8.16800 48.13700 40.51800
H  6.74100 47.74700 41.47200
H  7.47500 49.30400 41.55600
H  4.51000 49.19600 37.77400
H  3.11600 48.62500 38.51300
H  3.33800 46.54000 37.99100
H  4.86200 46.50500 38.73700
H  10.35900 53.74200 37.89800
H  9.45500 52.16900 37.83200
H  10.30000 52.69100 39.27100
H  10.05800 58.08900 40.00700
H  8.85400 57.24500 41.03600
H  8.37100 58.18400 39.65000
H  4.02100 57.92400 39.97000
H  2.59200 57.68000 42.52500
H  5.89300 58.49600 42.16900
H  4.35000 58.86600 42.89300
H  4.82000 59.74600 41.42700
H  1.15600 56.89300 40.08700
H  1.93900 58.55200 40.03800
H  0.25200 59.42000 41.07900
H  0.45600 58.44300 42.52600
H  -0.62500 57.98400 41.21200
H  -1.33600 52.56800 42.17500
H  -0.81200 54.16000 42.64400
H  -0.84200 52.83200 43.88200
H  2.56500 48.88200 42.76400
H  2.98400 45.36500 40.36700
H  1.41500 45.90800 40.00600
H  1.55200 45.01100 41.50100
Mg -5.44800 25.36900 26.06600
C  -4.41100 26.78500 29.07200
C  -7.63300 23.28400 28.08700
C  -6.14400 23.45800 23.31900
C  -3.08100 27.01700 24.25300
N  -5.78600 24.99500 28.32900
C  -5.34600 25.82900 29.32800
C  -5.91900 25.34000 30.70300
C  -6.82600 24.16900 30.38700
C  -6.82800 24.20800 28.81200
C  -6.22900 22.82000 30.82000
C  -6.61700 26.59900 31.30500
C  -6.74400 26.54900 32.83300
H  -6.07100 25.37200 33.62800
N  -6.76200 23.61400 25.72500
C  -7.48600 22.88800 26.70600
C  -8.28300 21.85400 25.98200
C  -7.88700 22.00500 24.61200
C  -6.98300 23.09500 24.50200
C  -9.34700 20.97300 26.60700
C  -8.42500 21.20700 23.44400
O  -8.17100 21.50900 22.30300
C  -9.28200 20.05000 23.69600
N  -4.74200 25.33400 24.01800
C  -5.18400 24.44200 23.11500
C  -4.36500 24.50100 21.80800
C  -3.54700 25.86000 21.93800
C  -3.82400 26.16700 23.49100
C  -3.54100 23.33000 21.29500
C  -4.03700 27.10900 21.11500
C  -3.03700 27.67000 19.99000
N  -4.04300 26.72900 26.47800
C  -3.11600 27.36200 25.60800
C  -2.22700 28.24400 26.43600
C  -2.69100 28.05700 27.78300
C  -3.80500 27.10500 27.74300
C  -1.05400 29.06800 26.07200
C  -2.52600 28.43000 29.25800
O  -1.74400 29.22000 29.67800
C  -3.55900 27.57800 30.11900
C  -2.74900 26.68000 31.01400
O  -2.07000 25.69300 30.70100
O  -2.71200 27.31800 32.23800
C  -1.64000 26.80700 33.05900
H  -8.29500 22.57100 28.58400
H  -6.28500 22.76600 22.48600
H  -2.39900 27.62700 23.65800
H  -5.02500 25.25900 31.32100
H  -7.84400 24.34100 30.73500
H  -6.15200 22.07400 30.02900
H  -6.83000 22.47800 31.66300
H  -5.16900 22.91000 31.05800
H  -7.61500 26.57200 30.86800
H  -6.09400 27.50100 30.98800
H  -7.80200 26.63600 33.08100
H  -6.22200 27.42800 33.21200
H  -9.07400 19.93600 26.41500
H  -10.36100 21.22800 26.29800
H  -9.25900 21.04700 27.69000
H  -8.85600 19.20100 24.23000
H  -9.67000 19.64700 22.76100
H  -10.13600 20.46900 24.22800
H  -5.07600 24.73500 21.01600
H  -2.46600 25.77500 21.82400
H  -2.54800 23.75100 21.13300
H  -4.02400 22.88100 20.42700
H  -3.51200 22.52000 22.02400
H  -4.31700 27.90800 21.80200
H  -5.01100 26.83700 20.70700
H  -2.81200 28.71200 20.21700
H  -3.57100 27.78300 19.04600
H  -2.03300 27.26200 20.10100
H  -1.32200 30.09100 25.80900
H  -0.47900 28.59500 25.27600
H  -0.35300 29.01100 26.90500
H  -4.18800 28.18700 30.76800
H  -1.68100 27.19800 34.07500
H  -0.67800 26.87600 32.55100
H  -1.79600 25.73900 33.21100

