158

Mg 23.64800 -4.03200 45.87100
C  26.08300 -2.02200 44.16800
C  21.36400 -3.21300 43.49300
C  21.83000 -6.85800 46.75100
C  26.47700 -5.46700 47.52800
N  23.68600 -2.67000 44.16700
C  24.74000 -1.93500 43.66500
C  24.30800 -1.06900 42.51700
C  22.69900 -1.17000 42.64600
C  22.56300 -2.41000 43.49600
C  22.02700 0.06500 43.32200
C  24.90300 -1.51800 41.12100
C  25.76100 -0.48300 40.38700
H  25.53700 -0.44600 38.86900
N  21.77200 -4.73900 45.39600
C  20.98400 -4.26100 44.29800
C  19.81400 -4.95600 44.16900
C  19.95700 -5.95900 45.17000
C  21.23200 -5.92700 45.84900
C  18.58200 -4.48300 43.34800
C  18.87100 -6.98400 45.31800
O  17.92000 -7.03000 44.52100
C  18.99700 -8.04200 46.38900
N  24.10400 -5.93800 46.95400
C  23.17600 -6.84100 47.24800
C  23.78100 -7.99200 48.15500
C  25.10800 -7.32800 48.69800
C  25.26800 -6.26100 47.58200
C  22.78500 -8.50300 49.24100
C  26.32600 -8.23000 48.92000
C  27.10500 -8.14000 50.26000
N  25.77100 -3.73500 45.93200
C  26.74100 -4.32500 46.71500
C  27.98500 -3.65900 46.54400
C  27.78200 -2.74900 45.52600
C  26.42000 -2.83700 45.18200
C  29.25000 -3.97600 47.31400
C  28.37800 -1.75800 44.70400
O  29.55500 -1.34200 44.64400
C  27.27200 -1.24200 43.75200
C  27.09800 0.25800 43.83100
O  26.39400 0.85400 44.64000
O  27.97500 0.92000 43.05100
C  27.89200 2.36000 43.08200
H  20.57500 -2.90600 42.80200
H  21.27200 -7.66500 47.23000
H  27.29300 -5.74800 48.19800
H  24.63700 -0.05400 42.73700
H  22.13800 -1.37800 41.73400
H  22.76600 0.68200 43.83300
H  21.30500 -0.33500 44.03400
H  21.45900 0.72900 42.66900
H  24.05700 -1.64500 40.44500
H  25.38800 -2.49000 41.21400
H  26.77700 -0.85600 40.52100
H  25.58400 0.46700 40.89000
H  18.31800 -5.23800 42.60800
H  18.75600 -3.48800 42.93800
H  17.75700 -4.33300 44.04400
H  19.78500 -8.64400 45.93700
H  18.02900 -8.54200 46.43100
H  19.14400 -7.59600 47.37300
H  24.09700 -8.74800 47.43600
H  24.80400 -6.67000 49.51200
H  22.43600 -9.45300 48.83600
H  21.85600 -7.98800 49.48600
H  23.30600 -8.67600 50.18300
H  27.02300 -7.98200 48.12000
H  26.09200 -9.28700 48.79900
H  26.89400 -7.37600 51.00900
H  28.17500 -8.13500 50.05500
H  26.90300 -9.09500 50.74600
H  29.07400 -3.86100 48.38300
H  29.95800 -3.20100 47.01900
H  29.58700 -4.98900 47.09600
H  27.71800 -1.48200 42.78700
H  28.58900 2.73100 42.33200
H  28.10700 2.64100 44.11300
H  26.91800 2.77400 42.82000
Mg 49.43700 47.06500 43.39200
C  45.96100 47.36800 42.49900
C  49.48300 44.15100 41.61300
C  52.74500 47.25600 43.50700
C  49.26800 50.48100 44.49100
N  47.92500 45.91600 42.15800
C  46.59000 46.22000 42.00700
C  45.88700 45.25500 41.07700
C  46.91900 44.08800 40.97300
C  48.16000 44.77700 41.58400
C  46.59600 42.69400 41.73400
C  45.54700 45.76900 39.65600
C  44.37900 45.05200 38.98100
H  44.55500 44.20100 37.77000
N  50.91400 45.83300 42.64200
C  50.73000 44.59800 42.06600
C  52.01900 43.90600 41.96300
C  53.03100 44.78500 42.39700
C  52.24600 46.04500 42.90500
C  52.15300 42.59900 41.35400
C  54.49300 44.60700 42.26800
O  55.00000 43.62100 41.65500
C  55.45500 45.64600 42.78400
N  50.81400 48.71900 43.70700
C  52.14100 48.46700 43.83200
C  52.90200 49.69700 44.39700
C  51.77200 50.70200 44.53100
C  50.52400 49.91700 44.25600
C  53.66900 49.43200 45.75600
C  51.84200 51.91400 43.56700
C  51.58100 53.24200 44.28600
N  47.93200 48.65500 43.54000
C  48.03700 49.94700 44.03400
C  46.71600 50.46900 44.16600
C  45.84700 49.50000 43.68600
C  46.67900 48.40600 43.22600
C  46.44000 51.84400 44.75200
C  44.45300 49.09800 43.48500
O  43.42700 49.66700 43.80100
C  44.44800 47.83800 42.49300
C  43.59400 46.82000 43.08900
O  43.61900 46.33700 44.23900
O  42.62800 46.62600 42.09800
C  41.86100 45.38900 42.34000
H  49.53700 43.13000 41.23100
H  53.82100 47.26500 43.69100
H  49.19300 51.52500 44.80400
H  44.98400 44.87900 41.55700
H  47.13000 43.80900 39.94100
H  45.67600 42.77800 42.31300
H  47.29000 42.33900 42.49600
H  46.60000 41.91600 40.97100
H  46.42800 45.77300 39.01400
H  45.35100 46.84000 39.71000
H  43.60400 45.75700 38.68100
H  43.93300 44.38000 39.71500
H  52.41200 42.62000 40.29500
H  51.31400 41.97500 41.66100
H  52.96900 42.08600 41.86500
H  55.28500 46.67600 42.47200
H  56.47400 45.43900 42.45700
H  55.55500 45.58100 43.86700
H  53.61600 49.98400 43.62500
H  51.69800 50.95500 45.58900
H  54.22400 48.49800 45.67600
H  52.94000 49.40900 46.56600
H  54.25900 50.31200 46.01200
H  51.20600 51.87000 42.68300
H  52.88900 51.96800 43.26900
H  50.90400 53.75400 43.60300
H  52.54400 53.73400 44.42400
H  51.10000 53.05900 45.24700
H  46.90100 52.54000 44.05100
H  46.86100 52.10600 45.72300
H  45.35200 51.91200 44.75100
H  44.09600 48.29500 41.56800
H  42.60600 44.61800 42.53500
H  41.39200 45.14800 41.38600
H  41.10800 45.73900 43.04700

