158

Mg 47.46400 34.55700 27.54900
C  45.80200 32.75400 30.21800
C  47.43500 37.38800 29.58100
C  48.16400 36.47400 24.89000
C  46.70400 31.84800 25.49600
N  46.80400 34.92100 29.73800
C  46.19000 34.05100 30.62800
C  46.16400 34.74300 31.92700
C  46.34600 36.23700 31.63600
C  46.86800 36.21600 30.20100
C  45.08600 37.12400 31.77600
C  47.21500 34.12000 32.88700
C  46.70200 33.89400 34.34700
H  47.38500 34.82100 35.40400
N  47.95900 36.62800 27.32900
C  48.00300 37.61400 28.26500
C  48.48400 38.84300 27.73700
C  48.87600 38.52800 26.35200
C  48.21900 37.24500 26.12200
C  48.45600 40.06300 28.55600
C  49.58100 39.38400 25.29000
O  49.83900 38.98100 24.14600
C  49.98300 40.71400 25.72800
N  47.39300 34.18700 25.50500
C  47.73300 35.20400 24.59300
C  47.87000 34.59300 23.16600
C  47.54400 33.08400 23.36000
C  47.19400 33.00800 24.86800
C  47.08200 35.28900 22.02000
C  48.83200 32.16000 23.03600
C  48.47300 30.81000 22.41500
N  46.50000 32.71100 27.70800
C  46.30400 31.70600 26.81200
C  45.79200 30.54200 27.44000
C  45.49600 30.93800 28.74200
C  46.00000 32.24200 28.90000
C  45.51800 29.16500 26.82900
C  44.96700 30.46600 30.02800
O  44.52900 29.33900 30.25500
C  45.02100 31.58700 30.98800
C  45.64300 31.03800 32.27500
O  46.83400 30.77700 32.50000
O  44.58600 30.86900 33.18700
C  44.95000 30.24600 34.44700
H  47.49400 38.23900 30.26300
H  48.44600 36.99700 23.97400
H  46.57800 31.07300 24.73800
H  45.14000 34.48300 32.19100
H  47.20100 36.71800 32.11200
H  44.54500 37.22200 30.83500
H  45.38800 38.09800 32.16000
H  44.35400 36.57200 32.36500
H  47.95700 34.86500 33.17400
H  47.68100 33.24100 32.44100
H  46.92100 32.86700 34.63800
H  45.62700 34.07300 34.33900
H  49.05800 39.81700 29.43000
H  47.40800 40.20900 28.82100
H  48.89600 40.90800 28.02500
H  50.77600 40.68800 26.47500
H  49.07700 41.28100 25.94200
H  50.35100 41.28300 24.87500
H  48.86600 34.74800 22.75300
H  46.72200 32.79200 22.70600
H  46.73400 36.25800 22.37600
H  46.21200 34.75800 21.63400
H  47.69900 35.64400 21.19500
H  49.25500 32.03400 24.03300
H  49.50800 32.66300 22.34400
H  47.43600 30.50800 22.27200
H  48.89700 30.01200 23.02400
H  48.96500 30.73200 21.44500
H  46.44800 28.82500 26.37300
H  44.73700 29.41200 26.11100
H  44.99600 28.42200 27.43100
H  43.96300 31.78500 31.16100
H  44.10800 30.49400 35.09400
H  45.92600 30.59400 34.78500
H  44.98800 29.16500 34.30900
Mg -0.96900 44.01500 26.54800
C  1.34000 43.65700 29.18000
C  -3.34200 42.71000 28.56500
C  -3.12200 43.88800 23.92600
C  1.74200 44.73300 24.30400
N  -1.02600 43.47600 28.69200
C  0.02800 43.46700 29.60800
C  -0.47100 43.12700 30.98400
C  -1.91700 42.56900 30.71700
C  -2.10900 42.91400 29.21900
C  -2.05800 41.08400 31.02600
C  -0.53300 44.43200 31.89500
C  -0.86800 44.44800 33.38100
H  -0.83800 43.14100 34.09700
N  -2.95900 43.54500 26.30200
C  -3.80400 43.05500 27.29200
C  -5.08600 42.94100 26.76100
C  -5.13600 43.23700 25.38600
C  -3.70600 43.60900 25.18200
C  -6.31300 42.53600 27.65200
C  -6.21000 43.02200 24.32800
O  -5.97400 43.25100 23.14900
C  -7.58400 42.71500 24.81500
N  -0.67200 44.29400 24.45500
C  -1.80500 44.23200 23.60200
C  -1.34800 44.45200 22.14500
C  0.21200 44.90000 22.27200
C  0.47000 44.65400 23.74500
C  -1.54900 43.25200 21.13300
C  0.52300 46.36800 21.85100
C  1.81600 46.64600 21.09000
N  1.16700 44.13400 26.62100
C  2.08100 44.46200 25.68100
C  3.30500 44.53700 26.39500
C  3.09300 44.19900 27.69200
C  1.73400 44.01800 27.80100
C  4.59900 45.03000 25.72000
C  3.77300 44.18900 29.02200
O  4.93500 44.30500 29.40300
C  2.65000 43.82300 30.03400
C  2.92500 42.45500 30.59700
O  2.32300 41.43400 30.23800
O  3.96000 42.47500 31.47700
C  4.03400 41.28200 32.36500
H  -4.03500 42.14700 29.19500
H  -3.68600 43.86800 22.99100
H  2.63400 45.01200 23.74000
H  0.11400 42.38200 31.52200
H  -2.54600 43.12800 31.41000
H  -2.99900 40.93500 31.55700
H  -1.22400 40.85900 31.69000
H  -2.02700 40.61200 30.04400
H  -0.94400 45.30000 31.37900
H  0.52600 44.68200 31.84700
H  -1.81000 44.98800 33.48100
H  -0.14100 45.12600 33.82500
H  -7.15300 43.18900 27.42000
H  -6.14200 42.74900 28.70700
H  -6.62900 41.49500 27.58000
H  -7.52200 41.68300 25.16200
H  -8.20100 42.91000 23.93800
H  -7.90200 43.40900 25.59300
H  -1.82900 45.26200 21.59600
H  0.92300 44.24000 21.77400
H  -1.62900 42.27100 21.60100
H  -0.78000 43.29200 20.36200
H  -2.47500 43.42500 20.58500
H  0.53600 46.91800 22.79200
H  -0.24700 46.76600 21.19000
H  2.66300 46.28500 21.67400
H  1.81800 47.72600 20.94300
H  1.77800 46.14000 20.12600
H  4.96200 45.84600 26.34500
H  4.33800 45.31600 24.70100
H  5.45600 44.35900 25.67600
H  2.57000 44.48700 30.89400
H  3.02100 40.88700 32.44900
H  4.44500 41.52800 33.34400
H  4.76200 40.60300 31.92200

