158

Mg -10.95400 37.25100 42.63400
C  -8.93800 34.97600 41.57300
C  -8.82000 39.76800 41.23100
C  -13.45100 39.52100 42.83400
C  -13.24100 34.73400 43.64800
N  -9.25600 37.40100 41.39000
C  -8.57400 36.22900 41.14200
C  -7.26600 36.52000 40.29400
C  -7.07100 38.10600 40.57200
C  -8.46100 38.45700 41.07400
C  -5.96500 38.56000 41.54400
C  -7.59400 36.01000 38.82000
C  -6.54500 35.34500 37.99100
H  -6.08300 36.10700 36.75300
N  -11.04000 39.36800 42.31100
C  -10.08400 40.19300 41.67300
C  -10.59300 41.52000 41.69400
C  -11.88300 41.52800 42.27200
C  -12.22500 40.12100 42.55700
C  -9.70600 42.65900 41.15900
C  -12.85300 42.74300 42.60900
O  -12.61200 43.82900 42.08900
C  -14.10300 42.55500 43.41600
N  -13.12200 37.09600 43.09200
C  -13.90100 38.21200 42.96900
C  -15.37000 37.78900 43.34900
C  -15.25400 36.26300 43.79900
C  -13.81200 35.97300 43.47600
C  -16.00100 38.63600 44.55100
C  -16.31900 35.29900 43.20800
C  -15.86300 34.44900 42.01100
N  -11.11400 35.26800 42.59300
C  -11.97000 34.39800 43.16900
C  -11.35500 33.07400 43.16500
C  -10.16400 33.26800 42.44500
C  -10.07500 34.63700 42.15600
C  -11.91100 31.75600 43.63900
C  -9.00800 32.53100 41.93500
O  -8.76700 31.29400 41.98500
C  -8.18300 33.66300 41.31900
C  -6.91600 33.64900 42.08600
O  -6.83100 33.97500 43.27300
O  -5.94000 33.07200 41.35700
C  -4.77100 32.62000 42.14000
H  -8.04800 40.50500 41.00200
H  -14.25400 40.19600 42.53100
H  -13.88000 33.94400 44.04700
H  -6.45900 35.93100 40.73100
H  -7.03900 38.70600 39.66200
H  -6.36600 39.11100 42.39500
H  -5.36300 39.30200 41.01900
H  -5.53500 37.68300 42.02800
H  -7.98500 36.91700 38.35900
H  -8.44700 35.33700 38.89900
H  -6.85300 34.32800 37.74600
H  -5.65900 35.20900 38.61000
H  -9.70100 42.45400 40.08900
H  -8.71200 42.69700 41.60400
H  -10.14100 43.65500 41.23900
H  -14.44100 43.49300 43.85800
H  -13.90200 41.78700 44.16300
H  -14.87300 42.12300 42.77700
H  -16.02200 37.79500 42.47600
H  -15.26600 36.06200 44.87000
H  -15.22200 39.32600 44.87700
H  -16.38500 37.97500 45.32800
H  -16.81400 39.20000 44.09400
H  -17.14300 36.00100 43.08300
H  -16.50600 34.55200 43.97900
H  -15.43800 33.55700 42.47100
H  -15.18900 34.90600 41.28700
H  -16.73500 34.14600 41.43000
H  -11.15200 30.97400 43.65600
H  -12.72100 31.53800 42.94400
H  -12.36200 31.76000 44.63200
H  -7.96500 33.41100 40.28200
H  -4.45900 31.64300 41.77200
H  -5.11900 32.57600 43.17200
H  -3.97800 33.33400 41.91800
Mg -2.14700 34.42900 25.97600
C  -3.44300 32.87800 28.77900
C  -0.23300 36.39400 27.90500
C  -1.30000 36.04900 23.11300
C  -4.30000 32.39000 23.96400
N  -2.14400 34.88400 28.15900
C  -2.65400 34.03700 29.14100
C  -2.07300 34.29700 30.46100
C  -1.19000 35.53400 30.24800
C  -1.17000 35.61900 28.66800
C  -1.62900 36.81400 31.01800
C  -1.34600 33.06700 31.13100
C  -1.95000 32.46200 32.38000
H  -1.15500 32.55900 33.64800
N  -0.85500 35.93700 25.60000
C  -0.05100 36.52300 26.50600
C  1.01300 37.28500 25.83800
C  0.68000 37.19100 24.41900
C  -0.58900 36.48300 24.34700
C  2.17400 37.86800 26.60400
C  1.47100 37.73100 23.24200
O  1.06800 37.65900 22.08200
C  2.82300 38.32100 23.54800
N  -2.75600 34.27500 23.78500
C  -2.40800 35.21700 22.84400
C  -2.83400 34.83000 21.40000
C  -3.64100 33.54400 21.72200
C  -3.57400 33.35800 23.27300
C  -3.58900 35.91700 20.56500
C  -3.15500 32.28000 21.01800
C  -2.04000 31.41200 21.63800
N  -3.64400 33.01000 26.22500
C  -4.29200 32.19100 25.32800
C  -4.96300 31.18200 25.98700
C  -4.76500 31.47300 27.34600
C  -3.83300 32.49700 27.44900
C  -5.74100 30.16800 25.38000
C  -5.06200 31.03000 28.64700
O  -5.81300 30.12600 28.98600
C  -4.29600 31.93700 29.67000
C  -5.18000 32.56900 30.59700
O  -5.81500 33.60900 30.33100
O  -5.21100 31.92900 31.81500
C  -5.95400 32.44200 32.91100
H  0.47500 36.85100 28.59900
H  -1.03100 36.62300 22.22400
H  -4.75100 31.58700 23.37900
H  -2.95300 34.51200 31.06700
H  -0.15400 35.38700 30.55100
H  -1.88100 37.59400 30.30000
H  -0.78100 37.24400 31.55200
H  -2.30700 36.64300 31.85400
H  -0.36600 33.42900 31.44100
H  -1.18400 32.37100 30.30800
H  -2.14100 31.42200 32.11200
H  -2.85400 33.02400 32.61300
H  3.15200 37.81200 26.12600
H  2.13500 37.34400 27.55900
H  1.94200 38.91500 26.80100
H  2.67500 39.16900 24.21700
H  3.28000 38.62000 22.60400
H  3.40700 37.50200 23.96600
H  -1.91000 34.60800 20.86600
H  -4.68200 33.74800 21.47200
H  -3.61400 36.86300 21.10600
H  -4.64100 35.63400 20.52900
H  -3.12100 35.96900 19.58300
H  -2.84500 32.48500 19.99300
H  -4.02400 31.64200 20.85400
H  -1.53500 31.69100 22.56200
H  -1.30600 31.34600 20.83400
H  -2.45600 30.41700 21.79500
H  -5.44700 29.70200 24.43900
H  -6.81100 30.35400 25.46400
H  -5.56000 29.34300 26.07000
H  -3.65200 31.32700 30.30400
H  -5.76900 33.48800 33.15600
H  -5.63700 31.83200 33.75600
H  -7.02400 32.26100 32.80600

