158

Mg -1.75600 17.82300 26.36400
C  -2.16800 15.74800 29.06900
C  -2.63900 20.56100 28.28300
C  -2.00700 19.71900 23.56900
C  -1.59200 14.97600 24.28500
N  -2.19000 18.04300 28.44100
C  -2.36400 17.07700 29.41700
C  -2.82100 17.65800 30.74700
C  -3.18000 19.09900 30.39800
C  -2.63300 19.31000 28.97500
C  -4.72100 19.31500 30.38600
C  -1.75300 17.51900 31.76100
C  -2.13800 16.93200 33.04900
H  -1.07300 16.37900 33.88700
N  -1.96700 19.84900 26.02100
C  -2.25500 20.81900 26.93800
C  -2.00800 22.14000 26.36500
C  -1.84800 21.93400 24.97400
C  -1.92000 20.41200 24.79500
C  -2.20000 23.36700 27.18100
C  -1.61300 22.98900 23.84700
O  -1.52800 22.69900 22.64300
C  -1.28100 24.48900 24.27600
N  -2.00800 17.43500 24.20300
C  -2.13100 18.41100 23.28500
C  -2.09200 17.90100 21.84100
C  -1.68700 16.36400 22.12800
C  -1.72700 16.23500 23.61700
C  -3.40700 17.97600 21.03400
C  -0.32900 15.99200 21.48800
C  0.86400 16.56700 22.15900
N  -1.74800 15.73600 26.59600
C  -1.66600 14.68200 25.62300
C  -1.73300 13.43400 26.34700
C  -1.99200 13.79500 27.68600
C  -1.87800 15.22200 27.79700
C  -1.85700 12.08000 25.68900
C  -2.39700 13.27600 28.95400
O  -2.55600 12.12400 29.33500
C  -2.35900 14.48000 29.98900
C  -1.51700 14.12800 31.14900
O  -0.32300 14.11000 31.06500
O  -2.20200 13.72900 32.29500
C  -1.44700 12.95400 33.28300
H  -3.02900 21.33700 28.94500
H  -2.00200 20.27000 22.62600
H  -1.51800 14.16600 23.55600
H  -3.63000 16.98500 31.03300
H  -2.70600 19.74100 31.14100
H  -5.13100 19.73700 29.46900
H  -4.99400 19.97100 31.21300
H  -5.26900 18.43400 30.72400
H  -1.30700 18.49100 31.97400
H  -0.97700 16.89800 31.31400
H  -2.95500 16.22300 32.91600
H  -2.51200 17.82100 33.55700
H  -2.54300 23.07500 28.17300
H  -3.03700 23.96600 26.82300
H  -1.35400 24.01400 27.41100
H  -2.09800 24.88600 24.87800
H  -1.13000 25.13700 23.41300
H  -0.33900 24.50800 24.82500
H  -1.26800 18.46100 21.39800
H  -2.43900 15.70400 21.69500
H  -4.15500 18.54900 21.58400
H  -3.74600 16.96100 20.82800
H  -3.35000 18.56300 20.11800
H  -0.33900 16.32100 20.44900
H  -0.26500 14.90700 21.57800
H  1.55800 15.90200 22.67200
H  0.49600 17.34000 22.83400
H  1.47400 17.05400 21.39900
H  -1.00000 11.90400 25.03900
H  -2.74600 11.98600 25.06400
H  -1.88100 11.31100 26.46100
H  -3.37100 14.64000 30.36200
H  -1.57200 13.51700 34.20800
H  -0.36200 12.90800 33.19400
H  -1.82300 11.93600 33.38600
Mg 7.08800 56.84700 41.81700
C  5.91400 53.63500 41.43200
C  10.18500 55.63800 40.73300
C  8.11900 60.04600 41.20600
C  3.82300 57.96700 42.39100
N  7.88000 54.89900 41.14500
C  7.20700 53.71300 40.99700
C  8.04500 52.59000 40.50400
C  9.48100 53.19700 40.72200
C  9.20000 54.69800 40.94400
C  10.30000 52.44900 41.82800
C  7.79100 52.22200 39.04800
C  8.28800 50.85100 38.59500
H  7.53000 50.07600 37.48600
N  8.83500 57.76800 41.03600
C  10.01000 57.07400 40.63900
C  10.90000 58.01100 39.93100
C  10.33300 59.32200 39.98700
C  9.02800 59.11100 40.76000
C  12.10300 57.52800 39.26300
C  10.86100 60.55300 39.33700
O  11.92500 60.56200 38.77300
C  10.08000 61.82600 39.22500
N  6.06900 58.69700 41.72200
C  6.76800 59.84700 41.64400
C  5.91300 61.08600 42.00700
C  4.50900 60.42200 42.42700
C  4.79000 58.95800 42.07100
C  6.51300 61.98800 43.17000
C  3.27700 61.00400 41.68300
C  2.01600 61.04500 42.59400
N  5.21400 55.97500 42.07600
C  3.96600 56.57500 42.33700
C  3.01100 55.43200 42.50900
C  3.75600 54.32100 42.15500
C  5.11400 54.66700 41.91900
C  1.56400 55.57300 42.68100
C  3.61300 52.92400 42.03700
O  2.61400 52.26800 42.30200
C  4.98900 52.33400 41.57000
C  4.82200 51.51000 40.38100
O  4.30300 51.90800 39.36500
O  5.17400 50.19100 40.62300
C  4.66200 49.33900 39.51400
H  11.13500 55.16300 40.48000
H  8.30800 61.11800 41.11100
H  2.78600 58.22700 42.61200
H  7.87900 51.70200 41.11500
H  10.11300 53.14400 39.83500
H  10.68900 53.25000 42.45800
H  11.16000 51.87600 41.48200
H  9.56300 51.79800 42.29800
H  8.40500 52.91100 38.46800
H  6.77800 52.44100 38.71000
H  8.46400 50.22700 39.47200
H  9.26800 50.98000 38.13600
H  12.00600 57.75500 38.20200
H  12.27700 56.45400 39.33000
H  13.06900 57.76500 39.70800
H  9.71900 62.14300 40.20300
H  9.34600 61.84000 38.42000
H  10.87500 62.53300 38.98600
H  5.90800 61.44300 40.97600
H  4.32300 60.46900 43.50000
H  5.66100 62.33400 43.75600
H  7.12200 62.83400 42.85200
H  7.18600 61.37000 43.76400
H  3.09800 60.28800 40.88200
H  3.51100 61.99600 41.29600
H  1.61500 60.04500 42.42900
H  1.25500 61.72700 42.21400
H  2.14900 61.18400 43.66700
H  1.17600 55.75100 41.67800
H  1.13700 56.39400 43.25700
H  1.11800 54.63300 43.00500
H  5.48000 51.69000 42.29900
H  3.57700 49.35800 39.61200
H  5.07600 48.33900 39.63900
H  5.02800 49.71500 38.55900

