158

Mg 1.59400 8.36000 26.17300
C  1.74500 10.54400 28.86500
C  2.34300 5.77800 28.31900
C  1.50000 6.43300 23.47400
C  1.72500 11.16900 24.05200
N  2.02900 8.17900 28.32400
C  1.91400 9.20800 29.26900
C  1.84300 8.68400 30.74000
C  2.12100 7.14900 30.54500
C  2.17200 6.97700 28.97600
C  3.44400 6.65200 31.16300
C  0.51500 9.02500 31.37500
C  0.35500 8.94900 32.86700
H  1.51600 8.30300 33.67500
N  1.96100 6.39800 25.94900
C  2.32300 5.52800 26.91900
C  2.56900 4.22700 26.20800
C  2.45000 4.43300 24.79100
C  1.90500 5.76400 24.67100
C  2.79200 2.99300 26.98200
C  2.64700 3.51100 23.67100
O  2.54100 3.75400 22.46100
C  3.08700 2.10800 24.01900
N  1.43400 8.76100 24.08100
C  1.37000 7.76500 23.16900
C  1.25700 8.23200 21.72500
C  1.25600 9.84500 21.94800
C  1.46600 9.95300 23.47900
C  2.38500 7.77100 20.73900
C  -0.08400 10.59200 21.54800
C  0.00100 12.04200 20.91400
N  1.64500 10.46500 26.40600
C  1.79400 11.47700 25.46000
C  1.87600 12.72500 26.11500
C  1.83400 12.44700 27.49000
C  1.75700 11.03000 27.58300
C  2.03700 14.08100 25.50400
C  1.90300 13.01800 28.79600
O  2.03000 14.21600 29.05500
C  1.70900 11.81100 29.77400
C  2.88900 11.96100 30.64000
O  4.05200 12.21900 30.38600
O  2.49600 11.75100 31.97700
C  3.49400 12.01500 33.06400
H  2.60700 4.97900 29.01600
H  1.48600 5.87000 22.53800
H  1.91000 11.97000 23.33300
H  2.69000 9.15400 31.24000
H  1.37800 6.52600 31.04300
H  3.99400 7.46600 31.63500
H  4.06900 6.13700 30.43300
H  3.25300 5.84100 31.86500
H  -0.25000 8.40900 30.90300
H  0.19600 10.04500 31.16000
H  -0.64800 8.55600 33.03800
H  0.20600 9.90500 33.36800
H  2.62500 3.28800 28.01800
H  3.81300 2.61100 26.99100
H  2.07400 2.22300 26.69900
H  3.21800 1.53900 23.09900
H  2.27000 1.66300 24.58800
H  3.99800 2.12600 24.61700
H  0.26200 7.94600 21.38500
H  2.06900 10.41900 21.50200
H  3.23700 7.30200 21.23000
H  2.69900 8.56600 20.06300
H  1.82300 7.06300 20.12900
H  -0.84300 10.48500 22.32300
H  -0.50200 10.02900 20.71300
H  0.83800 12.12800 20.22100
H  0.25600 12.69000 21.75300
H  -0.93300 12.37600 20.46200
H  2.73500 14.70200 26.06600
H  1.08500 14.60600 25.57700
H  2.41000 13.99900 24.48300
H  0.72200 11.77300 30.23700
H  3.08500 12.51800 33.94000
H  4.42900 12.53700 32.86000
H  3.80300 11.03400 33.42300
Mg 25.31000 -8.05700 46.85700
C  26.99700 -5.36700 45.33300
C  22.67400 -7.41700 44.60300
C  23.84300 -10.93900 47.67400
C  28.21800 -9.02100 48.42700
N  25.01200 -6.73200 45.06600
C  25.75600 -5.65500 44.67100
C  25.22500 -4.97700 43.43200
C  23.77300 -5.53000 43.34400
C  23.83100 -6.68800 44.35700
C  22.69400 -4.53800 43.60800
C  26.08200 -5.25800 42.06400
C  26.19700 -3.92000 41.23200
H  25.05600 -3.78400 40.26100
N  23.40300 -8.94400 46.35500
C  22.50300 -8.54600 45.44700
C  21.33600 -9.43900 45.44700
C  21.67200 -10.48900 46.27700
C  23.01600 -10.16000 46.81100
C  20.06600 -9.14800 44.73000
C  20.78400 -11.79100 46.53500
O  19.69500 -11.78900 46.05000
C  21.27000 -12.98900 47.16400
N  26.00400 -9.75800 47.77600
C  25.19500 -10.77500 48.15400
C  25.87300 -11.77900 49.08000
C  27.22300 -11.15000 49.31200
C  27.17900 -9.90800 48.42900
C  25.10800 -12.01700 50.47300
C  28.39800 -12.12100 49.23300
C  29.25800 -12.27800 50.50800
N  27.27000 -7.45100 46.82400
C  28.29100 -7.79200 47.68200
C  29.38500 -6.85100 47.55900
C  28.93800 -5.90200 46.57200
C  27.59100 -6.28300 46.23400
C  30.60900 -6.90700 48.29200
C  29.32000 -4.69700 45.90700
O  30.41300 -4.15300 45.78200
C  28.03500 -4.31400 45.02700
C  27.48500 -3.04600 45.46000
O  27.21300 -2.16300 44.65600
O  27.21900 -2.85500 46.79700
C  26.63700 -1.55400 47.16700
H  21.81200 -7.09100 44.01800
H  23.48000 -11.83700 48.17800
H  29.07300 -9.25300 49.06700
H  25.27400 -3.91100 43.65400
H  23.67600 -5.90700 42.32600
H  22.30500 -4.16900 42.66000
H  23.02600 -3.59400 44.04000
H  21.82200 -4.89200 44.15800
H  25.58600 -6.00900 41.44800
H  27.06500 -5.60100 42.38500
H  27.17500 -3.87900 40.75200
H  26.03200 -3.00500 41.79900
H  20.33200 -9.43900 43.71400
H  19.90300 -8.07100 44.77500
H  19.12300 -9.54500 45.10400
H  21.89100 -12.98500 48.05900
H  21.93100 -13.38400 46.39200
H  20.46100 -13.71100 47.27800
H  25.85500 -12.73200 48.55100
H  27.30100 -10.74300 50.32000
H  24.23400 -11.36600 50.47400
H  25.70700 -11.77600 51.35200
H  24.91500 -13.07700 50.64100
H  29.02100 -11.73800 48.42400
H  27.98600 -13.12000 49.08900
H  30.30400 -12.26300 50.20100
H  28.78300 -13.08800 51.06200
H  29.15600 -11.44400 51.20300
H  31.18700 -5.99900 48.12500
H  31.23900 -7.79600 48.24100
H  30.25900 -6.83200 49.32200
H  28.35700 -4.28400 43.98600
H  26.95100 -1.26900 48.17100
H  25.56300 -1.67200 47.31400
H  26.82000 -0.71300 46.49800

