158

Mg 42.12400 40.97400 26.37000
C  41.21900 43.28100 28.94000
C  42.89600 38.66700 28.81000
C  43.15400 39.03700 23.99400
C  41.61300 43.63100 24.02200
N  42.07000 41.01000 28.61100
C  41.59200 41.97800 29.45800
C  41.64200 41.54200 30.92300
C  42.25600 40.09500 30.77800
C  42.54800 39.91400 29.32100
C  43.54200 39.93400 31.54300
C  40.21800 41.57900 31.47200
C  40.02600 42.35700 32.83700
H  39.07800 41.81200 33.91900
N  42.87600 39.09700 26.39700
C  43.05600 38.27200 27.47800
C  43.58700 37.01100 27.00100
C  43.73400 37.13200 25.59700
C  43.17300 38.42800 25.20800
C  43.90600 35.84100 27.95600
C  44.27400 36.04300 24.62400
O  44.18700 36.20400 23.40100
C  44.81000 34.74800 25.17300
N  42.19400 41.23100 24.34700
C  42.66500 40.24000 23.53500
C  42.55600 40.64300 22.07000
C  41.68600 41.93900 22.12700
C  41.87000 42.32800 23.56100
C  43.93800 40.78000 21.36900
C  40.17200 41.64600 21.70000
C  39.36800 40.41800 22.38200
N  41.50000 43.02000 26.41700
C  41.45300 43.93000 25.39600
C  40.95800 45.21600 25.90200
C  40.86200 45.05800 27.36500
C  41.22600 43.62900 27.61100
C  40.65200 46.36400 25.05000
C  40.50200 45.64100 28.60700
O  40.21400 46.80100 28.81600
C  40.64900 44.45800 29.63100
C  41.54900 44.91400 30.79400
O  42.79500 44.81100 30.81400
O  40.80800 45.64700 31.66800
C  41.66700 46.14200 32.84600
H  43.00500 37.92000 29.59900
H  43.62300 38.47300 23.18600
H  41.28800 44.34100 23.25700
H  42.25800 42.21700 31.51800
H  41.51900 39.30700 30.92900
H  43.58800 38.92800 31.96100
H  43.62500 40.66300 32.34900
H  44.42900 39.98700 30.91300
H  39.88800 40.58000 31.75700
H  39.48600 41.97600 30.76800
H  39.49700 43.26800 32.55600
H  41.01300 42.44200 33.29100
H  43.22700 35.04800 27.64200
H  43.53900 35.91900 28.97900
H  44.97100 35.62800 27.85400
H  44.00300 34.16700 25.62000
H  45.65300 34.97400 25.82500
H  45.16000 34.27400 24.25600
H  42.00500 39.82100 21.61400
H  42.05900 42.62500 21.36600
H  44.24200 41.82400 21.29200
H  43.80500 40.29600 20.40100
H  44.57400 40.20300 22.04100
H  40.12400 41.55700 20.61400
H  39.53800 42.52300 21.83200
H  38.89800 39.85700 21.57400
H  38.68100 40.91800 23.06500
H  40.04600 39.80900 22.98000
H  41.30500 46.40300 24.17800
H  40.66100 47.27800 25.64300
H  39.62600 46.20700 24.71700
H  39.69900 44.08700 30.01600
H  41.87700 45.32900 33.54100
H  40.90800 46.78900 33.28400
H  42.47800 46.74200 32.43300
Mg 0.21500 43.63100 26.08700
C  2.45500 43.42900 28.87200
C  -2.33300 43.21900 28.24200
C  -1.79800 43.06400 23.48900
C  3.04300 43.61900 24.03900
N  0.08900 43.33200 28.30900
C  1.07200 43.45100 29.23200
C  0.50800 43.52900 30.64600
C  -1.01200 43.31200 30.43100
C  -1.14200 43.40800 28.87500
C  -1.65700 41.84100 30.81700
C  0.86100 44.88100 31.24800
C  0.89200 44.84700 32.80200
H  0.49500 43.63100 33.55000
N  -1.85800 43.35300 25.88800
C  -2.72800 43.13900 26.92200
C  -3.99000 43.02200 26.41800
C  -3.92200 42.92300 24.97500
C  -2.50700 43.13600 24.68000
C  -5.29600 43.23400 27.38000
C  -4.90600 42.67100 23.99600
O  -4.76000 42.80700 22.80800
C  -6.27900 42.23200 24.44600
N  0.63000 43.47500 24.09400
C  -0.43000 43.26400 23.21000
C  0.15100 43.22600 21.77200
C  1.69600 43.53900 21.91000
C  1.80800 43.58200 23.44000
C  -0.23500 41.95300 20.99400
C  2.07500 44.84500 21.18100
C  1.41500 46.17800 21.67200
N  2.40200 43.49800 26.31300
C  3.39800 43.62900 25.40300
C  4.69600 43.56700 26.05100
C  4.40000 43.42800 27.44000
C  2.98200 43.53200 27.52500
C  6.01100 43.58800 25.31100
C  4.91000 43.34400 28.78200
O  6.08300 43.35000 29.11700
C  3.67800 43.40900 29.78600
C  3.71500 42.31600 30.75700
O  3.63400 41.10000 30.51100
O  3.93500 42.92800 31.95300
C  4.15800 42.01600 33.10100
H  -3.09200 42.93500 28.97400
H  -2.43800 42.88000 22.62300
H  3.86600 43.61000 23.32200
H  0.84700 42.70600 31.27600
H  -1.61300 44.12400 30.84000
H  -2.27300 41.34900 30.06500
H  -2.39000 41.95000 31.61700
H  -0.82600 41.17600 31.05100
H  0.09800 45.61100 30.97600
H  1.81500 45.14300 30.79100
H  0.21400 45.66400 33.04800
H  1.94500 45.09100 32.94600
H  -6.15800 42.61800 27.12100
H  -5.62000 44.27400 27.35700
H  -5.13900 42.94000 28.41800
H  -6.18500 41.54700 25.28800
H  -6.91000 41.86200 23.63800
H  -6.65600 43.12900 24.93500
H  -0.39900 44.01100 21.25100
H  2.28400 42.68200 21.58400
H  -0.63800 41.19100 21.66000
H  0.66100 41.42700 20.66300
H  -0.96900 42.16700 20.21700
H  1.76900 44.66000 20.15200
H  3.16300 44.84100 21.25300
H  0.54000 46.20600 22.32100
H  1.07700 46.75300 20.81000
H  2.10900 46.84400 22.18400
H  6.39500 44.60600 25.24600
H  5.88400 43.27500 24.27400
H  6.73800 42.91400 25.76400
H  3.77100 44.38800 30.25700
H  3.80600 42.59500 33.95500
H  5.23000 41.85200 33.21200
H  3.66400 41.05700 33.26100

