158

Mg 41.38200 9.26700 30.24300
C  42.96000 10.39200 33.10600
C  39.01400 7.66400 32.20900
C  39.64200 8.37500 27.47100
C  43.85200 10.61000 28.42500
N  41.06900 9.01700 32.35300
C  41.82500 9.58100 33.34100
C  41.08900 9.51700 34.67700
C  40.02400 8.35100 34.42500
C  40.04900 8.29200 32.90200
C  40.46400 6.99600 34.98400
C  40.45200 10.89300 35.01200
C  40.17500 11.08900 36.57100
H  40.89100 12.01300 37.51400
N  39.62600 8.20000 29.88400
C  38.77400 7.62600 30.84000
C  37.59600 7.00700 30.10500
C  37.68200 7.31700 28.71900
C  39.03000 7.98300 28.63600
C  36.45600 6.31000 30.81700
C  36.67900 7.10400 27.62100
O  36.84600 7.56300 26.49200
C  35.40400 6.25800 27.89400
N  41.68500 9.44800 28.29400
C  40.89000 8.98200 27.35700
C  41.56100 9.06800 25.95100
C  42.83100 9.96700 26.24400
C  42.80800 10.02100 27.74300
C  41.82900 7.71700 25.27500
C  42.85000 11.37900 25.55300
C  41.62900 12.32200 25.85700
N  43.08300 10.25700 30.63000
C  44.07100 10.73700 29.83600
C  45.07900 11.42700 30.57200
C  44.71200 11.31400 31.89500
C  43.51300 10.64500 31.87200
C  46.38100 12.01900 30.01500
C  45.07300 11.60100 33.28100
O  45.92000 12.27600 33.77000
C  43.87900 11.09500 34.08900
C  44.42500 10.21200 35.12700
O  44.99100 9.11400 34.87900
O  44.25600 10.80100 36.35900
C  44.57000 10.09100 37.59500
H  38.27500 7.13800 32.81700
H  39.15900 8.23700 26.50100
H  44.66500 11.11300 27.89700
H  41.62100 9.25500 35.59100
H  39.04400 8.58900 34.83900
H  39.55100 6.71000 35.50600
H  41.33000 6.85100 35.63000
H  40.74400 6.21100 34.28200
H  39.49200 10.96200 34.50000
H  40.95800 11.77400 34.61400
H  40.25800 10.13400 37.09000
H  39.18500 11.52700 36.69300
H  35.57400 6.88700 30.53700
H  36.59600 6.33400 31.89800
H  36.51600 5.28900 30.44000
H  34.81300 6.18800 26.98000
H  34.77000 6.80400 28.59200
H  35.72200 5.27500 28.24100
H  40.86100 9.75100 25.46900
H  43.66000 9.36200 25.87600
H  41.43400 6.88300 25.85300
H  42.90200 7.52300 25.24400
H  41.46100 7.75400 24.24900
H  42.79100 11.16800 24.48600
H  43.80800 11.86000 25.74800
H  41.96500 13.30500 26.18700
H  41.01900 11.92900 26.67000
H  41.00500 12.36100 24.96400
H  46.99700 11.20400 29.63500
H  46.92300 12.71700 30.65200
H  46.17300 12.62400 29.13300
H  43.48400 11.95300 34.63300
H  45.39700 10.58300 38.10700
H  44.90300 9.11800 37.23400
H  43.71700 9.94200 38.25600
Mg -4.74700 25.84100 25.77000
C  -3.97600 27.05100 29.02600
C  -6.93600 23.67500 27.28000
C  -5.07400 24.50700 22.74900
C  -2.59300 28.23100 24.46200
N  -5.38400 25.38600 27.94000
C  -4.96200 26.02500 29.07100
C  -5.63000 25.42200 30.30100
C  -6.39900 24.20700 29.72500
C  -6.21600 24.38600 28.24400
C  -6.06800 22.77700 30.28100
C  -6.51900 26.42200 31.02700
C  -6.68200 26.23800 32.55000
H  -5.83000 25.18000 33.28200
N  -5.84700 24.20900 25.08300
C  -6.77000 23.42900 25.84100
C  -7.29900 22.41500 24.97000
C  -6.79400 22.66800 23.65200
C  -5.82300 23.80900 23.73800
C  -8.21800 21.39300 25.53100
C  -7.05800 21.84700 22.39400
O  -6.46400 21.96300 21.30400
C  -8.07700 20.58800 22.41400
N  -3.98700 26.35300 23.87700
C  -4.24500 25.56300 22.76900
C  -3.55500 26.16200 21.51700
C  -2.87300 27.46800 22.05700
C  -3.20100 27.43700 23.57900
C  -2.63700 25.23000 20.64800
C  -3.32900 28.82700 21.37200
C  -2.42500 29.33100 20.27200
N  -3.56200 27.33700 26.52600
C  -2.72600 28.23900 25.85400
C  -2.02100 29.06400 26.81100
C  -2.42700 28.58800 28.07300
C  -3.41500 27.57600 27.83800
C  -1.07900 30.14300 26.49200
C  -2.36100 28.78200 29.47500
O  -1.82600 29.64800 30.08600
C  -3.24600 27.69000 30.17500
C  -2.43000 26.75500 31.03400
O  -1.72100 25.81700 30.66000
O  -2.39700 27.25400 32.33700
C  -1.32900 26.85600 33.22100
H  -7.69600 23.04700 27.74900
H  -5.16000 24.11800 21.73200
H  -1.85200 28.92500 24.06100
H  -4.78600 25.14400 30.93200
H  -7.46400 24.36100 29.89300
H  -5.36800 22.92400 31.10300
H  -5.63600 22.16900 29.48600
H  -6.95300 22.30500 30.70800
H  -7.55000 26.24200 30.72200
H  -6.39000 27.48000 30.79900
H  -7.70400 26.00800 32.85000
H  -6.45200 27.22900 32.94200
H  -8.86200 20.83800 24.84900
H  -8.84600 21.89600 26.26700
H  -7.72600 20.66500 26.17700
H  -7.66600 19.77400 23.01100
H  -8.26600 20.23300 21.40100
H  -9.00800 21.01900 22.78200
H  -4.31400 26.48800 20.80500
H  -1.78900 27.49500 21.94900
H  -2.54200 24.19800 20.98500
H  -1.60600 25.57300 20.73600
H  -3.01700 25.32200 19.63000
H  -3.43800 29.62900 22.10300
H  -4.27800 28.61700 20.87800
H  -1.78300 28.47200 20.08000
H  -1.77200 30.14800 20.57900
H  -3.07200 29.63100 19.44700
H  -1.58800 31.09300 26.32900
H  -0.59000 29.95800 25.53600
H  -0.27400 30.19500 27.22500
H  -4.03500 28.08400 30.81500
H  -0.40200 26.53500 32.74600
H  -1.76800 26.11800 33.89300
H  -1.04500 27.62200 33.94300

