158

Mg 17.83100 52.82200 26.48200
C  19.53900 51.03200 28.85500
C  15.36000 53.47700 28.73700
C  16.06500 54.21400 23.93300
C  20.18300 51.71600 24.03400
N  17.47800 52.28400 28.57300
C  18.36500 51.62000 29.36100
C  17.94700 51.69900 30.79400
C  16.46800 52.15000 30.68400
C  16.36000 52.69800 29.25000
C  15.39900 51.05100 31.17200
C  18.92400 52.66500 31.57700
C  18.77200 52.70800 33.09200
H  17.58400 51.97800 33.81600
N  16.06100 53.86300 26.36600
C  15.18500 54.01400 27.43400
C  14.05500 54.74400 26.96300
C  14.30300 55.05800 25.61200
C  15.50000 54.37800 25.20500
C  12.84100 55.05400 27.86600
C  13.41700 56.01000 24.69200
O  13.66300 56.26400 23.51300
C  12.24100 56.67700 25.38900
N  18.14500 53.14900 24.41200
C  17.20500 53.67300 23.53200
C  17.60100 53.41400 22.09400
C  18.95800 52.65700 22.14600
C  19.13100 52.51000 23.60500
C  16.44500 52.77100 21.23700
C  20.03000 53.54600 21.43400
C  20.33400 54.83200 22.21600
N  19.54000 51.59200 26.34300
C  20.44900 51.26700 25.37300
C  21.60400 50.59400 25.95100
C  21.23900 50.46400 27.32800
C  19.98800 51.05800 27.49900
C  22.79600 50.00900 25.29300
C  21.60200 49.81400 28.52400
O  22.51700 49.00600 28.72100
C  20.57600 50.21400 29.62100
C  19.98300 48.99200 30.31600
O  19.24600 48.12000 29.82800
O  20.43600 49.04300 31.64300
C  19.77600 48.14900 32.56300
H  14.64700 53.89500 29.45100
H  15.40600 54.67400 23.19300
H  21.04800 51.51000 23.40000
H  18.03500 50.67100 31.14700
H  16.34300 52.99500 31.36100
H  15.87100 50.13000 31.51400
H  14.69700 50.62100 30.45700
H  14.80500 51.46400 31.98600
H  18.64800 53.66200 31.23600
H  19.98900 52.48500 31.43000
H  18.87200 53.73800 33.43400
H  19.69700 52.22000 33.39900
H  12.83100 56.11200 28.12500
H  12.84000 54.63500 28.87300
H  11.90000 54.78800 27.38400
H  12.64800 57.10300 26.30600
H  11.46300 55.94400 25.60100
H  11.84200 57.52700 24.83600
H  17.68900 54.38800 21.61300
H  18.85400 51.66800 21.69800
H  15.71800 52.52900 22.01300
H  16.80800 51.81300 20.86600
H  16.08800 53.42500 20.44200
H  19.69300 53.80700 20.43100
H  20.87800 52.92700 21.14300
H  19.61100 55.59700 21.93500
H  21.36800 55.12800 22.04200
H  20.21700 54.62600 23.28000
H  23.13000 50.68700 24.50700
H  22.48100 49.12000 24.74600
H  23.59000 49.76900 25.99900
H  20.99900 50.78500 30.44600
H  20.18600 47.14000 32.60000
H  18.70800 47.99900 32.40300
H  19.88700 48.58400 33.55600
Mg -10.66500 38.72900 41.55800
C  -9.22700 35.69800 40.62000
C  -8.09900 40.45000 40.11300
C  -12.47000 41.63600 41.86500
C  -13.54300 36.96500 42.57600
N  -8.87400 38.10600 40.52000
C  -8.41700 36.79100 40.28100
C  -7.16000 36.82500 39.44500
C  -6.76900 38.38800 39.48100
C  -7.99300 39.06500 40.02100
C  -5.49600 38.54300 40.29600
C  -7.44500 36.32600 37.98600
C  -6.81500 35.00100 37.65900
H  -5.63700 34.88900 36.74000
N  -10.25100 40.81400 41.22900
C  -9.12900 41.28600 40.61200
C  -9.17600 42.76000 40.49200
C  -10.50300 43.10200 40.94700
C  -11.14300 41.84000 41.41200
C  -8.05300 43.59400 39.76100
C  -11.04200 44.56100 40.87400
O  -10.35200 45.49700 40.46300
C  -12.46400 44.91800 41.24900
N  -12.76200 39.28700 42.15900
C  -13.24800 40.51900 42.06200
C  -14.78600 40.53200 42.31500
C  -15.11800 38.98900 42.38200
C  -13.73900 38.36400 42.48400
C  -15.17300 41.28000 43.66400
C  -15.85600 38.44000 41.19000
C  -17.22800 38.99400 40.87700
N  -11.25700 36.72400 41.73700
C  -12.40700 36.21300 42.30700
C  -12.19700 34.74200 42.40900
C  -11.09000 34.48300 41.70900
C  -10.50200 35.70800 41.26500
C  -12.94800 33.79300 43.23900
C  -10.23300 33.42000 41.30000
O  -10.32600 32.21600 41.45100
C  -8.95100 34.14600 40.56800
C  -7.75200 33.61000 41.25200
O  -7.10500 32.63300 40.89500
O  -7.48400 34.41400 42.33400
C  -6.34700 33.93700 43.23000
H  -7.34600 40.99800 39.54200
H  -13.10200 42.52500 41.92000
H  -14.38000 36.33900 42.89200
H  -6.39300 36.11800 39.76100
H  -6.66800 38.80000 38.47700
H  -4.86000 39.14500 39.64700
H  -4.99100 37.61700 40.56900
H  -5.76300 39.10800 41.18900
H  -7.25200 37.12800 37.27300
H  -8.53200 36.28500 37.90800
H  -7.62900 34.38000 37.28400
H  -6.51200 34.43700 38.54000
H  -8.26800 43.55300 38.69300
H  -7.10700 43.10100 39.98400
H  -7.98800 44.59900 40.18000
H  -12.65800 44.62300 42.28000
H  -13.12300 44.42300 40.53500
H  -12.63600 45.99100 41.15400
H  -15.38200 41.01200 41.53900
H  -15.61600 38.74300 43.32000
H  -15.52300 42.27400 43.38400
H  -14.29900 41.52100 44.26800
H  -15.94100 40.71100 44.18800
H  -15.86400 37.35000 41.19500
H  -15.21800 38.71500 40.35000
H  -17.08300 39.48600 39.91600
H  -17.69000 39.70800 41.55900
H  -17.93300 38.16900 40.77900
H  -13.80000 33.35300 42.72100
H  -13.47400 34.36700 44.00200
H  -12.14400 33.19500 43.66800
H  -8.89000 33.85600 39.51900
H  -5.66000 33.13200 42.96900
H  -6.71400 33.72400 44.23400
H  -5.74500 34.84200 43.31500

