158

Mg 1.08000 8.52400 26.79700
C  1.36600 10.90300 29.36900
C  1.12600 6.06500 29.21600
C  0.85400 6.18500 24.29800
C  1.13500 11.08300 24.38800
N  1.43100 8.50500 29.08100
C  1.40500 9.59900 29.92000
C  1.12100 9.24700 31.36200
C  1.22800 7.65200 31.30800
C  1.23700 7.38700 29.81000
C  2.42800 7.01500 32.01700
C  -0.29900 9.58900 31.85300
C  -0.63600 9.38500 33.35800
H  0.42000 9.00200 34.39500
N  0.98100 6.40400 26.74400
C  1.06800 5.58800 27.87600
C  1.00900 4.18800 27.40400
C  0.81500 4.19500 25.97200
C  0.89500 5.61900 25.62100
C  1.17000 3.08600 28.38900
C  0.73700 3.06000 25.00100
O  0.55300 3.11900 23.78600
C  0.71200 1.70800 25.63600
N  1.05300 8.65000 24.68300
C  0.89800 7.53000 23.87800
C  0.65300 7.99700 22.49000
C  0.49800 9.50500 22.48500
C  0.95700 9.77600 23.93800
C  1.81500 7.54800 21.64500
C  -0.90700 10.08700 22.10300
C  -0.93100 10.95500 20.78400
N  1.43800 10.50500 26.80200
C  1.37100 11.43800 25.76500
C  1.66300 12.77200 26.32900
C  1.50400 12.59100 27.67700
C  1.48300 11.17300 27.96300
C  1.90600 14.06600 25.61800
C  1.52100 13.28900 28.89300
O  1.51100 14.50500 29.13900
C  1.23800 12.22700 30.06000
C  2.31300 12.45000 31.08100
O  3.49000 12.68100 30.89300
O  1.80800 12.49000 32.37800
C  2.75600 12.78700 33.49500
H  1.09800 5.30600 30.00000
H  0.72400 5.46300 23.49000
H  1.09600 11.93000 23.70000
H  1.88900 9.79500 31.90800
H  0.42000 7.13000 31.82200
H  2.11100 6.58500 32.96800
H  3.29300 7.65200 32.19800
H  2.79900 6.24600 31.33900
H  -1.03200 9.05900 31.24600
H  -0.44300 10.63300 31.57400
H  -1.44200 8.65400 33.29400
H  -1.07000 10.27500 33.81300
H  2.00300 2.44900 28.09200
H  0.28500 2.46200 28.26500
H  1.37200 3.38400 29.41800
H  -0.14400 1.79000 26.30600
H  1.62500 1.46700 26.18000
H  0.46300 0.91200 24.93400
H  -0.17900 7.43700 22.06300
H  1.15300 10.04800 21.80400
H  1.88200 8.15200 20.74000
H  1.90100 6.48700 21.41100
H  2.72100 7.74000 22.21900
H  -1.27700 10.63100 22.97200
H  -1.60600 9.27900 21.89100
H  -1.80700 10.67600 20.19900
H  -0.10500 10.80900 20.08800
H  -1.07500 11.99800 21.06400
H  1.26400 14.13100 24.73900
H  2.95200 14.02200 25.31400
H  1.69400 14.86900 26.32400
H  0.26500 12.29900 30.54600
H  3.49400 11.98800 33.41700
H  2.23300 12.64300 34.44100
H  3.14700 13.80400 33.49500
Mg 45.43300 5.00500 48.35500
C  43.48100 7.76800 47.78500
C  42.69900 3.09300 47.55500
C  47.45900 2.29800 48.35800
C  48.22500 7.04800 48.66000
N  43.31600 5.38800 47.64400
C  42.75900 6.59700 47.56000
C  41.31300 6.48100 47.19800
C  41.07800 4.92600 47.39000
C  42.46900 4.43700 47.58900
C  39.91500 4.42500 48.24000
C  40.94900 6.95900 45.66700
C  39.76900 7.92400 45.40100
H  38.98500 7.49300 44.08600
N  45.15000 2.97200 47.98600
C  43.93700 2.41000 47.70000
C  44.12700 0.98900 47.47300
C  45.50400 0.70600 47.64800
C  46.13600 1.96100 48.01600
C  43.04100 0.06900 47.24900
C  46.13300 -0.72500 47.53800
O  45.50500 -1.67900 47.26500
C  47.61500 -0.91700 47.74600
N  47.51700 4.70800 48.51900
C  48.03600 3.48800 48.59400
C  49.51300 3.54300 48.91500
C  49.81800 5.07200 48.92400
C  48.44300 5.65500 48.68800
C  49.80400 2.83700 50.26600
C  50.80800 5.53100 47.79900
C  52.19700 6.12100 48.29000
N  45.80100 7.00800 48.36300
C  46.96200 7.69600 48.54700
C  46.77800 9.14700 48.32900
C  45.35400 9.22300 48.10600
C  44.88700 7.87000 48.07900
C  47.85400 10.27900 48.43600
C  44.17000 10.11100 47.98900
O  44.05100 11.33600 48.01300
C  42.93300 9.16800 47.62300
C  41.83800 9.50500 48.57100
O  41.56000 8.87300 49.56800
O  41.09400 10.59400 48.08600
C  40.21900 11.05600 49.19000
H  41.77400 2.53100 47.41300
H  48.17200 1.47500 48.43100
H  49.07500 7.67600 48.93600
H  40.79000 7.12700 47.90300
H  40.85700 4.54700 46.39300
H  39.41400 5.32400 48.59900
H  40.07500 3.67200 49.01100
H  39.09700 3.97500 47.67700
H  40.76300 6.09500 45.03100
H  41.86600 7.42200 45.30300
H  40.10900 8.95900 45.38200
H  39.02900 7.75400 46.18300
H  42.77300 -0.19400 48.27200
H  43.39300 -0.82800 46.74000
H  42.14800 0.45500 46.75500
H  47.85500 -0.96600 48.80800
H  48.14300 -0.24100 47.07400
H  47.68600 -1.90300 47.28900
H  50.10100 3.05000 48.14100
H  50.15600 5.56000 49.83800
H  49.73500 1.74900 50.24500
H  49.07300 3.25700 50.95700
H  50.76500 3.15000 50.67400
H  50.30300 6.11800 47.03200
H  51.08300 4.68800 47.16500
H  52.95000 5.33300 48.27300
H  52.09300 6.42800 49.33100
H  52.40300 6.93000 47.59000
H  48.85600 10.05100 48.07300
H  47.84600 10.35200 49.52300
H  47.56100 11.21000 47.95000
H  42.70600 9.42200 46.58800
H  39.46100 10.28300 49.31400
H  39.78400 12.00400 48.87600
H  40.86600 11.26400 50.04300

