158

Mg 30.28800 57.98200 40.62500
C  27.61000 55.79200 39.43900
C  32.50200 55.76900 39.12100
C  32.60300 60.33800 40.92900
C  27.68600 60.29200 41.36600
N  30.03400 55.96200 39.61400
C  28.86300 55.37900 39.10100
C  29.20100 54.01800 38.43900
C  30.73800 53.94800 38.58100
C  31.17000 55.33200 39.07800
C  31.20600 52.91100 39.64500
C  28.81600 53.94200 36.91300
C  29.12700 55.20600 35.98600
H  28.07900 55.62800 34.90800
N  32.30000 58.06200 40.11800
C  32.96300 57.05500 39.48400
C  34.39700 57.42100 39.36300
C  34.51100 58.71900 39.98500
C  33.12000 59.09300 40.39600
C  35.57000 56.60100 38.81300
C  35.78800 59.64000 40.15100
O  36.93300 59.19600 39.85500
C  35.61000 61.01400 40.86000
N  30.16300 59.96000 41.29800
C  31.27100 60.75300 41.25900
C  30.89200 62.22200 41.62000
C  29.32800 62.16800 41.72900
C  29.00600 60.72900 41.38200
C  31.54300 62.74900 42.93600
C  28.54300 63.24400 40.97600
C  28.23600 62.98400 39.52100
N  28.12200 58.01400 40.58900
C  27.25500 59.05900 40.85300
C  25.90600 58.63900 40.67600
C  26.01600 57.44000 40.11100
C  27.35900 57.09300 40.04600
C  24.73700 59.51100 41.14200
C  25.21700 56.32900 39.63400
O  24.01700 56.20300 39.49200
C  26.19200 55.23100 39.13400
C  25.95800 54.06000 40.10400
O  25.75700 54.18200 41.32700
O  25.76400 52.82000 39.50400
C  25.08800 51.84100 40.38400
H  33.18500 55.08500 38.61300
H  33.29400 61.18300 40.94800
H  26.89300 61.04100 41.32900
H  28.77600 53.12900 38.90400
H  31.25300 53.83900 37.62600
H  30.32100 52.75100 40.26100
H  32.05600 53.34800 40.16800
H  31.56500 51.95000 39.27600
H  27.75200 53.81000 36.71900
H  29.35700 53.06100 36.56600
H  29.96800 54.96100 35.33800
H  29.50700 56.06500 36.53900
H  36.16200 57.11500 38.05600
H  35.20300 55.77900 38.19900
H  36.06100 56.14400 39.67200
H  35.36900 61.83400 40.18400
H  36.61300 61.21300 41.23700
H  34.94700 60.96000 41.72400
H  31.22000 62.84700 40.78900
H  28.98000 62.22300 42.76000
H  32.38600 62.13000 43.24300
H  30.81900 62.84100 43.74500
H  31.99300 63.72000 42.72800
H  29.19100 64.11900 41.02100
H  27.66900 63.50400 41.57200
H  27.17500 62.78200 39.37800
H  28.72400 62.08200 39.15100
H  28.54000 63.88300 38.98500
H  24.32300 60.02800 40.27700
H  25.01400 60.22200 41.92100
H  23.95500 58.87300 41.55500
H  25.95000 54.92300 38.11700
H  24.38900 51.34400 39.71200
H  24.54800 52.12600 41.28600
H  25.83700 51.07500 40.58700
Mg 6.78800 53.26900 40.76300
C  6.25400 49.75200 40.39800
C  10.08500 52.70800 40.11400
C  7.17900 56.54400 40.61800
C  3.35400 53.61600 41.65300
N  7.94700 51.46500 40.08400
C  7.59600 50.11900 40.19700
C  8.78500 49.22400 39.98900
C  10.01800 50.12200 40.34200
C  9.31400 51.51200 40.19200
C  10.71900 50.00500 41.69400
C  8.94700 48.55000 38.59800
C  8.69000 49.33500 37.27200
H  7.98200 48.49700 36.16300
N  8.40400 54.43700 40.33500
C  9.72100 54.05100 40.16100
C  10.52500 55.27100 40.05400
C  9.61500 56.37100 40.02500
C  8.31500 55.80200 40.31500
C  12.01400 55.18900 39.80700
C  10.03400 57.79400 39.80900
O  11.21000 58.10400 39.70800
C  9.12100 58.91700 39.47800
N  5.40600 54.82400 41.13300
C  5.86500 56.10500 40.96400
C  4.69800 57.13100 41.18000
C  3.44600 56.20700 41.44300
C  4.14600 54.77100 41.43500
C  5.04900 58.21300 42.27400
C  2.31300 56.35300 40.34500
C  0.89300 56.41200 40.79300
N  5.06800 52.03500 40.82300
C  3.76300 52.29100 41.27900
C  2.99500 51.06300 41.24400
C  3.96600 50.07500 40.90200
C  5.21400 50.70400 40.69100
C  1.53400 50.88900 41.70700
C  4.09800 48.64700 40.63000
O  3.15400 47.80500 40.59700
C  5.56800 48.37500 40.34500
C  5.61500 47.50800 39.14800
O  5.41000 47.86000 37.96900
O  6.05700 46.19400 39.46600
C  6.00800 45.30500 38.40500
H  11.14200 52.43500 40.12100
H  7.34000 57.61900 40.50900
H  2.30600 53.80400 41.89600
H  8.81700 48.47600 40.78200
H  10.77000 50.04900 39.55700
H  10.43900 49.01500 42.05500
H  10.52400 50.77300 42.44300
H  11.79000 49.98600 41.49300
H  8.23400 47.72800 38.63800
H  9.83500 47.92500 38.49900
H  9.69800 49.38700 36.86000
H  8.26800 50.34000 37.23900
H  12.41400 55.44900 38.82700
H  12.31300 54.20100 40.15700
H  12.33200 55.85300 40.61100
H  8.68500 59.14200 40.45100
H  8.28500 58.58100 38.86500
H  9.55600 59.77100 38.95900
H  4.73800 57.84000 40.35400
H  3.00300 56.31500 42.43300
H  4.96900 59.20800 41.83700
H  5.94100 58.12000 42.89400
H  4.26600 58.22200 43.03300
H  2.32100 55.56900 39.58800
H  2.41700 57.33700 39.88700
H  0.37300 57.26700 40.36200
H  0.87200 56.50600 41.87800
H  0.59800 55.39600 40.53100
H  0.89800 50.42200 40.95500
H  1.08300 51.87700 41.62000
H  1.28200 50.41500 42.65500
H  5.85100 47.71100 41.16200
H  5.91300 44.32900 38.88000
H  6.91900 45.29200 37.80600
H  5.13800 45.34800 37.75100

