158

Mg 49.15500 35.46700 27.69900
C  46.73000 34.00100 29.88900
C  49.42400 38.01000 29.86300
C  50.89800 37.06600 25.38800
C  48.52400 32.87400 25.41300
N  48.20000 35.86900 29.72700
C  47.26100 35.22400 30.42000
C  46.99900 35.90600 31.74800
C  47.57000 37.27800 31.55500
C  48.41300 37.12400 30.24000
C  46.56900 38.51300 31.31100
C  47.55700 35.15200 33.04800
C  49.08100 34.64500 32.92100
H  50.12000 35.44100 33.84400
N  50.20400 37.21900 27.73000
C  50.22100 38.08900 28.71400
C  51.14300 39.18300 28.43800
C  51.47100 39.04700 27.05500
C  50.82800 37.71500 26.66400
C  51.47900 40.20300 29.52300
C  52.26700 39.90400 26.18200
O  52.45100 39.62000 25.01900
C  52.84900 41.12500 26.76400
N  49.69000 35.03100 25.61500
C  50.37400 35.87300 24.84000
C  50.52900 35.34100 23.41200
C  49.96200 33.87700 23.55400
C  49.40100 33.88000 24.94500
C  49.82200 36.24500 22.40200
C  51.03100 32.71400 23.51700
C  51.39900 32.59500 22.03600
N  48.00700 33.77300 27.62100
C  47.88500 32.80000 26.68500
C  47.02900 31.79900 27.15000
C  46.51000 32.24100 28.36800
C  47.12500 33.47300 28.63200
C  46.73000 30.51200 26.44700
C  45.57400 31.85000 29.45200
O  44.79800 30.90800 29.65300
C  45.76900 33.02800 30.49400
C  46.23400 32.38800 31.68700
O  47.26800 31.76300 31.74000
O  45.33000 32.43100 32.76400
C  45.85500 31.88100 34.03500
H  49.35700 38.85900 30.54700
H  51.43100 37.46800 24.52400
H  48.39200 31.98400 24.79600
H  45.91600 35.89700 31.87000
H  48.20700 37.49600 32.41200
H  46.74900 39.21500 32.12400
H  45.56200 38.16000 31.53600
H  46.61300 39.05300 30.36500
H  46.89300 34.34800 33.36500
H  47.43800 35.87000 33.86000
H  49.56500 34.61900 31.94500
H  49.09100 33.66500 33.39800
H  52.55200 40.39000 29.54900
H  51.12100 40.03300 30.53900
H  51.11700 41.20000 29.27200
H  52.05200 41.63000 27.31100
H  53.24600 41.76500 25.97600
H  53.67600 40.85400 27.42000
H  51.58000 35.44100 23.14300
H  49.24100 33.63100 22.77400
H  49.22100 37.00600 22.89900
H  49.18600 35.74100 21.67300
H  50.51400 36.78700 21.75800
H  50.65200 31.83500 24.03800
H  51.90600 33.11400 24.03000
H  52.29400 33.17500 21.80900
H  50.64500 33.03000 21.38000
H  51.46400 31.52700 21.82800
H  46.17800 30.74400 25.53600
H  46.07000 29.88800 27.04900
H  47.56800 29.88800 26.13600
H  44.77800 33.44400 30.67500
H  46.90600 32.12600 34.18800
H  45.62900 30.82600 34.18800
H  45.28300 32.37400 34.82000
Mg 6.78800 53.26900 40.76300
C  6.25400 49.75200 40.39800
C  10.08500 52.70800 40.11400
C  7.17900 56.54400 40.61800
C  3.35400 53.61600 41.65300
N  7.94700 51.46500 40.08400
C  7.59600 50.11900 40.19700
C  8.78500 49.22400 39.98900
C  10.01800 50.12200 40.34200
C  9.31400 51.51200 40.19200
C  10.71900 50.00500 41.69400
C  8.94700 48.55000 38.59800
C  8.69000 49.33500 37.27200
H  7.98200 48.49700 36.16300
N  8.40400 54.43700 40.33500
C  9.72100 54.05100 40.16100
C  10.52500 55.27100 40.05400
C  9.61500 56.37100 40.02500
C  8.31500 55.80200 40.31500
C  12.01400 55.18900 39.80700
C  10.03400 57.79400 39.80900
O  11.21000 58.10400 39.70800
C  9.12100 58.91700 39.47800
N  5.40600 54.82400 41.13300
C  5.86500 56.10500 40.96400
C  4.69800 57.13100 41.18000
C  3.44600 56.20700 41.44300
C  4.14600 54.77100 41.43500
C  5.04900 58.21300 42.27400
C  2.31300 56.35300 40.34500
C  0.89300 56.41200 40.79300
N  5.06800 52.03500 40.82300
C  3.76300 52.29100 41.27900
C  2.99500 51.06300 41.24400
C  3.96600 50.07500 40.90200
C  5.21400 50.70400 40.69100
C  1.53400 50.88900 41.70700
C  4.09800 48.64700 40.63000
O  3.15400 47.80500 40.59700
C  5.56800 48.37500 40.34500
C  5.61500 47.50800 39.14800
O  5.41000 47.86000 37.96900
O  6.05700 46.19400 39.46600
C  6.00800 45.30500 38.40500
H  11.14200 52.43500 40.12100
H  7.34000 57.61900 40.50900
H  2.30600 53.80400 41.89600
H  8.81700 48.47600 40.78200
H  10.77000 50.04900 39.55700
H  10.43900 49.01500 42.05500
H  10.52400 50.77300 42.44300
H  11.79000 49.98600 41.49300
H  8.23400 47.72800 38.63800
H  9.83500 47.92500 38.49900
H  9.69800 49.38700 36.86000
H  8.26800 50.34000 37.23900
H  12.41400 55.44900 38.82700
H  12.31300 54.20100 40.15700
H  12.33200 55.85300 40.61100
H  8.68500 59.14200 40.45100
H  8.28500 58.58100 38.86500
H  9.55600 59.77100 38.95900
H  4.73800 57.84000 40.35400
H  3.00300 56.31500 42.43300
H  4.96900 59.20800 41.83700
H  5.94100 58.12000 42.89400
H  4.26600 58.22200 43.03300
H  2.32100 55.56900 39.58800
H  2.41700 57.33700 39.88700
H  0.37300 57.26700 40.36200
H  0.87200 56.50600 41.87800
H  0.59800 55.39600 40.53100
H  0.89800 50.42200 40.95500
H  1.08300 51.87700 41.62000
H  1.28200 50.41500 42.65500
H  5.85100 47.71100 41.16200
H  5.91300 44.32900 38.88000
H  6.91900 45.29200 37.80600
H  5.13800 45.34800 37.75100

