158

Mg 8.07700 3.50900 27.44000
C  9.36700 2.27900 30.42000
C  5.99400 5.43900 29.35900
C  6.42600 4.35200 24.69100
C  9.55400 0.86800 25.79500
N  7.58800 3.68300 29.66400
C  8.35400 3.23900 30.68300
C  7.91000 3.84400 32.00700
C  6.80500 4.82200 31.62700
C  6.71100 4.55500 30.10100
C  5.41300 4.70400 32.40500
C  9.21400 4.49600 32.71600
C  9.44900 4.14000 34.21400
H  10.16000 5.21400 35.06600
N  6.51300 4.85200 27.03400
C  5.83900 5.56800 27.98600
C  4.85900 6.41800 27.35800
C  5.11600 6.25900 25.90000
C  6.06600 5.17900 25.82000
C  3.90500 7.36100 28.05100
C  4.50700 6.97400 24.68100
O  4.76400 6.66500 23.54300
C  3.52300 8.13700 24.84300
N  8.06300 2.78600 25.56100
C  7.20200 3.22300 24.61000
C  7.49800 2.60800 23.22200
C  8.45200 1.46600 23.54100
C  8.69400 1.71900 25.02800
C  6.27000 2.27800 22.40500
C  9.63900 1.59200 22.60800
C  10.74900 2.70200 22.95200
N  9.34700 1.91100 27.93800
C  9.83000 0.91600 27.17100
C  10.54500 0.01800 27.94800
C  10.49300 0.55800 29.24700
C  9.70300 1.68300 29.17400
C  11.43800 -1.14100 27.48800
C  10.96100 0.48000 30.61100
O  11.80000 -0.23400 31.07700
C  10.18600 1.55300 31.43700
C  9.38800 0.82600 32.43200
O  8.31800 0.31400 32.24100
O  10.10600 0.85000 33.61800
C  9.43700 0.26600 34.73500
H  5.47300 6.18400 29.96400
H  5.99800 4.56100 23.70800
H  10.06500 0.00700 25.36000
H  7.58100 3.03200 32.65500
H  7.15200 5.84500 31.77400
H  5.19200 5.49300 33.12300
H  5.45200 3.70000 32.82900
H  4.63800 4.75400 31.64000
H  9.14900 5.58400 32.66900
H  10.15100 4.29700 32.19600
H  10.15000 3.30600 34.18500
H  8.52500 3.85700 34.71700
H  2.96600 7.29900 27.50100
H  4.23200 8.39800 27.97100
H  3.68300 7.10900 29.08800
H  3.08200 8.42900 23.88900
H  4.10400 9.00000 25.16500
H  2.74400 7.92200 25.57400
H  7.94800 3.37900 22.59700
H  8.00500 0.47200 23.54800
H  5.36800 2.47800 22.98300
H  6.23000 1.22500 22.12600
H  6.43300 2.86700 21.50300
H  9.25000 1.81800 21.61500
H  10.12700 0.62200 22.70500
H  10.55900 3.19200 23.90700
H  10.77000 3.47400 22.18300
H  11.74900 2.27700 23.03300
H  12.40500 -0.72000 27.21400
H  11.03500 -1.64800 26.61100
H  11.45500 -1.77100 28.37700
H  10.82400 2.25600 31.97300
H  9.01200 -0.69200 34.43800
H  8.65400 0.87100 35.19500
H  10.27300 0.10400 35.41500
Mg -2.04100 34.13600 26.83200
C  -3.81300 32.37500 29.46700
C  -0.52200 36.06200 29.39700
C  -1.27500 36.43400 24.53500
C  -3.85700 32.28800 24.61100
N  -2.29400 34.29900 29.18900
C  -2.97500 33.42400 30.04200
C  -2.71900 33.75100 31.46300
C  -1.78500 35.01300 31.38100
C  -1.48600 35.12800 29.93600
C  -2.49900 36.36500 31.85800
C  -2.08700 32.44400 32.11200
C  -2.79200 31.80200 33.24100
H  -2.01900 31.72700 34.58400
N  -0.85700 35.86800 26.90700
C  -0.26100 36.41800 28.01800
C  0.57600 37.54600 27.53600
C  0.35200 37.61900 26.17200
C  -0.62000 36.64200 25.81200
C  1.50500 38.37100 28.46400
C  1.04800 38.50700 25.21100
O  0.99800 38.39900 23.96800
C  1.95500 39.60100 25.75400
N  -2.39900 34.31600 24.86600
C  -2.07900 35.43300 24.06300
C  -2.66500 35.22200 22.64000
C  -2.97600 33.68700 22.66200
C  -3.06900 33.36700 24.14000
C  -3.79100 36.17600 22.11600
C  -1.98700 32.74000 21.93300
C  -2.48500 32.08300 20.60500
N  -3.40500 32.51100 26.96700
C  -4.09600 31.87700 25.93600
C  -4.86200 30.74600 26.44800
C  -4.79000 30.93000 27.83700
C  -3.91400 32.01000 28.14700
C  -5.67100 29.73300 25.66100
C  -5.31700 30.41600 29.03300
O  -6.07900 29.46900 29.23600
C  -4.65900 31.29000 30.15800
C  -5.80500 31.89000 30.95100
O  -6.39600 32.95800 30.74300
O  -6.15600 31.07600 31.97000
C  -7.22400 31.41800 32.95800
H  0.03000 36.58600 30.18000
H  -1.16500 37.31200 23.89600
H  -4.37400 31.71000 23.84200
H  -3.64800 33.94100 32.00000
H  -0.89800 34.78300 31.97200
H  -3.51200 36.05700 32.11600
H  -2.48300 37.01300 30.98200
H  -2.07600 36.86800 32.72700
H  -1.13400 32.69900 32.57500
H  -1.81900 31.85400 31.23500
H  -3.01700 30.76900 32.97800
H  -3.76800 32.27400 33.35600
H  2.52600 38.28700 28.09100
H  1.36000 37.94400 29.45600
H  1.26600 39.43100 28.54200
H  1.39400 40.15800 26.50400
H  2.31800 40.18500 24.90800
H  2.86900 39.22300 26.21200
H  -1.81000 35.36600 21.98000
H  -4.01300 33.55900 22.35200
H  -4.28900 36.47200 23.03900
H  -4.49100 35.69100 21.43600
H  -3.31000 37.00700 21.60100
H  -1.75900 31.98100 22.68100
H  -1.04100 33.22000 21.68400
H  -1.66300 32.20300 19.90000
H  -3.45700 32.50200 20.34200
H  -2.66000 31.00800 20.63500
H  -5.77700 28.80000 26.21500
H  -5.33700 29.57200 24.63600
H  -6.67700 30.15400 25.64800
H  -4.09500 30.63100 30.81700
H  -6.78500 31.64000 33.93100
H  -7.77300 30.48400 33.08100
H  -7.83700 32.19300 32.49800

