158

Mg 7.41500 3.47700 27.05700
C  9.16400 2.07500 29.82900
C  5.31200 5.08400 29.20800
C  5.70100 4.61200 24.37200
C  9.00500 1.19800 25.01100
N  7.26900 3.52600 29.23800
C  8.16200 3.00600 30.19000
C  7.80900 3.58400 31.54800
C  6.50100 4.35400 31.31300
C  6.31700 4.31700 29.82600
C  5.17900 3.92700 32.08300
C  9.08200 4.36900 32.10900
C  8.88200 5.13200 33.42900
H  9.70800 4.66400 34.66900
N  5.75500 4.81500 26.85300
C  4.99100 5.36600 27.80200
C  3.92900 6.15800 27.25300
C  4.16100 6.17700 25.82900
C  5.23300 5.13000 25.64800
C  3.09200 7.10700 28.13500
C  3.47800 6.93100 24.80300
O  3.83500 6.76700 23.66500
C  2.38900 7.88500 25.07000
N  7.32200 2.97700 25.02300
C  6.65900 3.72400 24.08000
C  6.94900 3.18900 22.65200
C  8.18000 2.21600 22.84000
C  8.11400 2.06100 24.37700
C  5.75900 2.53800 21.90100
C  9.51900 2.85300 22.30800
C  9.79700 2.28700 20.89700
N  8.86700 1.95400 27.37200
C  9.36500 1.12000 26.45600
C  10.31900 0.23100 27.03000
C  10.32600 0.62800 28.42600
C  9.41000 1.68600 28.53200
C  10.93300 -0.97100 26.43200
C  10.84100 0.37100 29.73600
O  11.67100 -0.48100 30.08900
C  10.13300 1.30600 30.73600
C  9.54000 0.57000 31.95100
O  8.62300 -0.22700 31.92500
O  10.20000 1.00100 33.10900
C  9.81000 0.33600 34.45200
H  4.68100 5.59500 29.93800
H  5.29600 4.99400 23.43300
H  9.49300 0.47800 24.35000
H  7.62000 2.76100 32.23700
H  6.67100 5.39900 31.57100
H  5.44000 3.17500 32.82800
H  4.44500 3.62900 31.33400
H  4.80900 4.80600 32.61000
H  9.37000 5.02800 31.29100
H  9.93400 3.71100 32.27800
H  7.90600 5.08200 33.91100
H  9.17400 6.16600 33.24400
H  3.68200 7.37000 29.01300
H  2.24700 6.49300 28.44800
H  2.76600 7.99600 27.59500
H  2.05700 8.24200 24.09500
H  2.96300 8.68500 25.53600
H  1.56100 7.48900 25.65900
H  7.19700 4.08900 22.09000
H  8.09800 1.21600 22.41600
H  4.88100 2.81600 22.48400
H  5.86400 1.45300 21.88600
H  5.57700 2.98600 20.92400
H  10.31900 2.60800 23.00700
H  9.48700 3.94200 22.27300
H  9.63900 2.91800 20.02200
H  9.12900 1.46000 20.65700
H  10.81100 1.88900 20.85600
H  11.39600 -1.45300 27.29200
H  11.71200 -0.60100 25.76500
H  10.25000 -1.59600 25.85600
H  10.84700 2.05100 31.08700
H  8.97300 -0.35000 34.32200
H  9.48800 1.11600 35.14200
H  10.67800 -0.11800 34.93000
Mg 47.39200 16.76500 29.56900
C  45.33200 15.94200 32.36800
C  49.57700 18.23800 31.87300
C  49.12300 17.72500 26.99400
C  44.75100 15.69400 27.46900
N  47.40500 16.98000 31.87300
C  46.53200 16.55200 32.79300
C  46.90800 16.94000 34.20600
C  48.13900 17.86700 33.97000
C  48.42900 17.71500 32.44600
C  47.93300 19.31400 34.26400
C  47.25400 15.71000 35.05600
C  47.20300 15.80900 36.50300
H  47.14700 17.20900 37.18400
N  49.11900 17.82000 29.49600
C  49.93700 18.29500 30.52200
C  51.16000 18.83100 29.93400
C  51.03800 18.75400 28.50100
C  49.68000 18.14600 28.25100
C  52.31400 19.34600 30.83400
C  51.96600 19.17100 27.38200
O  51.60000 19.17400 26.22400
C  53.34700 19.90100 27.76700
N  46.91100 16.84300 27.49000
C  47.92400 17.14300 26.66000
C  47.48800 16.93700 25.17700
C  46.23800 16.02700 25.35400
C  45.89300 16.21900 26.83200
C  47.28500 18.25600 24.32700
C  46.41200 14.59900 24.84300
C  46.73300 13.50200 25.89800
N  45.49800 15.94200 29.80200
C  44.58400 15.53400 28.87600
C  43.33600 15.05700 29.53900
C  43.58700 15.24000 30.88900
C  44.94800 15.74300 31.03900
C  42.13000 14.47500 28.90600
C  42.97000 15.07700 32.23500
O  41.89400 14.69000 32.54500
C  44.12200 15.52600 33.27800
C  43.48200 16.69900 34.01700
O  43.05100 17.73700 33.45700
O  43.53000 16.39500 35.37900
C  43.05500 17.45800 36.26200
H  50.20400 18.59300 32.69400
H  49.78900 17.80600 26.13300
H  43.94500 15.33800 26.82400
H  46.14600 17.55200 34.68800
H  48.99100 17.48600 34.53300
H  46.99300 19.57000 34.75300
H  47.87200 19.82600 33.30300
H  48.79000 19.77000 34.76000
H  48.22400 15.34200 34.72200
H  46.50400 14.92900 34.92900
H  48.07800 15.35000 36.96300
H  46.38600 15.20700 36.90100
H  51.85500 19.50900 31.80900
H  52.72000 20.32000 30.55900
H  53.11000 18.60200 30.85300
H  53.92100 20.09400 26.86100
H  53.89000 19.36500 28.54500
H  52.92800 20.81600 28.18600
H  48.35100 16.38100 24.81100
H  45.37700 16.47300 24.85700
H  46.42400 17.97600 23.72000
H  48.11700 18.41400 23.64100
H  47.04700 19.16800 24.87400
H  47.29900 14.70400 24.21700
H  45.63900 14.19300 24.19000
H  46.63300 13.91200 26.90300
H  47.74300 13.16300 25.66800
H  46.13200 12.59500 25.95500
H  42.44400 13.88600 28.04400
H  41.40100 15.19900 28.54300
H  41.63700 13.94500 29.72100
H  44.25300 14.74200 34.02400
H  43.08400 17.06400 37.27800
H  42.01300 17.68100 36.03100
H  43.70100 18.32400 36.12000

