158

Mg 34.55300 2.71800 28.61500
C  32.88500 3.51500 31.50700
C  37.52600 2.36300 30.51500
C  36.30400 2.54300 25.78500
C  31.61000 3.54200 26.73800
N  35.12000 2.85800 30.75600
C  34.24300 3.18600 31.80600
C  34.93700 3.13200 33.18800
C  36.43900 2.82400 32.79900
C  36.38400 2.65500 31.22800
C  37.56000 3.85600 33.15400
C  34.25600 2.12600 34.16700
C  33.79300 2.61600 35.51600
H  34.49400 3.84700 36.20000
N  36.62600 2.36100 28.24300
C  37.67900 2.28300 29.14900
C  38.85600 1.96300 28.42700
C  38.48000 2.01500 27.00300
C  37.11400 2.33500 26.94400
C  40.26000 1.83300 29.06500
C  39.40300 1.90700 25.73300
O  38.96100 1.93700 24.58700
C  40.82700 1.59900 25.84300
N  34.03700 3.06500 26.57000
C  34.98000 2.89500 25.60200
C  34.35400 2.99900 24.28400
C  32.83400 2.85000 24.52800
C  32.81500 3.23300 26.07200
C  34.83200 4.36400 23.62300
C  32.27700 1.42400 24.29400
C  30.73000 1.37700 24.15100
N  32.64900 3.41800 28.93500
C  31.52800 3.58100 28.14600
C  30.35300 3.76800 29.01200
C  30.87800 3.84300 30.30800
C  32.22700 3.56400 30.23700
C  28.91700 4.07600 28.56600
C  30.48900 3.98600 31.69300
O  29.43500 4.13500 32.24000
C  31.76100 3.93700 32.46300
C  32.07700 5.15300 33.26100
O  32.81900 6.07500 32.98500
O  31.29000 5.24600 34.43000
C  31.08200 6.59900 34.92300
H  38.38900 2.16200 31.15400
H  36.68500 2.34800 24.78000
H  30.65700 3.61100 26.20900
H  34.99100 4.07400 33.73400
H  36.64700 1.83800 33.21500
H  37.28700 4.50500 33.98700
H  37.78200 4.31400 32.19000
H  38.43400 3.32200 33.52900
H  34.90100 1.28000 34.40600
H  33.40800 1.74400 33.59800
H  33.89800 1.79900 36.23000
H  32.74100 2.86200 35.37000
H  40.96400 2.42200 28.47800
H  40.65000 0.81700 29.01200
H  40.29100 2.20400 30.08900
H  40.94100 0.59800 26.26000
H  41.37400 2.38600 26.36200
H  41.11500 1.41800 24.80800
H  34.82100 2.21200 23.69200
H  32.35200 3.65200 23.96900
H  34.01500 5.03000 23.34400
H  35.27900 4.07300 22.67200
H  35.55100 4.97700 24.16500
H  32.50800 0.91900 25.23200
H  32.81700 0.94300 23.47900
H  30.47900 0.84100 23.23600
H  30.28500 2.36400 24.02300
H  30.16400 0.85200 24.92000
H  28.40100 4.47300 29.44100
H  28.41000 3.18000 28.20900
H  28.90800 4.77300 27.72900
H  31.62300 3.13400 33.18700
H  31.00200 7.39100 34.17800
H  31.80700 6.93700 35.66300
H  30.10200 6.47200 35.38200
Mg -12.17200 16.99200 42.19500
C  -8.99500 15.71400 41.61800
C  -10.88800 20.16600 41.15500
C  -15.23800 18.06000 41.62800
C  -13.36900 13.78700 42.63900
N  -10.13200 17.86300 41.46200
C  -8.99700 17.07900 41.35200
C  -7.82700 18.00400 41.01100
C  -8.40600 19.49800 41.10100
C  -9.84600 19.20800 41.31900
C  -7.90700 20.52400 42.16900
C  -7.26200 17.64900 39.53200
C  -5.74000 17.36400 39.45100
H  -5.27700 16.09600 38.68500
N  -12.94300 18.86800 41.63100
C  -12.31900 19.99900 41.24700
C  -13.25600 21.02100 40.76200
C  -14.49100 20.43800 41.10200
C  -14.28800 19.06100 41.45300
C  -12.81100 22.36200 40.18200
C  -15.77800 21.33900 41.10500
O  -15.64400 22.51700 40.77000
C  -17.12800 20.82500 41.39400
N  -14.02100 15.99700 42.01900
C  -15.14000 16.67400 41.88100
C  -16.40200 15.88400 42.29800
C  -15.83600 14.55300 42.79400
C  -14.31600 14.74600 42.53100
C  -17.39600 16.57700 43.30600
C  -16.30700 13.26600 42.13600
C  -17.54000 12.52100 42.79900
N  -11.33200 15.11800 42.37500
C  -12.00800 13.89100 42.51800
C  -10.99600 12.83600 42.50800
C  -9.79500 13.53300 42.18600
C  -10.12400 14.91800 41.98500
C  -11.22200 11.44900 42.77700
C  -8.41000 13.24100 42.04600
O  -7.71900 12.25500 42.23900
C  -7.80500 14.73400 41.70100
C  -6.88500 15.07000 42.78500
O  -7.22300 15.56400 43.86700
O  -5.60600 14.62700 42.46000
C  -4.58300 15.03700 43.38700
H  -10.47400 21.16400 40.99400
H  -16.25900 18.43900 41.55800
H  -13.68800 12.78000 42.91800
H  -6.97700 17.94200 41.69000
H  -8.36400 20.02200 40.14600
H  -8.41800 20.55200 43.13200
H  -8.06100 21.45800 41.62800
H  -6.82400 20.42500 42.25300
H  -7.45200 18.39600 38.76100
H  -7.77700 16.75200 39.18700
H  -5.38700 17.26100 40.47600
H  -5.27000 18.25900 39.04200
H  -11.83100 22.33200 39.70600
H  -12.79500 23.09000 40.99300
H  -13.51100 22.73800 39.43600
H  -17.42000 20.23900 40.52300
H  -17.76200 21.71100 41.36800
H  -17.21800 20.08800 42.19200
H  -16.99600 15.73500 41.39700
H  -15.93500 14.48200 43.87700
H  -18.45400 16.55200 43.04500
H  -17.07500 17.61400 43.40000
H  -17.37600 16.07000 44.27000
H  -15.47500 12.57400 42.00300
H  -16.63500 13.47700 41.11800
H  -18.29900 12.55100 42.01700
H  -17.74600 13.06000 43.72400
H  -17.23800 11.49600 43.01200
H  -11.60400 10.93300 41.89700
H  -12.06100 11.14200 43.40200
H  -10.34700 11.00200 43.25000
H  -7.29900 14.73100 40.73500
H  -3.67600 15.12200 42.79000
H  -4.53000 14.30200 44.19100
H  -4.84100 16.02500 43.76800

