158

Mg 23.14600 -7.70500 45.87600
C  25.67200 -5.37200 44.74800
C  21.10100 -6.20500 43.54100
C  20.94900 -10.21500 46.41600
C  25.67000 -9.67000 47.35100
N  23.43900 -6.07200 44.25900
C  24.46900 -5.15900 44.07600
C  24.06900 -4.05400 43.05000
C  22.58100 -4.29300 42.84700
C  22.33900 -5.59700 43.55200
C  21.74900 -3.06600 43.31900
C  24.92300 -4.12400 41.66200
C  25.76000 -2.85400 41.31600
H  26.38000 -2.80300 39.94200
N  21.19800 -8.13400 45.15400
C  20.56200 -7.36000 44.24500
C  19.30000 -7.98800 44.00900
C  19.26300 -9.10700 44.82900
C  20.46300 -9.18500 45.60900
C  18.29100 -7.38800 43.04800
C  18.12700 -10.04100 44.90700
O  17.16200 -9.83500 44.13200
C  17.97000 -11.04600 46.04300
N  23.24200 -9.57500 47.05700
C  22.19400 -10.43700 47.01400
C  22.61300 -11.81000 47.59000
C  24.06800 -11.54200 48.09300
C  24.36900 -10.24300 47.43200
C  21.63700 -12.51000 48.54700
C  25.10000 -12.68800 47.87400
C  25.16600 -13.63900 48.98000
N  25.16800 -7.58800 46.12800
C  26.06900 -8.46200 46.70000
C  27.38200 -7.88900 46.65400
C  27.29300 -6.69800 45.93500
C  25.94400 -6.55500 45.56700
C  28.66500 -8.58200 47.14700
C  28.01400 -5.56500 45.57600
O  29.17400 -5.26500 45.81100
C  27.02100 -4.58900 44.74600
C  26.95300 -3.28200 45.42300
O  26.77000 -3.15700 46.58000
O  27.25300 -2.25300 44.52800
C  27.48000 -0.89300 45.10300
H  20.49300 -5.69100 42.79500
H  20.37400 -11.14200 46.46500
H  26.46100 -10.21600 47.87100
H  24.20800 -3.04700 43.44500
H  22.44000 -4.38500 41.77100
H  22.33800 -2.29400 43.81600
H  21.04600 -3.40500 44.08000
H  21.22200 -2.65600 42.45800
H  24.35600 -4.42400 40.78100
H  25.69300 -4.89200 41.74000
H  26.50300 -2.71200 42.10000
H  24.98800 -2.08700 41.38200
H  18.02200 -8.14500 42.31100
H  18.64100 -6.54200 42.45700
H  17.41100 -7.07000 43.60600
H  18.17000 -10.61700 47.02500
H  18.44500 -11.97000 45.71300
H  16.90600 -11.25300 46.15800
H  22.77100 -12.43000 46.70800
H  24.15400 -11.33600 49.16000
H  21.68700 -13.58400 48.36700
H  20.65400 -12.08000 48.35400
H  21.94700 -12.42700 49.58800
H  26.07300 -12.24200 47.67100
H  24.88000 -13.26900 46.97900
H  24.13900 -13.88200 49.25200
H  25.73500 -13.31500 49.85200
H  25.64300 -14.56800 48.66700
H  28.61900 -9.04700 48.13200
H  29.47400 -7.85300 47.11500
H  28.98900 -9.32100 46.41500
H  27.56100 -4.46200 43.80700
H  26.62000 -0.46600 45.62000
H  27.45900 -0.21400 44.25100
H  28.44700 -0.77200 45.59200
Mg 40.78600 7.69200 29.82700
C  42.72000 9.41300 32.31800
C  38.50700 6.90400 32.03800
C  39.07400 6.20400 27.24700
C  43.54800 8.19000 27.69500
N  40.78200 8.07200 31.86400
C  41.53500 8.81100 32.76500
C  41.07500 8.75200 34.19500
C  39.79900 7.71900 34.01000
C  39.69300 7.52200 32.50300
C  39.97100 6.46500 34.79600
C  40.88300 10.07100 34.96700
C  39.80000 10.14600 36.03100
H  39.87600 11.18200 37.11400
N  39.06100 6.62100 29.73800
C  38.13500 6.43600 30.73700
C  36.92000 5.84900 30.19200
C  37.18200 5.57200 28.83400
C  38.48700 6.15100 28.59600
C  35.63300 5.69100 30.96200
C  36.26100 5.09400 27.72000
O  36.57900 4.82300 26.56600
C  34.82200 4.88000 28.05100
N  41.29600 7.17900 27.87400
C  40.39500 6.66600 26.96300
C  40.93800 6.48300 25.59600
C  42.28100 7.21500 25.78600
C  42.39500 7.58300 27.21400
C  41.17200 5.00900 25.05700
C  42.53300 8.43300 24.88800
C  41.70500 9.71200 25.05600
N  42.75300 8.60400 29.90200
C  43.74600 8.72800 28.96500
C  44.88600 9.44000 29.42300
C  44.50700 9.75100 30.78300
C  43.22000 9.24600 31.01400
C  46.12900 9.83400 28.65900
C  44.95900 10.40600 31.99800
O  46.02200 10.94900 32.26500
C  43.82300 10.19800 33.03400
C  44.44200 9.44700 34.20200
O  44.99900 8.44900 34.11500
O  44.14200 10.03900 35.41700
C  44.62900 9.34200 36.67800
H  37.85800 6.61300 32.86600
H  38.56400 5.84200 26.35200
H  44.34600 8.27800 26.95500
H  41.83000 8.20300 34.75800
H  38.86000 8.18300 34.31100
H  39.25700 6.49500 35.61900
H  40.93000 6.55200 35.30700
H  39.86700 5.54700 34.21800
H  40.72600 10.92700 34.31000
H  41.78200 10.31400 35.53400
H  39.88800 9.15800 36.48300
H  38.80500 10.28800 35.61000
H  35.19000 4.69800 31.04500
H  34.85600 6.39100 30.65500
H  35.91200 6.06000 31.94900
H  34.80300 4.04600 28.75200
H  34.29000 4.56100 27.15400
H  34.42600 5.78900 28.50300
H  40.32100 7.14600 24.99000
H  43.16000 6.59900 25.59500
H  40.70400 4.32300 25.76400
H  42.22100 4.71500 25.01800
H  40.85700 4.88400 24.02100
H  42.38900 8.07300 23.87000
H  43.59600 8.66800 24.94800
H  41.17200 9.69800 26.00600
H  40.87800 9.78000 24.34800
H  42.25600 10.65200 25.02100
H  46.98300 9.56500 29.28100
H  46.18000 10.91000 28.49200
H  46.08400 9.27500 27.72500
H  43.42000 11.10000 33.49300
H  45.66600 9.61200 36.87900
H  44.41500 8.27500 36.61000
H  43.99300 9.62700 37.51500

