158

Mg 30.18700 58.00300 40.10000
C  27.28800 56.52300 39.24800
C  31.85900 55.11500 39.38400
C  33.07800 59.77800 40.35100
C  28.42200 61.06500 40.31800
N  29.63900 56.01100 39.21600
C  28.35000 55.65600 38.97600
C  28.28800 54.21000 38.57800
C  29.73200 53.65800 39.10000
C  30.48000 54.95600 39.24400
C  29.82600 52.76500 40.38400
C  27.96200 53.77100 37.12000
C  28.49700 54.62200 35.94900
H  27.79300 54.65800 34.59300
N  32.17200 57.50500 39.84800
C  32.65500 56.24200 39.62800
C  34.07200 56.28200 39.59400
C  34.49400 57.56000 40.00600
C  33.23600 58.39600 40.12200
C  34.86400 55.03600 39.31500
C  35.87900 57.89300 40.34600
O  36.78200 57.11900 40.07400
C  36.20900 59.22100 41.05000
N  30.67300 60.10800 40.37300
C  31.93700 60.56700 40.46600
C  32.02800 62.09700 40.49400
C  30.49700 62.45000 40.56400
C  29.79000 61.15700 40.28800
C  32.95600 62.77800 41.51600
C  30.10500 63.41900 39.44000
C  29.08700 64.51200 39.76500
N  28.15100 58.68600 39.94400
C  27.52400 59.90700 40.17800
C  26.14400 59.76300 39.86600
C  26.01100 58.42500 39.52400
C  27.24100 57.83100 39.66300
C  25.19100 60.93200 39.75600
C  24.99100 57.47000 39.06800
O  23.82100 57.56700 38.77700
C  25.80700 56.13400 38.93100
C  25.34600 55.14900 39.93400
O  25.82500 54.99700 41.06300
O  24.43900 54.28500 39.32700
C  24.00500 53.15100 40.21200
H  32.28800 54.11200 39.32500
H  34.06200 60.25000 40.38000
H  27.98200 62.06200 40.40100
H  27.52000 53.90200 39.28800
H  30.29200 53.16900 38.30200
H  28.77300 52.54900 40.56300
H  30.24800 53.34900 41.20200
H  30.34800 51.86200 40.07000
H  26.87300 53.71700 37.11700
H  28.28700 52.75000 36.92000
H  29.57600 54.48000 35.88700
H  28.38700 55.64300 36.31400
H  34.31100 54.23800 38.81900
H  35.18600 54.60300 40.26200
H  35.67400 55.17200 38.59900
H  36.19400 60.09600 40.40000
H  37.26600 59.16700 41.31000
H  35.62100 59.38900 41.95200
H  32.33800 62.36400 39.48400
H  30.03000 62.72900 41.50900
H  32.32300 63.41700 42.13100
H  33.69900 63.36000 40.97000
H  33.47000 62.11700 42.21300
H  29.72400 62.87500 38.57500
H  30.96500 64.02200 39.14900
H  29.56400 65.45400 39.49300
H  28.90500 64.57500 40.83800
H  28.19500 64.40000 39.14800
H  24.73200 61.13400 40.72300
H  24.38700 60.65400 39.07500
H  25.63100 61.79500 39.25600
H  25.74900 55.72700 37.92100
H  23.09000 53.44700 40.72600
H  24.75400 52.80400 40.92400
H  23.72100 52.31500 39.57200
Mg -11.44700 16.87800 42.41300
C  -8.21800 15.54800 41.83100
C  -10.19100 19.87400 41.37600
C  -14.63500 18.00600 42.50600
C  -12.59100 13.53400 43.00900
N  -9.48600 17.50700 41.48000
C  -8.32900 16.87400 41.52900
C  -7.10100 17.76500 41.15300
C  -7.73800 19.19300 41.27800
C  -9.26300 18.86200 41.40600
C  -7.08800 20.04000 42.36400
C  -6.68900 17.50100 39.69500
C  -5.18300 17.58900 39.41000
H  -4.75000 18.21500 38.00100
N  -12.26600 18.60800 41.93600
C  -11.60200 19.72000 41.50600
C  -12.55200 20.77100 41.28300
C  -13.87600 20.23000 41.54100
C  -13.63900 18.90400 42.06800
C  -12.20100 22.12000 40.69300
C  -15.21600 21.01800 41.46100
O  -15.22800 22.09100 40.89500
C  -16.50800 20.66000 42.10000
N  -13.33800 15.86900 42.69400
C  -14.46700 16.62500 42.83800
C  -15.66000 15.65600 43.20600
C  -15.05200 14.20900 43.01000
C  -13.56000 14.54600 42.96300
C  -16.34000 15.90600 44.66700
C  -15.44600 13.47500 41.69000
C  -15.47000 11.96600 41.74800
N  -10.60300 14.88500 42.47300
C  -11.20800 13.66900 42.72000
C  -10.18500 12.62400 42.85600
C  -8.99500 13.36000 42.49500
C  -9.30500 14.69500 42.17700
C  -10.40600 11.15100 43.14700
C  -7.54400 13.17000 42.33500
O  -6.90600 12.17400 42.56700
C  -6.97500 14.67500 41.89200
C  -5.87400 14.93400 42.88700
O  -5.93600 14.63100 44.02400
O  -4.76300 15.63400 42.28100
C  -3.68100 15.93300 43.19500
H  -9.76100 20.85400 41.16100
H  -15.64100 18.39800 42.67200
H  -12.90400 12.51600 43.25000
H  -6.25800 17.61200 41.82800
H  -7.66000 19.74100 40.34000
H  -6.08400 19.72400 42.64700
H  -7.67800 20.11500 43.27800
H  -7.12600 21.03100 41.91000
H  -7.11000 18.17100 38.94600
H  -6.99200 16.48000 39.46200
H  -4.73500 16.59700 39.46600
H  -4.73700 18.12100 40.25100
H  -11.20600 22.11400 40.24600
H  -12.17400 22.91400 41.43900
H  -12.96400 22.34500 39.94800
H  -17.27000 21.43900 42.10500
H  -16.28600 20.34700 43.12000
H  -16.89600 19.87200 41.45400
H  -16.44000 15.70200 42.44600
H  -15.06800 13.52400 43.85800
H  -15.75200 16.53600 45.33400
H  -16.51200 14.98700 45.22800
H  -17.36100 16.28300 44.60400
H  -14.85600 13.77700 40.82400
H  -16.41000 13.90800 41.42500
H  -14.72300 11.68100 42.48900
H  -15.11000 11.43900 40.86400
H  -16.41400 11.48000 41.99000
H  -9.62700 10.55600 43.62400
H  -10.60600 10.65800 42.19600
H  -11.34400 10.97800 43.67400
H  -6.46600 14.53000 40.93900
H  -3.93200 16.90300 43.62400
H  -2.77800 16.18000 42.63500
H  -3.38300 15.12000 43.85600

