158

Mg -3.42800 16.71600 26.03600
C  -3.65600 14.44600 28.89100
C  -3.71900 19.31700 28.10400
C  -3.37600 18.71900 23.20300
C  -3.68800 13.94900 24.01300
N  -3.52200 16.86100 28.28900
C  -3.64500 15.84000 29.27800
C  -3.65200 16.43500 30.67200
C  -3.76100 17.89300 30.33100
C  -3.70400 18.11200 28.85900
C  -5.00600 18.55100 31.03700
C  -2.39900 16.09600 31.58000
C  -2.06400 17.00200 32.77200
H  -1.87500 16.27400 34.11300
N  -3.60200 18.67200 25.65500
C  -3.72700 19.58400 26.68100
C  -3.74300 20.94100 26.14900
C  -3.44000 20.79500 24.76300
C  -3.43200 19.37200 24.42400
C  -4.02800 22.21000 26.99700
C  -3.14400 21.84100 23.76900
O  -3.12700 21.57200 22.59100
C  -2.94800 23.34400 24.25500
N  -3.64000 16.36500 23.90500
C  -3.54700 17.32400 23.00100
C  -3.48500 16.86200 21.55400
C  -3.66700 15.28300 21.74500
C  -3.58000 15.13200 23.31700
C  -4.60400 17.46800 20.64200
C  -2.53500 14.47300 21.04500
C  -2.92500 13.06600 20.50700
N  -3.55300 14.63300 26.33800
C  -3.67100 13.66500 25.39100
C  -3.85400 12.37300 25.99500
C  -3.79600 12.63500 27.41000
C  -3.64900 14.04000 27.53200
C  -4.03700 11.11400 25.26900
C  -3.76000 11.97900 28.75000
O  -3.73200 10.78800 29.03500
C  -3.71900 13.13500 29.71500
C  -2.48000 13.00500 30.48700
O  -1.37900 13.39100 30.17700
O  -2.72600 12.44900 31.70900
C  -1.60100 12.37300 32.74100
H  -3.81500 20.19100 28.75000
H  -3.30900 19.25800 22.25600
H  -3.78200 13.02500 23.43800
H  -4.52500 15.97400 31.13300
H  -2.94600 18.50500 30.71700
H  -4.61700 19.04100 31.93000
H  -5.76700 17.81100 31.28300
H  -5.37700 19.34100 30.38400
H  -1.51900 15.84800 30.98700
H  -2.73600 15.17500 32.05600
H  -2.91200 17.67900 32.86700
H  -1.17500 17.60500 32.58300
H  -3.06100 22.57100 27.34900
H  -4.55700 21.96800 27.91900
H  -4.67400 22.88400 26.43500
H  -3.87400 23.64400 24.74700
H  -2.69900 23.81800 23.30600
H  -2.08200 23.32300 24.91600
H  -2.51400 17.17600 21.17000
H  -4.64900 14.88100 21.49700
H  -5.38200 16.70600 20.58000
H  -4.28300 17.68500 19.62300
H  -5.16300 18.32700 21.01300
H  -1.74500 14.16900 21.73300
H  -2.13500 15.07800 20.23200
H  -2.21800 12.38800 20.98500
H  -2.96200 12.91700 19.42800
H  -3.92100 12.92900 20.92700
H  -4.93600 11.22700 24.66300
H  -3.96900 10.18600 25.83700
H  -3.15100 11.07100 24.63600
H  -4.56900 13.09100 30.39500
H  -1.25200 13.37600 32.98500
H  -0.82600 11.72900 32.32500
H  -1.93400 11.89400 33.66100
Mg 48.23100 35.77500 28.48200
C  46.25900 33.96400 30.76000
C  48.27900 38.38100 30.71700
C  49.46100 37.63600 26.00800
C  47.66300 33.15100 26.19900
N  47.55600 36.03300 30.52600
C  46.80000 35.15700 31.28300
C  46.78900 35.62000 32.68700
C  46.88400 37.20900 32.53600
C  47.56400 37.24600 31.16900
C  45.52500 37.99500 32.42500
C  47.95600 35.02500 33.49500
C  47.80200 34.90700 35.00400
H  46.85600 35.95300 35.57900
N  48.92600 37.70000 28.38300
C  48.90200 38.62900 29.41400
C  49.63200 39.81100 28.97300
C  50.04900 39.58100 27.60500
C  49.45700 38.24300 27.25500
C  49.87400 40.91100 29.98700
C  50.91200 40.47400 26.65800
O  51.29500 40.13900 25.56000
C  51.26600 41.83900 27.09700
N  48.43100 35.43400 26.37500
C  48.98300 36.42000 25.59800
C  49.07000 35.96500 24.15400
C  48.82000 34.42000 24.22800
C  48.34300 34.26300 25.71800
C  48.25600 36.69200 23.14500
C  49.86000 33.39500 23.77000
C  50.76500 33.76600 22.54700
N  47.19000 33.95500 28.42500
C  47.12200 32.94700 27.45200
C  46.42600 31.77800 27.91900
C  46.03800 32.10400 29.25200
C  46.54500 33.47400 29.49900
C  46.17200 30.50100 27.07700
C  45.39900 31.60000 30.44200
O  44.91500 30.50800 30.79200
C  45.35200 32.89500 31.44800
C  45.83600 32.47100 32.85000
O  46.82400 31.79500 32.98400
O  44.92900 32.86700 33.75900
C  45.07500 32.17300 35.01500
H  48.04300 39.12400 31.48200
H  49.82300 38.26600 25.19300
H  47.63200 32.42600 25.38300
H  45.82300 35.31600 33.09100
H  47.51800 37.49300 33.37600
H  44.71400 37.38900 32.02300
H  45.75400 38.78000 31.70500
H  45.20100 38.27600 33.42800
H  48.86400 35.59800 33.30800
H  48.14500 34.03200 33.08900
H  48.78800 35.10500 35.42400
H  47.47800 33.92000 35.33300
H  49.74100 40.66200 31.03900
H  49.53300 41.91000 29.71500
H  50.96300 40.93500 30.02800
H  51.08100 42.48800 26.24100
H  52.31300 41.95700 27.37400
H  50.57200 42.08100 27.90200
H  50.09100 36.21900 23.86900
H  47.89000 34.08300 23.77000
H  47.45200 35.99800 22.89700
H  48.89000 36.89500 22.28200
H  47.83400 37.64400 23.46700
H  49.40800 32.42300 23.57300
H  50.58000 33.22900 24.57100
H  51.75100 33.88800 22.99500
H  50.42100 34.73900 22.19800
H  50.81300 32.95800 21.81700
H  47.07200 30.11200 26.60000
H  45.40300 30.51700 26.30400
H  45.80900 29.73700 27.76600
H  44.35400 33.32000 31.55900
H  44.77000 32.90900 35.76000
H  46.08300 31.82800 35.24600
H  44.35600 31.35400 35.00700

