158

Mg 24.59100 -5.88600 45.54600
C  26.98100 -3.63300 44.16600
C  22.18600 -4.41800 43.55400
C  22.67800 -8.50200 46.18600
C  27.11000 -7.14800 47.65600
N  24.65000 -4.33000 43.88000
C  25.69100 -3.51300 43.55100
C  25.28400 -2.50000 42.51500
C  23.73400 -2.53000 42.67800
C  23.44600 -3.82800 43.46000
C  23.03000 -1.39600 43.41500
C  25.83700 -2.80200 41.06600
C  26.46600 -1.67500 40.22000
H  26.05900 -1.73500 38.78800
N  22.65500 -6.45000 44.96400
C  21.80700 -5.65200 44.23500
C  20.55100 -6.37300 44.04500
C  20.69800 -7.58400 44.72900
C  22.03400 -7.56900 45.29700
C  19.34600 -6.01100 43.14500
C  19.66700 -8.75000 44.81500
O  18.55500 -8.52400 44.36300
C  19.94900 -10.16300 45.39800
N  24.92100 -7.67900 46.61900
C  23.97800 -8.62100 46.76000
C  24.44500 -9.79600 47.56700
C  25.82500 -9.31400 48.16800
C  26.02600 -7.92800 47.49500
C  23.53600 -10.55900 48.50600
C  27.03400 -10.30800 48.04200
C  27.84800 -10.40400 49.34600
N  26.63700 -5.47600 45.91300
C  27.46800 -5.99700 46.83800
C  28.79300 -5.34100 46.74200
C  28.65100 -4.45700 45.65800
C  27.34000 -4.58400 45.16500
C  30.06100 -5.70700 47.51600
C  29.33800 -3.39900 44.90100
O  30.47300 -2.91900 45.07700
C  28.27000 -2.85900 43.90100
C  28.05900 -1.36800 44.08600
O  27.38200 -0.86400 44.96400
O  28.68400 -0.63300 43.13900
C  28.47700 0.84000 43.23100
H  21.47200 -3.89700 42.91300
H  22.08200 -9.36900 46.47800
H  27.86600 -7.42200 48.39500
H  25.65900 -1.52800 42.83500
H  23.35500 -2.59900 41.65900
H  22.59900 -1.78600 44.33700
H  22.31600 -0.80300 42.84300
H  23.76500 -0.63800 43.68900
H  24.94900 -3.04900 40.48300
H  26.52500 -3.63900 41.18900
H  27.50700 -1.93600 40.40800
H  26.20300 -0.74700 40.72800
H  18.38500 -6.29500 43.57300
H  19.39000 -6.58700 42.22100
H  19.34700 -4.92100 43.15200
H  19.17500 -10.79800 44.96600
H  19.95600 -10.23100 46.48500
H  20.98300 -10.45200 45.21000
H  24.68500 -10.64200 46.92200
H  25.62900 -9.13300 49.22500
H  24.08400 -10.84200 49.40500
H  23.15600 -11.41800 47.95200
H  22.68200 -9.95500 48.81300
H  27.71600 -10.08100 47.22300
H  26.83300 -11.35900 47.83400
H  28.91300 -10.40200 49.11400
H  27.66700 -11.35700 49.84300
H  27.52500 -9.64300 50.05600
H  30.63200 -6.45500 46.96500
H  29.93900 -6.15800 48.50100
H  30.69200 -4.85400 47.76500
H  28.49200 -3.07700 42.85600
H  29.46200 1.30300 43.28800
H  27.81200 1.25300 43.98900
H  28.00600 1.23500 42.33000
Mg 41.27200 8.90100 29.32100
C  43.32600 10.21700 31.93100
C  39.13900 7.71200 31.63700
C  39.40500 7.64100 26.78900
C  43.66000 10.03300 27.04300
N  41.40200 8.80300 31.53100
C  42.19200 9.52500 32.40200
C  41.80200 9.44400 33.89800
C  40.49600 8.63800 33.71700
C  40.32700 8.34700 32.19000
C  40.40300 7.37300 34.68500
C  41.58700 10.91700 34.51500
C  40.85200 10.96600 35.90600
H  41.54400 11.90200 36.95900
N  39.39900 7.94800 29.21300
C  38.78300 7.43700 30.27400
C  37.56100 6.80800 29.80700
C  37.59400 6.92000 28.41000
C  38.82100 7.51100 28.05200
C  36.54000 6.24600 30.79100
C  36.59000 6.45700 27.45700
O  36.67600 6.67900 26.24400
C  35.30800 5.84100 27.93900
N  41.59800 8.75500 27.23200
C  40.64000 8.20900 26.40600
C  40.98100 8.33100 24.90200
C  42.14800 9.37900 25.00200
C  42.49000 9.46500 26.49300
C  41.34700 6.90400 24.30000
C  41.72500 10.83700 24.47600
C  41.43200 12.00200 25.44600
N  43.16700 9.84400 29.42800
C  44.00600 10.19400 28.41000
C  45.11500 10.98600 28.95300
C  44.88300 10.86300 30.27100
C  43.67500 10.25400 30.57700
C  46.14100 11.77000 28.21300
C  45.41400 11.25700 31.50100
O  46.46900 11.76200 31.78700
C  44.37000 11.01900 32.64500
C  44.97400 10.26000 33.80700
O  45.31300 9.07500 33.73900
O  45.15600 11.05500 34.91300
C  45.57800 10.39000 36.16400
H  38.49800 7.31800 32.42900
H  38.93300 7.20600 25.90600
H  44.33300 10.34200 26.24000
H  42.51500 8.79200 34.40400
H  39.77300 9.36900 34.08000
H  41.38000 7.03300 35.03000
H  39.93500 6.57800 34.10600
H  39.91000 7.68700 35.60500
H  41.00500 11.57800 33.87300
H  42.57800 11.35400 34.63700
H  40.85700 9.97400 36.35600
H  39.81300 11.29400 35.88700
H  36.19200 5.27500 30.43900
H  35.76800 7.01500 30.82100
H  36.94100 6.20500 31.80300
H  34.87300 6.42100 28.75300
H  35.60600 4.93100 28.45900
H  34.59000 5.70700 27.13000
H  40.15300 8.77800 24.35200
H  43.05200 9.00000 24.52500
H  40.97700 6.16300 25.00800
H  42.43600 6.85500 24.27400
H  41.05900 6.82500 23.25100
H  40.88700 10.82800 23.77900
H  42.55600 11.10600 23.82300
H  41.29500 11.57700 26.44000
H  40.48500 12.50100 25.24100
H  42.32200 12.63000 25.40900
H  46.04900 11.73300 27.12800
H  47.10600 11.42400 28.58500
H  46.01300 12.81400 28.49900
H  43.93400 11.98200 32.90900
H  44.98100 10.69500 37.02300
H  46.62800 10.66200 36.26300
H  45.61700 9.30100 36.12600

