158

Mg 16.97600 -1.17400 27.69700
C  15.96200 0.87000 30.33100
C  19.09500 -2.83800 29.81700
C  18.34200 -2.87100 25.05400
C  15.29100 0.91600 25.47800
N  17.60600 -0.84400 29.84700
C  16.88800 -0.07500 30.74100
C  17.27400 -0.40300 32.17100
C  18.38100 -1.49400 31.95500
C  18.37000 -1.78200 30.42600
C  19.82800 -1.16300 32.32300
C  16.03300 -0.82200 33.07100
C  16.19900 -0.20700 34.51200
H  17.47100 0.50700 35.05300
N  18.47900 -2.66200 27.46600
C  19.18800 -3.22400 28.47200
C  20.00300 -4.35400 27.92100
C  19.72600 -4.44500 26.49400
C  18.86200 -3.30500 26.25200
C  21.01000 -5.12800 28.79900
C  20.17900 -5.49600 25.55700
O  19.97300 -5.39300 24.36700
C  21.03800 -6.67800 26.01700
N  16.92000 -0.93400 25.55700
C  17.49000 -1.82400 24.67300
C  17.06600 -1.59200 23.25200
C  15.94900 -0.49500 23.41000
C  16.06800 -0.12500 24.92700
C  18.22800 -1.05800 22.30100
C  14.50400 -1.09200 23.18600
C  13.52100 -0.05200 22.80100
N  15.86800 0.49000 27.77700
C  15.21500 1.25000 26.79200
C  14.52100 2.32400 27.45300
C  14.75600 2.22900 28.78600
C  15.59300 1.10000 28.95800
C  13.71700 3.32500 26.74100
C  14.54900 2.84600 30.06700
O  13.90100 3.85900 30.32300
C  15.28000 2.01200 31.14900
C  16.22500 2.76100 31.86400
O  17.46100 2.87900 31.59900
O  15.57700 3.54300 32.82500
C  16.43400 4.53000 33.62100
H  19.61500 -3.48400 30.52700
H  18.56900 -3.54500 24.22600
H  14.72700 1.54100 24.78300
H  17.75700 0.47700 32.59600
H  18.16600 -2.43600 32.46000
H  20.51800 -1.31100 31.49200
H  20.11400 -1.82700 33.13800
H  19.99000 -0.16200 32.72200
H  15.91000 -1.90400 33.11100
H  15.09700 -0.44500 32.65900
H  15.82100 -1.03500 35.11200
H  15.45100 0.57800 34.62800
H  22.05400 -5.00000 28.51300
H  20.75100 -6.18700 28.79100
H  20.83300 -4.95900 29.86100
H  22.10200 -6.44900 25.96000
H  20.96000 -7.39100 25.19600
H  20.66800 -7.09800 26.95200
H  16.55900 -2.36900 22.67900
H  16.11100 0.35600 22.74900
H  18.11000 -0.06300 21.87300
H  18.57900 -1.69800 21.49100
H  19.08900 -0.82900 22.92800
H  14.17100 -1.67800 24.04300
H  14.58600 -1.82100 22.38000
H  12.68800 0.09400 23.48900
H  13.21900 -0.16900 21.76000
H  14.01700 0.90900 22.93200
H  12.69100 2.97500 26.62700
H  14.21100 3.64000 25.82200
H  13.60400 4.25300 27.30200
H  14.46900 1.68200 31.79900
H  16.66800 5.44700 33.08000
H  17.38300 4.07600 33.90700
H  15.87800 4.86700 34.49600
Mg 25.52400 1.66000 29.51400
C  27.34700 1.58000 32.44800
C  22.54500 1.88300 31.26200
C  24.01600 1.68500 26.52600
C  28.58900 1.46600 27.75900
N  25.04600 1.63800 31.66600
C  25.98200 1.82800 32.65700
C  25.23100 2.02300 34.00500
C  23.69400 2.07400 33.59700
C  23.73000 1.81200 32.07900
C  22.80300 1.07900 34.43900
C  25.70300 3.30700 34.82300
C  26.29800 3.20500 36.21500
H  25.98700 4.31900 37.25700
N  23.57300 1.64500 28.98600
C  22.51100 1.78500 29.82500
C  21.33500 1.76900 29.01600
C  21.70400 1.56300 27.67100
C  23.15300 1.65600 27.69900
C  19.85500 1.74800 29.65900
C  20.85800 1.29500 26.39100
O  21.34200 1.01900 25.28700
C  19.36700 1.22800 26.49100
N  26.26900 1.62100 27.33800
C  25.41000 1.76800 26.30500
C  26.07600 1.96500 24.93600
C  27.57200 1.93100 25.38100
C  27.52600 1.64000 26.90400
C  25.65200 0.94900 23.82600
C  28.29900 3.15200 25.03600
C  28.07000 4.47000 25.81300
N  27.53200 1.28300 29.87800
C  28.71200 1.32800 29.14100
C  29.89400 1.14900 29.99100
C  29.38300 1.23400 31.26100
C  27.99700 1.35500 31.16100
C  31.40700 0.92700 29.58500
C  29.76700 1.43500 32.61500
O  30.89400 1.38600 33.12100
C  28.45700 1.66500 33.47900
C  28.36200 0.60200 34.41300
O  27.85800 -0.48200 34.13700
O  29.01800 0.91100 35.54200
C  28.90300 -0.05100 36.63400
H  21.62900 2.20500 31.76200
H  23.48900 1.77500 25.57400
H  29.55900 1.67200 27.30200
H  25.41100 1.10900 34.57200
H  23.26100 3.06500 33.73400
H  23.43100 0.44100 35.06100
H  22.14900 0.48200 33.80400
H  22.19100 1.56600 35.19800
H  24.88600 4.02700 34.86700
H  26.44400 3.71100 34.13300
H  27.38600 3.18300 36.16000
H  26.06800 2.24700 36.68100
H  19.10800 2.25900 29.05200
H  19.88500 1.98500 30.72300
H  19.56400 0.73400 29.38600
H  18.98400 0.80600 25.56100
H  18.94800 2.22400 26.63800
H  19.14900 0.55000 27.31500
H  25.76900 2.94000 24.55800
H  28.05900 1.08900 24.88900
H  26.39800 0.16200 23.71900
H  25.39500 1.45200 22.89400
H  24.74900 0.42700 24.14300
H  27.92400 3.31000 24.02500
H  29.35900 2.92600 25.14900
H  27.60500 4.30400 26.78500
H  27.44000 5.19000 25.29100
H  29.03600 4.96800 25.89700
H  31.84600 1.70500 28.96000
H  31.53100 -0.10300 29.24900
H  31.89000 0.95300 30.56200
H  28.43000 2.64400 33.95700
H  27.85600 -0.21400 36.88900
H  29.27300 0.34300 37.58000
H  29.43200 -0.98500 36.44100

