158

Mg 54.52400 24.39800 44.89800
C  51.93000 26.33500 43.87000
C  52.83900 21.62500 43.81600
C  57.34900 22.52600 45.28700
C  56.43600 27.29500 45.41100
N  52.71300 24.05600 43.84100
C  51.83500 24.98500 43.44000
C  50.66600 24.34900 42.67800
C  50.67900 22.94000 43.31200
C  52.18900 22.82200 43.69600
C  49.66000 22.64100 44.50500
C  50.93600 24.53200 41.13300
C  49.68500 24.71600 40.33400
H  49.59300 23.96800 39.03200
N  54.93900 22.36700 44.67800
C  54.09000 21.36800 44.21900
C  54.73700 20.07000 44.41600
C  56.05700 20.33200 44.87700
C  56.17800 21.79400 45.01600
C  54.05300 18.75400 44.02700
C  57.09000 19.19700 45.25500
O  56.80800 17.99500 45.16600
C  58.60300 19.49700 45.50800
N  56.57800 24.84600 44.99000
C  57.52700 23.94500 45.21100
C  58.96400 24.55700 45.31900
C  58.67300 26.08300 45.51500
C  57.06400 26.08300 45.32100
C  59.61900 24.01100 46.56700
C  59.35500 26.98900 44.46900
C  60.37500 28.05500 44.93000
N  54.24800 26.44900 44.79500
C  55.04000 27.51100 45.15300
C  54.22700 28.72100 45.15300
C  52.91200 28.32900 44.65700
C  53.05400 26.90100 44.46500
C  54.68200 30.09000 45.62500
C  51.60100 28.77500 44.25800
O  51.05600 29.84900 44.26200
C  50.92800 27.45700 43.75300
C  50.39400 27.91700 42.47000
O  50.94200 27.97100 41.39400
O  49.08800 28.26300 42.67400
C  48.32400 28.52400 41.47700
H  52.31400 20.68400 43.64000
H  58.27900 21.95300 45.27900
H  57.04200 28.14900 45.72100
H  49.81300 24.90900 43.06000
H  50.45700 22.19800 42.54500
H  50.17900 22.15500 45.33100
H  48.96300 21.87900 44.15400
H  49.25800 23.61100 44.79500
H  51.57100 23.72800 40.76100
H  51.47200 25.47900 41.07400
H  49.47900 25.77200 40.15600
H  48.89900 24.33000 40.98300
H  54.79500 18.00000 43.76500
H  53.57400 19.07700 43.10200
H  53.26900 18.28100 44.61700
H  59.06900 19.92100 44.61800
H  59.09600 18.53000 45.60500
H  58.73200 20.06700 46.42800
H  59.49700 24.35400 44.39000
H  58.75200 26.28800 46.58200
H  59.01000 23.28700 47.10900
H  60.10200 24.67800 47.28200
H  60.45800 23.47100 46.12900
H  58.60400 27.55000 43.91300
H  59.91500 26.32900 43.80700
H  60.50500 28.87800 44.22800
H  61.38900 27.65500 44.91100
H  60.21300 28.51200 45.90600
H  54.27400 30.77700 44.88400
H  55.75100 30.07100 45.84100
H  54.22000 30.25400 46.59800
H  50.12100 27.17600 44.42900
H  48.75000 27.97800 40.63500
H  48.37800 29.57200 41.18400
H  47.28300 28.22900 41.60600
Mg 47.88600 23.87600 28.71200
C  49.00900 26.04800 31.19800
C  47.36900 21.60300 31.15200
C  47.19800 21.79900 26.28800
C  49.06500 26.29900 26.29100
N  48.22000 23.84800 30.87600
C  48.50900 24.93000 31.69400
C  48.26300 24.52900 33.18700
C  48.07100 22.99000 33.10400
C  47.92900 22.78700 31.65900
C  49.11500 22.14800 33.79900
C  47.06700 25.30400 33.92200
C  47.51000 26.29800 35.02500
H  46.46300 26.57400 36.12100
N  47.24500 22.01100 28.72700
C  46.97600 21.24200 29.84800
C  46.40400 19.99500 29.40800
C  46.36800 20.00900 27.98400
C  46.97800 21.29800 27.58100
C  45.97300 18.96400 30.34400
C  45.88500 18.94400 26.99800
O  45.85800 19.15500 25.77800
C  45.51000 17.57300 27.48400
N  48.28800 23.96500 26.62600
C  47.72800 23.00900 25.83300
C  47.72900 23.39000 24.34500
C  48.04600 24.93000 24.42100
C  48.50000 25.10400 25.88600
C  48.82600 22.54900 23.57800
C  46.89200 25.85000 23.96900
C  45.58400 25.79000 24.73900
N  48.82400 25.88400 28.67400
C  49.28400 26.69600 27.64000
C  49.88000 27.88900 28.20500
C  49.73700 27.77100 29.60100
C  49.14200 26.46800 29.83800
C  50.54400 28.99200 27.45100
C  50.11900 28.32300 30.93900
O  50.68200 29.35000 31.29000
C  49.54400 27.29300 31.99100
C  50.60600 26.98900 32.95900
O  51.49700 26.18500 32.83800
O  50.36800 27.72200 34.09200
C  51.21500 27.43800 35.30300
H  46.97300 20.99500 31.96800
H  46.84000 21.21700 25.43700
H  49.40400 26.91000 25.45200
H  49.14700 24.74600 33.78600
H  47.14600 22.58200 33.51400
H  49.95300 22.68200 34.24700
H  49.44400 21.36700 33.11300
H  48.71000 21.64300 34.67600
H  46.30400 24.60400 34.26200
H  46.63700 25.93500 33.14500
H  47.74300 27.25200 34.55300
H  48.43400 25.92500 35.46700
H  46.79000 18.24200 30.33800
H  45.02800 18.64700 29.90400
H  45.82200 19.32300 31.36200
H  46.27100 17.21800 28.17900
H  45.34400 16.78000 26.75400
H  44.66400 17.66900 28.16400
H  46.74600 23.28800 23.88500
H  48.90600 25.09500 23.77200
H  49.81300 23.01100 23.55600
H  48.47700 22.45800 22.54900
H  48.69600 21.53700 23.96300
H  46.65600 25.60500 22.93300
H  47.30400 26.85800 23.91600
H  45.53900 26.79700 25.15500
H  45.67100 24.91100 25.37800
H  44.74100 25.64200 24.06500
H  49.95600 29.34800 26.60500
H  51.47300 28.62000 27.02000
H  50.74300 29.89100 28.03500
H  48.76100 27.79600 32.55900
H  52.19700 27.07600 34.99700
H  50.61700 26.82000 35.97200
H  51.35200 28.42300 35.75000

