158

Mg 28.16900 58.39200 42.14300
C  25.87000 56.20500 40.71800
C  30.69100 56.90600 40.43500
C  30.06200 60.79800 43.27600
C  25.33100 60.14300 43.43400
N  28.23900 56.83300 40.74300
C  27.18400 56.07900 40.25100
C  27.64500 55.19800 39.14500
C  29.19400 55.06500 39.49200
C  29.37600 56.39400 40.20900
C  29.65800 53.73700 40.17100
C  27.29000 55.79900 37.74800
C  27.05000 54.74000 36.63700
H  26.52400 55.29600 35.31700
N  30.21100 58.72600 41.98600
C  31.09300 57.98000 41.26700
C  32.37100 58.59900 41.41400
C  32.24400 59.73300 42.28200
C  30.81900 59.75500 42.56700
C  33.46200 58.19500 40.55400
C  33.29300 60.79300 42.71400
O  34.41400 60.62800 42.24100
C  33.10300 61.95400 43.59000
N  27.71800 60.23100 43.07500
C  28.68200 61.02500 43.49500
C  28.11800 62.26900 44.25800
C  26.59200 62.13000 44.10400
C  26.54600 60.73800 43.49600
C  28.62700 62.26000 45.72300
C  25.97800 63.27500 43.20400
C  26.02600 64.73100 43.84000
N  26.02600 58.24600 42.24900
C  25.04800 58.96200 42.87500
C  23.72600 58.38500 42.60000
C  23.97000 57.33100 41.69300
C  25.36000 57.25100 41.58500
C  22.38600 58.96200 42.96600
C  23.37200 56.23600 40.88500
O  22.18300 55.94400 40.67400
C  24.59100 55.39100 40.34400
C  24.63300 53.93600 40.82300
O  25.29900 53.49100 41.74000
O  23.80000 53.17800 40.03100
C  23.90400 51.70500 40.08800
H  31.37000 56.31400 39.81800
H  30.69200 61.62000 43.62300
H  24.50300 60.76700 43.77800
H  27.06300 54.27900 39.20700
H  29.70000 55.11500 38.52800
H  30.36800 53.30300 39.46700
H  28.83100 53.07000 40.41300
H  30.18200 53.89000 41.11400
H  28.04500 56.49900 37.38900
H  26.34700 56.33400 37.86200
H  26.31000 54.08400 37.09500
H  27.91300 54.08100 36.54000
H  33.29000 57.21100 40.11800
H  34.45900 58.13100 40.98900
H  33.53300 58.93600 39.75800
H  32.54300 62.76500 43.12300
H  34.08100 62.26900 43.95400
H  32.66300 61.57000 44.51000
H  28.45400 63.12500 43.67300
H  26.07600 62.25500 45.05700
H  29.70500 62.13600 45.62700
H  28.23700 61.38900 46.25000
H  28.46900 63.19600 46.25800
H  24.95200 62.95800 43.01300
H  26.54300 63.24700 42.27200
H  25.03700 65.17800 43.94300
H  26.58300 65.30400 43.09800
H  26.51600 64.80300 44.81100
H  22.29300 60.02700 42.75000
H  22.31000 58.91400 44.05200
H  21.48700 58.40300 42.70500
H  24.53600 55.28300 39.26100
H  22.89400 51.54100 39.71100
H  24.03200 51.24000 41.06600
H  24.56000 51.26400 39.33700
Mg 9.79300 47.79500 26.32300
C  8.07200 47.72200 29.40300
C  12.42500 49.19600 27.95500
C  11.29700 47.87600 23.30600
C  6.81000 46.74900 24.72200
N  10.19500 48.32200 28.45800
C  9.38000 48.07400 29.61800
C  10.17200 48.34000 30.90300
C  11.32000 49.27500 30.29300
C  11.37500 48.94200 28.77500
C  11.09200 50.83500 30.53200
C  10.70200 46.98800 31.65600
C  10.88300 47.15800 33.14200
H  10.07200 46.07500 33.99200
N  11.63700 48.33000 25.79000
C  12.59600 48.93600 26.53400
C  13.82600 49.14900 25.81900
C  13.52000 48.68600 24.49500
C  12.07700 48.25400 24.45100
C  15.04100 49.66100 26.37500
C  14.38800 48.76800 23.26800
O  14.11900 48.33200 22.12100
C  15.74400 49.38100 23.36500
N  9.19300 47.37700 24.21900
C  9.99500 47.49900 23.16300
C  9.42300 46.96400 21.93700
C  8.05900 46.37500 22.48200
C  7.96100 46.82500 23.91800
C  9.45300 48.03100 20.87800
C  7.89000 44.86800 22.43100
C  9.11300 44.06300 22.84100
N  7.88200 47.38200 26.84700
C  6.73800 47.05000 26.10500
C  5.60800 46.85700 26.92100
C  6.06500 47.12800 28.20600
C  7.47300 47.37500 28.13200
C  4.16900 46.47300 26.45600
C  5.66700 47.15400 29.65900
O  4.58000 46.91900 30.18200
C  6.93400 47.45300 30.52000
C  7.18700 46.32500 31.41100
O  7.70900 45.26000 31.07600
O  6.62600 46.69200 32.65300
C  6.40600 45.58000 33.59100
H  13.25400 49.76200 28.38500
H  11.87200 47.89800 22.37800
H  5.97000 46.40300 24.11700
H  9.54100 48.85000 31.63100
H  12.26000 48.92300 30.71800
H  11.96600 51.20100 31.07200
H  10.18300 50.92800 31.12600
H  11.02200 51.43100 29.62200
H  11.69000 46.81900 31.22600
H  10.19600 46.06100 31.38600
H  10.66300 48.14800 33.53900
H  11.91300 46.93700 33.42500
H  15.16000 50.64300 25.91700
H  15.95900 49.09100 26.23100
H  15.01900 49.65900 27.46500
H  15.56300 50.32700 23.87500
H  16.32600 49.64700 22.48300
H  16.37700 48.67900 23.90800
H  10.01300 46.12400 21.57100
H  7.25000 46.77400 21.87100
H  8.54800 48.02600 20.27200
H  10.33800 47.83100 20.27300
H  9.45200 49.06700 21.21800
H  7.71700 44.74500 21.36200
H  7.03600 44.61900 23.06100
H  8.71500 43.28900 23.49800
H  9.76300 44.64100 23.49800
H  9.72600 43.61700 22.05800
H  3.63700 47.42200 26.51600
H  3.62700 45.70800 27.01100
H  4.14000 46.01900 25.46500
H  6.65300 48.38000 31.02000
H  5.35300 45.35100 33.75900
H  6.92500 45.77500 34.53000
H  6.80500 44.61900 33.26700

