158

Mg 25.28400 -7.30200 49.25900
C  27.73600 -5.06800 47.82900
C  23.13800 -6.18500 46.90800
C  23.38900 -9.81500 50.10900
C  28.18000 -8.73400 50.94500
N  25.55100 -5.90600 47.47700
C  26.53100 -5.15800 47.08600
C  26.26400 -4.25100 45.87400
C  24.76300 -4.54900 45.68200
C  24.45600 -5.57400 46.75100
C  23.85800 -3.39200 45.39400
C  27.25300 -4.69900 44.72600
C  27.92400 -3.59900 43.81200
H  27.01300 -2.59000 43.10700
N  23.47200 -7.91100 48.65100
C  22.66000 -7.20500 47.75200
C  21.38800 -7.84000 47.60500
C  21.38000 -8.90800 48.61300
C  22.70400 -8.91500 49.26800
C  20.33900 -7.37100 46.67000
C  20.18900 -9.85400 48.94200
O  19.16100 -9.70700 48.32300
C  20.19100 -10.82800 50.01900
N  25.70200 -8.99300 50.22600
C  24.71300 -9.81400 50.66400
C  25.25400 -11.02500 51.41500
C  26.76800 -10.68100 51.58700
C  26.90600 -9.39500 50.86600
C  24.40100 -11.28800 52.75200
C  27.74200 -11.77500 51.01800
C  28.76100 -12.31300 52.01200
N  27.50700 -6.83500 49.63100
C  28.51600 -7.54700 50.31600
C  29.73600 -6.86400 50.23800
C  29.50200 -5.85100 49.28800
C  28.14800 -5.92900 48.90800
C  30.96600 -7.28200 50.91900
C  30.03200 -4.71900 48.58400
O  31.06000 -4.12000 48.70500
C  28.90700 -4.18400 47.61100
C  28.54600 -2.74800 47.95400
O  27.93900 -2.36300 48.93500
O  28.88300 -1.92500 46.92400
C  28.21100 -0.61600 46.80100
H  22.51600 -5.74200 46.12700
H  22.77100 -10.63900 50.47100
H  28.88500 -9.32400 51.53400
H  26.25600 -3.24400 46.29000
H  24.64000 -5.18600 44.80700
H  23.16500 -3.24700 46.22300
H  23.29400 -3.65300 44.49800
H  24.41800 -2.46600 45.26200
H  26.52400 -5.23700 44.12100
H  28.06300 -5.37900 44.98800
H  28.56800 -3.94800 43.00500
H  28.55600 -2.99000 44.45900
H  20.24700 -6.28500 46.65000
H  19.37200 -7.76700 46.98200
H  20.39600 -7.80500 45.67200
H  20.56500 -10.42300 50.95900
H  20.76800 -11.72300 49.78800
H  19.19200 -11.24700 50.13500
H  25.18300 -11.94400 50.83400
H  26.95200 -10.46800 52.64000
H  23.99500 -12.29900 52.77600
H  23.56700 -10.62500 52.97900
H  25.11000 -11.01000 53.53300
H  28.35500 -11.31000 50.24600
H  27.23600 -12.55100 50.44300
H  29.71300 -11.92400 51.65200
H  28.88100 -13.39500 52.07000
H  28.60800 -11.85500 52.98900
H  31.38400 -6.38400 51.37200
H  31.61200 -7.87600 50.27100
H  30.63900 -7.87000 51.77600
H  29.40200 -4.27400 46.64400
H  28.87700 0.21900 47.01600
H  27.25800 -0.68300 47.32500
H  28.00600 -0.59800 45.73000
Mg -12.07200 38.89800 42.54200
C  -10.61400 35.85700 41.57800
C  -9.51500 40.49000 40.75700
C  -13.58500 41.80000 43.04700
C  -14.68200 37.09400 44.02600
N  -10.30100 38.22800 41.21300
C  -9.89900 36.92100 41.05900
C  -8.52200 36.86400 40.28200
C  -8.29400 38.42400 40.02400
C  -9.38100 39.11300 40.83300
C  -6.82400 38.84200 40.19800
C  -8.52900 36.07300 38.96500
C  -7.56500 34.82400 38.95200
H  -6.55200 34.86700 37.84300
N  -11.54600 40.90400 42.06600
C  -10.49100 41.34300 41.34900
C  -10.49600 42.77300 41.36300
C  -11.76200 43.20800 41.92200
C  -12.38400 41.95000 42.33000
C  -9.37500 43.63400 40.81100
C  -12.27400 44.63000 42.02400
O  -11.72500 45.51300 41.38100
C  -13.63500 45.08300 42.67100
N  -13.99900 39.36900 43.22200
C  -14.33900 40.70100 43.44500
C  -15.70900 40.77600 44.22400
C  -16.07000 39.27500 44.41300
C  -14.81900 38.51200 43.91900
C  -15.69900 41.61300 45.47900
C  -17.40400 38.73400 43.77000
C  -18.41800 38.03500 44.66200
N  -12.56200 36.88600 42.80900
C  -13.66300 36.29000 43.44900
C  -13.53300 34.81200 43.45600
C  -12.32700 34.67500 42.68900
C  -11.83400 35.89500 42.34000
C  -14.53600 33.77700 43.98600
C  -11.41000 33.61000 42.19000
O  -11.38100 32.41300 42.35200
C  -10.27000 34.38100 41.43800
C  -9.05500 34.01300 42.11900
O  -8.61500 34.59400 43.10000
O  -8.52900 32.95400 41.44000
C  -7.21600 32.56400 41.98300
H  -8.64500 40.99500 40.33300
H  -14.20600 42.67500 43.24800
H  -15.46300 36.49900 44.50500
H  -7.76800 36.45100 40.95200
H  -8.45500 38.77300 39.00400
H  -6.37300 39.08900 39.23700
H  -6.26800 37.95300 40.49600
H  -6.74600 39.72900 40.82700
H  -8.27400 36.70400 38.11300
H  -9.55000 35.74500 38.77300
H  -8.17700 33.95300 38.71700
H  -7.02900 34.73500 39.89700
H  -8.35700 43.36800 41.09500
H  -9.50800 44.54100 41.40100
H  -9.46100 43.87900 39.75200
H  -13.68300 44.59300 43.64400
H  -14.53000 44.71700 42.16700
H  -13.77200 46.16300 42.71400
H  -16.40800 41.16900 43.48600
H  -16.03600 39.02700 45.47400
H  -16.71000 41.99300 45.62700
H  -15.09800 42.49500 45.25900
H  -15.35600 41.10800 46.38200
H  -17.31400 37.97700 42.99000
H  -17.95800 39.58900 43.38300
H  -18.82100 37.15100 44.16900
H  -19.33300 38.60800 44.81200
H  -18.07000 37.70700 45.64100
H  -15.49100 33.76600 43.46200
H  -14.65000 33.83400 45.06900
H  -14.11100 32.80400 43.73800
H  -10.22800 33.98600 40.42300
H  -6.59500 33.39200 42.32500
H  -6.54800 32.02500 41.31100
H  -7.36300 31.88400 42.82300

