158

Mg 9.17500 4.26100 27.65100
C  10.62400 2.86800 30.43500
C  7.36400 6.38100 29.72900
C  8.04900 5.68800 25.04000
C  10.68500 1.68100 25.68300
N  8.92700 4.45900 29.84600
C  9.72800 3.93000 30.80600
C  9.57200 4.49400 32.17300
C  8.40300 5.56200 31.94200
C  8.11500 5.43700 30.40200
C  7.19100 5.30000 32.87200
C  10.85500 4.94500 32.96700
C  10.74600 5.86200 34.13900
H  11.68500 5.68100 35.32500
N  7.80900 5.74100 27.41200
C  7.20200 6.54100 28.33200
C  6.43700 7.50300 27.68100
C  6.74100 7.42900 26.31200
C  7.58900 6.23900 26.19600
C  5.52000 8.43100 28.37900
C  6.33900 8.36100 25.13900
O  6.55700 8.09100 23.98900
C  5.66400 9.63900 25.40500
N  9.20200 3.66200 25.63700
C  8.67400 4.47300 24.71600
C  8.98100 3.98400 23.22500
C  9.96100 2.82100 23.57300
C  9.88300 2.64800 25.02900
C  7.67700 3.61000 22.40300
C  11.35500 3.27600 22.91300
C  12.11900 2.22200 22.18600
N  10.40000 2.59600 27.94100
C  10.90200 1.63300 27.10600
C  11.68600 0.64800 27.85500
C  11.66600 1.14200 29.17600
C  10.82700 2.29800 29.17200
C  12.36300 -0.54800 27.34000
C  12.17500 1.00800 30.53400
O  13.01300 0.19600 30.93300
C  11.54300 2.12000 31.38100
C  10.86800 1.38800 32.50700
O  9.77900 0.81400 32.51500
O  11.69400 1.46500 33.64400
C  11.26300 1.18700 35.03700
H  6.78900 7.04200 30.38100
H  7.74800 6.12400 24.08600
H  11.20100 0.93800 25.07100
H  9.18000 3.61300 32.67900
H  8.88500 6.52500 32.10800
H  6.35600 4.95500 32.26100
H  6.83700 6.21000 33.35500
H  7.49400 4.68900 33.72200
H  11.38000 5.50600 32.19400
H  11.39000 4.11000 33.41900
H  9.69700 5.84600 34.43500
H  10.95900 6.84300 33.71300
H  5.95100 9.39800 28.63800
H  5.33400 8.10400 29.40200
H  4.57700 8.46100 27.83300
H  5.73400 10.37100 24.60000
H  6.28400 10.04600 26.20300
H  4.62300 9.33100 25.50300
H  9.56000 4.80900 22.80900
H  9.53100 1.92300 23.13100
H  6.85000 4.08100 22.93400
H  7.52500 2.54900 22.20300
H  7.79000 4.06100 21.41700
H  11.97700 3.71200 23.69500
H  11.23400 3.96700 22.07900
H  11.57100 1.28400 22.26700
H  13.06000 2.06400 22.71300
H  12.33100 2.35800 21.12500
H  12.11300 -1.33400 28.05200
H  13.43000 -0.37600 27.19800
H  12.00900 -0.81700 26.34400
H  12.29000 2.83900 31.71900
H  11.80000 1.78800 35.77100
H  11.27300 0.11700 35.24500
H  10.24500 1.50300 35.26800
Mg 46.85900 24.64900 28.71500
C  47.86600 26.74000 31.19500
C  45.95100 22.31500 31.06800
C  46.53700 22.32900 26.14000
C  48.11500 26.92800 26.32300
N  47.01800 24.51400 30.84100
C  47.33200 25.53200 31.68300
C  46.89600 25.33700 33.14900
C  46.36900 23.82200 33.06000
C  46.47900 23.52600 31.55200
C  47.06000 22.85500 34.00400
C  45.73400 26.23200 33.64700
C  45.48200 26.13400 35.12400
H  45.72100 27.34400 36.10100
N  46.17700 22.63100 28.58400
C  46.02500 21.84200 29.72500
C  45.61100 20.54300 29.23800
C  45.68700 20.52000 27.79600
C  46.13700 21.86100 27.41900
C  45.11400 19.41800 30.29400
C  45.44400 19.32800 26.83300
O  45.44700 19.50800 25.63600
C  45.07100 17.96800 27.37300
N  47.45600 24.59400 26.49600
C  47.04700 23.59500 25.69200
C  47.11400 23.97100 24.25500
C  47.45900 25.52200 24.30600
C  47.74500 25.67400 25.76300
C  48.05800 23.09100 23.36900
C  46.32600 26.39500 23.89800
C  46.63400 27.69600 23.19600
N  47.84600 26.45100 28.70600
C  48.21600 27.31800 27.73100
C  48.69500 28.59000 28.27300
C  48.59300 28.35700 29.61200
C  48.08900 27.10200 29.84600
C  49.39900 29.68300 27.51700
C  48.85500 28.99800 30.87100
O  49.23200 30.14200 31.14600
C  48.27700 27.99400 31.97600
C  49.37700 27.76400 32.93800
O  50.51700 27.50900 32.59000
O  48.90700 28.08000 34.18000
C  49.82100 28.30700 35.31000
H  45.58900 21.67700 31.87700
H  46.56500 21.61300 25.31600
H  48.36900 27.70200 25.59700
H  47.71300 25.34100 33.87000
H  45.30300 23.78300 33.28400
H  47.73500 23.38900 34.67300
H  47.69400 22.20900 33.39600
H  46.36400 22.32700 34.65700
H  44.86900 25.86400 33.09400
H  45.81100 27.25400 33.27800
H  46.13200 25.35300 35.51900
H  44.44900 25.81400 35.25600
H  44.07500 19.14900 30.10800
H  45.35300 19.80100 31.28600
H  45.63500 18.46300 30.22700
H  45.68700 17.85200 28.26500
H  45.40900 17.25500 26.62200
H  43.99000 18.02000 27.50500
H  46.09900 23.71100 23.95500
H  48.36100 25.79500 23.75800
H  48.91900 23.66800 23.03300
H  47.43800 22.59400 22.62300
H  48.40900 22.29500 24.02700
H  45.57800 26.43200 24.69000
H  45.75300 25.85100 23.14700
H  46.33200 27.57600 22.15600
H  47.70100 27.91500 23.24500
H  45.97500 28.51400 23.48700
H  48.81900 29.90900 26.62300
H  50.39000 29.31200 27.25400
H  49.35000 30.65600 28.00600
H  47.38700 28.49000 32.36400
H  50.85100 28.16500 34.98300
H  49.68800 27.58000 36.11200
H  49.76600 29.35900 35.59100

