158

Mg 0.74000 8.04300 26.06900
C  1.39800 10.26400 28.53500
C  1.21900 5.49100 28.07400
C  0.24900 6.03600 23.28700
C  0.52700 10.76600 23.77900
N  1.17700 7.99200 28.11800
C  1.34000 8.94000 29.02200
C  1.53400 8.34200 30.51100
C  1.55800 6.84500 30.25600
C  1.28400 6.75000 28.67200
C  2.91500 6.09600 30.70400
C  0.42000 8.91900 31.33600
C  0.19700 8.45000 32.80800
H  1.43200 8.12500 33.58400
N  0.65200 6.04100 25.71900
C  0.89700 5.12300 26.73000
C  0.78200 3.81700 26.26300
C  0.51300 3.93700 24.81000
C  0.45800 5.40800 24.52300
C  0.99200 2.59200 27.18400
C  0.46900 2.86900 23.79100
O  0.10700 2.95100 22.63400
C  0.67600 1.54100 24.25400
N  0.48300 8.40700 23.85100
C  0.32800 7.40100 22.99200
C  -0.13700 7.82900 21.57700
C  -0.39000 9.37700 21.78800
C  0.19700 9.57000 23.23400
C  0.90500 7.52100 20.50900
C  -1.85300 9.93100 21.68300
C  -2.24100 11.01200 20.69400
N  1.08700 10.06500 26.09600
C  0.97400 11.09500 25.11100
C  1.35300 12.32100 25.66100
C  1.50900 12.12400 27.04600
C  1.35900 10.70400 27.24000
C  1.43100 13.58900 24.98100
C  1.84600 12.72400 28.34700
O  2.28100 13.84000 28.59100
C  1.58800 11.58300 29.34600
C  2.81900 11.60500 30.19700
O  4.01500 11.39700 29.92700
O  2.47600 11.85500 31.50600
C  3.65400 11.97100 32.37600
H  1.41700 4.63700 28.72600
H  -0.04400 5.29500 22.54100
H  0.25500 11.58700 23.11300
H  2.48100 8.72200 30.89400
H  0.76600 6.35900 30.82500
H  2.66000 5.25300 31.34700
H  3.59200 6.76700 31.23300
H  3.41400 5.59900 29.87200
H  -0.52900 8.76800 30.82200
H  0.56400 9.99900 31.36700
H  -0.55300 7.66300 32.88900
H  -0.21300 9.35200 33.26200
H  1.04900 2.79700 28.25300
H  1.90200 2.08700 26.85900
H  0.19400 1.88100 26.97300
H  1.63900 1.46300 24.76000
H  0.68800 0.82200 23.43400
H  -0.09400 1.21500 24.95300
H  -1.08300 7.34000 21.34600
H  0.27100 10.01600 21.20200
H  0.89800 6.49900 20.12900
H  1.93700 7.69900 20.81100
H  0.79500 8.20100 19.66400
H  -2.13800 10.25200 22.68400
H  -2.47300 9.03700 21.60100
H  -3.15900 10.79600 20.14700
H  -1.52100 11.15600 19.88900
H  -2.20200 11.96100 21.22900
H  0.49000 14.11300 24.81600
H  1.84200 13.38200 23.99300
H  2.11800 14.19500 25.57200
H  0.66000 11.80800 29.87100
H  4.28100 11.08800 32.24900
H  3.41800 12.00000 33.44000
H  4.23100 12.89000 32.27700
Mg -12.84200 38.16200 43.13600
C  -10.80400 35.39400 42.47200
C  -10.42900 40.17200 41.55600
C  -14.97400 40.69100 43.11400
C  -15.35700 35.86400 44.05300
N  -10.97200 37.77000 41.84700
C  -10.32000 36.60300 41.90600
C  -9.00000 36.67500 41.17600
C  -8.69700 38.24000 41.20400
C  -10.06600 38.76900 41.58100
C  -7.72100 38.62300 42.30700
C  -8.94000 36.12300 39.72700
C  -7.57500 35.54400 39.39400
H  -6.84500 36.09300 38.17800
N  -12.70900 40.18400 42.49300
C  -11.61300 40.79200 41.89300
C  -11.90100 42.12200 41.61000
C  -13.29700 42.27500 41.99300
C  -13.77200 41.04500 42.53000
C  -10.95000 43.08800 41.01700
C  -14.10300 43.57200 41.78300
O  -13.58600 44.59800 41.32500
C  -15.57000 43.77200 42.17900
N  -14.88700 38.27000 43.56200
C  -15.46200 39.47900 43.68500
C  -16.82600 39.27500 44.36900
C  -17.01700 37.73300 44.51300
C  -15.72100 37.21300 43.97600
C  -17.00300 40.01000 45.72300
C  -18.23200 37.16400 43.75400
C  -19.20100 36.20300 44.46900
N  -13.10200 36.11300 43.36300
C  -14.14200 35.31300 43.72200
C  -13.81100 33.90800 43.80000
C  -12.41700 33.92600 43.44800
C  -12.07800 35.24900 43.02700
C  -14.63200 32.67100 44.16600
C  -11.19600 33.12500 43.33600
O  -10.96900 31.95600 43.54700
C  -10.06700 34.10300 42.70700
C  -8.93200 34.18100 43.64000
O  -8.99700 34.70500 44.74900
O  -7.83400 33.61400 43.14600
C  -6.67700 33.90500 43.91600
H  -9.51100 40.67000 41.23600
H  -15.70300 41.44200 43.42700
H  -16.04100 35.13700 44.49600
H  -8.28600 36.10200 41.76800
H  -8.42700 38.75300 40.28200
H  -6.91500 37.90900 42.47700
H  -8.38200 38.64700 43.17300
H  -7.30600 39.57600 41.97900
H  -9.24300 36.86400 38.98700
H  -9.63300 35.31400 39.49700
H  -7.70700 34.46300 39.43000
H  -6.88900 35.84600 40.18600
H  -10.87900 42.86100 39.95300
H  -9.94300 43.04100 41.43200
H  -11.43200 44.04300 41.22300
H  -16.11000 42.90300 41.80300
H  -15.94000 44.72200 41.79300
H  -15.52000 43.87500 43.26300
H  -17.59600 39.56400 43.65300
H  -17.09200 37.45600 45.56500
H  -16.04500 40.35200 46.11500
H  -17.64700 39.36300 46.31900
H  -17.48500 40.97600 45.57700
H  -17.85200 36.56800 42.92500
H  -18.84600 37.92800 43.27600
H  -20.21500 36.56900 44.31300
H  -18.98500 36.22000 45.53800
H  -19.08700 35.16600 44.15100
H  -15.35700 32.57600 43.35800
H  -15.16800 32.77400 45.10900
H  -14.03200 31.76500 44.08700
H  -9.69700 33.73900 41.74800
H  -6.94400 33.81900 44.96900
H  -6.20600 34.85900 43.68000
H  -5.97500 33.07100 43.89700

