158

Mg 42.61100 41.90100 26.30800
C  42.32400 44.21100 28.91000
C  44.03900 39.64200 28.61500
C  43.10800 39.57800 23.82800
C  41.88100 44.27400 23.98600
N  43.13100 41.94500 28.54500
C  42.78500 42.95000 29.37200
C  42.98200 42.48700 30.86100
C  43.67400 41.08200 30.66000
C  43.62600 40.86300 29.14200
C  45.09200 40.86000 31.28100
C  41.51000 42.44700 31.49500
C  41.30900 43.49800 32.67300
H  40.65100 42.88000 34.01900
N  43.39800 39.91500 26.26900
C  43.88200 39.18500 27.30700
C  44.36200 37.85900 26.87400
C  43.94600 37.77600 25.48400
C  43.50800 39.14300 25.15700
C  45.06300 36.78500 27.79700
C  43.90000 36.59900 24.56400
O  43.46900 36.65100 23.39700
C  44.21200 35.21800 25.08700
N  42.74000 42.00200 24.18200
C  42.72900 40.87500 23.39700
C  42.40100 41.20000 21.97700
C  41.79500 42.65100 22.03600
C  42.11100 43.01900 23.50400
C  43.62600 41.18200 21.00200
C  40.20500 42.78800 21.83100
C  39.32900 41.68300 22.43700
N  42.17800 43.82500 26.36600
C  41.95600 44.69700 25.32700
C  41.70300 45.99700 25.87700
C  41.78600 45.87000 27.25800
C  42.14500 44.56600 27.53500
C  41.48900 47.17900 25.19800
C  41.77000 46.57800 28.45700
O  41.55400 47.77300 28.76100
C  42.07400 45.51900 29.62800
C  43.27400 45.92800 30.51100
O  44.40200 45.51300 30.33700
O  42.87200 46.87400 31.43000
C  43.91500 47.27000 32.33400
H  44.42500 38.92500 29.34300
H  43.02600 38.92600 22.95500
H  41.52700 45.05900 23.31300
H  43.69100 43.09200 31.42600
H  43.06700 40.36800 31.21600
H  45.82400 40.42600 30.60000
H  45.04900 40.27200 32.19900
H  45.53100 41.81800 31.56000
H  41.30200 41.43400 31.84000
H  40.77100 42.70500 30.73700
H  40.55700 44.26000 32.47000
H  42.30900 43.89900 32.83800
H  45.29300 37.18700 28.78300
H  46.01400 36.41300 27.41500
H  44.33300 35.98500 27.92200
H  43.47800 34.68000 25.68800
H  45.19300 35.31600 25.55300
H  44.36100 34.56700 24.22500
H  41.67800 40.43400 21.69900
H  42.36300 43.35300 21.42500
H  44.47800 40.77500 21.54700
H  43.90400 42.02700 20.37100
H  43.46900 40.38100 20.27900
H  40.13800 42.65500 20.75200
H  39.76900 43.76200 22.05600
H  38.67700 42.10200 23.20300
H  40.01700 40.96400 22.88000
H  38.68500 41.22400 21.68700
H  41.43100 48.05400 25.84500
H  40.52800 47.08100 24.69300
H  42.33000 47.22300 24.50600
H  41.30000 45.30600 30.36500
H  44.08400 46.36900 32.92400
H  43.44900 48.04500 32.94300
H  44.82200 47.67500 31.88700
Mg 6.49700 53.88600 41.51900
C  5.72000 50.47800 41.31100
C  9.63900 53.08900 40.32000
C  7.05200 57.10500 41.03500
C  3.14400 54.46900 42.51000
N  7.50500 51.98900 40.84400
C  6.97800 50.73200 40.71700
C  8.00200 49.70600 40.18000
C  9.33500 50.51800 40.13400
C  8.80600 51.96800 40.45800
C  10.58900 50.02700 41.00400
C  7.50100 49.23700 38.73900
C  8.09100 49.87500 37.49300
H  7.45200 49.47400 36.21100
N  8.09200 54.98600 40.70500
C  9.27600 54.46400 40.34100
C  10.13800 55.53100 39.95800
C  9.39600 56.68000 40.19100
C  8.13500 56.32000 40.65000
C  11.62100 55.25900 39.59200
C  9.91600 58.07600 39.87900
O  11.07700 58.15500 39.39300
C  9.14300 59.36500 40.10500
N  5.19600 55.49300 41.44400
C  5.76600 56.73400 41.39700
C  4.59800 57.72000 41.66100
C  3.32300 56.93200 42.07000
C  3.87300 55.48700 41.87500
C  4.96100 58.74700 42.80500
C  2.00500 57.31900 41.36800
C  1.59200 56.34600 40.26000
N  4.72400 52.78500 41.93000
C  3.48600 53.13200 42.42900
C  2.71200 51.89000 42.79000
C  3.55900 50.86100 42.38500
C  4.78900 51.39500 41.89400
C  1.36500 51.81600 43.34100
C  3.58500 49.47700 42.34700
O  2.78800 48.60700 42.76800
C  4.90100 49.13800 41.55200
C  4.53300 48.56600 40.23600
O  3.83400 49.10000 39.39800
O  5.02800 47.32600 40.15000
C  4.60000 46.58100 39.02500
H  10.68900 52.84000 40.15300
H  7.14800 58.19300 41.06000
H  2.22200 54.83000 42.97000
H  8.02300 48.81000 40.80100
H  9.85800 50.54500 39.17800
H  10.72600 50.77900 41.78200
H  11.48600 49.90000 40.39700
H  10.47500 49.07400 41.52100
H  6.42900 49.37100 38.59100
H  7.78600 48.18800 38.65600
H  9.12200 49.52100 37.47000
H  8.11800 50.95900 37.60900
H  11.65100 54.35900 38.97700
H  12.17300 54.98500 40.49000
H  12.21500 56.07600 39.18200
H  8.22200 59.34000 39.52300
H  9.71300 60.20600 39.71300
H  8.85300 59.47800 41.15000
H  4.48600 58.19200 40.68500
H  3.03300 57.02900 43.11700
H  5.09000 59.77500 42.46400
H  5.90100 58.32500 43.16100
H  4.18400 58.77500 43.56800
H  2.22700 58.32400 41.01000
H  1.16900 57.48800 42.04700
H  1.98400 55.33000 40.29600
H  1.92900 56.83000 39.34300
H  0.50500 56.35000 40.33100
H  0.82500 52.71200 43.03600
H  1.36500 51.94800 44.42300
H  0.75500 50.95100 43.08100
H  5.44100 48.36600 42.10000
H  5.03200 46.97500 38.10500
H  3.53300 46.46100 38.84100
H  4.94200 45.54800 39.09100

