158

Mg 17.70300 -1.81600 27.56100
C  16.53200 0.27100 30.17500
C  19.53700 -3.57900 29.93200
C  19.09000 -3.40600 25.09200
C  15.78900 0.11100 25.37900
N  18.17000 -1.54300 29.66400
C  17.48600 -0.71700 30.55700
C  17.74600 -1.01100 31.97500
C  19.00400 -1.92800 31.84500
C  19.03200 -2.33800 30.37400
C  20.30200 -1.22900 32.31100
C  16.60300 -1.67900 32.84300
C  16.76200 -1.73100 34.39000
H  18.07800 -1.12400 34.99000
N  19.02000 -3.38300 27.50300
C  19.68800 -4.02000 28.62100
C  20.47200 -5.15000 28.09600
C  20.35700 -5.06700 26.61700
C  19.41900 -3.92300 26.31600
C  21.23300 -6.07300 28.99500
C  21.05700 -5.97600 25.59900
O  20.92100 -5.81900 24.38100
C  22.02700 -7.09000 26.11400
N  17.46500 -1.68200 25.54300
C  18.24700 -2.42600 24.68800
C  18.06200 -2.00900 23.17500
C  16.70900 -1.07800 23.31900
C  16.65900 -0.82900 24.81900
C  19.30700 -1.27700 22.56200
C  15.43300 -1.76700 22.79300
C  14.89300 -1.08800 21.53200
N  16.25900 -0.23000 27.70400
C  15.61700 0.43900 26.70700
C  14.98600 1.60700 27.29600
C  15.24700 1.59600 28.66700
C  16.03100 0.44000 28.87700
C  14.18900 2.62800 26.50600
C  15.16100 2.15800 30.00100
O  14.53900 3.22700 30.21900
C  15.74400 1.24600 31.07200
C  16.68200 2.10100 31.83000
O  17.84200 2.44100 31.56900
O  15.92700 2.44200 32.91000
C  16.62100 3.21300 33.94700
H  20.20600 -4.11100 30.61100
H  19.64400 -3.86200 24.26900
H  15.24500 0.61800 24.58000
H  18.01600 -0.04900 32.40900
H  18.83300 -2.84600 32.40700
H  20.69600 -1.78500 33.16200
H  20.23700 -0.19600 32.65300
H  21.05500 -1.24300 31.52300
H  16.48900 -2.71500 32.52500
H  15.68500 -1.10900 32.69800
H  16.61200 -2.78200 34.63800
H  15.95700 -1.07300 34.71800
H  22.21800 -5.64100 29.16700
H  21.27800 -7.13400 28.75000
H  20.72500 -6.00800 29.95800
H  22.40200 -7.78700 25.36400
H  21.29700 -7.60700 26.73600
H  22.85900 -6.76300 26.73800
H  17.83100 -2.88700 22.57100
H  17.00900 -0.08800 22.97400
H  19.19900 -0.20700 22.38400
H  19.43700 -1.69600 21.56400
H  20.27700 -1.48000 23.01700
H  14.71800 -1.78900 23.61600
H  15.61500 -2.80800 22.52900
H  15.12900 -1.68900 20.65400
H  15.39300 -0.14500 21.30700
H  13.83900 -0.82600 21.44200
H  14.91500 3.39600 26.24100
H  13.46600 3.19000 27.09800
H  13.82600 2.21700 25.56500
H  15.00100 0.72700 31.67700
H  16.49600 4.28900 33.82800
H  17.69600 3.03900 33.90300
H  16.09400 2.85400 34.83100
Mg 31.23600 58.78400 41.29700
C  28.22100 57.41500 40.01000
C  32.88000 56.10600 39.97000
C  33.99400 60.50800 41.82800
C  29.25100 61.73900 42.02400
N  30.63100 57.06900 39.94300
C  29.31800 56.64900 39.63100
C  29.37600 55.23500 39.00800
C  30.86700 54.75700 39.33200
C  31.55400 56.06700 39.79000
C  30.98200 53.62200 40.37500
C  28.96800 55.38900 37.49900
C  27.63900 54.74400 36.98900
H  27.50400 54.48900 35.49900
N  33.15300 58.33500 41.05100
C  33.59400 57.17600 40.43800
C  35.02100 57.23700 40.46400
C  35.44100 58.50000 40.97400
C  34.14800 59.17500 41.25800
C  35.80800 56.08600 39.83300
C  36.87000 59.00800 41.16700
O  37.76100 58.19200 40.95000
C  37.20100 60.28000 41.74600
N  31.59800 60.85700 41.91400
C  32.86500 61.29100 42.13200
C  32.84100 62.81200 42.37800
C  31.32600 63.18100 42.63000
C  30.67300 61.84500 42.19100
C  33.74200 63.36000 43.44600
C  30.80800 64.36600 41.79900
C  29.87800 65.33500 42.55200
N  29.18100 59.53000 41.17300
C  28.51400 60.66800 41.52800
C  27.09800 60.54700 41.33900
C  26.94800 59.28700 40.85200
C  28.22300 58.66100 40.70400
C  26.00700 61.49200 41.78100
C  25.95500 58.42100 40.39400
O  24.73400 58.55600 40.31100
C  26.69000 57.10400 39.85800
C  26.29500 55.88800 40.53300
O  26.87600 55.30900 41.48300
O  25.16300 55.32500 40.01100
C  24.61000 54.01200 40.54300
H  33.45100 55.29500 39.51500
H  34.88400 61.13800 41.89200
H  28.67400 62.59400 42.38400
H  28.62200 54.67100 39.55700
H  31.31500 54.37900 38.41300
H  30.07300 53.36500 40.91900
H  31.82600 53.82500 41.03400
H  31.31100 52.78200 39.76300
H  29.81300 55.35700 36.81100
H  28.74900 56.45000 37.37900
H  26.95400 55.57000 37.17500
H  27.20000 53.92400 37.55800
H  35.62200 56.00300 38.76200
H  35.44200 55.18300 40.32100
H  36.83900 56.21800 40.16100
H  36.70600 60.48000 42.69600
H  36.84600 61.05900 41.07100
H  38.24400 60.39400 42.04100
H  33.12700 63.33000 41.46300
H  30.99100 63.32700 43.65700
H  34.11700 62.61400 44.14600
H  33.22200 64.08800 44.06800
H  34.56400 63.82400 42.90000
H  30.25900 64.01200 40.92700
H  31.66600 64.89900 41.38900
H  28.91500 64.82400 42.56400
H  29.72300 66.30400 42.07800
H  30.32800 65.53400 43.52500
H  25.83400 62.19800 40.96900
H  26.32900 61.93400 42.72400
H  25.08900 60.96800 42.04600
H  26.47400 56.90800 38.80800
H  23.91300 54.13700 41.37200
H  25.36500 53.28700 40.84700
H  24.08200 53.54600 39.71100

