158

Mg -2.63300 17.11800 26.28500
C  -3.25900 14.89700 28.72600
C  -3.30600 19.78100 28.46300
C  -2.12100 19.38700 23.79800
C  -2.15600 14.52400 23.95400
N  -3.08800 17.34800 28.41300
C  -3.25300 16.22400 29.16600
C  -3.66100 16.71100 30.58700
C  -4.13600 18.20600 30.32700
C  -3.40700 18.47300 29.04900
C  -5.58700 18.39200 30.25200
C  -2.47900 16.53600 31.53700
C  -2.70200 16.00800 32.97900
H  -1.53300 15.63500 33.80900
N  -2.57900 19.34700 26.20600
C  -2.83800 20.18400 27.21600
C  -2.63500 21.53200 26.70700
C  -2.36200 21.46200 25.32100
C  -2.37700 20.02800 25.03100
C  -2.83900 22.85300 27.62900
C  -2.09700 22.56500 24.32800
O  -1.95100 22.43800 23.11300
C  -2.04900 23.98100 24.83200
N  -2.25600 16.97100 24.12900
C  -2.09200 18.06200 23.39100
C  -1.78800 17.71200 21.97700
C  -1.57000 16.14400 21.96700
C  -2.10300 15.81300 23.41000
C  -2.71600 18.23100 20.87200
C  -0.08700 15.83600 21.78500
C  0.83700 16.25300 22.96600
N  -2.81800 15.11700 26.27400
C  -2.53600 14.18700 25.32300
C  -2.75600 12.84600 25.84200
C  -3.11000 13.10700 27.20900
C  -3.08100 14.47700 27.37400
C  -2.49400 11.55000 25.08900
C  -3.54600 12.40500 28.41600
O  -3.69500 11.21200 28.60900
C  -3.43900 13.58200 29.52600
C  -2.15900 13.19300 30.23200
O  -1.11800 13.83100 30.23700
O  -2.40400 12.13600 31.04600
C  -1.59300 12.07600 32.24100
H  -3.40400 20.54300 29.23900
H  -1.89600 20.06900 22.97500
H  -2.09700 13.64200 23.31300
H  -4.53000 16.20000 31.00100
H  -3.72200 18.87200 31.08400
H  -6.10800 17.53700 30.68300
H  -5.82600 18.46700 29.19100
H  -5.87100 19.32000 30.74900
H  -2.14000 17.55600 31.71700
H  -1.69600 15.92800 31.08300
H  -3.26600 15.07800 32.90100
H  -3.40000 16.63700 33.53000
H  -3.23800 22.64100 28.62100
H  -3.65900 23.48700 27.29000
H  -1.94000 23.47000 27.63700
H  -1.24400 24.08500 25.56100
H  -2.96200 24.25200 25.36100
H  -1.89700 24.66600 23.99800
H  -0.82200 18.18500 21.79700
H  -2.18100 15.58200 21.26200
H  -2.09100 18.63200 20.07500
H  -3.27300 19.04300 21.34000
H  -3.40500 17.48800 20.47100
H  0.22700 16.29400 20.84700
H  -0.00800 14.76200 21.61600
H  1.45500 15.51800 23.48100
H  0.36500 16.87400 23.72700
H  1.56600 16.93200 22.52400
H  -3.31400 11.19400 24.46500
H  -2.28700 10.85300 25.90000
H  -1.60000 11.61700 24.47000
H  -4.27000 13.66100 30.22600
H  -0.93800 12.92000 32.45700
H  -1.02600 11.14900 32.32400
H  -2.37700 12.05300 32.99800
Mg 0.58600 7.79400 25.23800
C  0.97800 9.51500 28.28400
C  0.73400 4.82400 27.00600
C  0.40100 6.07500 22.43300
C  0.68500 10.78300 23.61000
N  0.97000 7.24000 27.37300
C  0.96800 8.08700 28.50800
C  0.99700 7.39200 29.90300
C  1.09600 5.85500 29.38300
C  0.91000 5.97100 27.84100
C  2.39400 5.21400 29.76300
C  -0.21300 7.78500 30.77600
C  0.06000 7.74900 32.32200
H  1.37000 7.18400 32.97100
N  0.43600 5.73000 24.83100
C  0.64900 4.67700 25.63000
C  0.66700 3.49500 24.84900
C  0.24100 3.82800 23.51600
C  0.33700 5.27000 23.58400
C  0.99600 2.24500 25.49600
C  -0.06400 2.92600 22.27400
O  -0.20600 3.38200 21.14400
C  -0.01300 1.42200 22.50900
N  0.45800 8.35600 23.25700
C  0.40200 7.47000 22.26000
C  0.50700 8.09400 20.92100
C  0.46500 9.61800 21.26800
C  0.55800 9.64300 22.79700
C  1.81100 7.72000 20.06700
C  -0.89100 10.25900 20.75400
C  -1.01600 11.78200 20.65200
N  0.69100 9.77100 25.74900
C  0.78300 10.89000 25.00400
C  0.86100 12.10500 25.80200
C  0.95400 11.57400 27.14800
C  0.85000 10.14400 27.01500
C  0.94700 13.58100 25.27700
C  1.20800 11.92800 28.53700
O  1.53500 13.02400 29.01200
C  1.00900 10.65500 29.34000
C  2.17700 10.42600 30.24900
O  3.27400 9.97200 29.85600
O  2.04600 11.00200 31.49900
C  3.23000 11.12400 32.34200
H  0.87400 3.93300 27.62200
H  0.41900 5.57800 21.46100
H  0.78600 11.65200 22.95600
H  1.94000 7.75500 30.31100
H  0.24900 5.31300 29.80300
H  2.96700 5.76300 30.51000
H  3.09800 5.12800 28.93500
H  2.29000 4.21300 30.18300
H  -1.04300 7.07900 30.78400
H  -0.59100 8.79000 30.58800
H  -0.67300 7.08900 32.78600
H  -0.11800 8.74400 32.72800
H  0.58500 1.34000 25.04900
H  0.73800 2.24000 26.55500
H  2.08300 2.30600 25.55300
H  -0.87000 1.13400 23.11800
H  0.94300 1.23300 22.99700
H  -0.09500 1.11700 21.46600
H  -0.38500 7.86100 20.33800
H  1.29300 10.28200 21.01900
H  1.71800 6.73500 19.60800
H  2.68100 7.60800 20.71300
H  1.99600 8.45700 19.28600
H  -1.57500 10.07000 21.58100
H  -1.22300 9.75400 19.84800
H  -1.60000 11.93800 19.74600
H  -0.09200 12.35500 20.56900
H  -1.57700 12.15300 21.51000
H  0.14500 14.21000 25.66400
H  0.95000 13.61100 24.18800
H  1.86400 14.12400 25.50600
H  0.05400 10.83900 29.83200
H  3.71900 10.16800 32.52800
H  2.92000 11.57700 33.28300
H  3.94100 11.84100 31.93100

