158

Mg 17.28000 -0.87400 28.16900
C  16.28100 1.30100 30.95800
C  19.04200 -2.69700 30.52400
C  18.48100 -2.50800 25.62500
C  15.61000 1.30000 26.12000
N  17.70700 -0.61500 30.45100
C  17.16100 0.24000 31.36100
C  17.36300 -0.28700 32.82000
C  18.39300 -1.40800 32.65400
C  18.39000 -1.55800 31.09400
C  19.78400 -1.15700 33.22600
C  16.00400 -0.74400 33.51000
C  15.64300 -0.06200 34.82900
H  16.74500 0.62500 35.69100
N  18.53200 -2.49600 28.00600
C  19.11600 -3.15400 29.11200
C  19.71700 -4.26500 28.52500
C  19.68300 -4.23100 27.14300
C  18.86500 -3.07400 26.86300
C  20.56500 -5.23700 29.36800
C  20.35000 -5.18200 26.04600
O  20.07300 -4.97100 24.85200
C  21.33000 -6.16800 26.47000
N  16.95000 -0.78600 26.11500
C  17.72200 -1.43300 25.27700
C  17.58600 -0.84200 23.84800
C  16.47000 0.17100 24.00400
C  16.30100 0.24200 25.50200
C  18.84700 -0.28200 23.14600
C  15.20100 -0.19200 23.18500
C  14.03700 -0.92600 23.89400
N  15.99800 0.83300 28.42400
C  15.41400 1.61400 27.44400
C  14.62500 2.66600 28.09300
C  14.97600 2.57600 29.47300
C  15.87200 1.49100 29.62800
C  13.63700 3.49500 27.55000
C  14.73800 3.16500 30.80800
O  14.07400 4.13300 31.20100
C  15.53200 2.26400 31.80400
C  16.46800 3.21100 32.56100
O  17.61500 3.55700 32.21700
O  15.88100 3.64200 33.71100
C  16.59000 4.61500 34.52200
H  19.53400 -3.37600 31.22300
H  18.93300 -3.02900 24.77900
H  15.16900 2.05000 25.46000
H  17.87100 0.45300 33.43900
H  18.05900 -2.35100 33.08600
H  19.92700 -0.26100 33.83100
H  20.53800 -1.13200 32.43900
H  19.94900 -2.02000 33.87100
H  16.12900 -1.82700 33.53400
H  15.14000 -0.60800 32.85900
H  15.23500 -0.84600 35.46800
H  14.87200 0.69600 34.68800
H  20.20600 -6.22000 29.06200
H  20.51100 -5.22000 30.45600
H  21.62400 -5.10900 29.14300
H  22.03300 -5.61300 27.09000
H  21.93000 -6.55800 25.64800
H  20.82300 -6.97700 26.99700
H  17.27300 -1.66700 23.20800
H  16.75900 1.19000 23.74600
H  18.59100 0.70100 22.75000
H  19.00000 -1.00500 22.34500
H  19.73600 -0.29800 23.77700
H  15.45200 -0.85900 22.36100
H  14.71200 0.59700 22.61400
H  13.22900 -0.24500 23.62600
H  14.02500 -0.96300 24.98300
H  13.69600 -1.89900 23.54000
H  12.65200 3.22000 27.92700
H  13.55700 3.32700 26.47600
H  13.76800 4.54500 27.80900
H  14.70500 1.92200 32.42700
H  17.34400 5.17600 33.97100
H  17.04600 4.14000 35.39100
H  15.78600 5.29900 34.79200
Mg 36.12400 1.96500 29.53400
C  34.04200 2.85300 32.24400
C  38.73200 1.97000 31.81900
C  38.18200 1.70800 26.97500
C  33.47600 2.53000 27.39000
N  36.34400 2.32200 31.86800
C  35.33700 2.60700 32.72500
C  35.83700 2.67000 34.17800
C  37.42000 2.49500 34.05600
C  37.55100 2.27600 32.46200
C  38.24200 3.68800 34.71000
C  35.15000 1.55700 35.14500
C  34.89300 1.92200 36.61000
H  35.68700 3.06900 37.33600
N  38.17500 1.72700 29.39200
C  39.06500 1.58900 30.45600
C  40.39300 1.28500 30.00400
C  40.22600 1.25700 28.59900
C  38.84300 1.61300 28.23700
C  41.64500 0.96400 30.81800
C  41.25000 0.89400 27.52700
O  40.87500 0.70900 26.34000
C  42.76700 0.69500 27.78800
N  35.82200 2.00100 27.54400
C  36.86600 1.88700 26.64800
C  36.50500 2.17800 25.23900
C  34.91900 2.16700 25.32000
C  34.67300 2.22900 26.85400
C  37.22200 3.45000 24.61700
C  34.25000 0.97900 24.55800
C  34.02100 -0.33800 25.35500
N  34.15700 2.56600 29.73600
C  33.20900 2.75700 28.75700
C  31.92900 3.13200 29.40600
C  32.18200 3.20500 30.81600
C  33.59600 2.87500 30.91500
C  30.61000 3.61100 28.72200
C  31.66300 3.40700 32.08600
O  30.48800 3.67300 32.45100
C  32.75200 3.09600 33.08200
C  32.80900 4.22800 34.05000
O  33.40200 5.27000 33.79100
O  32.12500 3.92600 35.20400
C  32.06300 5.19800 36.05900
H  39.52900 1.91100 32.56200
H  38.79200 1.58700 26.07800
H  32.67800 2.83400 26.71000
H  35.68900 3.60400 34.72000
H  37.69300 1.59400 34.60700
H  39.06800 3.28100 35.29400
H  37.72700 4.33100 35.42300
H  38.63800 4.34400 33.93400
H  35.76200 0.65600 35.11000
H  34.23400 1.27000 34.63000
H  34.94700 0.98100 37.15800
H  33.82700 2.14900 36.64100
H  42.15700 0.12100 30.35400
H  41.31000 0.62000 31.79600
H  42.23700 1.87100 30.94400
H  43.19500 0.61700 26.78800
H  42.73700 -0.27500 28.28400
H  43.16700 1.56400 28.31000
H  36.77700 1.30100 24.65200
H  34.65700 3.12500 24.87200
H  37.79500 3.91800 25.41700
H  36.53300 4.22200 24.27600
H  37.83900 3.15200 23.76900
H  34.93300 0.81500 23.72300
H  33.31600 1.31900 24.11000
H  32.97800 -0.34200 25.66900
H  34.59900 -0.44400 26.27300
H  34.25600 -1.22000 24.76000
H  29.90800 2.79300 28.56300
H  30.71600 4.14700 27.77800
H  30.15300 4.24100 29.48400
H  32.51600 2.16000 33.58800
H  31.37100 5.19200 36.90000
H  31.83400 6.00300 35.36000
H  33.04400 5.51300 36.41300

