158

Mg 7.94900 3.57900 27.27500
C  9.37500 2.04300 30.17100
C  5.67000 5.16000 29.29700
C  6.75600 4.82300 24.55500
C  9.94800 1.40500 25.37200
N  7.50800 3.56000 29.53700
C  8.25400 2.95400 30.49200
C  7.72100 3.21400 31.90800
C  6.51500 4.16700 31.56300
C  6.61500 4.40300 30.08500
C  5.10000 3.68400 32.01500
C  8.78300 3.88500 32.83700
C  8.25100 4.44500 34.17600
H  9.22200 4.36100 35.38300
N  6.47400 4.88200 27.04400
C  5.59600 5.37800 27.96000
C  4.66000 6.22500 27.25500
C  4.95900 6.09200 25.86200
C  6.12600 5.26100 25.74200
C  3.52200 6.98100 27.94900
C  4.43600 6.74700 24.74100
O  4.48500 6.39400 23.56100
C  3.73800 8.13700 24.90900
N  8.32300 3.22400 25.26900
C  7.66300 3.87900 24.30200
C  7.95600 3.37100 22.82600
C  9.14500 2.34000 23.16900
C  9.10200 2.25000 24.69800
C  6.75900 2.93600 21.96000
C  10.53000 2.62000 22.54400
C  11.56200 3.44200 23.44100
N  9.45500 2.12700 27.64000
C  10.15600 1.32700 26.73500
C  10.99500 0.34000 27.43800
C  10.68400 0.68800 28.77000
C  9.75900 1.73100 28.82500
C  11.72500 -0.79200 26.90400
C  11.05400 0.29600 30.09600
O  11.78800 -0.58300 30.46700
C  10.23000 1.22000 31.04100
C  9.44100 0.33400 31.93300
O  8.73500 -0.66800 31.59800
O  9.66400 0.68400 33.16600
C  8.58400 0.25800 34.07100
H  4.93000 5.72300 29.86900
H  6.38600 5.10500 23.56700
H  10.60900 0.76100 24.78800
H  7.55300 2.32200 32.51100
H  6.60400 5.17400 31.97000
H  4.55300 4.45700 32.55400
H  5.19200 2.76800 32.59900
H  4.45000 3.58200 31.14500
H  9.24800 4.65100 32.21600
H  9.52600 3.19700 33.24100
H  7.39200 3.79300 34.33400
H  7.93900 5.48000 34.03800
H  3.98500 7.81200 28.48000
H  3.17200 6.26500 28.69200
H  2.67800 7.29400 27.33400
H  2.75000 7.93200 25.32000
H  3.72900 8.61500 23.92900
H  4.38300 8.65200 25.62000
H  8.22700 4.28600 22.30000
H  8.80700 1.44200 22.65200
H  6.00500 2.34000 22.47400
H  7.12000 2.41900 21.07200
H  6.26100 3.83000 21.58300
H  10.40000 3.09300 21.57100
H  10.97300 1.68400 22.20400
H  11.13700 4.01600 24.26500
H  11.87000 4.33600 22.89900
H  12.41200 2.83300 23.74900
H  11.88000 -0.76900 25.82500
H  11.34300 -1.76300 27.22000
H  12.74500 -0.67700 27.27100
H  11.00000 1.77900 31.57300
H  8.77900 -0.68700 34.57700
H  7.56500 0.21000 33.68600
H  8.56000 0.89100 34.95800
Mg 30.22400 59.83200 40.01700
C  27.60100 57.94000 38.70700
C  32.44300 57.39400 38.87700
C  32.81700 61.93500 40.75800
C  27.91500 62.34100 40.72700
N  30.02400 57.93600 38.83700
C  28.87500 57.39100 38.46400
C  29.06600 56.06800 37.73700
C  30.54500 55.68100 38.16700
C  31.09300 57.07600 38.69600
C  30.63100 54.60300 39.25200
C  28.97300 56.27300 36.18800
C  28.47900 54.99400 35.30800
H  27.62800 55.32400 34.11400
N  32.36300 59.65400 39.95800
C  33.06400 58.55000 39.44300
C  34.47000 58.80500 39.61000
C  34.59200 60.07400 40.15700
C  33.20800 60.66400 40.28300
C  35.57500 57.88000 39.10100
C  35.90700 60.66400 40.58100
O  36.88300 59.93200 40.71300
C  36.10100 62.16200 40.80200
N  30.37600 61.83100 40.50100
C  31.50300 62.43300 40.90600
C  31.22500 63.87700 41.35900
C  29.64800 64.07600 41.35900
C  29.21000 62.63800 40.85800
C  31.91000 64.21500 42.65100
C  29.14700 65.19600 40.44100
C  28.05700 66.08400 41.09900
N  28.14900 60.11800 39.89500
C  27.34100 61.17200 40.20100
C  25.96000 60.80000 39.87000
C  26.03900 59.48900 39.38000
C  27.40000 59.18400 39.29800
C  24.78100 61.64400 40.27500
C  25.27200 58.34400 38.86000
O  24.03700 58.27200 38.71500
C  26.28200 57.35200 38.34600
C  25.94900 55.99900 38.97300
O  26.09400 55.67700 40.12100
O  25.56200 55.14200 37.98200
C  25.26700 53.78700 38.36100
H  33.02400 56.51100 38.60100
H  33.53900 62.71400 41.01000
H  27.22200 63.11100 41.07100
H  28.34600 55.27400 37.93400
H  31.11600 55.22400 37.35900
H  31.17000 53.74000 38.86100
H  29.61700 54.32000 39.53500
H  31.22500 54.85200 40.13100
H  29.99400 56.53200 35.90800
H  28.43800 57.19600 35.96700
H  27.93100 54.23700 35.86900
H  29.33600 54.44500 34.91800
H  36.09200 57.42900 39.94800
H  36.38800 58.35200 38.54900
H  35.18000 57.09700 38.45300
H  35.67000 62.79200 40.02400
H  37.18500 62.25600 40.85800
H  35.62700 62.40500 41.75300
H  31.74800 64.44300 40.58800
H  29.40200 64.17800 42.41600
H  32.93600 64.51900 42.44200
H  31.92700 63.36000 43.32600
H  31.42200 65.02200 43.19700
H  28.72300 64.80700 39.51500
H  30.06800 65.76800 40.32700
H  27.89000 66.00300 42.17300
H  27.18500 65.84800 40.48900
H  28.29700 67.13900 40.96800
H  23.93200 60.96800 40.37100
H  24.61400 62.38200 39.49200
H  25.03100 62.04800 41.25600
H  26.27900 57.33500 37.25600
H  24.20900 53.73500 38.62000
H  25.94000 53.44300 39.14600
H  25.34500 53.13000 37.49500

