158

Mg 1.48800 -0.59700 43.35600
C  4.87200 0.27100 42.93200
C  0.60200 2.39200 42.03900
C  -1.70000 -1.65600 43.14500
C  2.55300 -3.83500 44.14100
N  2.66800 1.06500 42.52500
C  4.02400 1.24300 42.47200
C  4.42500 2.62600 41.96700
C  3.06100 3.35300 41.83500
C  1.98500 2.23500 42.07900
C  2.88300 4.75700 42.64400
C  5.26100 2.54200 40.61600
C  6.40800 3.55800 40.50600
H  6.41200 4.14800 39.06300
N  -0.24500 0.29000 42.62000
C  -0.43700 1.49000 42.12000
C  -1.80800 1.86800 41.94700
C  -2.56400 0.73300 42.33800
C  -1.50100 -0.29100 42.77200
C  -2.33600 3.12400 41.34900
C  -4.08700 0.59000 42.32900
O  -4.68800 1.57500 41.97300
C  -4.81700 -0.58300 42.79200
N  0.58800 -2.44000 43.70500
C  -0.73700 -2.63000 43.51100
C  -1.12700 -4.17300 43.43500
C  0.10900 -4.79200 44.08100
C  1.14400 -3.66800 43.88400
C  -2.57000 -4.64800 43.86900
C  0.45500 -6.28500 43.51900
C  1.07500 -7.18000 44.65000
N  3.36700 -1.63100 43.53300
C  3.61600 -2.91800 43.97200
C  5.07900 -3.14800 44.11900
C  5.62000 -1.84900 43.78000
C  4.53800 -1.06800 43.29700
C  5.80000 -4.40700 44.59500
C  6.83700 -1.07000 43.62200
O  7.95600 -1.43700 43.84400
C  6.38100 0.37500 42.97900
C  6.79300 1.41900 43.96800
O  6.16800 1.64200 45.00900
O  8.00700 1.89400 43.65100
C  8.55800 2.86400 44.59900
H  0.37000 3.45900 42.01800
H  -2.68000 -2.12600 43.04700
H  2.83200 -4.85700 44.40600
H  5.04900 3.10300 42.72300
H  2.88100 3.70800 40.82000
H  2.30700 4.68000 43.56600
H  2.38800 5.46800 41.98300
H  3.81200 5.14000 43.06500
H  4.62800 2.63100 39.73300
H  5.84100 1.63400 40.45100
H  7.33600 3.02400 40.70500
H  6.30400 4.42900 41.15300
H  -2.93800 3.05500 40.44300
H  -1.46800 3.68200 40.99600
H  -2.70700 3.73800 42.16900
H  -5.90700 -0.56900 42.81300
H  -4.62900 -0.72900 43.85600
H  -4.50500 -1.40800 42.15100
H  -1.14600 -4.46400 42.38500
H  -0.05300 -4.91800 45.15100
H  -2.53900 -5.55000 44.48000
H  -3.10900 -4.97500 42.98000
H  -3.13200 -3.91500 44.44900
H  1.27400 -6.19200 42.80600
H  -0.44500 -6.71900 43.08400
H  2.15200 -7.08500 44.51500
H  0.75500 -8.18500 44.37500
H  0.69300 -6.97600 45.65100
H  5.59300 -5.19600 43.87200
H  5.28200 -4.64300 45.52400
H  6.87700 -4.26200 44.67600
H  6.86400 0.44400 42.00400
H  9.64500 2.80800 44.65600
H  8.25700 2.87600 45.64700
H  8.42300 3.87300 44.20900
Mg 9.54600 48.52000 25.37900
C  7.65100 48.69200 28.45600
C  12.13300 49.64900 27.12100
C  11.45700 48.19000 22.52800
C  6.62700 48.13700 23.61700
N  9.86800 48.95700 27.60400
C  8.97100 48.94000 28.66900
C  9.70000 49.33100 29.99200
C  10.99700 50.04300 29.47100
C  11.01900 49.59800 27.97400
C  11.03800 51.57400 29.50400
C  10.07700 48.04600 30.75600
C  9.99300 48.13400 32.30000
H  9.92600 46.78900 33.02400
N  11.54800 48.79300 24.88500
C  12.49900 49.13400 25.78400
C  13.83700 49.17500 25.17700
C  13.63400 48.65700 23.83900
C  12.15300 48.60300 23.68100
C  15.17700 49.41400 25.96200
C  14.65200 48.25200 22.79400
O  14.41300 47.83000 21.68500
C  16.05000 48.42500 23.04900
N  9.12700 48.54700 23.34300
C  10.04400 48.18700 22.38400
C  9.37100 47.83000 21.04400
C  7.84200 47.63700 21.44500
C  7.86200 48.22400 22.92000
C  9.73900 48.68400 19.84400
C  7.25400 46.23900 21.35500
C  7.51100 45.24600 22.49000
N  7.50900 48.48100 25.90600
C  6.46300 48.31700 25.02600
C  5.19400 48.24500 25.85200
C  5.66000 48.35800 27.18900
C  7.05100 48.47700 27.14800
C  3.86200 47.95200 25.30700
C  5.17300 48.35400 28.51700
O  4.04000 48.30100 28.91800
C  6.47800 48.59200 29.44900
C  6.70600 47.34300 30.24100
O  7.06100 46.25800 29.80400
O  6.39700 47.64000 31.57400
C  6.67700 46.64200 32.57900
H  12.95800 50.09000 27.68400
H  12.13500 47.89700 21.72400
H  5.74700 47.82100 23.05300
H  9.17600 50.04200 30.63000
H  11.96100 49.74800 29.88500
H  10.62200 52.02000 28.60000
H  12.01300 52.03000 29.68000
H  10.34800 51.95800 30.25500
H  11.13400 47.86600 30.55700
H  9.47400 47.20400 30.41700
H  9.15100 48.75700 32.60100
H  10.83900 48.68600 32.71000
H  15.04300 49.67700 27.01200
H  15.78900 50.18300 25.49100
H  15.78300 48.50900 25.98800
H  16.36900 49.45600 23.20000
H  16.64100 47.99100 22.24200
H  16.21200 47.87600 23.97600
H  9.82100 46.83800 21.02000
H  7.06600 48.18600 20.91100
H  10.48400 49.40500 20.18200
H  8.94700 49.31200 19.43800
H  10.09100 48.06200 19.02200
H  7.65000 45.81800 20.43100
H  6.18800 46.25300 21.12600
H  8.05900 45.56800 23.37600
H  7.94600 44.30200 22.15900
H  6.49000 45.02700 22.80100
H  3.58100 48.57600 24.45800
H  3.09200 48.13200 26.05800
H  3.84800 46.90200 25.01500
H  6.46200 49.46000 30.10800
H  7.15300 47.15900 33.41200
H  7.21100 45.76000 32.22400
H  5.68000 46.34700 32.90500

