158

Mg 24.35100 -4.61400 45.98600
C  26.43600 -2.38800 44.48400
C  21.84100 -3.73700 43.66300
C  22.47300 -7.24800 46.96500
C  27.01300 -5.80800 47.94300
N  24.17600 -3.24800 44.20100
C  25.13500 -2.30200 43.96200
C  24.64700 -1.29600 42.92800
C  23.10200 -1.57300 42.78700
C  23.01700 -2.92200 43.60000
C  22.22200 -0.51700 43.45900
C  25.42300 -1.36300 41.54000
C  25.51000 -0.03000 40.82700
H  24.69900 0.01600 39.55200
N  22.33000 -5.31500 45.47600
C  21.48400 -4.82000 44.56600
C  20.23000 -5.47400 44.66400
C  20.40700 -6.61200 45.42700
C  21.85900 -6.44100 45.97800
C  19.00700 -5.07700 43.96900
C  19.44900 -7.74800 45.67500
O  18.31100 -7.67600 45.28400
C  19.82300 -9.03300 46.32800
N  24.74700 -6.43800 47.12100
C  23.77500 -7.24100 47.47100
C  24.30300 -8.39500 48.29600
C  25.59400 -7.78100 48.87000
C  25.91300 -6.62600 47.88800
C  23.37600 -8.96100 49.39800
C  26.76100 -8.85400 48.94700
C  27.77300 -9.05100 50.09500
N  26.28800 -4.24400 46.22300
C  27.23500 -4.71300 47.10200
C  28.45300 -3.93000 46.96900
C  28.18100 -3.05800 45.90600
C  26.87300 -3.26600 45.48400
C  29.59800 -4.03900 47.88600
C  28.80000 -1.92200 45.16600
O  29.90000 -1.31600 45.19800
C  27.65100 -1.48400 44.20300
C  27.40200 -0.06300 44.54000
O  27.23000 0.35700 45.68100
O  27.67900 0.71300 43.46500
C  27.82700 2.10800 43.79900
H  20.93900 -3.37400 43.16600
H  21.89500 -8.05500 47.42000
H  27.73700 -6.14000 48.69000
H  24.75900 -0.33300 43.42500
H  22.74600 -1.79000 41.78100
H  22.75500 0.33600 43.87800
H  21.71700 -0.90900 44.34300
H  21.44900 -0.10300 42.81200
H  24.88500 -2.11500 40.96400
H  26.36100 -1.87300 41.76100
H  26.57800 0.13500 40.68300
H  25.12600 0.76500 41.46500
H  19.02500 -5.68400 43.06400
H  18.88700 -4.03500 43.67100
H  18.06600 -5.46800 44.35600
H  19.78600 -8.93200 47.41300
H  20.84300 -9.31700 46.06700
H  19.02000 -9.72300 46.06900
H  24.57700 -9.26900 47.70600
H  25.33200 -7.27600 49.80000
H  22.41400 -8.45000 49.36700
H  23.72400 -8.78200 50.41500
H  23.35400 -10.03800 49.22700
H  27.39100 -8.77700 48.06100
H  26.25200 -9.81400 48.85600
H  27.64900 -10.10300 50.35100
H  27.63000 -8.23500 50.80400
H  28.81100 -8.88700 49.80400
H  29.35100 -4.46300 48.86000
H  29.85000 -3.06200 48.29600
H  30.51200 -4.36600 47.39100
H  28.01200 -1.50500 43.17500
H  27.71900 2.74900 42.92400
H  28.71500 2.38700 44.36600
H  26.97600 2.39600 44.41700
Mg 0.11500 43.03900 26.63000
C  2.18600 42.86400 29.47500
C  -2.65700 42.44400 28.91400
C  -1.88100 42.33200 24.01900
C  2.96400 43.19200 24.61600
N  -0.25200 42.57100 28.91300
C  0.82500 42.73600 29.80900
C  0.28500 42.90700 31.24200
C  -1.17500 42.63200 31.05500
C  -1.39300 42.54600 29.52400
C  -1.75900 41.36600 31.80400
C  0.55300 44.38600 31.63200
C  1.04600 44.61400 33.07600
H  1.07500 43.43500 34.09900
N  -2.03500 42.51000 26.50500
C  -2.92800 42.44800 27.55200
C  -4.18800 42.42900 26.94800
C  -4.02600 42.38900 25.54200
C  -2.62800 42.38000 25.26200
C  -5.46600 42.34700 27.78100
C  -5.11900 42.34800 24.43100
O  -4.90100 42.23300 23.22500
C  -6.60300 42.32400 24.83700
N  0.45500 42.90000 24.68000
C  -0.48300 42.47600 23.79100
C  0.11100 42.37900 22.35900
C  1.48600 42.96600 22.52600
C  1.68600 43.03900 24.04900
C  -0.00100 40.92700 21.96900
C  1.64200 44.43900 21.97300
C  2.51300 44.61200 20.67300
N  2.07600 43.08700 26.95400
C  3.17500 43.13900 26.02000
C  4.43900 43.22900 26.71100
C  4.08600 43.09200 27.97500
C  2.62900 42.94300 28.16500
C  5.77900 43.34600 26.06900
C  4.60600 43.01400 29.31400
O  5.77500 42.96100 29.71700
C  3.42800 42.89400 30.30600
C  3.64900 41.61500 31.08500
O  3.15500 40.48300 30.98800
O  4.40200 42.13000 32.13500
C  4.50400 41.04700 33.13100
H  -3.47300 42.29800 29.62500
H  -2.46600 42.40600 23.10000
H  3.80500 43.10700 23.92400
H  0.87900 42.26400 31.89100
H  -1.83200 43.43300 31.39200
H  -1.32800 41.28800 32.80200
H  -1.39400 40.49800 31.25500
H  -2.83600 41.20000 31.83000
H  -0.38400 44.90500 31.43000
H  1.28200 44.81100 30.94300
H  0.53400 45.54300 33.32900
H  2.09700 44.87200 33.20800
H  -5.85400 43.34800 27.96600
H  -5.23300 41.88500 28.74100
H  -6.19500 41.71900 27.27000
H  -6.87700 41.34000 25.21800
H  -7.10300 42.52200 23.88900
H  -6.83400 43.12200 25.54200
H  -0.62500 42.90300 21.74800
H  2.25000 42.34500 22.05900
H  -0.31900 40.27900 22.78600
H  0.93300 40.48000 21.62800
H  -0.78500 40.92500 21.21200
H  2.01600 45.01100 22.82300
H  0.69800 44.91300 21.70400
H  3.49200 44.88500 21.06700
H  2.11200 45.42000 20.06200
H  2.66200 43.68300 20.12300
H  5.83500 42.56000 25.31700
H  6.66600 43.24300 26.69500
H  5.80500 44.27300 25.49600
H  3.38400 43.74700 30.98500
H  5.31600 40.34500 32.94000
H  3.59900 40.61000 33.55400
H  4.91300 41.56900 33.99600

