158

Mg 25.68200 0.53400 29.67500
C  27.85900 0.25800 32.30900
C  23.06600 0.84500 31.91100
C  23.61900 0.66900 27.05000
C  28.29500 -0.49700 27.40100
N  25.53100 0.53700 31.86800
C  26.55400 0.53500 32.75100
C  26.02500 0.76100 34.17800
C  24.51100 0.91400 33.99200
C  24.36800 0.81500 32.48500
C  23.72800 -0.14700 34.87100
C  26.66000 1.99300 34.88000
C  27.07200 1.85200 36.32700
H  26.61100 2.96500 37.24600
N  23.63300 0.60500 29.53400
C  22.72100 0.78500 30.55600
C  21.39400 0.79600 30.00400
C  21.51200 0.76000 28.53700
C  23.00600 0.67500 28.36400
C  20.17900 0.80100 30.86000
C  20.38800 0.63700 27.40800
O  20.75800 0.54600 26.24100
C  18.97500 0.74100 27.74600
N  25.92300 0.19200 27.51400
C  24.93300 0.45600 26.64400
C  25.40800 0.21800 25.23800
C  26.88700 -0.12200 25.37800
C  27.00100 -0.23000 26.88600
C  24.56000 -0.82000 24.43000
C  27.78900 0.91000 24.71700
C  28.77900 0.35300 23.67500
N  27.62700 0.05000 29.70300
C  28.54500 -0.40900 28.76800
C  29.86300 -0.55800 29.37600
C  29.64800 -0.25600 30.78200
C  28.22500 -0.00400 30.93800
C  31.13700 -0.86000 28.68200
C  30.30500 -0.14800 32.07100
O  31.46400 -0.12800 32.41900
C  29.18900 0.21300 33.11800
C  29.13200 -0.88900 34.15100
O  28.93500 -2.05900 33.88100
O  29.52200 -0.32800 35.41600
C  29.33800 -1.19500 36.57500
H  22.19800 0.99300 32.55700
H  23.04100 0.87500 26.14700
H  29.06600 -0.81900 26.69800
H  26.33700 -0.14500 34.69600
H  24.23700 1.90600 34.35100
H  22.87000 0.36100 35.31100
H  24.41100 -0.58300 35.59900
H  23.52300 -1.00000 34.22400
H  26.08100 2.90900 34.76600
H  27.52800 2.31500 34.30500
H  28.15600 1.96200 36.37200
H  26.76800 0.85900 36.66000
H  19.85900 1.83600 30.97900
H  20.11300 0.40300 31.87200
H  19.29200 0.34000 30.42400
H  18.52200 -0.24600 27.82800
H  18.43500 1.36500 27.03400
H  18.75000 1.27900 28.66700
H  25.22100 1.24900 24.93700
H  27.02800 -1.14700 25.03400
H  25.18400 -1.64000 24.07500
H  24.16700 -0.31000 23.55100
H  23.70900 -1.13400 25.03400
H  28.32700 1.58700 25.38100
H  27.16900 1.54300 24.08400
H  28.43100 0.53200 22.65800
H  28.90800 -0.71600 23.84800
H  29.72200 0.89900 23.66600
H  31.06300 -0.82700 27.59500
H  31.24100 -1.90100 28.98600
H  31.97400 -0.27200 29.05900
H  29.31100 1.21300 33.53300
H  28.78700 -2.09300 36.29400
H  28.95300 -0.61800 37.41600
H  30.34300 -1.53600 36.82400
Mg 0.18700 42.87800 26.74300
C  2.39700 42.92700 29.45200
C  -2.32800 42.26800 29.01500
C  -1.87800 42.38900 24.12900
C  2.86300 43.15200 24.56600
N  0.02800 42.58100 29.00800
C  1.09300 42.74600 29.84400
C  0.63600 42.74700 31.27000
C  -0.88400 42.29700 31.20300
C  -1.09000 42.37100 29.66300
C  -1.07600 40.79600 31.61600
C  0.69900 44.20900 31.94500
C  1.08900 44.34200 33.38400
H  0.94300 43.19900 34.33500
N  -1.86600 42.28100 26.58100
C  -2.74800 42.28600 27.69200
C  -4.12400 42.11300 27.15300
C  -3.95700 42.14700 25.70900
C  -2.51300 42.27700 25.38400
C  -5.23200 41.87300 28.11600
C  -5.01500 42.04300 24.60400
O  -4.83600 42.05600 23.37700
C  -6.46700 41.95900 25.06200
N  0.43000 42.74900 24.66000
C  -0.54500 42.54500 23.78100
C  -0.04400 42.47000 22.23400
C  1.35700 43.27600 22.47600
C  1.59500 43.06200 24.00700
C  -0.01400 41.09200 21.59100
C  1.21800 44.78500 22.06300
C  1.27400 45.92500 23.12700
N  2.19200 43.03000 26.89900
C  3.18400 43.11700 25.93200
C  4.47500 43.14800 26.55800
C  4.22200 43.09500 27.93200
C  2.83500 42.98100 28.13000
C  5.86300 43.29700 25.84300
C  4.87800 43.03700 29.22100
O  6.04400 42.98200 29.62400
C  3.59800 43.00700 30.23600
C  3.85900 41.86100 31.12100
O  3.79900 40.70000 30.75700
O  4.12600 42.30500 32.41800
C  4.63200 41.34800 33.43100
H  -3.13800 42.33100 29.74500
H  -2.58200 42.32500 23.29700
H  3.67400 43.35400 23.86200
H  1.20300 42.04800 31.88500
H  -1.51300 42.96000 31.79600
H  -1.40700 40.24800 30.73500
H  -1.87800 40.74700 32.35200
H  -0.26300 40.25600 32.10200
H  -0.20100 44.74300 31.64000
H  1.46900 44.78200 31.42900
H  0.42800 45.10400 33.79800
H  2.13200 44.64600 33.48100
H  -4.97000 40.91800 28.57000
H  -6.20400 41.68000 27.66300
H  -5.36200 42.52700 28.97800
H  -6.39600 41.09900 25.72800
H  -7.25700 41.76300 24.33700
H  -6.70500 42.75900 25.76200
H  -0.74600 43.05600 21.64100
H  2.17600 42.90400 21.86000
H  -0.41300 40.30200 22.22700
H  1.01600 40.81200 21.37300
H  -0.50400 41.03700 20.61800
H  0.42200 44.94100 21.33400
H  2.09300 44.99700 21.44800
H  0.39700 46.54100 22.92800
H  2.15300 46.55200 22.98200
H  1.11100 45.48600 24.11100
H  5.73300 42.87000 24.84800
H  6.55800 42.73300 26.46500
H  6.22000 44.32100 25.72900
H  3.56000 43.91200 30.84200
H  5.21100 40.56900 32.93400
H  3.83000 40.86300 33.98700
H  5.31000 41.91800 34.06700

