158

Mg 41.97600 40.79500 26.45000
C  41.59400 43.37200 28.80600
C  42.88000 38.70600 28.97300
C  42.82000 38.32200 24.06200
C  41.64800 43.05900 23.86600
N  42.25200 41.06200 28.67700
C  41.93800 42.17300 29.40300
C  41.83500 41.86900 30.91100
C  42.35600 40.38700 30.82900
C  42.60700 39.99600 29.40400
C  43.51300 40.09200 31.83500
C  40.37900 42.19100 31.57200
C  39.93600 41.50900 32.90400
H  39.75900 42.45000 34.12600
N  42.72100 38.83000 26.55700
C  43.06800 38.17500 27.68300
C  43.55400 36.89200 27.40600
C  43.40300 36.73200 26.01300
C  42.95500 37.98400 25.45300
C  44.13500 35.92400 28.45200
C  43.74600 35.49300 25.17500
O  43.59100 35.49800 23.92600
C  43.96500 34.12300 25.77000
N  42.36800 40.77500 24.27400
C  42.54800 39.59300 23.58200
C  42.46100 39.85700 22.02600
C  42.08600 41.36100 22.00100
C  42.06800 41.83000 23.42300
C  43.62100 39.47300 21.05700
C  40.72900 41.71400 21.32000
C  39.38800 41.63800 22.06100
N  41.64800 42.77700 26.34000
C  41.53300 43.59800 25.22000
C  41.22600 44.97300 25.65100
C  41.27600 44.94200 27.03700
C  41.49000 43.58700 27.45600
C  41.09500 46.13500 24.78300
C  41.19600 45.81100 28.18900
O  40.86500 46.97800 28.31400
C  41.20200 44.75300 29.45200
C  42.25000 45.16400 30.37700
O  43.40200 44.75100 30.46000
O  41.69400 45.97800 31.35800
C  42.51300 46.36200 32.51700
H  43.15600 38.03100 29.78500
H  42.93100 37.63100 23.22400
H  41.41300 43.75900 23.06100
H  42.57800 42.48700 31.41400
H  41.53100 39.77700 31.19700
H  43.20900 39.33000 32.55300
H  43.74500 40.87000 32.56100
H  44.46900 39.90700 31.34400
H  39.65700 41.82800 30.84000
H  40.28200 43.25000 31.81300
H  40.61700 40.69200 33.14100
H  38.95100 41.08700 32.70400
H  43.58200 34.99500 28.58900
H  44.29800 36.39800 29.42000
H  45.14700 35.70300 28.11200
H  44.94100 34.16300 26.25300
H  44.10000 33.40100 24.96400
H  43.15100 33.86800 26.44800
H  41.61900 39.21800 21.75900
H  42.81700 41.95600 21.45400
H  43.22000 39.04900 20.13700
H  44.18200 38.69800 21.58000
H  44.25200 40.31700 20.78000
H  40.76700 41.22600 20.34700
H  40.87500 42.77900 21.13700
H  39.44800 41.27700 23.08800
H  38.71700 41.04800 21.43700
H  39.00200 42.65600 22.10200
H  40.51500 45.88400 23.89500
H  42.12700 46.41100 24.56200
H  40.67500 47.02100 25.26000
H  40.19100 44.79700 29.85800
H  42.52000 45.66500 33.35500
H  42.05500 47.26300 32.92400
H  43.44700 46.77100 32.13300
Mg 6.50700 53.66200 41.82100
C  5.53800 50.19400 41.50400
C  9.17600 52.94100 39.91100
C  6.67200 56.96300 41.03700
C  3.32600 54.27900 43.05700
N  7.27900 51.72800 40.94100
C  6.72600 50.51800 40.83900
C  7.68400 49.49000 40.27900
C  8.95500 50.35500 40.01300
C  8.46000 51.78800 40.31400
C  10.27500 49.93900 40.71400
C  7.16700 48.79700 38.98400
C  6.22200 49.59900 38.05500
H  5.41800 48.82200 36.97400
N  7.88100 54.83000 40.89700
C  8.96100 54.33600 40.14000
C  9.76000 55.38700 39.63600
C  9.12800 56.60500 40.08500
C  7.77200 56.14800 40.66200
C  11.06500 55.33300 38.84700
C  9.68900 58.02100 40.06900
O  10.85400 58.15000 39.62000
C  9.04400 59.27300 40.70000
N  5.09300 55.33300 41.76900
C  5.42100 56.66100 41.57900
C  4.35700 57.70300 41.97000
C  3.37300 56.80400 42.67200
C  3.98900 55.38100 42.58700
C  4.86800 58.87700 42.81300
C  1.90400 56.84500 42.12500
C  0.71000 56.85700 43.15100
N  4.84100 52.51300 42.40800
C  3.65200 52.93100 42.90800
C  2.87500 51.75200 43.23100
C  3.61400 50.66300 42.73700
C  4.75900 51.14300 42.19100
C  1.53500 51.81100 43.92700
C  3.57500 49.19600 42.55700
O  2.70700 48.41100 42.85700
C  4.94800 48.83300 41.82800
C  4.59400 47.89800 40.70400
O  3.84400 48.15600 39.74800
O  5.29300 46.75300 40.91900
C  4.81600 45.62200 40.15600
H  9.96200 52.68700 39.19700
H  6.86100 57.99900 40.75000
H  2.33800 54.44100 43.49300
H  7.85800 48.66900 40.97400
H  9.25000 50.38600 38.96400
H  9.95700 49.42600 41.62100
H  10.85400 50.82300 40.98100
H  10.87600 49.29100 40.07700
H  6.75300 47.81700 39.22300
H  8.05100 48.61700 38.37200
H  6.86600 50.17800 37.39300
H  5.52000 50.18700 38.64700
H  11.20500 54.41800 38.27100
H  11.97600 55.37900 39.44300
H  11.00500 56.01600 37.99900
H  8.51400 58.89300 41.57400
H  8.39600 59.78800 39.99100
H  9.77000 60.02900 40.99700
H  3.94400 58.15200 41.06600
H  3.29300 57.02300 43.73700
H  4.42400 58.82600 43.80700
H  4.78700 59.80700 42.24900
H  5.94500 58.72000 42.88200
H  1.86700 56.02300 41.41000
H  1.84200 57.66600 41.41100
H  1.12000 56.43100 44.06700
H  -0.00700 56.11100 42.80700
H  0.24800 57.83800 43.25700
H  0.93200 52.65100 43.58200
H  1.69800 51.96900 44.99300
H  1.23100 50.80200 43.65100
H  5.58200 48.39200 42.59800
H  5.45100 44.76000 40.35700
H  4.82500 45.89000 39.09900
H  3.77900 45.48500 40.46300

