158

Mg -2.58900 35.16100 26.79400
C  -4.51200 33.24600 29.04700
C  -1.88200 37.32300 29.21400
C  -0.73600 36.60400 24.48700
C  -4.03000 33.00100 24.26000
N  -3.11800 35.23700 28.84400
C  -3.77500 34.33900 29.62000
C  -3.67800 34.63300 31.13600
C  -3.27200 36.16700 31.08900
C  -2.79600 36.29600 29.63900
C  -4.38400 37.16500 31.58500
C  -2.75700 33.66900 31.88300
C  -3.21500 33.01300 33.22200
H  -3.51100 33.94000 34.43700
N  -1.58400 36.86100 26.82200
C  -1.24900 37.54900 27.97900
C  -0.25100 38.53700 27.65700
C  0.10000 38.35700 26.27200
C  -0.78000 37.23100 25.79200
C  0.29200 39.51300 28.70700
C  1.17100 39.11100 25.45800
O  1.41200 38.85700 24.28500
C  2.08800 40.07100 26.17300
N  -2.60700 34.98200 24.62400
C  -1.56500 35.59400 23.92100
C  -1.48200 35.09400 22.51100
C  -2.36700 33.80600 22.58500
C  -3.10400 33.95200 23.90700
C  -1.91800 36.21000 21.47700
C  -1.57800 32.44100 22.53700
C  -2.00600 31.33300 21.53300
N  -3.97400 33.43100 26.61300
C  -4.45200 32.69700 25.51900
C  -5.28900 31.60600 26.02000
C  -5.30300 31.76400 27.36900
C  -4.57300 32.87200 27.69400
C  -6.01200 30.49900 25.17800
C  -5.85100 31.27600 28.65800
O  -6.49400 30.26200 29.02800
C  -5.29400 32.19500 29.81000
C  -6.42400 32.71000 30.59300
O  -7.27100 33.50300 30.18300
O  -6.41800 32.22500 31.87200
C  -7.41100 32.89400 32.75900
H  -1.53700 37.84400 30.11000
H  0.05200 37.02500 23.85800
H  -4.33400 32.28000 23.49800
H  -4.63700 34.52800 31.64200
H  -2.43300 36.26200 31.77900
H  -4.50400 37.85800 30.75300
H  -4.05300 37.60700 32.52500
H  -5.31800 36.65100 31.81200
H  -1.78800 34.16000 31.98000
H  -2.71400 32.87000 31.14300
H  -2.43600 32.36700 33.62700
H  -4.03300 32.35700 32.92300
H  -0.24600 39.45100 29.65300
H  0.04000 40.52900 28.40200
H  1.35400 39.35000 28.89400
H  1.52000 40.91100 26.57100
H  2.76800 40.51700 25.44800
H  2.58100 39.47700 26.94300
H  -0.45000 34.79700 22.32100
H  -2.99800 33.77800 21.69700
H  -2.80400 35.93400 20.90600
H  -1.11100 36.64900 20.89000
H  -2.36100 37.08300 21.95700
H  -1.64700 31.93500 23.50100
H  -0.53700 32.68200 22.31900
H  -2.99900 31.48100 21.11000
H  -2.09900 30.45100 22.16600
H  -1.23600 31.07300 20.80700
H  -5.50700 29.55100 25.36200
H  -6.15100 30.71200 24.11800
H  -6.98200 30.45100 25.67300
H  -4.71800 31.60500 30.52300
H  -8.42500 32.61700 32.47000
H  -7.29200 33.97400 32.66900
H  -7.25400 32.57600 33.78900
Mg -5.57100 25.25200 26.11700
C  -4.31800 26.88100 28.92900
C  -7.11500 23.02500 28.16200
C  -6.31300 23.41500 23.33600
C  -3.58400 27.34100 24.09600
N  -5.68000 24.99100 28.33900
C  -5.19900 25.82800 29.29600
C  -5.97100 25.59300 30.62100
C  -6.68000 24.22100 30.37800
C  -6.54600 24.06100 28.86900
C  -6.02200 23.00600 31.00800
C  -6.84100 26.76300 31.10100
C  -7.08000 26.99900 32.60300
H  -6.39900 26.08900 33.67500
N  -6.70300 23.57100 25.77400
C  -7.30700 22.85600 26.76400
C  -8.11300 21.83200 26.15100
C  -7.89400 21.92300 24.75100
C  -6.94900 23.01900 24.56100
C  -8.96000 20.81200 26.91600
C  -8.44500 21.02400 23.70400
O  -8.25400 21.21000 22.52600
C  -9.28100 19.83500 23.98800
N  -4.82500 25.16600 24.07800
C  -5.39700 24.41500 23.07700
C  -4.70900 24.76700 21.75000
C  -4.17500 26.17300 21.96700
C  -4.15700 26.25800 23.52300
C  -3.56400 23.78600 21.34700
C  -4.95000 27.33800 21.25400
C  -4.24800 28.32800 20.32900
N  -4.19700 26.84100 26.37900
C  -3.56100 27.70800 25.48000
C  -2.82800 28.70100 26.24000
C  -3.07800 28.39300 27.60200
C  -3.96000 27.27400 27.62900
C  -1.91600 29.78100 25.55500
C  -2.81500 28.84800 28.93600
O  -2.06200 29.74400 29.27800
C  -3.66700 27.99200 29.82000
C  -2.86600 27.39300 30.98000
O  -2.31200 26.31800 31.03000
O  -2.98800 28.24700 32.03900
C  -2.29200 27.81700 33.25300
H  -7.56000 22.30000 28.84600
H  -6.67900 22.84400 22.48000
H  -3.10700 28.09900 23.47000
H  -5.21200 25.42200 31.38500
H  -7.73500 24.30200 30.64100
H  -5.28900 23.23400 31.78200
H  -5.46200 22.52400 30.20600
H  -6.76400 22.26100 31.29600
H  -7.84500 26.70300 30.68100
H  -6.34100 27.61700 30.64500
H  -8.14100 26.83200 32.79000
H  -6.71000 28.00600 32.79400
H  -10.03800 20.85500 26.75700
H  -8.76700 20.86200 27.98800
H  -8.60300 19.79600 26.74900
H  -8.64400 19.17400 24.57500
H  -9.46900 19.34400 23.03300
H  -10.18600 20.13000 24.52000
H  -5.39800 24.76900 20.90500
H  -3.13800 26.30300 21.65500
H  -2.61500 24.32200 21.34600
H  -3.67100 23.59100 20.28000
H  -3.49200 22.91200 21.99600
H  -5.42500 28.00200 21.97600
H  -5.67300 26.86100 20.59300
H  -3.19800 28.20700 20.59300
H  -4.50400 29.35000 20.60800
H  -4.46700 28.15100 19.27600
H  -0.87100 29.54400 25.75500
H  -2.13300 30.83600 25.72000
H  -2.04000 29.75900 24.47200
H  -4.42100 28.66400 30.22900
H  -2.95400 27.76700 34.11800
H  -1.48500 28.52800 33.42700
H  -1.85700 26.82300 33.14700

