158

Mg -1.31700 17.35000 26.76900
C  -1.99800 15.15000 29.41400
C  -2.03900 19.94400 29.02000
C  -1.23100 19.55000 24.18200
C  -1.33400 14.63700 24.65000
N  -2.00100 17.50300 28.98400
C  -2.18700 16.49800 29.79700
C  -2.51000 16.92000 31.27100
C  -2.66500 18.46400 31.06500
C  -2.20700 18.66600 29.56600
C  -4.01200 19.13700 31.47000
C  -1.53200 16.53500 32.44200
C  -1.50900 17.26200 33.77200
H  -0.27800 17.04500 34.60700
N  -1.52000 19.42900 26.60600
C  -1.79600 20.34900 27.64300
C  -1.77500 21.66500 27.14000
C  -1.64900 21.57300 25.74200
C  -1.43200 20.15300 25.44800
C  -2.05600 22.82800 28.03900
C  -1.75600 22.65300 24.67200
O  -1.74900 22.48400 23.47200
C  -1.91000 24.07200 25.09500
N  -1.39900 17.17700 24.79100
C  -1.22600 18.16800 23.87500
C  -0.88800 17.65400 22.42900
C  -0.73700 16.16900 22.75800
C  -1.17900 15.97400 24.18600
C  -1.98700 18.05600 21.44100
C  0.60200 15.55600 22.46100
C  1.76500 16.19700 23.26400
N  -1.54900 15.30900 26.97700
C  -1.54400 14.33700 26.03700
C  -1.81700 13.06500 26.53300
C  -1.88000 13.29200 27.93900
C  -1.73200 14.70900 28.11200
C  -1.96200 11.75700 25.71300
C  -2.14200 12.65100 29.18000
O  -2.26900 11.47100 29.51700
C  -2.24000 13.83600 30.20200
C  -1.19000 13.53400 31.16400
O  -0.08900 13.93300 31.10100
O  -1.85100 12.95600 32.21200
C  -0.99300 12.66500 33.37200
H  -2.23500 20.72100 29.76200
H  -1.14400 20.16200 23.28100
H  -1.35900 13.87400 23.87000
H  -3.42400 16.36000 31.46900
H  -1.84700 19.01100 31.53400
H  -4.70000 18.30300 31.60900
H  -4.34300 19.73700 30.62200
H  -3.92100 19.86300 32.27800
H  -0.55900 16.42800 31.96300
H  -1.76500 15.51100 32.73600
H  -2.36300 16.94100 34.36900
H  -1.58200 18.34800 33.72000
H  -3.11900 22.99900 27.87300
H  -1.48000 23.71500 27.77400
H  -1.93500 22.67800 29.11200
H  -1.09100 24.36300 25.75200
H  -2.89900 24.17100 25.54300
H  -1.72600 24.73500 24.25000
H  0.04000 18.10900 22.08300
H  -1.45200 15.65700 22.11400
H  -2.72100 18.79300 21.76500
H  -2.49000 17.12100 21.19200
H  -1.45300 18.59000 20.65500
H  0.71300 15.67700 21.38300
H  0.60000 14.48400 22.65900
H  1.43500 16.79700 24.11200
H  2.22200 16.77400 22.46100
H  2.47500 15.41900 23.54500
H  -0.94900 11.53100 25.37700
H  -2.60300 11.79000 24.83200
H  -2.36200 11.03200 26.42100
H  -3.20900 13.91400 30.69500
H  -0.55800 11.66700 33.33100
H  -1.64100 12.75100 34.24400
H  -0.18900 13.39000 33.49600
Mg 48.14700 15.74700 27.50900
C  46.33800 15.76100 30.54100
C  50.44400 17.65800 28.89000
C  49.56600 16.08400 24.36700
C  45.27700 14.26900 25.85700
N  48.22400 16.66500 29.51600
C  47.54800 16.38900 30.66300
C  48.13200 17.02400 31.90100
C  49.38300 17.78600 31.28300
C  49.35300 17.40400 29.79500
C  49.29800 19.29400 31.52200
C  48.50500 15.97400 32.97700
C  47.94300 16.38700 34.35100
H  47.82400 17.86500 34.71700
N  49.81400 16.71100 26.73500
C  50.66600 17.40800 27.50100
C  51.82100 17.82900 26.73500
C  51.60100 17.40200 25.38000
C  50.27400 16.69100 25.44100
C  52.98100 18.55200 27.24800
C  52.52300 17.61200 24.13200
O  52.15700 17.30700 23.00500
C  53.88700 18.17900 24.26700
N  47.51000 15.10100 25.44200
C  48.30900 15.46700 24.40300
C  47.73900 14.89100 23.08200
C  46.43400 14.19000 23.53000
C  46.38700 14.50200 25.03000
C  47.57700 15.81300 21.89800
C  46.30000 12.66200 23.11900
C  45.49200 12.48000 21.80500
N  46.27700 15.17200 28.02500
C  45.21900 14.54200 27.27100
C  44.12800 14.29200 28.11800
C  44.49400 14.74400 29.40500
C  45.83300 15.21000 29.30200
C  42.79300 13.59100 27.73500
C  44.07300 14.92000 30.74800
O  42.98000 14.84400 31.22400
C  45.28200 15.47800 31.55500
C  44.85200 16.68000 32.27800
O  44.54200 17.78500 31.84500
O  44.53000 16.36400 33.58300
C  43.87200 17.25900 34.49200
H  51.32400 18.15800 29.29900
H  50.02300 16.15000 23.37800
H  44.49300 13.83100 25.23500
H  47.39100 17.73600 32.26300
H  50.40500 17.50300 31.53500
H  48.85600 19.85000 30.69500
H  50.30900 19.64300 31.73400
H  48.67400 19.39300 32.41000
H  49.58500 15.83100 32.96000
H  47.98800 15.03100 32.79600
H  48.62600 15.93000 35.06700
H  46.91200 16.05000 34.45900
H  53.17100 19.40100 26.59300
H  53.87000 17.93300 27.36600
H  52.69800 19.01200 28.19500
H  54.51200 17.77800 25.06500
H  53.82300 19.26100 24.38400
H  54.27700 18.01400 23.26300
H  48.46600 14.11900 22.83000
H  45.61400 14.74800 23.07800
H  48.55900 15.85400 21.42700
H  47.40800 16.86100 22.14200
H  46.77800 15.57300 21.19600
H  45.65600 12.13800 23.82500
H  47.27700 12.18000 23.15800
H  46.10500 12.02800 21.02500
H  45.14900 13.42000 21.37400
H  44.60500 11.87100 21.97900
H  42.12900 14.31200 27.25800
H  42.44300 13.29700 28.72400
H  42.89900 12.68400 27.14000
H  45.44200 14.70200 32.30500
H  43.76900 16.64200 35.38500
H  42.90900 17.65000 34.16400
H  44.45000 18.14900 34.74200

