158

Mg 8.73500 3.41000 28.21700
C  9.94900 1.86800 31.10200
C  7.03500 5.61600 30.03200
C  7.26100 4.39100 25.30600
C  10.01300 0.54600 26.37300
N  8.66100 3.78200 30.37200
C  9.17700 3.06400 31.37500
C  8.81600 3.56200 32.77700
C  7.61900 4.57900 32.37700
C  7.81900 4.74900 30.87100
C  6.08200 4.18600 32.76300
C  10.03100 4.29700 33.53500
C  10.41600 3.82100 35.07100
H  9.26700 3.70600 36.03100
N  7.43700 4.84300 27.69900
C  6.88000 5.71700 28.62700
C  6.06600 6.74100 27.93100
C  6.07200 6.37900 26.56200
C  6.98100 5.15400 26.46900
C  5.31400 7.79700 28.74200
C  5.39700 7.08000 25.43900
O  5.40600 6.71500 24.28800
C  4.71000 8.32900 25.71100
N  8.46700 2.46900 26.10400
C  8.00000 3.26200 25.13200
C  8.49200 2.70000 23.72900
C  9.29800 1.36200 24.10900
C  9.18800 1.40700 25.63500
C  7.47500 2.74200 22.58300
C  10.73400 1.22400 23.46500
C  11.08100 -0.19800 23.01900
N  9.93200 1.66300 28.62700
C  10.35800 0.60200 27.77300
C  11.14900 -0.34800 28.52600
C  11.02500 0.08300 29.88900
C  10.21100 1.28300 29.83300
C  11.84000 -1.52400 28.00400
C  11.30300 -0.23900 31.27900
O  12.01600 -1.06800 31.80500
C  10.52800 0.84900 32.10200
C  9.49900 0.17700 32.89600
O  8.65000 -0.61300 32.47700
O  9.72200 0.41000 34.21700
C  8.91300 -0.24500 35.28900
H  6.47300 6.27400 30.69800
H  6.83900 4.83000 24.40000
H  10.52500 -0.27600 25.86700
H  8.43200 2.77500 33.42500
H  7.75700 5.55600 32.83900
H  5.62500 4.72700 33.59100
H  6.14200 3.12100 32.98900
H  5.33600 4.26300 31.97200
H  9.80800 5.36100 33.61300
H  10.92900 4.06800 32.96100
H  11.03500 4.63800 35.44300
H  11.03500 2.92300 35.06000
H  5.81200 8.73200 28.48400
H  5.37200 7.76400 29.83000
H  4.28300 7.69400 28.40200
H  5.41000 9.01700 26.18500
H  3.84800 8.15500 26.35400
H  4.32900 8.76300 24.78700
H  9.34400 3.35500 23.55000
H  8.69800 0.51100 23.78700
H  6.56400 3.12200 23.04500
H  7.33700 1.78700 22.07700
H  7.69400 3.57100 21.91000
H  11.56400 1.52200 24.10600
H  10.81000 1.91300 22.62300
H  12.01300 -0.06100 22.47100
H  10.23900 -0.50200 22.39700
H  11.15200 -0.85400 23.88600
H  12.69300 -1.20100 27.40600
H  11.20300 -2.24000 27.48400
H  12.30600 -1.96000 28.88700
H  11.25900 1.32600 32.75500
H  9.47300 -1.00400 35.83500
H  8.00100 -0.69300 34.89400
H  8.51400 0.50500 35.97200
Mg 47.25400 15.27000 28.15900
C  45.09100 15.15700 30.84700
C  49.49600 17.07800 30.12000
C  49.01100 15.90900 25.34700
C  45.01500 13.40600 26.34800
N  47.19800 16.13400 30.23900
C  46.28300 15.78100 31.25200
C  46.74500 16.31100 32.66100
C  48.10000 17.07700 32.28500
C  48.27400 16.81200 30.79300
C  48.19300 18.64200 32.58100
C  46.90000 15.08900 33.59800
C  46.16900 15.16900 34.96500
H  45.96700 16.65700 35.43600
N  49.00100 16.29900 27.77300
C  49.83000 16.95300 28.72200
C  50.97900 17.27100 28.04600
C  50.85300 17.09400 26.67900
C  49.58800 16.41000 26.51400
C  52.06500 17.92200 28.71700
C  51.76900 17.47900 25.47000
O  51.46000 17.36000 24.29800
C  53.09000 18.10900 25.84800
N  47.13700 14.54500 26.15000
C  47.93100 15.04900 25.18800
C  47.52000 14.61200 23.71900
C  46.29300 13.73800 24.11300
C  46.08700 13.93800 25.61900
C  47.22200 15.79400 22.80100
C  46.30100 12.22100 23.72800
C  47.27600 11.50300 24.61900
N  45.45600 14.56300 28.46600
C  44.66400 13.73600 27.63000
C  43.39900 13.43200 28.22200
C  43.53300 13.99900 29.53500
C  44.85100 14.60700 29.60300
C  42.30400 12.59600 27.77500
C  42.84600 14.11300 30.82400
O  41.79000 13.58900 31.20200
C  43.85800 14.81700 31.76000
C  43.25000 16.08900 32.22600
O  43.41600 17.18100 31.66600
O  42.50000 15.97300 33.39600
C  41.88500 17.24000 33.67900
H  50.24200 17.58400 30.73800
H  49.45700 16.13700 24.37600
H  44.30600 12.78700 25.79400
H  45.96900 16.98400 33.02700
H  48.99100 16.66300 32.75600
H  49.18800 18.77300 33.00500
H  47.42100 18.89400 33.30800
H  48.07400 19.19100 31.64700
H  47.89100 14.93000 34.02300
H  46.51900 14.21800 33.06600
H  46.74800 14.74100 35.78400
H  45.21800 14.63700 34.99300
H  52.23000 18.96100 28.43200
H  53.01500 17.43100 28.50800
H  51.94600 17.97900 29.79900
H  53.64600 18.28800 24.92700
H  53.59600 17.30500 26.38100
H  53.00000 19.05600 26.38100
H  48.36800 14.04400 23.33400
H  45.46100 14.19800 23.58100
H  48.14900 16.11200 22.32300
H  46.85200 16.67500 23.32500
H  46.46200 15.54900 22.06000
H  46.49500 12.19900 22.65600
H  45.34200 11.71200 23.82400
H  48.03600 12.16300 25.03700
H  47.84800 10.77000 24.04900
H  46.66700 10.86800 25.26300
H  42.02800 12.74900 26.73200
H  41.41100 12.84600 28.34800
H  42.61900 11.56800 27.95700
H  43.95000 14.27900 32.70400
H  41.03500 17.16400 34.35700
H  41.53900 17.88400 32.87100
H  42.58900 17.84200 34.25400

