158

Mg -0.06800 7.76000 27.37500
C  0.83800 9.88600 29.89900
C  0.20100 5.14700 29.46600
C  -0.44900 5.73000 24.66400
C  0.01000 10.63200 25.25400
N  0.43800 7.52600 29.41100
C  0.71900 8.50000 30.25300
C  0.77400 7.92900 31.71100
C  0.81100 6.42000 31.51900
C  0.50200 6.36100 30.06100
C  2.13000 5.71600 31.92000
C  -0.44700 8.37600 32.57500
C  -0.73100 7.67700 33.90000
H  0.32900 6.90500 34.68000
N  -0.18800 5.68600 27.10100
C  -0.09700 4.83500 28.13100
C  -0.47200 3.49400 27.61300
C  -0.49000 3.61000 26.18700
C  -0.33600 5.06900 25.87400
C  -0.85000 2.38500 28.56200
C  -0.64300 2.47500 25.14800
O  -0.54100 2.65900 23.94000
C  -1.03300 0.99900 25.61000
N  -0.21300 8.18800 25.30900
C  -0.38500 7.14000 24.43800
C  -0.39600 7.70900 23.01900
C  -0.73600 9.26700 23.17000
C  -0.36800 9.42000 24.70100
C  1.02800 7.48400 22.31000
C  -2.26000 9.77100 22.87600
C  -2.37000 10.62000 21.61300
N  0.28900 9.88200 27.59700
C  0.37500 10.85700 26.64800
C  0.88600 12.17800 27.24800
C  1.05100 11.80000 28.57700
C  0.62500 10.45500 28.70900
C  1.20600 13.45900 26.43200
C  1.56400 12.18300 29.83900
O  2.00600 13.26300 30.24300
C  1.20400 11.05100 30.83300
C  2.22700 10.84200 31.85600
O  3.38000 10.65200 31.61800
O  1.73800 11.21300 33.05200
C  2.61700 11.54500 34.21300
H  0.12700 4.27200 30.11600
H  -0.66400 5.17700 23.74700
H  0.10800 11.42700 24.51200
H  1.60600 8.32500 32.29300
H  -0.01400 5.95100 32.05600
H  1.96600 5.24200 32.88800
H  2.85200 6.53200 31.95300
H  2.48400 4.92900 31.25500
H  -1.38400 8.13600 32.07300
H  -0.38000 9.45200 32.73200
H  -1.63300 7.10600 33.68300
H  -1.03200 8.54600 34.48500
H  -1.86600 2.18300 28.22600
H  -0.87000 2.40700 29.65200
H  -0.19800 1.52400 28.41100
H  -0.18000 0.66900 26.20300
H  -1.14800 0.35800 24.73500
H  -1.98300 1.06800 26.13800
H  -1.26300 7.35600 22.46000
H  0.03600 9.76000 22.57900
H  1.74100 8.29300 22.46600
H  0.87100 7.21900 21.26500
H  1.53700 6.65200 22.79800
H  -2.62600 10.38100 23.70200
H  -2.99600 8.97600 22.75900
H  -1.54800 10.27500 20.98600
H  -2.45200 11.65400 21.94800
H  -3.28600 10.38000 21.07400
H  1.68100 13.03500 25.54700
H  1.80300 14.01000 27.15800
H  0.27800 13.95500 26.14900
H  0.25300 11.34900 31.27600
H  2.13300 11.32900 35.16600
H  2.95200 12.57400 34.08300
H  3.50400 10.92400 34.08600
Mg 42.77900 42.30900 27.01600
C  41.75000 44.45200 29.67600
C  43.68900 40.13200 29.52400
C  44.40800 40.51500 24.55100
C  42.50000 44.97400 24.75400
N  42.73000 42.29200 29.40100
C  42.12000 43.23200 30.20400
C  42.00800 42.73200 31.64300
C  42.82100 41.31700 31.57800
C  43.11000 41.21200 30.11200
C  44.10300 41.26500 32.60400
C  40.52900 42.61400 32.11000
C  40.07900 43.45000 33.28200
H  39.46300 42.75100 34.51100
N  43.83500 40.57400 27.07200
C  44.04100 39.76100 28.21000
C  44.68100 38.56400 27.70900
C  44.99300 38.77600 26.28800
C  44.42400 40.02500 25.91500
C  44.98700 37.35900 28.57200
C  45.81400 37.85600 25.37100
O  46.26100 38.20800 24.28000
C  46.28300 36.50500 25.84000
N  43.18500 42.58800 24.91900
C  43.84400 41.68600 24.06700
C  43.97900 42.22200 22.66200
C  43.19900 43.63200 22.72400
C  42.88800 43.75000 24.20000
C  45.41100 42.40500 22.13000
C  41.90500 43.71900 21.85400
C  40.98800 42.48300 21.77600
N  42.18600 44.28200 27.15300
C  42.13800 45.25500 26.11000
C  41.56700 46.43600 26.72300
C  41.33600 46.16600 28.04300
C  41.77700 44.84100 28.28600
C  41.21500 47.64700 25.96700
C  40.87800 46.71900 29.25100
O  40.34000 47.77100 29.41700
C  41.06800 45.59400 30.43600
C  41.90700 46.22700 31.42500
O  43.04100 46.46000 31.34800
O  41.06700 46.82500 32.39300
C  41.60000 47.88300 33.20200
H  43.93100 39.32200 30.21500
H  44.82800 40.02900 23.66900
H  42.26500 45.80100 24.08000
H  42.46000 43.57200 32.17100
H  42.18800 40.47800 31.86600
H  44.08800 42.05000 33.35900
H  44.96900 41.32400 31.94500
H  44.13000 40.27300 33.05500
H  40.31900 41.59400 32.43200
H  39.98500 42.78500 31.18100
H  39.19000 43.91500 32.85800
H  40.78200 44.22500 33.58900
H  44.35100 37.34300 29.45700
H  46.03600 37.27100 28.85700
H  44.90400 36.41400 28.03500
H  46.97200 36.01800 25.15100
H  45.45500 35.82200 26.03000
H  46.90900 36.61200 26.72600
H  43.42700 41.53500 22.02000
H  43.86500 44.40400 22.33900
H  45.62300 43.45400 21.92200
H  45.56800 41.82000 21.22300
H  46.10300 42.12500 22.92400
H  42.30900 43.84800 20.84900
H  41.30900 44.61800 22.00800
H  41.08700 41.63700 22.45700
H  40.98800 41.92800 20.83700
H  39.94900 42.80900 21.82100
H  41.16300 48.47200 26.67600
H  40.24400 47.58800 25.47500
H  42.01700 47.91800 25.28000
H  40.06000 45.36400 30.78300
H  42.11600 47.31500 33.97600
H  40.85900 48.57900 33.59500
H  42.32200 48.51500 32.68400

