158

Mg 29.42100 57.92800 40.43100
C  26.48800 56.05400 39.41700
C  31.34900 55.42700 39.09300
C  31.94800 59.89500 41.00200
C  27.15400 60.59300 41.07000
N  28.87500 56.02700 39.22800
C  27.70500 55.39000 39.02800
C  27.88100 53.96300 38.62700
C  29.38900 53.81200 38.52500
C  29.95100 55.21900 39.02000
C  30.02200 52.57600 39.22500
C  27.15900 53.40700 37.21300
C  26.88400 54.41400 36.11600
H  27.77900 54.34900 34.83900
N  31.41700 57.71800 40.19500
C  32.03800 56.63700 39.51100
C  33.40500 56.88800 39.37200
C  33.64000 58.14000 39.89300
C  32.36700 58.67600 40.44800
C  34.43200 55.90700 38.73200
C  35.04100 58.80500 40.11300
O  36.03900 58.25500 39.63500
C  35.19900 60.12700 40.83400
N  29.51800 60.01600 41.03700
C  30.73900 60.59100 41.25700
C  30.62200 62.10300 41.64200
C  29.11400 62.18000 41.80000
C  28.55000 60.85600 41.22600
C  31.36200 62.59300 42.97600
C  28.48100 63.45300 41.22400
C  27.45600 64.19000 42.14400
N  27.28000 58.32700 40.27000
C  26.57400 59.40100 40.68200
C  25.14200 59.11600 40.76500
C  25.10100 57.73000 40.36500
C  26.41400 57.35700 39.98600
C  24.15300 60.03800 41.39700
C  24.21800 56.57700 40.17500
O  23.04800 56.45700 40.40300
C  25.10600 55.43300 39.54100
C  25.00300 54.29800 40.49200
O  25.45800 54.39800 41.66200
O  24.49000 53.16400 39.88500
C  24.70900 51.91700 40.66000
H  31.95600 54.57900 38.76800
H  32.72400 60.62600 41.24200
H  26.45300 61.39800 41.30000
H  27.48300 53.36200 39.44500
H  29.65800 53.66700 37.47800
H  30.71800 53.00100 39.94900
H  30.55900 51.89400 38.56600
H  29.21200 52.08200 39.76200
H  26.19400 52.93700 37.40300
H  27.89200 52.70700 36.81000
H  26.84800 55.45600 36.43400
H  25.92800 54.15000 35.66300
H  34.96400 56.37000 37.90100
H  33.85600 55.10600 38.26700
H  35.12000 55.48900 39.46700
H  34.80800 61.01900 40.34500
H  36.27500 60.28500 40.89300
H  34.94100 60.18100 41.89200
H  31.02600 62.59500 40.75700
H  28.88900 62.06600 42.86000
H  31.91500 61.77900 43.44300
H  30.67400 63.08300 43.66500
H  32.13100 63.26300 42.59100
H  27.88000 63.30800 40.32700
H  29.27200 64.15300 40.95300
H  26.48900 64.40800 41.69300
H  27.86200 65.13900 42.49500
H  27.23800 63.61800 43.04600
H  24.60100 60.74000 42.10000
H  23.44300 59.50900 42.03100
H  23.48700 60.56300 40.71200
H  24.78200 55.15200 38.53900
H  24.35100 52.02500 41.68300
H  25.78400 51.78400 40.78800
H  24.20400 51.15000 40.07300
Mg -6.14600 24.95900 25.86800
C  -4.26000 26.25700 28.54900
C  -8.09600 23.24400 28.25500
C  -7.38800 23.37500 23.35700
C  -3.82600 26.52000 23.63800
N  -5.89900 24.50600 28.13900
C  -5.32100 25.41300 28.97100
C  -5.72300 25.15900 30.48300
C  -6.58200 23.87700 30.32500
C  -6.87900 23.80900 28.83800
C  -5.99000 22.59300 30.84800
C  -6.46500 26.44600 31.05300
C  -6.47000 26.52200 32.62100
H  -5.77200 25.42200 33.49900
N  -7.73600 23.66700 25.78000
C  -8.40100 23.07200 26.79800
C  -9.49300 22.27600 26.23300
C  -9.24600 22.21500 24.80200
C  -8.08300 23.10900 24.55000
C  -10.35000 21.35000 27.09000
C  -9.92900 21.36500 23.74700
O  -9.52000 21.38500 22.61300
C  -11.11400 20.51200 23.97700
N  -5.57200 24.90900 23.73700
C  -6.31000 24.14800 22.89600
C  -5.75600 24.26800 21.41900
C  -4.74700 25.44400 21.56200
C  -4.68100 25.66900 23.04400
C  -5.03100 23.03700 20.78000
C  -5.17700 26.76500 20.75100
C  -4.34200 27.06900 19.52100
N  -4.39200 26.21600 25.99100
C  -3.61200 26.76000 25.02000
C  -2.59600 27.56900 25.67900
C  -2.77400 27.40700 27.02800
C  -3.90900 26.59200 27.19200
C  -1.49700 28.31700 24.93000
C  -2.24300 27.73500 28.35500
O  -1.25300 28.41900 28.71200
C  -3.14400 26.95400 29.34900
C  -2.34500 26.03500 30.29800
O  -1.66300 25.07000 29.97500
O  -2.42800 26.53100 31.62800
C  -1.49000 26.04800 32.69200
H  -8.74600 22.81500 29.02100
H  -7.81400 22.83400 22.50900
H  -3.06400 26.95200 22.98600
H  -4.82200 24.94400 31.05700
H  -7.54700 24.07700 30.79000
H  -4.96000 22.69100 31.19200
H  -6.15300 21.80500 30.11300
H  -6.56100 22.16300 31.67100
H  -7.50500 26.28400 30.76800
H  -6.00200 27.29300 30.54700
H  -7.49600 26.55900 32.98700
H  -6.07600 27.50300 32.88700
H  -10.49100 20.37200 26.63000
H  -11.33400 21.81000 27.18200
H  -10.07600 21.18900 28.13200
H  -10.69000 19.52400 24.16000
H  -11.76600 20.43300 23.10700
H  -11.59700 20.97600 24.83600
H  -6.65700 24.65000 20.94100
H  -3.71900 25.25800 21.25000
H  -5.16200 22.13400 21.37600
H  -3.97600 23.18900 20.55200
H  -5.64400 22.76200 19.92200
H  -5.20500 27.70900 21.29600
H  -6.23400 26.76700 20.48400
H  -3.84400 26.20600 19.07900
H  -3.59200 27.85100 19.64300
H  -4.94800 27.55700 18.75800
H  -0.73400 27.57500 24.69500
H  -1.14400 29.13300 25.56000
H  -2.02600 28.86600 24.15100
H  -3.76200 27.57000 30.00200
H  -0.52600 25.73800 32.29000
H  -1.86000 25.24000 33.32200
H  -1.34500 26.88500 33.37600

