158

Mg 54.48100 23.68600 44.27600
C  51.65800 25.68500 43.40100
C  52.75700 21.03700 42.78400
C  57.23100 21.87300 44.43100
C  55.97300 26.52000 45.48800
N  52.48800 23.47900 43.01100
C  51.56100 24.40900 42.82200
C  50.33600 23.84100 42.11900
C  50.47000 22.31900 42.42800
C  51.99300 22.25900 42.75900
C  49.61000 21.74200 43.65000
C  50.29800 24.04600 40.53700
C  48.82300 23.95300 39.96500
H  48.52200 23.31500 38.66700
N  54.92100 21.74600 43.75100
C  54.02100 20.77000 43.21400
C  54.75000 19.52700 43.08300
C  56.09200 19.77800 43.42000
C  56.13400 21.21300 43.84000
C  54.12300 18.21500 42.67400
C  57.30200 18.77200 43.24200
O  57.03800 17.58700 42.99900
C  58.74800 19.10100 43.55500
N  56.42100 24.07100 44.82300
C  57.40100 23.18900 44.95700
C  58.73200 23.87600 45.35300
C  58.37400 25.46000 45.34200
C  56.80800 25.38800 45.26100
C  59.09100 23.39800 46.76900
C  58.96500 26.18000 44.07700
C  58.06000 26.40300 42.81600
N  53.92400 25.73000 44.55800
C  54.58500 26.72100 45.14700
C  53.70500 27.86000 45.33900
C  52.49100 27.45800 44.70000
C  52.67800 26.19800 44.24700
C  54.07000 29.19400 45.98000
C  51.13800 27.92200 44.33900
O  50.43000 28.90500 44.62900
C  50.54900 26.68100 43.44300
C  50.04700 27.24100 42.15500
O  50.56300 27.88700 41.30000
O  48.68800 27.15300 42.13000
C  47.92700 28.06800 41.22400
H  52.10200 20.17800 42.61900
H  58.20400 21.37700 44.44300
H  56.39900 27.38000 46.00700
H  49.46200 24.29000 42.58900
H  50.27100 21.64400 41.59500
H  49.01000 20.86400 43.40800
H  49.12500 22.56800 44.17100
H  50.44700 21.28100 44.17400
H  50.87500 23.30000 39.99000
H  50.68600 25.04900 40.35900
H  48.52500 25.00100 39.92200
H  48.21300 23.42900 40.70200
H  54.49000 17.97300 41.67600
H  53.05500 18.37200 42.52900
H  54.39200 17.38400 43.32600
H  59.13500 19.91800 42.94600
H  59.30200 18.18700 43.33700
H  58.82800 19.37800 44.60600
H  59.39100 23.60500 44.52900
H  58.73300 25.96300 46.24000
H  58.97000 22.31900 46.86700
H  58.27500 23.76200 47.39300
H  60.10900 23.62800 47.08100
H  59.84200 25.65100 43.70300
H  59.39500 27.12700 44.40300
H  57.78500 27.45800 42.81800
H  57.10800 25.87200 42.84000
H  58.47900 26.05500 41.87200
H  54.57900 29.07500 46.93600
H  53.12000 29.72900 46.00100
H  54.72400 29.58400 45.20000
H  49.65800 26.30000 43.94200
H  48.37500 29.04100 41.42300
H  46.91000 28.14400 41.61000
H  47.84800 27.76500 40.18000
Mg 29.93500 58.90500 39.26900
C  27.23800 56.72500 38.40200
C  32.14200 56.39900 38.42300
C  32.38500 61.09000 39.61900
C  27.54500 61.50500 39.59600
N  29.70500 56.81000 38.50800
C  28.55000 56.22400 38.14400
C  28.92200 54.88700 37.33300
C  30.35000 54.55200 37.84400
C  30.80500 56.01800 38.27600
C  30.29200 53.60100 39.00000
C  28.74300 55.04000 35.77200
C  27.72500 54.14800 35.20700
H  26.49800 54.61000 34.37100
N  31.89000 58.74000 39.17400
C  32.67100 57.63600 38.90500
C  34.09100 57.91600 39.12700
C  34.26100 59.32800 39.46700
C  32.78400 59.82800 39.41500
C  35.15700 56.79900 39.01400
C  35.56400 60.02600 39.77100
O  36.64300 59.42200 39.84300
C  35.63000 61.49800 39.95800
N  29.92800 60.96400 39.44000
C  31.12000 61.61600 39.52200
C  30.89100 63.11300 39.70500
C  29.32900 63.27400 39.58500
C  28.92100 61.82200 39.52300
C  31.38100 63.72800 41.06400
C  28.91600 64.27200 38.45800
C  28.67900 65.72000 38.73700
N  27.86600 59.08000 39.26100
C  27.02100 60.23000 39.33400
C  25.68000 59.76700 39.11200
C  25.66500 58.41600 38.81900
C  27.07600 58.05100 38.85400
C  24.50000 60.63900 39.28300
C  24.81100 57.26900 38.40100
O  23.62200 57.13500 38.33800
C  25.80200 56.11600 38.09200
C  25.36800 54.99700 38.93300
O  25.65600 54.75200 40.11000
O  24.43700 54.28300 38.17700
C  23.83800 53.08500 38.80900
H  32.78900 55.55900 38.16500
H  33.23400 61.75400 39.79200
H  26.93200 62.40200 39.70800
H  28.21900 54.15400 37.72800
H  31.00300 54.19700 37.04600
H  29.29000 53.29100 39.29800
H  30.72400 54.08900 39.87400
H  30.98600 52.77200 38.86400
H  29.73400 55.02800 35.31800
H  28.33400 56.04500 35.66400
H  27.21000 53.66700 36.03900
H  28.27000 53.35800 34.69100
H  36.16000 57.22100 38.96500
H  35.04300 56.17200 38.13000
H  34.95100 56.15700 39.87100
H  36.66800 61.78500 40.12400
H  35.08300 61.72800 40.87300
H  35.28400 61.99700 39.05300
H  31.40800 63.64700 38.90800
H  28.92400 63.84200 40.42300
H  31.59500 64.76400 40.80200
H  32.37800 63.36500 41.31300
H  30.62100 63.57300 41.83000
H  28.04300 63.82800 37.98000
H  29.69200 64.19700 37.69600
H  27.60400 65.87900 38.82700
H  29.09500 66.24600 37.87800
H  29.29000 66.09800 39.55700
H  24.05900 60.77400 38.29500
H  24.91300 61.54000 39.73800
H  23.71300 60.16900 39.87300
H  25.71900 55.78300 37.05800
H  22.87100 52.87600 38.35200
H  23.65600 53.20900 39.87700
H  24.40200 52.17800 38.59100

