158

Mg 17.11800 -1.96200 27.35500
C  15.97000 -0.09700 30.11600
C  19.39600 -3.59600 29.43700
C  18.67100 -3.23600 24.64200
C  15.28300 0.22000 25.33600
N  17.64100 -1.76500 29.54100
C  16.95500 -0.97700 30.47200
C  17.66500 -1.13500 31.84600
C  18.79100 -2.21200 31.58400
C  18.66900 -2.55900 30.06100
C  20.24700 -1.79200 31.88100
C  16.67100 -1.58800 32.98900
C  16.63000 -0.78700 34.22300
H  17.79800 -0.03200 34.70700
N  18.70500 -3.40100 27.05800
C  19.40600 -4.03300 28.09400
C  20.21300 -5.11300 27.50800
C  19.93500 -5.02300 26.09900
C  19.15500 -3.80600 25.84600
C  21.13800 -6.02200 28.27900
C  20.41900 -5.96100 24.97700
O  20.19600 -5.71900 23.83700
C  21.05800 -7.21900 25.32900
N  17.06900 -1.52600 25.24500
C  17.81100 -2.19000 24.35000
C  17.44300 -1.78500 22.91000
C  16.28400 -0.72500 23.12300
C  16.17700 -0.69900 24.66700
C  18.72500 -1.34800 22.15300
C  14.93900 -0.76900 22.25600
C  14.93600 -0.07600 20.85600
N  15.74600 -0.44600 27.58800
C  15.01300 0.28800 26.68000
C  14.21000 1.21500 27.38700
C  14.53000 1.10300 28.72600
C  15.52700 0.08000 28.82100
C  13.42300 2.28900 26.78100
C  14.24300 1.64700 29.98700
O  13.48700 2.52500 30.44700
C  15.20400 0.95500 31.01100
C  16.05300 1.99200 31.62300
O  16.87700 2.71400 31.07500
O  15.68600 2.18800 32.88600
C  16.32800 3.39700 33.48200
H  20.05300 -4.14500 30.11500
H  19.02600 -3.76600 23.75600
H  14.82100 0.94800 24.66600
H  18.13200 -0.20500 32.17100
H  18.57400 -3.14600 32.10100
H  20.29600 -0.76400 32.24100
H  20.91700 -1.93800 31.03300
H  20.68800 -2.43500 32.64300
H  16.74800 -2.63400 33.28500
H  15.66400 -1.41000 32.61300
H  16.21300 -1.39100 35.02800
H  15.82600 -0.07400 34.04100
H  22.17500 -5.98300 27.94600
H  20.72900 -7.02800 28.18400
H  21.20200 -5.80300 29.34500
H  22.10700 -7.09000 25.59500
H  21.03800 -7.69800 24.35000
H  20.41500 -7.65400 26.09400
H  17.11300 -2.73800 22.49600
H  16.71100 0.25600 22.91500
H  19.59300 -1.18200 22.79100
H  18.48100 -0.39700 21.67900
H  19.01100 -1.99600 21.32400
H  14.10700 -0.40400 22.85900
H  14.73400 -1.81900 22.04600
H  14.21700 0.73400 20.73400
H  14.61100 -0.82300 20.13200
H  15.93500 0.28200 20.60700
H  12.65600 1.89300 26.11500
H  14.12000 2.86300 26.17100
H  12.96700 2.91200 27.55000
H  14.56600 0.54100 31.79100
H  15.81400 4.31500 33.19800
H  17.39300 3.62400 33.42200
H  16.18700 3.38500 34.56300
Mg 10.11500 47.79300 25.92500
C  8.29300 48.11300 29.07600
C  12.89000 49.07300 27.64600
C  11.71800 47.66300 23.08700
C  7.03500 47.05000 24.45600
N  10.51200 48.54300 28.10800
C  9.65700 48.45900 29.21800
C  10.46600 48.83400 30.47900
C  11.79900 49.49600 29.91700
C  11.75300 48.88700 28.50700
C  11.83600 51.04400 29.90400
C  10.69800 47.62700 31.50700
C  10.38100 48.00900 32.96400
H  10.26200 46.89600 34.06200
N  12.08800 48.34500 25.36700
C  13.07400 48.89600 26.19800
C  14.27500 49.03200 25.40000
C  13.92500 48.60900 24.07200
C  12.51100 48.23100 24.11600
C  15.57000 49.53700 25.98400
C  14.72900 48.51300 22.83400
O  14.25900 48.26900 21.74000
C  16.18700 48.74000 22.88300
N  9.47800 47.47100 24.08400
C  10.33500 47.34700 23.08400
C  9.66800 46.94100 21.78000
C  8.22100 46.55700 22.22500
C  8.22400 47.05300 23.61500
C  9.62100 48.03200 20.58800
C  7.93500 45.00700 22.19300
C  8.88100 44.13300 23.13500
N  8.04200 47.65100 26.53100
C  6.89200 47.41000 25.82800
C  5.68900 47.41800 26.64500
C  6.21200 47.56900 27.96100
C  7.63000 47.69900 27.84500
C  4.30900 47.37200 26.16600
C  5.91100 47.64900 29.35500
O  4.82900 47.65600 29.89400
C  7.20900 47.88300 30.18500
C  7.30100 46.68200 31.00900
O  7.76500 45.61200 30.62300
O  6.87900 46.88700 32.33800
C  6.85500 45.71400 33.13000
H  13.78400 49.22300 28.25500
H  12.09500 47.48400 22.07800
H  6.10500 46.73500 23.97700
H  9.87200 49.62300 30.94000
H  12.71700 49.25200 30.45200
H  11.97900 51.35600 28.86900
H  12.60900 51.36900 30.60000
H  10.86800 51.36400 30.29000
H  11.72100 47.26700 31.39500
H  9.97900 46.84700 31.25800
H  9.56700 48.73300 32.99900
H  11.22800 48.57100 33.35700
H  15.45300 49.79500 27.03700
H  15.96400 50.34700 25.37000
H  16.33500 48.76100 25.95400
H  16.50900 49.77100 22.74000
H  16.48900 48.11800 22.04100
H  16.71200 48.31900 23.74000
H  10.23400 46.08500 21.41200
H  7.43200 47.03200 21.64200
H  10.57600 48.03700 20.06300
H  9.39200 49.01200 21.00700
H  8.77700 47.75400 19.95600
H  8.04000 44.69800 21.15400
H  6.87100 44.93400 22.41800
H  8.29100 43.61500 23.89100
H  9.76900 44.71300 23.38400
H  9.20500 43.34500 22.45500
H  3.65600 47.32200 27.03700
H  4.19400 46.49200 25.53300
H  4.02100 48.33000 25.73200
H  6.96700 48.78900 30.74200
H  7.59800 45.90100 33.90600
H  7.10700 44.73600 32.72100
H  5.88700 45.70300 33.63100

