158

Mg 16.59200 -2.42800 28.86700
C  15.50000 -0.41500 31.50400
C  18.37500 -4.24500 31.01900
C  17.59500 -4.20000 26.25300
C  14.95100 -0.20200 26.64700
N  17.01600 -2.20900 31.01500
C  16.40900 -1.36800 31.95600
C  16.93500 -1.59400 33.39900
C  17.89000 -2.82500 33.09800
C  17.71800 -3.16700 31.60300
C  19.35900 -2.57900 33.63800
C  15.84600 -1.84300 34.47800
C  15.94300 -0.89700 35.70400
H  17.32800 -0.37100 36.13200
N  17.82600 -4.11200 28.63500
C  18.49000 -4.67400 29.66000
C  19.11800 -5.90300 29.19300
C  19.01800 -5.87900 27.73600
C  18.15100 -4.69900 27.46100
C  19.87800 -6.86300 30.07300
C  19.61500 -6.78800 26.71600
O  19.29500 -6.65900 25.55100
C  20.51200 -7.87600 27.03600
N  16.31400 -2.23700 26.76300
C  16.76300 -3.10000 25.89300
C  16.36700 -2.70300 24.40200
C  15.29600 -1.63100 24.65900
C  15.50200 -1.33900 26.08500
C  17.49400 -2.36400 23.48800
C  13.84600 -2.10100 24.37100
C  13.60400 -2.42900 22.89900
N  15.48500 -0.65600 28.96200
C  14.93900 0.20800 27.98600
C  14.11400 1.32400 28.61100
C  14.25800 1.05200 29.97200
C  15.15500 -0.11500 30.13300
C  13.19400 2.30400 28.02400
C  13.85900 1.48000 31.31600
O  13.00300 2.28600 31.69100
C  14.84100 0.64600 32.34400
C  15.69700 1.58900 33.02300
O  16.94800 1.65500 32.88600
O  15.01200 2.33500 33.93900
C  15.85400 3.27600 34.68700
H  18.94300 -4.87800 31.70400
H  18.08000 -4.65400 25.38600
H  14.43800 0.36300 25.86700
H  17.57100 -0.73600 33.61400
H  17.73000 -3.70500 33.72200
H  20.09900 -2.88800 32.90000
H  19.47900 -3.26800 34.47300
H  19.58700 -1.57500 33.99700
H  15.78000 -2.85800 34.87000
H  14.92200 -1.74400 33.90700
H  15.49500 -1.47100 36.51500
H  15.35100 0.01100 35.59000
H  19.34200 -6.82100 31.02100
H  20.86900 -6.43100 30.21400
H  19.99500 -7.93300 29.90500
H  21.29400 -7.40800 27.63400
H  20.91000 -8.26900 26.10100
H  20.05300 -8.66600 27.63000
H  15.79000 -3.47500 23.89200
H  15.46600 -0.66700 24.18000
H  18.36600 -2.31300 24.14100
H  17.34000 -1.40700 22.99100
H  17.64900 -3.12800 22.72700
H  13.13400 -1.31700 24.62900
H  13.44700 -2.92200 24.96700
H  12.77300 -1.87000 22.47000
H  13.30600 -3.47200 22.79300
H  14.47400 -2.27900 22.26000
H  12.21900 1.81900 27.96600
H  13.39800 2.66000 27.01500
H  13.30200 3.17100 28.67600
H  14.23500 0.16700 33.11200
H  15.83400 4.21400 34.13300
H  16.88300 3.01200 34.93000
H  15.33000 3.37600 35.63700
Mg 35.48500 2.11300 30.41700
C  33.37300 3.38100 32.99400
C  38.12400 2.11800 32.62500
C  37.33600 1.21500 27.76700
C  32.74500 2.66500 28.05500
N  35.65300 2.59200 32.50000
C  34.69500 3.10700 33.35400
C  35.19700 3.43400 34.76600
C  36.73000 3.44600 34.45100
C  36.85600 2.65000 33.08100
C  37.38000 4.87000 34.51600
C  34.74300 2.40600 35.88000
C  34.43200 2.99900 37.35000
H  35.20800 4.21200 37.82900
N  37.45400 1.49300 30.31500
C  38.41600 1.53700 31.29700
C  39.65000 0.97900 30.80500
C  39.45400 0.73800 29.43600
C  38.03500 1.13600 29.08600
C  40.90500 0.95200 31.67400
C  40.43000 0.14600 28.35400
O  40.08300 0.04200 27.15500
C  41.82100 -0.22000 28.67400
N  35.06200 1.83200 28.28900
C  36.06300 1.59300 27.46300
C  35.65300 1.73400 26.02800
C  34.12500 2.15200 26.05000
C  33.94200 2.22700 27.56700
C  36.54800 2.61200 25.15500
C  33.20100 1.18000 25.27300
C  32.04400 1.95800 24.54900
N  33.46300 2.75100 30.50000
C  32.46400 2.86000 29.45000
C  31.25100 3.26400 30.09600
C  31.52200 3.43900 31.47300
C  32.87400 3.15800 31.65600
C  29.90500 3.46300 29.37900
C  30.96700 3.79400 32.78500
O  29.88900 4.11700 33.13900
C  32.13600 3.74000 33.82900
C  32.30200 5.08900 34.49700
O  32.77500 6.07200 33.97500
O  31.58500 5.09400 35.63800
C  31.36600 6.31900 36.42500
H  38.90300 2.14400 33.39000
H  37.86500 0.89900 26.86600
H  31.86400 2.71800 27.41200
H  34.84900 4.44000 34.99800
H  37.32800 2.99900 35.24500
H  37.71400 5.10900 33.50700
H  38.17900 4.82800 35.25700
H  36.68100 5.59700 34.92800
H  35.55300 1.68700 36.00200
H  33.81800 2.01200 35.46000
H  34.45700 2.18300 38.07200
H  33.41500 3.38900 37.31700
H  41.81700 0.98400 31.07800
H  40.85400 0.02000 32.23700
H  40.94100 1.85700 32.28000
H  42.49300 0.62100 28.50200
H  42.06400 -1.10800 28.09000
H  41.89600 -0.58800 29.69800
H  35.87500 0.72600 25.67700
H  33.84500 3.17900 25.81700
H  35.91800 3.08700 24.40300
H  37.32100 2.00200 24.68800
H  37.04700 3.33400 25.80200
H  32.81000 0.33400 25.83800
H  33.78800 0.76400 24.45400
H  32.23600 3.02400 24.42800
H  31.14800 1.78700 25.14500
H  31.96000 1.59400 23.52500
H  29.04500 3.74100 29.98800
H  29.68100 2.49500 28.93000
H  30.09400 4.14700 28.55100
H  31.98100 2.98400 34.59900
H  30.32300 6.63400 36.38700
H  31.90200 7.17400 36.01200
H  31.74500 5.99700 37.39500

