158

Mg 24.85200 -4.30100 45.71500
C  27.16600 -2.11200 44.17300
C  22.46000 -3.48400 43.26300
C  22.76900 -7.00900 46.60000
C  27.26100 -5.55900 47.83700
N  24.87900 -2.93100 43.86000
C  25.93400 -2.11000 43.47700
C  25.52900 -1.25700 42.32100
C  23.95100 -1.58500 42.14300
C  23.68700 -2.72800 43.14700
C  22.91900 -0.38500 42.37900
C  26.41000 -1.48500 41.02800
C  26.12400 -0.49600 39.85100
H  25.87900 -1.06500 38.45800
N  22.87800 -5.06900 45.10100
C  22.05500 -4.49900 44.16600
C  20.79000 -5.27600 44.07900
C  20.88900 -6.34100 44.98800
C  22.20100 -6.21900 45.60100
C  19.70900 -4.93400 43.15100
C  19.77600 -7.35700 45.20300
O  18.85600 -7.44900 44.41600
C  19.79000 -8.36800 46.30100
N  25.02700 -6.07600 46.93700
C  24.02100 -7.00100 47.17500
C  24.57300 -8.09700 48.11700
C  25.94200 -7.57900 48.65000
C  26.07900 -6.29800 47.80600
C  23.52200 -8.52200 49.15900
C  27.09500 -8.61600 48.62400
C  27.54200 -9.26500 49.99100
N  26.79800 -3.87000 46.06500
C  27.69300 -4.46300 46.95700
C  28.89200 -3.77900 46.80400
C  28.81800 -2.85500 45.72000
C  27.50400 -2.97900 45.29100
C  30.10000 -4.17400 47.66400
C  29.47900 -1.96200 44.85600
O  30.65200 -1.59800 44.72500
C  28.40100 -1.29000 43.93400
C  28.24600 0.10400 44.34000
O  27.75800 0.49100 45.42200
O  28.66400 0.92800 43.29200
C  28.70800 2.27600 43.62300
H  21.66600 -3.17500 42.58000
H  22.20600 -7.93600 46.73000
H  28.07400 -5.82600 48.51500
H  25.55700 -0.19300 42.55300
H  23.82800 -1.99900 41.14200
H  23.43400 0.50100 42.75100
H  22.16500 -0.67500 43.11100
H  22.40800 -0.02800 41.48500
H  26.35900 -2.54500 40.77700
H  27.41500 -1.19300 41.33200
H  26.98000 0.17700 39.80800
H  25.34400 0.17500 40.21200
H  19.87700 -5.55000 42.26800
H  19.64300 -3.87700 42.89200
H  18.72000 -5.10800 43.57400
H  20.40300 -9.23400 46.05000
H  18.77700 -8.74900 46.42500
H  20.00300 -7.93300 47.27800
H  24.80700 -8.94900 47.48000
H  25.72500 -7.12400 49.61600
H  23.87500 -8.31000 50.16900
H  23.43800 -9.60100 49.02700
H  22.52700 -8.09100 49.05300
H  27.93900 -8.04600 48.23700
H  26.86200 -9.44800 47.96000
H  26.95300 -8.81600 50.79100
H  28.58400 -9.00900 50.18200
H  27.40400 -10.34700 49.99300
H  30.35900 -5.23300 47.63600
H  30.01400 -3.78200 48.67700
H  30.85600 -3.66800 47.06400
H  28.74400 -1.38500 42.90400
H  28.10800 2.67000 44.44400
H  28.34600 2.77500 42.72400
H  29.75400 2.51500 43.81000
Mg 0.76200 42.52600 25.90700
C  2.49300 42.29800 28.97800
C  -2.13000 41.43100 27.57400
C  -0.84500 42.31500 22.96800
C  3.66400 43.41800 24.31800
N  0.27800 42.00300 28.02800
C  1.11600 42.10900 29.17800
C  0.26100 41.91900 30.45400
C  -1.14800 41.66300 29.91400
C  -1.02900 41.67300 28.37500
C  -1.85000 40.35600 30.48400
C  0.38300 43.22100 31.42000
C  0.44300 43.01000 32.96600
H  0.17800 41.68300 33.61200
N  -1.19500 41.85100 25.35000
C  -2.20300 41.46300 26.15800
C  -3.42600 41.26200 25.37600
C  -3.09000 41.59300 24.03200
C  -1.64600 41.91100 24.04700
C  -4.66400 40.66500 26.06200
C  -4.02600 41.65600 22.85100
O  -3.63300 41.85800 21.76900
C  -5.52200 41.51600 23.12400
N  1.46100 42.51100 23.86300
C  0.52300 42.60900 22.87400
C  1.27200 42.75300 21.50500
C  2.52000 43.54300 22.01000
C  2.61000 43.08900 23.48300
C  1.53800 41.39200 20.92200
C  2.53400 45.11000 21.79100
C  3.66600 45.71200 20.90400
N  2.70800 42.84500 26.50600
C  3.75800 43.19300 25.72900
C  4.88700 43.22100 26.53400
C  4.47600 43.00000 27.85500
C  3.15300 42.65200 27.76900
C  6.29100 43.52600 26.01500
C  4.89800 42.92100 29.24300
O  5.98300 42.99000 29.83200
C  3.57800 42.55100 30.03400
C  4.00700 41.35700 30.78200
O  4.21700 40.22700 30.37800
O  3.95400 41.65500 32.20100
C  4.10500 40.55600 33.07500
H  -3.06000 41.15800 28.07700
H  -1.32100 42.38800 21.98800
H  4.56100 43.77200 23.80600
H  0.57100 41.04100 31.02100
H  -1.83800 42.45300 30.21300
H  -1.52300 40.20600 31.51200
H  -1.66200 39.46400 29.88700
H  -2.92200 40.52400 30.38000
H  -0.42600 43.92000 31.20800
H  1.27200 43.77300 31.11500
H  -0.24000 43.72600 33.42300
H  1.35700 43.35100 33.45300
H  -4.55400 40.32900 27.09300
H  -5.02400 39.84200 25.44600
H  -5.38200 41.48100 25.98100
H  -5.85100 40.66500 23.72000
H  -6.06300 41.41400 22.18400
H  -5.73100 42.46900 23.61000
H  0.63900 43.33300 20.83400
H  3.42400 43.18100 21.52100
H  1.78200 40.64800 21.68100
H  2.46200 41.54600 20.36400
H  0.78700 40.92500 20.28400
H  2.72100 45.48300 22.79800
H  1.59700 45.38500 21.30600
H  4.22500 46.38700 21.55300
H  3.34300 46.42600 20.14700
H  4.35600 44.98200 20.48000
H  7.01400 43.07600 26.69600
H  6.47700 44.56200 25.73200
H  6.51800 42.95300 25.11600
H  3.37500 43.37600 30.71700
H  4.94800 39.91100 32.82900
H  3.24500 39.89100 33.00300
H  4.25800 41.01000 34.05500

