158

Mg -0.32700 7.33400 26.24500
C  0.95900 9.26000 28.96900
C  -0.64800 4.78300 28.59600
C  -1.40300 5.38600 23.85600
C  0.27900 9.99700 24.11700
N  0.04300 7.09800 28.50600
C  0.53300 8.04200 29.43700
C  0.38500 7.63000 30.88800
C  0.07500 6.09600 30.68200
C  -0.20300 5.98800 29.14100
C  1.23800 5.21500 31.19600
C  -0.68400 8.44300 31.61600
C  -0.85600 8.24600 33.16300
H  0.21000 7.64600 34.02300
N  -0.77100 5.28600 26.17300
C  -0.88400 4.41500 27.24900
C  -1.42900 3.12800 26.75500
C  -1.80500 3.34900 25.41500
C  -1.36000 4.71500 25.10200
C  -1.55000 1.88500 27.62800
C  -2.28300 2.30100 24.41600
O  -2.49000 2.65500 23.26200
C  -2.43100 0.84700 24.76300
N  -0.52600 7.62700 24.27000
C  -1.04300 6.69700 23.45300
C  -1.49300 7.26500 22.05700
C  -1.12400 8.71000 22.22800
C  -0.43000 8.84700 23.60900
C  -0.86800 6.66500 20.75500
C  -2.35900 9.71900 22.15700
C  -2.23600 10.77600 21.11900
N  0.36000 9.21900 26.45700
C  0.69800 10.12900 25.46100
C  1.21200 11.36900 26.05600
C  1.37800 11.01400 27.40900
C  0.88800 9.71100 27.57300
C  1.50400 12.71100 25.39500
C  1.75100 11.63500 28.57500
O  2.26300 12.73300 28.85600
C  1.39600 10.58900 29.72900
C  2.57000 10.26600 30.58200
O  3.55000 9.72700 30.29200
O  2.50000 10.93100 31.77900
C  3.59100 10.79700 32.77200
H  -0.72600 4.00300 29.35600
H  -1.86300 4.93600 22.97400
H  0.57800 10.76100 23.39600
H  1.32900 7.77800 31.41300
H  -0.85000 5.85500 31.20500
H  1.65700 4.75600 30.30100
H  0.80800 4.48400 31.88100
H  1.99300 5.77900 31.74500
H  -1.66600 8.22100 31.19700
H  -0.53100 9.51500 31.49000
H  -1.77900 7.71300 33.39100
H  -0.93300 9.26500 33.54200
H  -1.30800 0.92400 27.17400
H  -2.58000 1.87000 27.98300
H  -0.86500 2.03600 28.46200
H  -2.85500 0.24500 23.95900
H  -2.98900 0.69000 25.68600
H  -1.47400 0.32500 24.78700
H  -2.55800 7.04900 22.14300
H  -0.28400 9.00000 21.59600
H  -1.41700 5.87000 20.25100
H  0.17500 6.38300 20.90500
H  -0.79100 7.51300 20.07400
H  -2.48200 10.08900 23.17500
H  -3.25900 9.18400 21.85800
H  -1.26200 10.77100 20.62900
H  -2.43200 11.71300 21.64000
H  -3.05000 10.70100 20.39800
H  0.65200 13.28000 25.02400
H  2.12200 12.45200 24.53500
H  2.04300 13.38800 26.05900
H  0.67000 11.09000 30.36900
H  4.49500 10.35900 32.34700
H  3.16000 10.21300 33.58500
H  3.76800 11.83900 33.03900
Mg 50.35500 35.53800 27.21300
C  47.94200 34.29600 29.51600
C  50.69300 38.34400 29.17700
C  52.17800 36.78200 24.78300
C  49.09900 33.24900 24.95400
N  49.46600 36.21400 29.09800
C  48.68500 35.38200 29.95800
C  48.69200 36.00700 31.36600
C  49.12400 37.48400 31.05000
C  49.84300 37.33600 29.71100
C  47.94300 38.52000 31.11600
C  49.70000 35.27500 32.30000
C  49.26900 35.23100 33.81100
H  48.24500 36.27600 34.34500
N  51.46900 37.24100 27.07600
C  51.53100 38.31700 28.00000
C  52.42000 39.38100 27.47500
C  52.86600 38.93400 26.20000
C  52.18000 37.60600 25.99400
C  52.79000 40.56400 28.32800
C  53.85400 39.54100 25.29600
O  54.11200 39.07600 24.22700
C  54.55700 40.81100 25.69400
N  50.73600 34.98100 25.22100
C  51.61600 35.62800 24.39400
C  51.73200 34.99400 23.06300
C  50.94500 33.69200 23.27500
C  50.15700 33.93600 24.58000
C  51.22400 35.96800 21.95100
C  51.87700 32.46000 23.32500
C  51.32200 31.20300 22.50700
N  48.81600 34.06500 27.15200
C  48.41700 33.23900 26.19200
C  47.34400 32.39000 26.61300
C  47.15800 32.75100 27.92700
C  48.01900 33.80200 28.17600
C  46.73000 31.28100 25.90500
C  46.38100 32.53200 29.14900
O  45.52100 31.71900 29.42100
C  46.85300 33.57800 30.21100
C  47.31400 32.72000 31.39000
O  48.39900 32.12500 31.43100
O  46.38000 32.67400 32.46600
C  46.72800 31.89600 33.59400
H  50.71300 39.22800 29.81700
H  52.66800 37.30600 23.96000
H  48.59200 32.50200 24.34000
H  47.68000 36.01900 31.76900
H  49.73600 37.77200 31.90400
H  47.96400 39.04700 30.16200
H  48.06500 39.26500 31.90100
H  46.99500 37.98300 31.14100
H  50.64100 35.82400 32.28000
H  49.94200 34.31200 31.85200
H  50.13100 35.34500 34.46800
H  48.94300 34.19900 33.94700
H  53.86800 40.55800 28.49000
H  52.27400 40.58000 29.28800
H  52.37000 41.42700 27.81300
H  53.82400 41.59700 25.87100
H  55.15200 41.25000 24.89300
H  55.27000 40.66700 26.50600
H  52.78000 34.84400 22.80600
H  50.25500 33.49900 22.45400
H  50.39100 35.35500 21.60800
H  51.97900 36.18100 21.19400
H  50.88800 36.89100 22.42500
H  51.86300 32.03400 24.32800
H  52.90700 32.66600 23.03400
H  52.21900 30.69000 22.16100
H  50.75700 31.40900 21.59800
H  50.72800 30.60200 23.19600
H  47.53900 30.70000 25.46300
H  46.01700 31.71100 25.20200
H  46.14500 30.59700 26.52000
H  46.01200 34.22900 30.45100
H  47.80100 31.80700 33.76200
H  46.21000 30.94500 33.46900
H  46.23500 32.40300 34.42400

