158

Mg 1.70300 -2.04400 44.11700
C  5.13600 -1.20300 44.03600
C  0.94100 0.83500 42.55300
C  -1.44000 -3.22300 43.80400
C  2.71200 -5.42300 45.00200
N  2.93200 -0.44200 43.23100
C  4.32100 -0.24200 43.41200
C  4.83500 1.13600 43.06600
C  3.46300 1.86800 42.74400
C  2.37500 0.69800 42.72000
C  3.06500 3.00100 43.77300
C  5.89800 1.21700 41.96900
C  5.82200 0.11200 40.94700
H  6.80300 0.16100 39.71600
N  -0.07200 -1.25700 43.30200
C  -0.16000 -0.03900 42.68500
C  -1.57500 0.20600 42.39400
C  -2.32100 -0.89900 42.84900
C  -1.30200 -1.83100 43.34500
C  -2.09400 1.49000 41.71700
C  -3.85300 -1.03200 42.85600
O  -4.54300 -0.09800 42.36000
C  -4.63700 -2.19500 43.35900
N  0.82000 -4.00400 44.28200
C  -0.50600 -4.16600 44.14500
C  -0.97100 -5.52900 44.52900
C  0.37000 -6.31500 44.95600
C  1.34700 -5.20200 44.73000
C  -2.06500 -5.62800 45.63000
C  0.53600 -7.57900 44.10500
C  0.34400 -8.84900 44.88900
N  3.52200 -3.10500 44.46300
C  3.75900 -4.48800 44.75500
C  5.19300 -4.64400 44.98000
C  5.77000 -3.35500 44.84800
C  4.70600 -2.49000 44.44400
C  5.88000 -5.89700 45.35600
C  7.00900 -2.64200 44.75200
O  8.14100 -2.95800 45.04200
C  6.58200 -1.19300 44.36200
C  6.91000 -0.20300 45.35800
O  6.42000 -0.17100 46.43600
O  7.74500 0.78700 44.85700
C  8.15400 1.71700 45.85100
H  0.66700 1.87600 42.36700
H  -2.48500 -3.49300 43.97200
H  3.06900 -6.41000 45.30600
H  5.25700 1.52200 43.99400
H  3.57600 2.31800 41.75800
H  2.16600 2.54700 44.18900
H  2.82500 3.88700 43.18500
H  3.79200 3.02200 44.58500
H  6.84600 1.14500 42.50300
H  5.91000 2.19100 41.47900
H  4.82200 0.12400 40.51100
H  5.91700 -0.89300 41.35900
H  -2.93200 1.43500 41.02300
H  -1.34000 1.94900 41.07700
H  -2.35400 2.19300 42.50900
H  -4.31600 -3.20400 43.10300
H  -5.68000 -2.18200 43.04200
H  -4.48200 -2.10400 44.43400
H  -1.42000 -5.85500 43.59000
H  0.37700 -6.46100 46.03700
H  -1.88900 -4.72000 46.20700
H  -1.91100 -6.49300 46.27500
H  -3.02500 -5.63500 45.11400
H  1.51600 -7.70200 43.64300
H  -0.15500 -7.63600 43.26400
H  -0.56200 -9.32700 44.51500
H  0.17500 -8.65700 45.94800
H  1.12800 -9.60500 44.92600
H  6.83200 -5.60200 45.79500
H  6.11100 -6.45300 44.44700
H  5.33300 -6.46000 46.11100
H  7.13400 -1.02100 43.43800
H  8.05600 2.70900 45.41100
H  9.19800 1.55500 46.11900
H  7.75500 1.62800 46.86100
Mg 0.43900 7.87900 26.30100
C  1.34900 9.74900 29.04400
C  0.36200 5.11000 28.36700
C  0.11200 5.98700 23.56000
C  1.16200 10.65700 24.34300
N  0.92600 7.44800 28.44000
C  1.10400 8.43600 29.40300
C  1.09400 7.80900 30.78700
C  1.18500 6.27000 30.58100
C  0.85200 6.25900 29.00400
C  2.60400 5.63200 30.81700
C  -0.23000 8.20500 31.55300
C  -0.35200 7.90600 33.04100
H  0.85500 7.28300 33.77600
N  0.07000 5.84500 26.03800
C  -0.01300 4.90200 26.98900
C  -0.46300 3.68600 26.37400
C  -0.65300 3.97700 24.94800
C  -0.15200 5.29800 24.78300
C  -0.71500 2.39000 27.06400
C  -1.28800 3.09600 23.85100
O  -1.41300 3.44800 22.66100
C  -1.81700 1.77300 24.13300
N  0.67800 8.26400 24.26300
C  0.47600 7.29500 23.32100
C  0.75700 7.80500 21.85300
C  1.09100 9.30700 22.12300
C  1.02400 9.42700 23.69700
C  1.81800 7.01300 21.03400
C  0.19900 10.38600 21.35800
C  -1.24100 10.36100 21.72600
N  1.11300 9.84000 26.58400
C  1.15700 10.92200 25.66200
C  1.36900 12.20000 26.36800
C  1.53500 11.70400 27.73300
C  1.26600 10.35400 27.75400
C  1.51500 13.57100 25.78400
C  1.78000 12.15100 29.04100
O  1.88600 13.36500 29.37600
C  1.58500 10.93700 29.96100
C  2.86900 10.97000 30.77900
O  3.83600 10.17000 30.62500
O  2.66600 11.81500 31.85700
C  3.58500 11.53300 32.99800
H  0.30400 4.19900 28.96600
H  0.03700 5.38300 22.65300
H  1.54600 11.50600 23.77400
H  1.93500 8.24200 31.32700
H  0.42000 5.69900 31.10700
H  3.16100 5.29800 29.94200
H  2.42000 4.70800 31.36400
H  3.18400 6.22200 31.52600
H  -1.07400 7.60300 31.21700
H  -0.53600 9.24000 31.39700
H  -1.16200 7.21100 33.25800
H  -0.60000 8.83700 33.55100
H  -1.77600 2.25300 27.27200
H  -0.22300 2.35500 28.03700
H  -0.31000 1.56600 26.47600
H  -0.91000 1.17300 24.20900
H  -2.24200 1.33200 23.23200
H  -2.45800 1.62900 25.00300
H  -0.21900 7.71600 21.37800
H  2.12200 9.55800 21.87200
H  2.60000 7.71600 20.75000
H  1.44100 6.52400 20.13600
H  2.31000 6.17100 21.52200
H  0.53600 10.42900 20.32200
H  0.49600 11.37500 21.70800
H  -1.57300 11.39200 21.84100
H  -1.37600 9.83500 22.67100
H  -1.86800 9.97600 20.92200
H  1.79700 14.29500 26.54900
H  0.61600 13.83700 25.22700
H  2.31500 13.61700 25.04500
H  0.70900 11.05200 30.60000
H  4.22000 12.40300 32.83300
H  4.16400 10.60900 32.98200
H  2.98700 11.69800 33.89400

