158

Mg 16.23200 52.50200 24.33700
C  18.13700 51.52200 27.19100
C  13.56300 53.20300 26.54900
C  14.25200 52.83600 21.72500
C  18.60500 50.83200 22.35100
N  15.89500 52.45200 26.61300
C  16.81300 52.02400 27.50400
C  16.25400 52.26000 28.93500
C  14.75300 52.69000 28.68800
C  14.72900 52.68600 27.17700
C  13.71100 51.72600 29.31400
C  17.03400 53.22200 29.70800
C  17.40200 52.80400 31.19100
H  16.53900 51.75800 31.93200
N  14.27200 53.20600 24.12300
C  13.39500 53.42700 25.15500
C  12.16900 53.94900 24.55500
C  12.26700 53.73600 23.14900
C  13.64200 53.27400 22.93900
C  10.94600 54.28700 25.37700
C  11.20100 54.05700 22.02500
O  11.41700 53.84700 20.85300
C  9.73300 54.57100 22.45200
N  16.49200 52.01100 22.45300
C  15.54000 52.28300 21.48100
C  15.90200 51.75400 20.14500
C  17.48000 51.46600 20.23900
C  17.49800 51.36000 21.78000
C  15.14100 50.37100 19.77500
C  18.30700 52.64000 19.81900
C  19.60900 52.17900 19.20400
N  18.00400 51.34700 24.68200
C  18.88400 50.76100 23.74800
C  20.00400 50.17300 24.45200
C  19.65500 50.43900 25.82800
C  18.51000 51.16600 25.89200
C  21.24000 49.61300 23.79900
C  20.16700 50.33300 27.15300
O  21.26800 49.86500 27.46900
C  19.11700 50.84600 28.18400
C  18.59300 49.71100 28.91000
O  17.72700 48.90900 28.58300
O  19.05000 49.77000 30.17300
C  18.77600 48.60900 31.01500
H  12.72000 53.50600 27.17300
H  13.64000 52.79800 20.82100
H  19.38800 50.37000 21.74600
H  16.23000 51.29800 29.44700
H  14.44300 53.69500 28.97600
H  14.17800 51.03900 30.01900
H  13.23400 51.17600 28.50300
H  13.10200 52.45900 29.84200
H  16.42600 54.12500 29.65800
H  17.95900 53.42500 29.16800
H  17.41700 53.72900 31.76700
H  18.37400 52.33600 31.34400
H  11.17900 54.76800 26.32800
H  10.45300 53.35500 25.65200
H  10.25500 54.96100 24.87100
H  9.14700 54.32300 21.56700
H  9.72000 55.63000 22.70900
H  9.31900 53.96500 23.25800
H  15.71800 52.48100 19.35400
H  17.82600 50.53400 19.79400
H  14.55500 50.61700 18.89000
H  14.43200 50.22500 20.59100
H  15.72400 49.45800 19.66300
H  18.65000 53.21200 20.68100
H  17.77700 53.28200 19.11500
H  19.68500 51.25000 18.63900
H  20.44500 52.31500 19.89000
H  19.81100 52.83800 18.36000
H  22.04300 50.15600 24.29800
H  21.24900 49.95400 22.76300
H  21.33100 48.54400 23.99000
H  19.56200 51.58100 28.85400
H  19.27500 48.79500 31.96600
H  19.17700 47.73400 30.50400
H  17.73200 48.45800 31.29100
Mg 0.12700 43.79000 26.75000
C  2.49800 43.57800 29.24500
C  -2.22700 42.65400 28.78700
C  -1.92000 43.41000 24.00300
C  2.72500 44.33300 24.54000
N  0.15400 43.14200 28.75900
C  1.18500 43.29700 29.66500
C  0.71400 43.00500 31.05800
C  -0.78000 42.54200 30.98500
C  -0.98900 42.79800 29.37400
C  -1.20800 41.18100 31.51400
C  0.81700 44.30700 31.95800
C  0.92600 44.15400 33.51500
H  0.84500 42.67300 34.08500
N  -1.90000 43.13400 26.50300
C  -2.71700 42.71400 27.46600
C  -4.03400 42.55100 26.92200
C  -3.98800 42.77300 25.51700
C  -2.60100 43.15000 25.26300
C  -5.28000 42.49000 27.77100
C  -5.09700 42.84000 24.48800
O  -4.90000 43.28400 23.35100
C  -6.48500 42.40900 24.80400
N  0.39000 43.83200 24.46800
C  -0.62700 43.65600 23.64400
C  -0.13300 43.92900 22.13500
C  1.33100 44.40000 22.34700
C  1.49600 44.12200 23.87000
C  -0.43900 42.79100 21.16500
C  1.69100 45.86500 21.91600
C  1.74300 47.01900 22.96700
N  2.19500 44.06100 26.86900
C  3.13700 44.21000 25.82400
C  4.51000 44.23200 26.34400
C  4.32600 43.93300 27.70300
C  2.89600 43.83800 27.94000
C  5.84100 44.39200 25.50100
C  4.94200 43.58700 29.02800
O  6.09700 43.36100 29.31300
C  3.79000 43.44000 30.05000
C  4.01700 42.05600 30.52300
O  3.87300 40.99600 29.91900
O  4.37600 42.15900 31.85700
C  4.91200 40.93800 32.48300
H  -2.98500 42.30100 29.49000
H  -2.64900 43.40200 23.19000
H  3.52600 44.64100 23.86500
H  1.33400 42.17900 31.40500
H  -1.34800 43.31800 31.50000
H  -1.58900 40.60800 30.66800
H  -2.03800 41.27600 32.21300
H  -0.44900 40.56200 31.99400
H  -0.07100 44.93900 31.97300
H  1.63000 45.00000 31.74200
H  0.03200 44.56700 33.98400
H  1.76900 44.70900 33.92500
H  -6.23900 42.80200 27.35800
H  -5.11700 42.98800 28.72600
H  -5.51600 41.44000 27.94600
H  -6.91500 42.13400 23.84100
H  -7.15500 43.17800 25.19000
H  -6.48200 41.51100 25.42000
H  -0.78200 44.75800 21.85100
H  2.01200 43.66400 21.92100
H  -0.36400 41.87400 21.74900
H  0.29300 42.67000 20.36600
H  -1.45300 43.01800 20.83800
H  0.92300 46.17800 21.20800
H  2.65200 45.84100 21.40300
H  2.77500 47.36500 23.02200
H  1.40400 46.75400 23.96900
H  1.11600 47.81100 22.55800
H  6.47800 43.54300 25.74900
H  6.30000 45.36900 25.65500
H  5.57500 44.39500 24.44400
H  3.72700 44.04500 30.95500
H  5.97100 41.04400 32.71900
H  4.94900 40.10300 31.78400
H  4.22500 40.74700 33.30800

