158

Mg 24.84500 -6.41600 47.57000
C  27.24900 -4.10800 46.48200
C  22.65400 -5.19300 45.12300
C  22.70300 -8.92200 48.11600
C  27.42500 -7.99700 49.25200
N  25.01200 -4.99900 45.86900
C  25.99600 -4.06700 45.78300
C  25.69700 -3.14000 44.63700
C  24.20100 -3.19000 44.52200
C  23.92200 -4.53900 45.19700
C  23.38000 -1.90800 44.93700
C  26.41800 -3.64200 43.34400
C  27.14000 -2.45800 42.58500
H  27.16500 -2.42200 41.06700
N  22.89700 -6.94300 46.80200
C  22.14600 -6.36600 45.77900
C  20.86100 -6.97000 45.59100
C  20.81900 -8.06100 46.50200
C  22.15700 -8.06200 47.20700
C  19.82600 -6.63300 44.59000
C  19.67100 -9.04000 46.64500
O  18.58000 -8.78900 46.05600
C  19.85100 -10.41700 47.33000
N  25.10700 -8.21400 48.49100
C  24.03300 -9.04400 48.66700
C  24.38000 -10.32100 49.46700
C  25.88100 -10.00800 49.80000
C  26.19000 -8.66500 49.20200
C  23.44000 -10.50400 50.68700
C  26.85600 -11.15500 49.33900
C  27.25000 -12.31100 50.25800
N  26.90200 -6.02700 48.07300
C  27.81600 -6.78400 48.69800
C  29.17800 -6.23600 48.58500
C  28.95700 -5.05500 47.84700
C  27.59900 -4.99400 47.48500
C  30.44600 -6.91300 49.03700
C  29.61100 -3.88400 47.26400
O  30.77700 -3.56600 47.47700
C  28.51700 -3.17300 46.44000
C  28.20400 -1.75100 46.87400
O  27.91600 -1.35700 48.00100
O  28.19200 -1.03600 45.64900
C  27.46100 0.19400 45.84700
H  21.90900 -4.74600 44.46000
H  21.94800 -9.65900 48.39700
H  28.15500 -8.57300 49.82400
H  25.89800 -2.10900 44.92600
H  23.98700 -3.47400 43.49200
H  23.98800 -1.03500 45.17500
H  22.68300 -2.16000 45.73600
H  22.79000 -1.64400 44.06000
H  25.85800 -4.25600 42.63800
H  27.19600 -4.30000 43.73300
H  28.17700 -2.63500 42.86800
H  26.73200 -1.51300 42.94500
H  19.51300 -7.54600 44.08300
H  20.21300 -5.96100 43.82400
H  18.92600 -6.28500 45.09700
H  20.74400 -10.83300 46.86200
H  18.92900 -10.94800 47.09300
H  19.93200 -10.33300 48.41400
H  24.36600 -11.11900 48.72400
H  26.02400 -9.83700 50.86700
H  23.96000 -10.90900 51.55500
H  22.58000 -11.11700 50.41800
H  22.97800 -9.58300 51.04200
H  27.71900 -10.72000 48.83500
H  26.45400 -11.63700 48.44800
H  26.82300 -13.26800 49.95900
H  26.97800 -12.06500 51.28400
H  28.31200 -12.48200 50.08600
H  31.28900 -6.22700 49.11100
H  30.83500 -7.63700 48.32100
H  30.34600 -7.46400 49.97200
H  28.82900 -3.13000 45.39700
H  27.82000 0.80600 46.67500
H  26.40300 -0.04500 45.96300
H  27.53900 0.81100 44.95200
Mg 36.37300 49.74900 24.70000
C  36.22500 48.06700 27.77100
C  35.34900 52.65000 26.23000
C  35.97200 51.23400 21.58400
C  36.99600 46.67800 23.12700
N  35.76400 50.21400 26.71300
C  35.99000 49.42800 27.83400
C  35.74200 50.31700 29.15300
C  35.28000 51.72400 28.58300
C  35.47600 51.55000 27.09600
C  33.98600 52.22500 29.09800
C  37.09800 50.39300 29.95600
C  37.14900 50.51000 31.49300
H  35.93300 50.76600 32.31400
N  35.75300 51.70900 23.99000
C  35.48400 52.74300 24.81000
C  35.17600 53.91100 24.03300
C  35.39100 53.58900 22.65300
C  35.75100 52.11000 22.67700
C  34.74200 55.31700 24.60100
C  35.16900 54.32500 21.34000
O  35.28500 53.76400 20.22000
C  34.66600 55.76900 21.42800
N  36.51100 49.03000 22.66000
C  36.34600 49.87400 21.60700
C  36.77100 49.15200 20.29700
C  37.22300 47.75400 20.82500
C  36.79700 47.76900 22.25000
C  35.70500 49.09900 19.21700
C  38.79900 47.46400 20.69700
C  39.28400 46.04500 20.37900
N  36.60800 47.75800 25.24700
C  36.78300 46.61300 24.52100
C  36.90100 45.51300 25.39400
C  36.71600 45.96700 26.68300
C  36.50400 47.32800 26.57700
C  37.15700 44.11400 24.98100
C  36.60600 45.62700 28.09000
O  36.76900 44.56600 28.65900
C  36.28700 47.03200 28.83500
C  35.07200 46.90500 29.70900
O  33.96300 47.06600 29.35500
O  35.44700 46.41500 30.97300
C  34.32000 46.36400 31.94000
H  35.11700 53.56900 26.77400
H  35.75600 51.61300 20.58300
H  37.36200 45.71700 22.76000
H  34.95300 49.80800 29.70700
H  35.97300 52.50500 28.89200
H  33.80100 51.78500 30.07800
H  33.11700 52.23600 28.44000
H  34.25900 53.26200 29.29300
H  37.67900 51.22700 29.56300
H  37.66700 49.50200 29.69000
H  37.86600 51.30900 31.68000
H  37.68700 49.70400 31.99300
H  35.53800 56.04100 24.42700
H  34.43100 55.24200 25.64300
H  33.86400 55.60400 24.02200
H  35.36600 56.42500 21.94600
H  33.65000 55.78300 21.82200
H  34.58500 56.04900 20.37800
H  37.56600 49.71100 19.80200
H  36.70100 46.93600 20.32800
H  35.85900 49.87400 18.46700
H  34.70300 49.31300 19.58700
H  35.55700 48.11000 18.78500
H  39.32100 47.75400 21.60800
H  39.13800 48.26800 20.04200
H  39.99400 46.18000 19.56300
H  38.45600 45.42500 20.03400
H  39.70100 45.49300 21.22200
H  37.91100 43.98200 24.20400
H  36.20100 43.65900 24.72100
H  37.67200 43.67700 25.83600
H  37.06600 47.21800 29.57500
H  34.56700 46.04700 32.95300
H  33.51200 45.80500 31.46700
H  33.90500 47.36900 32.01900

