158

Mg 43.82800 3.45500 48.04900
C  41.52600 5.91700 47.13200
C  41.30000 1.15700 47.72600
C  46.04900 1.02700 48.22200
C  46.39200 5.86800 47.83000
N  41.72500 3.54000 47.25400
C  40.92300 4.68100 47.02400
C  39.44500 4.31200 46.77100
C  39.44100 2.80200 47.28100
C  40.93200 2.48400 47.59000
C  38.46700 2.63300 48.57300
C  39.06100 4.50000 45.22000
C  37.86400 5.38600 44.95100
H  38.00300 6.25500 43.77400
N  43.68700 1.33400 47.89100
C  42.56500 0.54700 47.92900
C  42.88400 -0.84700 48.04900
C  44.29200 -0.89300 48.31300
C  44.74200 0.47600 48.14400
C  41.83600 -1.92400 48.11100
C  45.04800 -2.16700 48.75400
O  44.49700 -3.24400 48.87300
C  46.49200 -2.16900 49.04500
N  45.93600 3.41100 47.59400
C  46.63600 2.26700 47.90100
C  48.18800 2.49000 47.82500
C  48.21500 4.04900 47.62100
C  46.78100 4.49700 47.58700
C  48.92700 2.03500 49.11200
C  49.00500 4.43300 46.35300
C  50.42900 3.86800 46.27200
N  43.99200 5.54400 47.74000
C  45.11100 6.32400 47.60300
C  44.65300 7.68900 47.43500
C  43.23900 7.57600 47.27700
C  42.91100 6.23700 47.40800
C  45.52400 8.87700 47.27400
C  42.00800 8.36900 47.15500
O  41.82800 9.57600 47.03500
C  40.86200 7.29900 47.14900
C  40.06000 7.47400 48.39500
O  40.27800 7.01100 49.51400
O  39.09700 8.41700 48.05700
C  38.07900 8.89200 49.03900
H  40.44200 0.48300 47.74800
H  46.79600 0.24400 48.37400
H  47.18200 6.61200 47.94900
H  38.85500 4.94200 47.43800
H  39.02600 2.25800 46.43200
H  37.87100 1.72100 48.52800
H  37.72300 3.42900 48.59400
H  39.03300 2.68100 49.50400
H  38.69100 3.55400 44.82700
H  39.84900 4.88500 44.57300
H  37.66300 6.02500 45.81100
H  37.01800 4.72300 44.77100
H  42.13100 -2.64400 47.34900
H  40.80100 -1.73300 47.82800
H  41.74800 -2.57600 48.98000
H  47.04000 -1.96900 48.12500
H  46.74900 -3.09200 49.56600
H  46.62000 -1.39600 49.80300
H  48.58800 2.01600 46.92900
H  48.68000 4.47000 48.51200
H  49.73000 2.71600 49.39200
H  49.28600 1.08600 48.71500
H  48.32300 1.82300 49.99500
H  49.02300 5.52200 46.40200
H  48.55100 4.00500 45.45900
H  50.53200 3.16300 45.44700
H  50.70400 3.33200 47.18000
H  51.11500 4.71000 46.18200
H  45.12200 9.70100 47.86200
H  45.59600 9.25900 46.25600
H  46.57100 8.81400 47.57100
H  40.27100 7.52800 46.26200
H  37.75800 9.87500 48.69600
H  38.35700 8.98300 50.09000
H  37.23800 8.20300 48.96300
Mg 41.14800 7.93200 29.81100
C  42.87900 9.39600 32.56400
C  38.82800 6.78200 32.03600
C  39.47500 6.75500 27.23600
C  43.90400 8.74700 27.77900
N  40.77200 8.29300 32.04800
C  41.60000 8.89400 32.91700
C  41.07100 8.68700 34.36700
C  39.66900 7.94400 34.13300
C  39.71500 7.62800 32.63000
C  39.35600 6.71700 35.02100
C  40.89000 10.10000 35.00000
C  39.85600 10.16700 36.16100
H  40.10200 11.00300 37.39800
N  39.36000 6.97200 29.59200
C  38.62400 6.52700 30.66100
C  37.44900 5.77400 30.18900
C  37.54700 5.76100 28.72300
C  38.85200 6.52800 28.46100
C  36.43700 5.22400 31.14600
C  36.66400 5.12100 27.67300
O  36.92200 5.16700 26.47500
C  35.33700 4.35800 28.14700
N  41.69600 7.57800 27.75700
C  40.73200 7.30800 26.92300
C  41.36300 7.16200 25.47500
C  42.67000 8.03400 25.58600
C  42.81700 8.06400 27.10800
C  41.63400 5.71300 25.22100
C  42.64100 9.43400 24.91100
C  41.36000 10.25200 25.20300
N  42.93800 8.81000 30.06100
C  43.94200 9.07000 29.15500
C  44.99800 9.86300 29.82100
C  44.68800 9.97700 31.13600
C  43.43700 9.32300 31.23400
C  46.22800 10.33500 29.09800
C  45.03300 10.42400 32.50100
O  45.99800 11.10500 32.88500
C  43.83400 10.07900 33.47500
C  44.41600 9.30700 34.62800
O  44.80500 8.14600 34.59400
O  44.32900 9.97900 35.79500
C  44.55400 9.34700 37.05400
H  38.13500 6.37900 32.77700
H  38.85700 6.45000 26.38900
H  44.74100 9.07600 27.16000
H  41.72200 8.06000 34.97700
H  38.81600 8.59300 34.33000
H  39.46200 5.72400 34.58500
H  38.30100 6.90000 35.22800
H  39.83500 6.68400 35.99900
H  40.76100 10.86800 34.23700
H  41.87800 10.21300 35.44600
H  39.80700 9.13800 36.51600
H  38.86800 10.51700 35.86200
H  35.63200 4.60600 30.74900
H  35.87000 6.07700 31.51800
H  36.88900 4.63800 31.94500
H  34.82400 3.98800 27.26000
H  34.68600 5.10600 28.60000
H  35.47700 3.49000 28.79100
H  40.70400 7.55500 24.70100
H  43.35400 7.41500 25.00500
H  41.14300 5.02800 25.91300
H  42.65900 5.37200 25.37100
H  41.47700 5.45400 24.17400
H  42.57400 9.23400 23.84200
H  43.57700 9.96200 25.09200
H  40.84700 9.72800 26.00800
H  40.69700 10.37200 24.34600
H  41.75700 11.21300 25.53100
H  45.84000 10.75100 28.16800
H  46.90600 9.50100 28.91700
H  46.70900 11.16500 29.61700
H  43.46100 11.04000 33.83000
H  43.97300 9.97800 37.72700
H  45.59300 9.52500 37.33300
H  44.37800 8.27200 37.10900

