158

Mg 25.26000 0.55900 29.58700
C  27.46000 0.15900 32.36000
C  22.61900 0.54200 31.87600
C  23.23700 0.39700 27.02800
C  27.94700 -0.30700 27.43800
N  25.08300 0.35400 31.82600
C  26.08600 0.44400 32.73600
C  25.54900 0.60800 34.24400
C  23.98700 0.48000 33.98800
C  23.85100 0.38100 32.48800
C  23.33900 -0.75400 34.79300
C  26.01900 1.90800 34.92300
C  26.92600 1.85500 36.12400
H  26.56800 2.83500 37.15900
N  23.26500 0.60300 29.48600
C  22.36500 0.62200 30.51300
C  21.03600 0.75700 29.92900
C  21.16900 0.84100 28.54700
C  22.58100 0.56800 28.30800
C  19.73100 0.91800 30.65600
C  20.10300 1.00000 27.41000
O  20.44200 1.01500 26.27000
C  18.53200 1.22400 27.65600
N  25.54400 -0.11000 27.46700
C  24.54100 0.03800 26.62400
C  25.04800 -0.09900 25.20200
C  26.59900 -0.18000 25.23500
C  26.75900 -0.16600 26.75500
C  24.32500 -1.21600 24.30900
C  27.36200 0.97800 24.53400
C  28.37300 0.52500 23.48900
N  27.28800 0.02500 29.71700
C  28.25400 -0.23500 28.78300
C  29.55100 -0.40900 29.46200
C  29.22500 -0.27500 30.85000
C  27.83800 -0.04300 31.00400
C  30.87200 -0.57200 28.78600
C  29.84400 -0.23300 32.14000
O  31.00100 -0.43300 32.44900
C  28.69900 0.11500 33.16900
C  28.64000 -0.91700 34.23300
O  28.11000 -2.03100 34.08400
O  29.43700 -0.60000 35.32200
C  29.50300 -1.59000 36.43700
H  21.69900 0.55200 32.46500
H  22.61700 0.50500 26.13500
H  28.78500 -0.60400 26.80400
H  26.03200 -0.27300 34.66700
H  23.42900 1.29500 34.44800
H  24.04600 -1.55600 35.00500
H  22.50200 -1.20500 34.25800
H  22.80700 -0.18500 35.55500
H  25.10500 2.39100 35.26700
H  26.55100 2.45600 34.14500
H  27.94300 1.98900 35.75600
H  26.72900 0.89800 36.60800
H  18.98800 0.23000 30.25200
H  19.25500 1.87900 30.46300
H  19.72800 0.85500 31.74400
H  17.97500 1.39800 26.73500
H  18.32100 1.94000 28.45100
H  18.28300 0.20800 27.96100
H  24.82700 0.89600 24.81500
H  26.94000 -1.12200 24.80600
H  23.48400 -1.74500 24.75700
H  25.06700 -1.96600 24.03600
H  23.86000 -0.67800 23.48400
H  27.89600 1.52200 25.31300
H  26.72500 1.75800 24.11900
H  28.46400 -0.56100 23.48300
H  29.27000 1.08500 23.75600
H  27.89600 0.88300 22.57700
H  31.61400 0.08300 29.24300
H  30.72000 -0.21800 27.76600
H  31.28000 -1.58100 28.72700
H  29.03400 1.06500 33.58500
H  29.45600 -2.61400 36.06500
H  28.63700 -1.39900 37.07100
H  30.41600 -1.39800 37.00000
Mg 9.24700 48.53400 25.22900
C  7.09800 48.85400 28.07600
C  11.76300 49.74800 27.14600
C  11.16900 48.53600 22.46400
C  6.40000 47.82700 23.26700
N  9.31900 49.33700 27.34400
C  8.40700 49.24600 28.32200
C  8.97900 49.82300 29.69900
C  10.36000 50.37600 29.24400
C  10.51400 49.74700 27.79500
C  10.64600 51.97500 29.18900
C  9.06500 48.73100 30.83200
C  9.88900 49.01700 32.03200
H  9.38500 48.43500 33.34400
N  11.27200 49.05700 24.86000
C  12.13100 49.46800 25.83100
C  13.39700 49.52300 25.26200
C  13.30800 49.18000 23.84800
C  11.90800 48.91700 23.64800
C  14.54800 49.88300 26.18500
C  14.36600 49.04800 22.69700
O  14.01900 48.92900 21.49500
C  15.80500 49.07600 23.08900
N  8.83900 48.24600 23.20700
C  9.79200 48.29100 22.30500
C  9.30000 47.86400 20.90100
C  7.76200 47.45500 21.13900
C  7.63800 47.78200 22.63800
C  9.51300 48.87100 19.77400
C  7.38800 46.01300 20.67500
C  7.78600 44.77800 21.51000
N  7.18000 48.38100 25.56300
C  6.15200 48.13800 24.61900
C  4.83500 48.12200 25.28900
C  5.14900 48.37100 26.67400
C  6.60000 48.57200 26.77500
C  3.52100 47.77200 24.59400
C  4.63200 48.51400 28.03100
O  3.48700 48.39000 28.44800
C  5.80100 48.72700 28.96300
C  5.76700 47.57900 29.90300
O  6.37600 46.55200 29.83200
O  4.76700 47.80700 30.81900
C  4.42700 46.86800 31.82300
H  12.46900 50.27800 27.79000
H  11.66000 48.29900 21.51800
H  5.54900 47.68400 22.59900
H  8.38800 50.63500 30.12300
H  11.17600 49.97600 29.84500
H  11.07200 52.15000 28.20000
H  11.48600 52.15400 29.86100
H  9.72100 52.53100 29.33800
H  9.42400 47.84200 30.31400
H  8.02700 48.46300 31.03100
H  10.22800 50.04000 32.19500
H  10.85100 48.51300 31.94200
H  14.57700 50.95700 26.36900
H  15.54700 49.58300 25.86600
H  14.51600 49.33800 27.12800
H  16.36900 49.10500 22.15700
H  16.08600 48.26600 23.76200
H  15.94900 49.99500 23.65700
H  9.87000 46.96600 20.66200
H  7.10100 48.13600 20.60200
H  9.68900 49.89100 20.11400
H  8.58500 48.98900 19.21400
H  10.26600 48.48400 19.08800
H  7.76700 45.90300 19.65900
H  6.30000 45.96800 20.63100
H  6.99000 44.29500 22.07600
H  8.50100 45.04700 22.28700
H  8.27500 44.00500 20.91600
H  3.44800 46.69300 24.45700
H  3.61100 48.19100 23.59100
H  2.61900 48.19000 25.03800
H  5.70600 49.66900 29.50300
H  3.50400 47.29200 32.22000
H  5.23900 46.81000 32.54900
H  4.02200 45.95800 31.38200

