158

Mg 34.30700 3.34900 29.72500
C  32.18000 4.00100 32.45700
C  36.86000 3.35300 32.00600
C  36.38000 2.85200 27.20900
C  31.61200 3.62900 27.55600
N  34.42100 3.46400 31.97100
C  33.44200 3.71100 32.87300
C  33.94500 3.53200 34.33700
C  35.47400 3.47900 34.11500
C  35.59000 3.40600 32.59600
C  36.31600 4.70300 34.78200
C  33.29200 2.29500 35.06600
C  32.74700 2.54200 36.52900
H  33.60900 3.48300 37.48700
N  36.28400 3.09100 29.63400
C  37.20600 3.20600 30.62000
C  38.64700 3.00700 30.19300
C  38.51800 2.80100 28.74600
C  37.01700 2.85500 28.46900
C  39.81700 3.15200 31.10600
C  39.55100 2.60700 27.66100
O  39.31600 2.38300 26.48600
C  40.97800 2.72300 28.07400
N  34.06600 3.48400 27.64700
C  35.06000 3.08400 26.82300
C  34.57900 2.80800 25.43300
C  33.00900 2.90400 25.59500
C  32.85200 3.28600 27.01700
C  35.17500 3.88600 24.44900
C  32.35500 1.58100 25.14500
C  31.06400 1.74200 24.44000
N  32.30100 3.79600 29.87100
C  31.27500 3.87700 28.91900
C  30.02300 4.18900 29.55000
C  30.37500 4.29800 30.94700
C  31.70800 3.97900 31.06500
C  28.69600 4.40300 28.97300
C  29.86600 4.64100 32.29400
O  28.87500 5.20900 32.63300
C  31.01500 4.36400 33.26700
C  31.23700 5.62100 34.00500
O  31.51800 6.68700 33.48200
O  31.09700 5.48200 35.32700
C  31.49100 6.61200 36.17100
H  37.77400 3.36100 32.60400
H  37.01200 2.41800 26.43200
H  30.78200 3.57700 26.84800
H  33.75700 4.44300 34.90500
H  35.86300 2.55300 34.53900
H  37.07900 4.17600 35.35400
H  35.71800 5.32400 35.44900
H  36.87700 5.26800 34.03600
H  34.07100 1.54200 35.18200
H  32.47400 1.95100 34.43300
H  32.69500 1.62700 37.11900
H  31.67700 2.74300 36.47400
H  40.10600 4.19000 31.27600
H  40.76000 2.69300 30.80800
H  39.72300 2.56900 32.02200
H  41.55800 2.68500 27.15200
H  41.30900 1.88200 28.68300
H  41.10900 3.69100 28.55800
H  34.99600 1.82100 25.23300
H  32.52000 3.67900 25.00500
H  36.01000 4.44900 24.86600
H  34.37900 4.62100 24.33300
H  35.39100 3.38500 23.50600
H  32.14000 0.88200 25.95300
H  33.00600 1.02900 24.46700
H  30.40900 1.01100 24.91500
H  31.17700 1.57100 23.36900
H  30.59200 2.71000 24.60700
H  28.41000 5.42000 29.24200
H  27.97400 3.64900 29.28900
H  28.68600 4.20900 27.90000
H  30.65000 3.57300 33.92100
H  31.16000 6.37700 37.18300
H  31.16000 7.59900 35.84800
H  32.57700 6.51300 36.16700
Mg 40.35000 10.29700 29.75700
C  42.52100 10.82600 32.44900
C  38.24600 8.63200 31.98600
C  38.43200 9.35100 27.21300
C  42.95200 10.98300 27.52900
N  40.40400 9.75200 31.90500
C  41.33100 10.21900 32.86800
C  40.95600 9.97600 34.29400
C  39.67400 9.08400 34.05500
C  39.41000 9.10100 32.51700
C  39.88500 7.67200 34.58900
C  40.63200 11.35100 34.97200
C  40.04400 11.16900 36.35100
H  40.83500 11.82500 37.57200
N  38.56800 9.23500 29.60500
C  37.78700 8.65400 30.61700
C  36.49300 8.27000 30.11100
C  36.52500 8.58600 28.74200
C  37.88400 9.06400 28.44500
C  35.34400 7.69600 31.04100
C  35.35100 8.45600 27.67100
O  35.48600 8.75900 26.48300
C  34.01900 7.98200 28.22600
N  40.76100 9.90100 27.66000
C  39.73900 9.65500 26.86000
C  39.94600 9.99800 25.35600
C  41.47500 10.53900 25.45100
C  41.80000 10.45800 26.96200
C  39.71200 8.97200 24.24800
C  41.58400 12.06400 24.98700
C  41.05300 13.20200 25.78100
N  42.28300 10.88200 29.86100
C  43.21800 11.21500 28.90300
C  44.53600 11.62700 29.54700
C  44.20300 11.54800 30.94900
C  42.89400 11.06300 31.11300
C  45.82400 11.99500 28.78900
C  44.70300 11.87500 32.25000
O  45.81600 12.31500 32.58500
C  43.64400 11.45000 33.33100
C  44.32500 10.54700 34.25400
O  44.99000 9.49900 34.02500
O  44.05700 11.00200 35.49000
C  44.64000 10.29700 36.66600
H  37.52300 8.25500 32.71200
H  37.77400 9.34900 26.34200
H  43.69300 11.31900 26.80100
H  41.84100 9.49300 34.70800
H  38.86700 9.51700 34.64600
H  39.17000 7.43300 35.37600
H  40.89200 7.63000 35.00400
H  39.61200 6.84100 33.93900
H  39.96200 11.97700 34.38400
H  41.63500 11.77200 35.05000
H  40.05900 10.10100 36.56900
H  39.05200 11.60600 36.23600
H  35.61900 7.96900 32.05900
H  35.09000 6.65500 30.83700
H  34.41300 8.25000 30.92600
H  33.80000 8.76400 28.95400
H  34.10800 7.00700 28.70500
H  33.23100 8.01600 27.47400
H  39.37800 10.90900 25.17000
H  42.19300 9.92000 24.91300
H  38.85200 9.16400 23.60600
H  39.59000 7.96100 24.63800
H  40.59100 8.88700 23.60800
H  41.24200 12.23800 23.96700
H  42.65100 12.17900 24.79600
H  40.85500 12.93000 26.81700
H  40.23200 13.68700 25.25300
H  41.87800 13.91400 25.75200
H  46.50000 12.41900 29.53100
H  45.60300 12.46300 27.83000
H  46.33900 11.10500 28.42800
H  43.26100 12.29300 33.90600
H  43.89400 10.25400 37.46000
H  45.54600 10.86700 36.87100
H  44.77500 9.23600 36.45600

