158

Mg 47.31700 25.05500 28.25300
C  47.81800 27.54600 30.66000
C  46.52600 22.81000 30.64800
C  46.95900 22.76600 25.87500
C  48.64600 27.44100 25.88800
N  47.30900 25.13000 30.34300
C  47.51800 26.28100 31.16400
C  47.24700 25.92900 32.61500
C  46.84400 24.46000 32.61100
C  46.92300 24.03800 31.10800
C  47.66600 23.53600 33.58200
C  46.29800 26.92900 33.37300
C  45.71700 26.42200 34.73300
H  46.68800 26.03400 35.84700
N  46.76800 23.08100 28.25300
C  46.45200 22.27000 29.31700
C  46.18500 20.90700 28.90700
C  46.31800 20.96100 27.43300
C  46.70300 22.27300 27.13100
C  46.05900 19.76200 29.88200
C  46.13800 19.75500 26.53100
O  46.39300 19.72800 25.35900
C  45.74100 18.43700 27.06400
N  47.97800 25.03500 26.26500
C  47.61000 23.98800 25.44900
C  47.75100 24.34300 23.97100
C  47.80900 25.88400 23.95900
C  48.19600 26.15400 25.43200
C  48.88400 23.53600 23.21400
C  46.57300 26.61900 23.52500
C  45.35000 26.55700 24.47800
N  48.19200 26.99800 28.22500
C  48.68400 27.80300 27.22400
C  49.00200 29.09900 27.73200
C  48.67700 29.08200 29.11800
C  48.25600 27.72500 29.32100
C  49.53000 30.29600 26.86800
C  48.73100 29.83600 30.39000
O  48.98100 31.00600 30.55700
C  48.21200 28.83000 31.39300
C  49.30600 28.66900 32.41400
O  50.49800 28.33700 32.24400
O  48.95600 29.24700 33.65300
C  49.82000 29.01200 34.87200
H  46.27500 22.16000 31.48900
H  46.87900 21.98900 25.11100
H  48.67900 28.19100 25.09500
H  48.25100 25.96200 33.04000
H  45.78200 24.38600 32.84400
H  48.51300 24.05200 34.03400
H  48.17800 22.74300 33.03700
H  47.11800 22.91500 34.29100
H  45.48400 27.28700 32.74200
H  46.83300 27.74400 33.86100
H  45.08200 25.54700 34.59300
H  44.97500 27.18900 34.95300
H  46.63100 18.88400 29.58200
H  45.04400 19.37600 29.79800
H  46.05300 19.94000 30.95700
H  45.21100 17.89200 26.28300
H  45.10300 18.47600 27.94600
H  46.73300 18.02200 27.24200
H  46.82000 24.06100 23.47800
H  48.60800 26.32800 23.36400
H  49.36900 22.85000 23.90800
H  49.61600 24.24800 22.83300
H  48.45600 22.87500 22.46000
H  46.38600 26.01500 22.63800
H  46.88200 27.59700 23.15600
H  44.36900 26.46200 24.01200
H  45.34700 27.37900 25.19300
H  45.59600 25.63800 25.01100
H  50.08300 30.90900 27.58000
H  48.64500 30.74000 26.41100
H  50.19800 29.88400 26.11200
H  47.36300 29.22000 31.95400
H  50.62000 29.75000 34.91900
H  50.32900 28.04900 34.91300
H  49.25200 29.14100 35.79300
Mg -0.18500 44.04000 25.93700
C  2.04200 43.83400 28.72400
C  -2.57200 42.72800 27.96200
C  -2.18000 44.24600 23.30000
C  2.52800 45.04200 23.97700
N  -0.23100 43.41600 28.15400
C  0.76100 43.46900 29.13300
C  0.34000 42.85600 30.49700
C  -1.17700 42.47200 30.17600
C  -1.36700 42.83500 28.71100
C  -1.68600 41.00400 30.62300
C  0.41800 43.79300 31.66600
C  0.95200 43.20700 33.00100
H  0.23500 41.93700 33.34200
N  -2.11700 43.54600 25.67700
C  -2.96900 43.08300 26.64900
C  -4.28000 42.96600 26.00500
C  -4.14300 43.24700 24.63300
C  -2.75500 43.73800 24.50500
C  -5.49000 42.38700 26.78000
C  -5.18600 43.04800 23.51000
O  -4.92900 43.32700 22.33400
C  -6.55200 42.43600 23.79500
N  0.04800 44.85200 24.04100
C  -0.90400 44.71700 23.07900
C  -0.43700 45.14800 21.71000
C  1.09000 45.50000 21.95800
C  1.24600 45.06100 23.39500
C  -0.57300 44.03900 20.63500
C  1.34200 47.04500 21.84600
C  0.95900 47.79400 20.57000
N  1.87900 44.30600 26.16700
C  2.85500 44.71100 25.28900
C  4.11800 44.63400 25.91000
C  3.87800 44.36400 27.21900
C  2.45600 44.21500 27.36900
C  5.38400 44.93500 25.29400
C  4.51300 44.08000 28.46800
O  5.69300 43.99700 28.76600
C  3.32600 43.85900 29.55400
C  3.64500 42.42900 29.93600
O  3.56900 41.41800 29.25500
O  3.95700 42.32600 31.24800
C  3.96500 40.93300 31.86200
H  -3.31300 42.23500 28.59600
H  -2.74500 44.46200 22.39100
H  3.38600 45.10500 23.30400
H  0.86800 41.92000 30.68100
H  -1.89200 43.14000 30.65600
H  -2.06900 40.53200 29.71900
H  -2.59700 41.11700 31.21000
H  -0.96300 40.33600 31.09200
H  -0.51600 44.30200 31.90600
H  1.06000 44.60500 31.32500
H  0.75400 43.87100 33.84300
H  2.03900 43.12100 33.01300
H  -5.54700 41.32600 26.53900
H  -6.41100 42.84600 26.42100
H  -5.53000 42.56900 27.85400
H  -7.07000 42.45700 22.83600
H  -6.99300 43.22900 24.40000
H  -6.56000 41.48800 24.33200
H  -1.02800 46.01400 21.41200
H  1.86500 45.07900 21.31700
H  0.29400 43.84700 20.00200
H  -1.45500 44.27500 20.04000
H  -0.72200 43.11100 21.18700
H  2.42900 47.09700 21.90800
H  0.86300 47.59000 22.66000
H  0.25500 48.59100 20.80500
H  0.46700 47.13400 19.85600
H  1.92300 48.23900 20.32200
H  6.04000 45.43900 26.00300
H  5.39600 45.54200 24.38900
H  5.84200 43.98600 25.01400
H  3.40200 44.55200 30.39200
H  4.41900 40.19000 31.20700
H  2.96700 40.53900 32.05000
H  4.75100 40.73900 32.59200

