158

Mg 8.09300 2.71500 29.31200
C  9.56000 1.12200 32.19100
C  6.42700 4.79800 31.45700
C  6.59300 4.00900 26.68900
C  9.75700 0.40100 27.39700
N  7.86600 2.71000 31.63000
C  8.71200 2.18800 32.52400
C  8.50900 2.86000 33.91100
C  7.28400 3.79000 33.68700
C  7.19200 3.79300 32.12100
C  5.96100 3.41400 34.31800
C  9.78900 3.67000 34.35100
C  10.23700 3.61800 35.85900
H  9.15800 3.20000 36.98400
N  6.70000 4.20000 29.16800
C  6.19600 5.01500 30.11300
C  5.34700 6.05200 29.54000
C  5.36900 5.84700 28.15200
C  6.20700 4.64400 27.91900
C  4.56100 7.05100 30.29600
C  4.73800 6.68300 26.96400
O  4.91900 6.39300 25.81500
C  3.93600 7.93400 27.15300
N  7.96800 2.05500 27.32500
C  7.38500 2.84600 26.39600
C  7.74100 2.37800 24.98600
C  8.77600 1.28200 25.19000
C  8.88800 1.26300 26.72300
C  6.50400 1.94200 24.14500
C  10.06900 1.56100 24.34600
C  11.16700 2.57500 24.98900
N  9.32000 1.07000 29.64200
C  9.91800 0.20000 28.74300
C  10.75300 -0.77000 29.45200
C  10.63400 -0.46300 30.75700
C  9.79800 0.70400 30.87400
C  11.64800 -1.77000 28.68500
C  11.20200 -0.73100 32.10800
O  11.99100 -1.59700 32.49800
C  10.57500 0.32200 33.08500
C  9.87400 -0.43800 34.14200
O  8.92700 -1.20500 34.01700
O  10.45300 -0.22900 35.31300
C  9.79200 -0.84400 36.50500
H  5.90400 5.44100 32.16800
H  6.40300 4.52200 25.74400
H  10.34600 -0.32200 26.82800
H  8.12500 2.10500 34.59800
H  7.48600 4.80300 34.03500
H  5.33600 2.88800 33.59600
H  5.37000 4.23200 34.72900
H  6.10500 2.62600 35.05800
H  9.67600 4.74100 34.17700
H  10.62900 3.24800 33.79900
H  10.57400 4.58700 36.22600
H  11.06900 2.92200 35.97000
H  4.87800 7.08100 31.33800
H  3.51000 6.76800 30.36800
H  4.62000 8.05000 29.86300
H  3.18700 7.79000 27.93100
H  3.28100 8.13100 26.30400
H  4.56100 8.73800 27.54200
H  8.27300 3.17100 24.46000
H  8.39100 0.29300 24.94300
H  5.72400 1.84200 24.90000
H  6.64500 0.91600 23.80600
H  6.19700 2.54900 23.29300
H  9.86200 1.87900 23.32500
H  10.63200 0.64000 24.19000
H  12.04500 1.96800 25.20900
H  10.69400 2.91200 25.91200
H  11.31200 3.44000 24.34200
H  10.97300 -2.30400 28.01600
H  12.14400 -2.50800 29.31500
H  12.38400 -1.32300 28.01600
H  11.36200 1.00000 33.41500
H  10.55600 -1.48400 36.94600
H  8.88900 -1.44300 36.38700
H  9.43700 -0.05900 37.17200
Mg -10.38400 17.83500 40.85200
C  -6.90600 17.20000 40.86700
C  -9.68200 21.17800 40.11100
C  -13.60900 18.34800 40.25700
C  -10.98600 14.42200 41.40300
N  -8.49600 18.97000 40.32500
C  -7.23000 18.54100 40.45600
C  -6.25200 19.73000 40.15800
C  -7.16200 21.00200 40.35500
C  -8.53800 20.34700 40.25600
C  -6.96900 21.71000 41.74900
C  -5.81900 19.60400 38.67300
C  -4.29800 19.49400 38.48300
H  -3.80200 18.10800 37.96200
N  -11.49900 19.56900 40.28400
C  -11.04000 20.78100 39.91200
C  -12.06300 21.64900 39.48800
C  -13.29900 20.83900 39.67900
C  -12.84100 19.49700 40.12900
C  -11.87700 23.02400 39.01100
C  -14.70800 21.29600 39.28600
O  -14.93200 22.40900 38.92600
C  -15.91200 20.32600 39.40400
N  -11.95600 16.50800 40.71600
C  -13.25900 17.05600 40.58700
C  -14.32700 15.88200 40.49200
C  -13.45900 14.62200 40.78500
C  -12.08500 15.23400 41.04500
C  -15.69600 16.21200 41.16900
C  -13.46000 13.65700 39.57400
C  -14.34300 12.41900 39.74500
N  -9.19900 16.12400 41.06600
C  -9.63700 14.81600 41.34300
C  -8.41500 13.97100 41.45100
C  -7.35600 14.91100 41.38200
C  -7.84100 16.17700 41.08400
C  -8.43700 12.56200 41.85000
C  -5.90100 15.02400 41.44700
O  -4.95500 14.23100 41.68000
C  -5.55300 16.51200 41.07500
C  -4.81800 17.13700 42.21700
O  -5.38600 17.76900 43.10900
O  -3.44300 17.05600 42.05600
C  -2.62700 17.84100 43.00700
H  -9.52600 22.25900 40.10700
H  -14.67200 18.29000 40.01700
H  -11.13800 13.34900 41.54000
H  -5.42700 19.63800 40.86400
H  -7.11400 21.69400 39.51400
H  -6.08900 21.29000 42.23600
H  -7.80700 21.60100 42.43700
H  -6.90400 22.76300 41.47500
H  -6.06200 20.51300 38.12200
H  -6.29200 18.75400 38.18200
H  -3.77400 19.57800 39.43500
H  -3.88300 20.26100 37.82900
H  -11.00900 23.11500 38.35800
H  -11.72000 23.62700 39.90600
H  -12.67200 23.51500 38.44900
H  -15.81500 19.60500 38.59200
H  -16.86500 20.85500 39.39800
H  -15.97100 19.73100 40.31600
H  -14.54900 15.92900 39.42600
H  -13.93400 14.21300 41.67700
H  -16.47000 16.28800 40.40400
H  -15.61100 17.16700 41.68700
H  -15.87400 15.44500 41.92300
H  -12.45300 13.25900 39.45100
H  -13.78000 14.18600 38.67600
H  -13.80300 11.47500 39.81100
H  -14.94000 12.39800 38.83300
H  -14.94100 12.47800 40.65500
H  -7.52600 12.27800 42.37600
H  -8.70200 11.94500 40.99100
H  -9.28100 12.56400 42.54000
H  -4.95400 16.49600 40.16400
H  -1.66000 17.34400 43.08400
H  -3.03000 17.86300 44.01900
H  -2.39600 18.86800 42.72300

