158

Mg 44.39200 4.00000 47.49600
C  42.50900 6.76900 47.04700
C  41.57000 2.11700 46.75200
C  46.34400 1.14400 47.44700
C  47.21800 5.87400 47.58400
N  42.29800 4.43200 46.90900
C  41.70300 5.66900 46.80400
C  40.24100 5.64000 46.56800
C  39.92600 4.11500 46.80400
C  41.31800 3.49400 46.89400
C  39.14800 3.87700 48.06700
C  39.79900 6.17300 45.15600
C  40.53300 5.67900 43.85200
H  40.66200 6.71000 42.67700
N  43.95300 1.91200 47.13000
C  42.78200 1.38400 46.76000
C  42.91900 -0.02900 46.61000
C  44.29800 -0.39600 46.81000
C  44.94700 0.92300 47.20600
C  41.77100 -0.92000 46.19700
C  44.86700 -1.76200 46.77700
O  44.19600 -2.69400 46.31600
C  46.28500 -2.17400 47.18000
N  46.47400 3.62600 47.42400
C  47.01200 2.35400 47.55700
C  48.53900 2.37800 47.87100
C  48.82700 3.91900 47.96100
C  47.42100 4.52500 47.63700
C  49.03300 1.43700 49.10000
C  50.09100 4.41100 47.12000
C  50.99500 5.51400 47.78100
N  44.83700 5.95500 47.39200
C  46.03400 6.60200 47.43400
C  45.77700 8.01700 47.49800
C  44.33600 8.11400 47.43700
C  43.85600 6.82800 47.22200
C  46.81500 9.13900 47.51500
C  43.29700 9.03600 47.40500
O  43.33800 10.27200 47.46700
C  41.99400 8.21600 47.20900
C  41.11800 8.39600 48.40800
O  40.97400 7.67700 49.38100
O  40.55000 9.65200 48.23700
C  39.53600 9.98200 49.25200
H  40.69800 1.46300 46.68200
H  46.97200 0.25500 47.53200
H  48.15200 6.43400 47.65200
H  39.68600 6.35500 47.17500
H  39.31200 3.63700 46.04100
H  38.82700 4.87200 48.37600
H  39.78600 3.51000 48.87100
H  38.32500 3.18000 47.90600
H  39.63700 7.25100 45.19100
H  38.84500 5.69200 44.94100
H  40.07200 4.75600 43.50100
H  41.47400 5.42200 44.33900
H  40.99000 -0.28500 45.77800
H  41.45700 -1.46900 47.08500
H  42.09200 -1.56600 45.37900
H  46.38300 -3.25900 47.18700
H  46.43200 -1.76700 48.18100
H  47.02100 -1.70900 46.52400
H  48.99600 2.00200 46.95600
H  49.03100 4.19200 48.99600
H  49.35000 0.48200 48.68000
H  48.19900 1.25900 49.77800
H  49.89800 1.82100 49.64100
H  49.73500 4.97400 46.25700
H  50.79900 3.65600 46.78000
H  51.40800 6.26700 47.10900
H  51.86300 5.07200 48.27100
H  50.55200 6.01000 48.64400
H  46.30600 10.06900 47.26200
H  47.51200 8.96100 46.69600
H  47.37200 9.32600 48.43300
H  41.45300 8.54500 46.32200
H  39.00000 9.12700 49.66300
H  38.71900 10.63600 48.94600
H  40.11400 10.45400 50.04700
Mg -9.56300 17.67400 41.62300
C  -5.98700 17.53800 41.52200
C  -9.18400 21.05400 40.59900
C  -12.73000 17.71800 40.99900
C  -9.61300 14.26100 42.45700
N  -7.78000 19.08000 40.96100
C  -6.43600 18.77100 40.98800
C  -5.60000 19.90800 40.50000
C  -6.65500 21.12300 40.66500
C  -7.96700 20.40000 40.68300
C  -6.35800 21.97400 41.94700
C  -5.18800 19.64100 39.05600
C  -3.77400 19.12600 38.93200
H  -3.50300 17.62500 38.51900
N  -10.80000 19.17100 41.00400
C  -10.47700 20.52700 40.60900
C  -11.68000 21.21500 40.29900
C  -12.72900 20.32800 40.47100
C  -12.11900 18.99200 40.74300
C  -11.58300 22.74700 39.85700
C  -14.15900 20.64700 40.08400
O  -14.55200 21.73800 39.87400
C  -15.15800 19.59100 39.85900
N  -10.90300 16.15400 41.51700
C  -12.18500 16.45600 41.35900
C  -13.01000 15.20200 41.46100
C  -12.08400 14.15000 42.06200
C  -10.78300 14.83600 41.86500
C  -14.32200 15.40600 42.31900
C  -12.18800 12.72500 41.38100
C  -12.40900 11.50500 42.25800
N  -8.15200 16.20200 42.01300
C  -8.31800 14.87900 42.46300
C  -7.03600 14.32200 42.77500
C  -6.10200 15.40100 42.43100
C  -6.83800 16.45300 41.98900
C  -6.81200 13.01500 43.25300
C  -4.71900 15.73100 42.36600
O  -3.73400 15.04800 42.60600
C  -4.56400 17.21300 41.91300
C  -4.07400 18.07100 43.05100
O  -4.87600 18.74100 43.70000
O  -2.73100 18.00600 43.22700
C  -2.08700 18.82500 44.21800
H  -9.02100 22.13200 40.66000
H  -13.80100 17.67500 40.78800
H  -9.81700 13.22500 42.73500
H  -4.71300 20.08500 41.10800
H  -6.74600 21.81800 39.83000
H  -6.73400 21.63600 42.91300
H  -6.76100 22.95900 41.71000
H  -5.27100 22.00800 42.01800
H  -5.25800 20.57700 38.50100
H  -5.89200 18.90800 38.66300
H  -3.19400 19.26600 39.84500
H  -3.28900 19.86300 38.29200
H  -12.32100 22.81200 39.05700
H  -10.61000 22.96500 39.41700
H  -11.94600 23.38800 40.66100
H  -16.04300 19.97000 39.34800
H  -15.51600 19.28500 40.84200
H  -14.83700 18.74700 39.24800
H  -13.34100 14.90600 40.46600
H  -12.27800 14.21900 43.13200
H  -14.04300 16.12100 43.09200
H  -14.43200 14.43600 42.80500
H  -15.07800 15.67800 41.58200
H  -11.18700 12.62600 40.96300
H  -12.83100 12.75700 40.50100
H  -11.49400 10.92800 42.39000
H  -13.15100 10.90500 41.73200
H  -12.65900 11.70600 43.30000
H  -6.51500 12.43700 42.37800
H  -7.70200 12.65100 43.76600
H  -5.95800 13.04300 43.93000
H  -3.91200 17.26300 41.04100
H  -1.53600 18.23800 44.95300
H  -2.76300 19.50600 44.73600
H  -1.49800 19.57900 43.69500

