158

Mg 41.99200 40.71500 27.49700
C  41.08000 43.27400 29.86900
C  43.22700 38.93700 30.07900
C  43.02200 38.61500 25.27500
C  41.49800 43.13600 24.96400
N  42.18800 41.16000 29.73200
C  41.53900 42.07700 30.47100
C  41.59700 41.78900 31.98000
C  42.45400 40.42300 32.01000
C  42.65800 40.18600 30.52000
C  43.78400 40.40500 32.78400
C  40.18300 41.66200 32.64200
C  39.89300 42.52900 33.80800
H  39.22400 41.88200 34.98100
N  42.75600 38.91600 27.65500
C  43.28200 38.32500 28.80100
C  43.74400 37.01600 28.50200
C  43.67100 36.85200 27.07400
C  43.17200 38.15200 26.59600
C  44.24600 36.03500 29.60100
C  44.17900 35.72100 26.21700
O  44.14600 35.63700 25.03600
C  44.84800 34.65600 26.85900
N  42.28400 40.91000 25.42400
C  42.67800 39.84600 24.70800
C  42.66600 40.06000 23.16000
C  42.07500 41.47400 23.05300
C  41.97600 41.91400 24.52500
C  43.98200 39.83400 22.45200
C  40.67900 41.45400 22.33700
C  39.38800 41.06300 23.08100
N  41.43000 42.81400 27.37300
C  41.23100 43.63400 26.28300
C  41.01000 45.04100 26.75300
C  40.83200 44.90000 28.14100
C  41.13800 43.54200 28.46200
C  40.88900 46.16100 25.78800
C  40.38400 45.59200 29.39800
O  40.12100 46.73500 29.63600
C  40.50500 44.53500 30.56100
C  41.51000 45.10000 31.49800
O  42.72200 45.06000 31.45500
O  40.79500 45.70200 32.47200
C  41.52500 46.08200 33.67900
H  43.72600 38.31400 30.82500
H  43.20600 37.90500 24.46500
H  41.19600 43.73200 24.10000
H  42.15100 42.55000 32.53000
H  41.85200 39.56100 32.29800
H  43.91500 41.40200 33.20700
H  44.69200 40.14900 32.23800
H  43.80000 39.72500 33.63600
H  39.99200 40.65500 33.01200
H  39.50000 41.92900 31.83500
H  39.20800 43.29800 33.45200
H  40.74200 43.07700 34.21900
H  45.33100 35.95000 29.54000
H  43.94600 35.00300 29.42000
H  43.89900 36.26900 30.60800
H  44.04800 34.19700 27.44000
H  45.67700 35.11600 27.39600
H  45.35000 34.00300 26.14500
H  41.97900 39.27500 22.84500
H  42.63500 42.19600 22.45800
H  44.87900 39.72000 23.05900
H  44.19100 40.62800 21.73500
H  43.96000 38.89600 21.89800
H  40.72700 40.65200 21.60100
H  40.47100 42.31300 21.69800
H  39.57400 40.65800 24.07600
H  38.77800 40.25300 22.68100
H  38.87200 42.00700 23.25300
H  39.99400 46.07700 25.17100
H  41.73300 46.01200 25.11500
H  40.91000 47.21600 26.06300
H  39.54000 44.37500 31.04300
H  41.78200 45.20900 34.28000
H  40.91700 46.72500 34.31600
H  42.47300 46.60800 33.57000
Mg -1.64200 35.06600 27.23300
C  -3.39800 33.26300 29.86300
C  -0.30500 37.07800 29.65600
C  -0.29100 36.92500 24.75100
C  -3.25700 33.10500 24.91800
N  -1.90200 35.19600 29.56500
C  -2.62200 34.35700 30.38300
C  -2.30800 34.73000 31.85400
C  -1.51200 36.14300 31.75400
C  -1.26800 36.20600 30.20600
C  -2.18200 37.56100 32.26200
C  -1.63400 33.59400 32.63300
C  -2.11800 33.39800 34.10000
H  -1.10200 33.62700 35.21800
N  -0.34600 36.50900 27.22300
C  0.18300 37.12400 28.30800
C  1.24000 37.99500 27.95200
C  1.27700 37.97800 26.51300
C  0.17300 37.09400 26.08100
C  2.09600 38.88400 28.91300
C  2.14400 38.87300 25.54600
O  1.98200 38.87100 24.32800
C  3.19900 39.88600 26.08500
N  -1.93900 35.16500 25.15000
C  -1.22500 35.97700 24.33400
C  -1.74000 35.76500 22.88500
C  -2.39200 34.36400 22.90800
C  -2.58600 34.22000 24.39200
C  -2.64800 36.89900 22.25000
C  -1.49300 33.31200 22.22100
C  -0.16200 32.90700 22.83700
N  -3.14100 33.55200 27.27300
C  -3.60600 32.74600 26.24700
C  -4.38200 31.68100 26.75000
C  -4.28200 31.83800 28.17700
C  -3.52700 32.96600 28.44800
C  -5.13900 30.64200 25.99400
C  -4.69800 31.31000 29.49300
O  -5.30700 30.29300 29.69600
C  -4.19000 32.22500 30.62700
C  -5.25600 32.77300 31.38400
O  -6.09400 33.54000 30.89200
O  -5.20300 32.35000 32.64300
C  -6.20400 33.02300 33.57200
H  0.26900 37.61100 30.41800
H  0.21700 37.52800 23.99500
H  -3.68400 32.48300 24.12800
H  -3.25200 34.94900 32.35500
H  -0.58400 36.02700 32.31600
H  -2.80300 38.09800 31.54500
H  -1.39800 38.23300 32.61200
H  -2.85000 37.39900 33.10800
H  -0.55800 33.74400 32.54600
H  -1.83200 32.61800 32.19100
H  -2.49700 32.38600 34.24300
H  -3.02400 33.99000 34.23600
H  2.10800 38.56900 29.95700
H  1.77200 39.92300 28.96300
H  3.13800 38.76700 28.61600
H  2.60900 40.48100 26.78300
H  3.54200 40.44400 25.21400
H  4.00000 39.45800 26.68800
H  -0.85700 35.69200 22.25000
H  -3.34000 34.58400 22.41600
H  -2.32800 37.81800 22.74100
H  -3.71300 36.72400 22.40300
H  -2.48400 36.87300 21.17300
H  -1.16800 33.62500 21.22900
H  -2.10700 32.41600 22.12900
H  -0.34900 31.84200 22.98000
H  0.08300 33.37500 23.79000
H  0.55700 33.15100 22.05500
H  -4.55600 30.17200 25.20200
H  -5.94300 31.11100 25.42800
H  -5.54600 29.86300 26.63900
H  -3.58000 31.63700 31.31300
H  -5.52600 33.55400 34.24100
H  -6.71900 32.27500 34.17300
H  -7.05200 33.57500 33.16700

