158

Mg 16.14100 51.89300 25.63400
C  17.90300 50.66100 28.43700
C  13.52000 52.65200 27.81000
C  14.26300 52.35300 23.02300
C  18.75700 50.57000 23.52600
N  15.71800 51.47200 27.87200
C  16.69100 51.24000 28.78700
C  16.29500 51.66900 30.23300
C  14.84400 52.28100 30.05900
C  14.64300 52.09400 28.47500
C  13.68800 51.57600 30.80500
C  17.28200 52.65000 30.87900
C  17.47400 52.53000 32.36800
H  16.43900 51.65600 33.20800
N  14.17600 52.52800 25.42500
C  13.28700 52.86100 26.43600
C  12.15200 53.44400 25.81600
C  12.25100 53.16600 24.44800
C  13.62800 52.69700 24.23100
C  11.03900 53.97400 26.64600
C  11.23400 53.29800 23.33700
O  11.44800 52.93600 22.20500
C  9.85500 53.89300 23.53800
N  16.59600 51.67600 23.54100
C  15.49300 51.82700 22.72400
C  15.83600 51.31300 21.25600
C  17.31900 50.82400 21.38500
C  17.55400 51.04700 22.88100
C  14.77100 50.21100 20.82200
C  18.39800 51.57900 20.46600
C  19.35100 50.67100 19.60500
N  17.97400 50.94600 25.91000
C  18.94500 50.48500 24.95500
C  19.94700 49.65900 25.67400
C  19.63500 49.79100 27.06000
C  18.37000 50.49900 27.12500
C  20.95200 48.78500 25.21800
C  20.09200 49.44000 28.40200
O  21.02000 48.76300 28.76500
C  19.06600 50.17800 29.32800
C  18.73800 49.30500 30.44200
O  17.78000 48.59700 30.39900
O  19.73100 49.34900 31.46700
C  19.42700 48.55600 32.67400
H  12.77900 53.14100 28.44600
H  13.74800 52.45900 22.06600
H  19.58900 50.19100 22.92800
H  16.17500 50.70300 30.72400
H  14.78600 53.32200 30.37700
H  13.01000 51.21100 30.03400
H  13.04200 52.20800 31.41500
H  14.01000 50.71200 31.38600
H  16.96500 53.68400 30.74500
H  18.23700 52.65900 30.35300
H  17.39300 53.53400 32.78500
H  18.50900 52.29200 32.61200
H  11.40900 54.84400 27.18900
H  10.73100 53.24400 27.39500
H  10.10000 54.28900 26.19200
H  9.38700 53.34100 24.35300
H  9.37200 53.94400 22.56200
H  10.02900 54.91800 23.86400
H  15.80300 52.21700 20.64800
H  17.27600 49.75300 21.18800
H  13.87200 50.33600 21.42500
H  15.13700 49.18500 20.84200
H  14.57800 50.32900 19.75500
H  18.91400 52.34100 21.05000
H  17.88000 52.19800 19.73300
H  19.11900 49.62600 19.80900
H  20.36100 51.00700 19.83800
H  19.26400 50.82300 18.52900
H  20.98400 48.64500 24.13800
H  20.82800 47.88600 25.82300
H  21.96300 49.16800 25.35600
H  19.67300 50.93800 29.82000
H  20.14500 47.74100 32.58700
H  18.36400 48.31700 32.64800
H  19.64100 49.22000 33.51200
Mg -10.88000 17.11900 43.31000
C  -7.40900 17.75300 43.23500
C  -11.45300 20.42800 42.52400
C  -14.03400 16.24700 42.60900
C  -9.98300 13.66700 43.50300
N  -9.55300 18.80700 43.00600
C  -8.19600 18.89000 43.07900
C  -7.67900 20.32200 42.70600
C  -8.93400 21.12700 42.99800
C  -10.10700 20.07900 42.83500
C  -9.01500 21.87100 44.37600
C  -7.17500 20.41400 41.18900
C  -5.99500 21.35900 40.82600
H  -4.89000 20.55500 40.28500
N  -12.57100 18.20900 42.61500
C  -12.57000 19.57700 42.31900
C  -13.90500 19.99400 41.97800
C  -14.69300 18.75700 41.93900
C  -13.74000 17.63800 42.38000
C  -14.31200 21.35300 41.59700
C  -16.17900 18.73600 41.47900
O  -16.73900 19.77800 41.21100
C  -17.00000 17.42500 41.27700
N  -11.84000 15.20600 42.97900
C  -13.16600 15.17500 42.87200
C  -13.66800 13.71600 43.06600
C  -12.34600 12.88700 42.94900
C  -11.35300 13.95400 43.21700
C  -14.46700 13.51000 44.38800
C  -12.17800 12.02100 41.67300
C  -12.15000 12.84600 40.30300
N  -9.08700 15.92400 43.54700
C  -8.89700 14.47700 43.57500
C  -7.49600 14.17200 43.71800
C  -6.87500 15.47900 43.67400
C  -7.88400 16.45400 43.44700
C  -6.89300 12.84200 44.07100
C  -5.61800 16.19400 43.79900
O  -4.54400 15.74200 44.06800
C  -5.84000 17.71900 43.44600
C  -5.56400 18.52700 44.69800
O  -5.95200 18.33200 45.83700
O  -4.69800 19.53800 44.33500
C  -4.35600 20.34900 45.46700
H  -11.62300 21.49700 42.67100
H  -15.08000 15.99700 42.42200
H  -9.63000 12.63400 43.56000
H  -6.93600 20.67300 43.42200
H  -9.21700 21.85300 42.23700
H  -9.71900 21.40600 45.06600
H  -9.20700 22.93400 44.23200
H  -8.05400 21.77700 44.88100
H  -7.90600 20.76700 40.46100
H  -6.95000 19.38400 40.91400
H  -5.67300 21.89100 41.72100
H  -6.34700 22.12200 40.13200
H  -14.52700 21.48100 40.53600
H  -13.53100 22.04200 41.91900
H  -15.18800 21.57900 42.20500
H  -17.97800 17.54400 40.80900
H  -17.22900 17.12200 42.29900
H  -16.45300 16.64900 40.74100
H  -14.18100 13.31400 42.19300
H  -12.28800 12.24700 43.83000
H  -14.95700 14.42100 44.73100
H  -13.86000 13.07300 45.18200
H  -15.12100 12.69200 44.08700
H  -12.98900 11.29300 41.71300
H  -11.28100 11.40100 41.66100
H  -12.76800 12.41600 39.51500
H  -11.09600 12.76100 40.03800
H  -12.52200 13.86500 40.41300
H  -5.86400 12.80500 44.42800
H  -6.95200 12.24900 43.15800
H  -7.46400 12.36600 44.86800
H  -5.32000 18.11100 42.57200
H  -5.20000 20.85000 45.94200
H  -3.60200 21.09800 45.22500
H  -4.02500 19.67400 46.25700

