158

Mg 35.63300 1.75100 29.08000
C  33.60500 2.83700 31.65100
C  38.18700 1.30800 31.30900
C  37.70400 1.31300 26.61600
C  32.96200 2.24100 26.83500
N  35.83600 2.27200 31.21700
C  34.88900 2.54000 32.14300
C  35.39700 2.32300 33.57500
C  36.90500 2.11000 33.31800
C  37.00100 1.92000 31.84500
C  37.72600 3.38000 33.75000
C  34.69100 1.20300 34.40800
C  34.05800 1.59600 35.77400
H  34.64600 2.79000 36.50400
N  37.62500 1.16800 28.93500
C  38.46900 0.95900 29.98900
C  39.72200 0.59200 29.54500
C  39.66100 0.76200 28.09100
C  38.28500 1.05400 27.81800
C  40.93700 0.26800 30.49700
C  40.70200 0.48500 27.00800
O  40.48800 0.74000 25.88200
C  42.07300 -0.13800 27.32900
N  35.31500 1.83800 26.99800
C  36.42300 1.64900 26.19100
C  36.04700 1.75900 24.65800
C  34.52000 1.91000 24.77300
C  34.19000 1.92300 26.27100
C  36.75600 2.87600 23.83200
C  33.71400 0.83800 23.98600
C  33.06400 1.42800 22.71000
N  33.65600 2.47500 29.14500
C  32.66200 2.54200 28.21100
C  31.54200 3.18200 28.75600
C  31.80700 3.28100 30.12000
C  33.15500 2.77700 30.30400
C  30.24300 3.56400 27.99900
C  31.27500 3.62000 31.40600
O  30.11600 3.86100 31.75600
C  32.43200 3.36700 32.52200
C  32.67600 4.60000 33.34000
O  33.58300 5.42100 33.15600
O  31.69700 4.66200 34.32000
C  31.86400 5.89400 35.08900
H  38.89700 1.06600 32.10300
H  38.36400 1.17900 25.75700
H  32.24200 2.44700 26.04100
H  35.24000 3.20600 34.19500
H  37.33700 1.20700 33.74700
H  38.31500 3.63700 32.87000
H  38.46000 3.18500 34.53200
H  37.11300 4.27000 33.89000
H  35.43100 0.42300 34.58700
H  33.85500 0.84500 33.80800
H  34.27800 0.74500 36.41900
H  33.01400 1.69100 35.47400
H  41.18600 -0.79200 30.46000
H  40.71500 0.44700 31.54900
H  41.71100 0.94300 30.13200
H  42.08600 -0.78100 28.20900
H  42.76000 0.68100 27.54200
H  42.35300 -0.77400 26.49000
H  36.23300 0.76800 24.24400
H  34.23500 2.89700 24.41100
H  36.09100 3.45300 23.19000
H  37.40200 2.30100 23.16800
H  37.29400 3.64800 24.38300
H  33.02800 0.39400 24.70700
H  34.42900 0.08700 23.65000
H  33.37500 2.45300 22.50800
H  31.98300 1.40200 22.84600
H  33.40300 0.76800 21.91100
H  30.37900 4.23300 27.15000
H  29.42400 4.05400 28.52600
H  29.81700 2.71800 27.45800
H  32.08100 2.63100 33.24500
H  30.99900 6.01800 35.74000
H  31.98600 6.82600 34.53700
H  32.64100 5.54100 35.76700
Mg 54.00800 23.91300 45.16200
C  51.70000 26.17800 44.19300
C  52.31200 21.40500 43.65100
C  56.77800 21.99800 45.27400
C  55.96900 26.64800 46.35400
N  52.31700 23.81800 44.03100
C  51.53600 24.89300 43.63600
C  50.58400 24.43800 42.58900
C  50.42500 22.95100 42.96800
C  51.74200 22.68900 43.60900
C  49.24600 22.61100 43.96400
C  51.07300 24.75300 41.10900
C  49.91000 24.93600 40.20300
H  50.25500 25.26200 38.73800
N  54.46300 21.89700 44.68700
C  53.59200 21.01900 44.08500
C  54.14600 19.69900 43.99300
C  55.50900 19.91800 44.46100
C  55.62300 21.33600 44.86500
C  53.42600 18.45200 43.49700
C  56.55200 18.80300 44.63700
O  56.26000 17.62000 44.26000
C  57.88300 18.92100 45.23200
N  56.15900 24.31800 45.52600
C  57.02700 23.30000 45.58500
C  58.37400 23.87500 45.95400
C  58.13100 25.28400 46.50100
C  56.64100 25.45800 46.16200
C  59.26700 23.05400 46.90000
C  59.13500 26.42100 46.10700
C  59.78800 27.20000 47.19600
N  53.77300 25.95500 45.53600
C  54.61600 26.91000 46.03200
C  53.92900 28.16900 46.13800
C  52.74000 27.91600 45.40900
C  52.71600 26.55600 45.06400
C  54.41100 29.42100 46.73600
C  51.55600 28.52600 44.90100
O  51.11600 29.68700 44.96300
C  50.78600 27.36700 44.11000
C  50.57000 27.76100 42.71400
O  51.41300 28.29800 41.97300
O  49.22400 27.70500 42.42400
C  48.81300 28.47500 41.25800
H  51.72000 20.71200 43.05000
H  57.62100 21.30900 45.36000
H  56.36900 27.49400 46.91700
H  49.66200 24.99800 42.74300
H  50.30800 22.30500 42.09700
H  49.69800 22.53200 44.95200
H  48.84400 21.63000 43.70900
H  48.49900 23.40200 44.02500
H  51.57000 23.89500 40.65800
H  51.72100 25.63000 41.13500
H  49.36700 25.79700 40.59200
H  49.32400 24.02300 40.30700
H  54.00700 17.62300 43.09200
H  52.70500 18.66500 42.70900
H  52.84500 17.98300 44.29100
H  57.79800 19.19400 46.28400
H  58.52700 19.59600 44.66800
H  58.43200 17.98400 45.14100
H  58.98300 23.92100 45.05100
H  58.20000 25.30700 47.58900
H  59.43900 23.60900 47.82200
H  60.21900 22.80000 46.43300
H  58.91500 22.11800 47.33400
H  58.64500 27.17600 45.49200
H  59.91300 26.03700 45.44700
H  59.76000 28.26100 46.94600
H  60.79800 26.82800 47.36700
H  59.26400 27.22700 48.15100
H  54.34200 30.17600 45.95200
H  55.45500 29.38800 47.04800
H  53.70400 29.63000 47.53900
H  49.80900 27.22400 44.57200
H  47.91300 28.98800 41.59800
H  48.55600 27.97600 40.32400
H  49.55800 29.24700 41.06500

