158

Mg -9.85500 39.51000 39.60200
C  -9.23700 36.13300 39.09400
C  -6.73700 40.31900 38.88800
C  -10.74200 42.80400 39.75900
C  -13.33000 38.70200 39.22400
N  -8.31500 38.40600 38.72200
C  -8.17200 37.03500 38.70800
C  -6.74400 36.64000 38.43900
C  -6.01100 37.88100 38.92100
C  -7.05200 38.95700 38.78700
C  -5.34200 37.78500 40.36400
C  -6.45200 36.24300 36.87200
C  -6.90000 37.22300 35.63700
H  -7.99500 36.68800 34.75500
N  -8.84400 41.33700 39.42400
C  -7.54000 41.42400 39.15800
C  -7.19200 42.81600 39.10400
C  -8.31100 43.62600 39.34500
C  -9.38500 42.64300 39.53400
C  -5.78600 43.40300 38.67600
C  -8.48600 45.13100 39.44100
O  -7.47200 45.79200 39.25500
C  -9.75900 45.82100 39.79200
N  -11.75400 40.64200 39.41800
C  -11.85300 41.96600 39.70500
C  -13.22600 42.51400 39.51200
C  -14.08100 41.19700 39.14000
C  -12.97100 40.10500 39.17100
C  -13.89200 43.20400 40.78000
C  -14.84300 41.31700 37.79700
C  -16.25600 40.82200 37.97700
N  -11.10000 37.74900 39.49600
C  -12.47300 37.60600 39.43100
C  -12.78800 36.18400 39.25000
C  -11.50100 35.54400 39.08000
C  -10.57300 36.54400 39.28200
C  -14.15700 35.56700 39.22000
C  -10.73000 34.35100 38.65300
O  -11.20900 33.30200 38.26300
C  -9.24700 34.65300 38.75900
C  -8.64400 33.67900 39.70900
O  -8.89200 33.53600 40.92300
O  -7.45000 33.32600 39.16400
C  -6.37500 32.83500 40.12700
H  -5.68000 40.55300 38.74200
H  -11.10700 43.80600 39.99500
H  -14.37700 38.47100 39.01800
H  -6.59100 35.71200 38.99100
H  -5.13700 38.02300 38.28500
H  -5.61600 36.78200 40.69000
H  -5.80600 38.50800 41.03500
H  -4.25400 37.84800 40.34800
H  -6.77000 35.21200 36.71500
H  -5.37200 36.21200 37.01800
H  -6.00000 37.41500 35.05200
H  -7.28400 38.15000 36.06200
H  -5.16200 42.61200 38.26100
H  -5.19800 43.73400 39.53200
H  -5.83000 44.23100 37.96800
H  -10.02000 45.47700 40.79300
H  -10.40300 45.52200 38.96500
H  -9.66200 46.90300 39.70000
H  -13.08400 43.23500 38.70700
H  -14.77000 41.02200 39.96600
H  -14.76100 42.80200 41.30300
H  -14.09400 44.24400 40.52700
H  -13.11400 43.34200 41.53000
H  -14.36700 40.61400 37.11400
H  -14.78200 42.36400 37.50100
H  -17.03600 41.58000 38.03300
H  -16.47700 40.15100 38.80700
H  -16.34000 40.21100 37.07700
H  -14.98300 36.22700 39.48800
H  -14.08800 34.59500 39.70800
H  -14.35800 35.48400 38.15200
H  -8.74800 34.50100 37.80200
H  -6.56900 32.72700 41.19400
H  -5.52800 33.52100 40.11400
H  -5.96800 31.87900 39.79600
Mg 0.23400 44.10600 26.62400
C  2.51400 43.96500 29.27200
C  -2.22100 43.39400 29.03100
C  -1.88500 43.47000 24.03900
C  2.78200 44.64600 24.33900
N  0.17600 43.90200 28.99000
C  1.22300 43.84700 29.84200
C  0.83600 43.78000 31.28500
C  -0.62500 43.37000 31.13700
C  -0.93800 43.63300 29.60200
C  -0.84400 41.85100 31.50500
C  1.09400 45.08900 32.09700
C  1.39300 44.82500 33.60500
H  0.98300 43.58500 34.35600
N  -1.73600 43.46200 26.55600
C  -2.56000 43.20800 27.62300
C  -3.85900 42.77300 27.17900
C  -3.80000 42.85800 25.68000
C  -2.45800 43.36800 25.35200
C  -5.06500 42.49200 28.12500
C  -4.95000 42.55000 24.67000
O  -4.74800 42.44600 23.47600
C  -6.33700 42.21100 25.15200
N  0.40100 43.93400 24.50400
C  -0.58700 43.65900 23.64700
C  -0.14300 43.80900 22.16200
C  1.32400 44.28100 22.30700
C  1.52400 44.31400 23.82600
C  -0.24500 42.44600 21.44200
C  1.74600 45.47500 21.41800
C  0.73500 46.60500 21.43600
N  2.22600 44.26100 26.75500
C  3.15300 44.48700 25.73200
C  4.47800 44.37600 26.28300
C  4.25700 44.13500 27.68300
C  2.91700 44.05600 27.91900
C  5.81500 44.44000 25.54500
C  4.89200 43.78400 28.85800
O  6.07900 43.58400 29.10500
C  3.83600 43.85100 29.99700
C  4.04200 42.70500 30.95400
O  3.69400 41.55800 30.79600
O  4.81900 43.15100 32.00700
C  4.86900 42.16800 33.10600
H  -2.98700 43.12400 29.76000
H  -2.43300 43.37100 23.09900
H  3.57200 44.72100 23.58900
H  1.36700 42.94900 31.75000
H  -1.37200 44.01600 31.59700
H  0.01000 41.18900 31.65300
H  -1.41300 41.33700 30.73000
H  -1.54800 41.74100 32.33000
H  0.20000 45.70100 31.97800
H  1.95200 45.55700 31.61500
H  1.10600 45.75500 34.09500
H  2.48100 44.79200 33.66300
H  -5.27100 43.50200 28.48000
H  -4.62000 42.08400 29.03200
H  -5.89100 41.89000 27.74600
H  -6.37300 41.29400 25.74000
H  -7.01100 42.18200 24.29600
H  -6.71900 43.03300 25.75800
H  -0.85300 44.53000 21.75800
H  1.88900 43.44600 21.89200
H  -0.36900 41.63800 22.16300
H  0.61000 42.16100 20.82800
H  -1.13600 42.53600 20.82100
H  1.89500 45.03200 20.43300
H  2.76600 45.78000 21.65300
H  0.01200 46.48400 22.24300
H  0.15300 46.60900 20.51400
H  1.27900 47.51300 21.69600
H  6.02200 43.41700 25.22900
H  6.59000 44.69100 26.26900
H  5.79200 45.03400 24.63100
H  3.96900 44.79100 30.53200
H  4.99900 41.13300 32.79000
H  3.98500 42.16600 33.74200
H  5.73800 42.52600 33.65800

