158

Mg 26.93500 50.46700 25.61200
C  24.86100 51.71300 28.07500
C  29.24100 49.81100 27.94700
C  28.82100 49.30200 23.14400
C  24.63700 51.84400 23.16800
N  27.02500 50.86600 27.78500
C  26.00600 51.19500 28.61100
C  26.30200 50.98000 30.14600
C  27.82700 50.49500 29.95600
C  28.09700 50.44800 28.46000
C  28.82600 51.43000 30.62300
C  25.41300 49.85500 30.61100
C  25.81100 49.30100 32.03200
H  24.96200 49.66500 33.20100
N  28.76900 49.74200 25.62200
C  29.62000 49.49400 26.65900
C  30.83400 48.80200 26.17200
C  30.77100 48.63000 24.78600
C  29.41800 49.21300 24.44100
C  31.93500 48.36800 27.14000
C  31.74800 48.00100 23.79000
O  31.49800 47.93000 22.62200
C  33.04200 47.33800 24.33900
N  26.67400 50.50300 23.50300
C  27.61900 49.91200 22.72500
C  27.02900 49.68600 21.31200
C  26.00400 50.79000 21.21300
C  25.72100 51.13800 22.67500
C  28.02600 49.59400 20.11600
C  24.67200 50.39400 20.50800
C  23.83600 49.37700 21.17900
N  25.14600 51.55800 25.54000
C  24.34200 52.05200 24.54300
C  23.17000 52.71100 25.13500
C  23.35800 52.56900 26.48000
C  24.53200 51.89900 26.72500
C  22.04100 53.41200 24.48100
C  22.78400 52.90100 27.76500
O  21.75300 53.52000 27.97400
C  23.62900 52.28500 28.80800
C  24.07300 53.26000 29.82300
O  24.93000 54.12500 29.64500
O  23.39200 53.02200 31.05600
C  23.70500 53.99100 32.14300
H  29.94000 49.53500 28.73900
H  29.45500 48.87400 22.36400
H  23.90100 52.31200 22.51100
H  26.17500 51.85200 30.78800
H  27.93200 49.46900 30.30700
H  28.41200 52.26000 31.19500
H  29.45100 51.87800 29.85100
H  29.38200 50.73700 31.25500
H  25.50700 49.09100 29.83900
H  24.39100 50.23100 30.65700
H  26.79600 49.67900 32.30800
H  25.90700 48.23000 31.85700
H  31.97000 47.27900 27.11900
H  31.64200 48.69800 28.13700
H  32.95500 48.73700 27.02800
H  33.40800 48.12100 25.00300
H  33.71100 47.08800 23.51500
H  32.72000 46.41900 24.82900
H  26.56600 48.71700 21.50100
H  26.34300 51.68700 20.69600
H  28.38800 48.56700 20.06200
H  28.90100 50.19100 20.37500
H  27.66000 50.01600 19.18000
H  24.97200 50.02100 19.52900
H  24.01200 51.24100 20.32500
H  24.26000 49.06800 22.13500
H  23.81100 48.53900 20.48200
H  22.81600 49.67100 21.43000
H  21.80600 52.86700 23.56700
H  22.26700 54.47600 24.41200
H  21.25500 53.34500 25.23300
H  23.03200 51.58000 29.38800
H  22.92100 54.02800 32.89900
H  23.67200 55.04900 31.88500
H  24.74200 53.82100 32.43300
Mg -0.30000 42.89000 26.54800
C  1.92600 43.12600 29.26100
C  -2.80900 42.66600 28.76200
C  -2.28500 42.19900 23.95100
C  2.47600 43.19300 24.30200
N  -0.40800 42.62900 28.81100
C  0.61700 42.90900 29.65200
C  0.04900 42.87500 31.12900
C  -1.48100 42.47900 30.90700
C  -1.59600 42.56900 29.41100
C  -1.86700 41.02700 31.47800
C  0.36000 44.23100 31.90100
C  1.00700 44.39700 33.33400
H  0.71400 43.24300 34.36200
N  -2.30500 42.59200 26.33700
C  -3.12700 42.61800 27.36700
C  -4.47800 42.51400 26.85400
C  -4.39500 42.16500 25.46000
C  -2.94000 42.33900 25.15100
C  -5.77100 42.83800 27.72900
C  -5.46800 41.73700 24.40700
O  -5.15600 41.46100 23.25200
C  -6.86700 41.73000 24.86800
N  0.06800 42.78900 24.35300
C  -0.93700 42.38900 23.56200
C  -0.37700 42.42400 22.06800
C  1.10400 42.88000 22.16600
C  1.22300 42.98000 23.68600
C  -0.49100 40.94600 21.58200
C  1.28900 44.19700 21.41500
C  1.97000 44.12900 20.00100
N  1.74100 43.04300 26.67500
C  2.75400 43.21200 25.74200
C  4.01500 43.41200 26.46000
C  3.73100 43.26700 27.81500
C  2.37400 43.12700 27.90500
C  5.26400 43.83700 25.72900
C  4.26800 43.43400 29.13300
O  5.44200 43.61100 29.45600
C  3.10000 43.36200 30.15300
C  3.44200 42.17900 30.97000
O  3.68600 41.02400 30.54100
O  3.71200 42.62700 32.25000
C  4.28500 41.50300 33.11100
H  -3.69500 42.57700 29.39400
H  -2.88900 42.04400 23.05400
H  3.29900 43.41100 23.61700
H  0.58900 42.04700 31.58800
H  -2.16500 43.27600 31.19700
H  -0.94900 40.53000 31.79100
H  -2.38900 40.41800 30.73900
H  -2.54300 41.05000 32.33300
H  -0.56600 44.80600 31.91500
H  1.04400 44.84900 31.32000
H  0.60300 45.31100 33.77000
H  2.08100 44.56600 33.25600
H  -6.40800 43.46900 27.10900
H  -5.68500 43.43600 28.63600
H  -6.30500 41.92400 27.98700
H  -6.85500 41.55800 25.94400
H  -7.52900 41.03800 24.34700
H  -7.36600 42.68800 24.73000
H  -1.04900 42.99900 21.43100
H  1.83200 42.12300 21.87300
H  0.23200 40.44100 22.22300
H  -0.23300 40.74100 20.54300
H  -1.41700 40.38900 21.72000
H  1.96200 44.82800 21.99500
H  0.36900 44.75300 21.23600
H  1.16900 44.39000 19.31000
H  2.35100 43.14000 19.74700
H  2.75800 44.86600 19.84500
H  5.63000 42.96200 25.19200
H  6.02300 44.27300 26.37900
H  4.84000 44.55400 25.02500
H  2.96700 44.36700 30.55300
H  4.58400 40.55100 32.67200
H  3.50200 41.23800 33.82100
H  5.08600 41.96300 33.69000

