158

Mg 0.33300 8.00900 26.75700
C  1.00900 10.15300 29.42700
C  -0.02800 5.41400 29.13000
C  0.00900 5.74500 24.25400
C  1.37300 10.54800 24.56000
N  0.44700 7.88000 29.04700
C  0.54400 8.94900 29.93700
C  0.27300 8.54700 31.37900
C  0.19600 6.94600 31.17500
C  0.11900 6.69100 29.67500
C  1.28500 6.09300 31.88300
C  -0.90600 9.25300 31.99800
C  -0.75500 9.69000 33.46500
H  0.18000 8.84100 34.30700
N  -0.08900 5.89700 26.71800
C  -0.15700 5.03900 27.81900
C  -0.36100 3.68500 27.30200
C  -0.47900 3.82700 25.88500
C  -0.21400 5.19100 25.53600
C  -0.49300 2.41000 28.13000
C  -0.86400 2.70800 24.89800
O  -0.87400 2.92400 23.71800
C  -1.33700 1.31000 25.36900
N  0.77700 8.08900 24.69000
C  0.60800 6.98600 23.87000
C  0.87000 7.40600 22.41200
C  1.11900 8.97100 22.52500
C  1.05800 9.26600 24.07400
C  2.00600 6.69200 21.64700
C  0.12700 9.90400 21.77800
C  0.82900 11.06700 20.92100
N  1.07400 9.95100 26.92600
C  1.51900 10.85100 25.91400
C  1.98500 12.08400 26.57000
C  1.76100 11.82100 27.90200
C  1.25000 10.50700 28.03000
C  2.36000 13.42500 25.98900
C  1.97900 12.43800 29.21400
O  2.54200 13.49900 29.48200
C  1.48500 11.40500 30.27700
C  2.60000 11.08500 31.11300
O  3.72200 10.63500 30.80000
O  2.31700 11.33700 32.41200
C  3.43200 11.31100 33.34400
H  -0.00600 4.71800 29.97100
H  -0.11800 4.99100 23.47500
H  1.52100 11.40500 23.89900
H  1.15000 8.79400 31.97700
H  -0.65400 6.37100 31.54200
H  0.79300 5.17500 32.20500
H  1.72500 6.50800 32.79100
H  2.07000 5.79700 31.18700
H  -1.74900 8.56300 32.02600
H  -1.27600 10.15400 31.50700
H  -1.69400 9.69000 34.01800
H  -0.57300 10.76000 33.36400
H  -0.26100 2.50800 29.19100
H  0.28400 1.77800 27.70200
H  -1.52900 2.07700 28.05800
H  -1.66400 0.60600 24.60300
H  -2.20000 1.50700 26.00400
H  -0.52000 0.78400 25.86300
H  0.00500 7.16600 21.79300
H  2.14300 9.33400 22.43900
H  2.60300 6.12300 22.36000
H  2.73900 7.33600 21.16100
H  1.48000 6.10000 20.89800
H  -0.61300 10.35600 22.43900
H  -0.55600 9.32700 21.15400
H  0.61800 10.81200 19.88200
H  1.87700 11.09000 21.21900
H  0.44800 12.00400 21.32800
H  2.37300 14.17800 26.77700
H  1.59900 13.88400 25.35800
H  3.37900 13.53600 25.61800
H  0.62100 11.82200 30.79500
H  4.37800 11.74400 33.01600
H  3.67300 10.28800 33.63400
H  3.04400 11.74100 34.26700
Mg 48.33400 34.65600 26.76400
C  46.23000 33.79900 29.45800
C  49.03500 37.54000 28.31000
C  49.77600 35.64600 23.91400
C  47.15500 31.74600 25.06800
N  47.81400 35.40800 28.74100
C  46.99000 34.95300 29.72400
C  47.33700 35.62600 31.03200
C  47.91900 37.03000 30.57100
C  48.30700 36.67500 29.10800
C  47.04700 38.36600 30.84000
C  48.36800 34.82800 31.87300
C  48.08800 34.63600 33.35800
H  47.05100 35.63300 34.03900
N  49.39500 36.35200 26.24900
C  49.56700 37.42100 27.02400
C  50.32700 38.44300 26.33800
C  50.65700 37.84300 25.09200
C  49.96900 36.54700 25.01200
C  50.66100 39.85500 27.05900
C  51.50900 38.37200 23.96200
O  51.61300 37.86600 22.83600
C  52.18100 39.67300 24.27600
N  48.62000 33.75300 24.73600
C  49.22400 34.40800 23.72800
C  49.26900 33.53100 22.47200
C  48.58600 32.24300 22.98400
C  48.04500 32.57100 24.39400
C  48.67000 34.20200 21.23000
C  49.79200 31.20700 23.17400
C  49.80400 30.15300 21.96200
N  46.94400 33.11100 27.09400
C  46.61500 31.97100 26.38800
C  45.62200 31.22100 27.06300
C  45.45000 31.95200 28.25300
C  46.26600 33.07200 28.27700
C  44.90600 30.07400 26.48900
C  44.70000 31.89300 29.52200
O  43.87200 31.04200 29.89100
C  45.18700 33.11700 30.37500
C  45.39900 32.71400 31.79400
O  46.31100 31.95200 32.14300
O  44.39500 33.06900 32.59000
C  44.17500 32.34700 33.86300
H  49.38500 38.38700 28.90400
H  50.24400 35.92800 22.96900
H  46.76500 30.89300 24.50900
H  46.40200 35.84600 31.54700
H  48.88300 37.31000 30.99500
H  46.18600 38.03100 31.41900
H  46.77400 38.82700 29.89100
H  47.61000 39.07900 31.44200
H  49.39200 35.19400 31.80100
H  48.32800 33.80600 31.49400
H  48.99300 34.72400 33.95900
H  47.63600 33.65400 33.50300
H  50.21300 40.67200 26.49200
H  51.74000 39.93400 26.93000
H  50.38000 39.93600 28.10900
H  52.89700 39.48800 25.07600
H  51.37600 40.38200 24.47200
H  52.78000 39.95200 23.41000
H  50.34500 33.43900 22.32700
H  47.76100 31.87900 22.37200
H  47.94900 33.57500 20.70500
H  49.54100 34.30900 20.58500
H  48.25000 35.20400 21.32600
H  49.78500 30.66100 24.11800
H  50.77400 31.66000 23.03500
H  50.67700 30.16300 21.31000
H  48.87900 30.03800 21.39700
H  49.94600 29.23400 22.53100
H  44.43600 30.41700 25.56700
H  44.15400 29.80000 27.22800
H  45.57500 29.24300 26.26200
H  44.30900 33.76200 30.39200
H  43.10600 32.16800 33.97600
H  44.39300 32.99600 34.71200
H  44.71100 31.41900 34.06200

