158

Mg 24.00900 -5.60100 45.32800
C  26.42600 -3.40300 43.83400
C  21.69700 -4.40300 43.09200
C  22.09900 -8.13000 46.27500
C  26.61200 -6.70800 47.40200
N  24.12000 -4.14200 43.58100
C  25.20600 -3.36000 43.17700
C  24.78100 -2.36500 42.14400
C  23.18300 -2.53700 42.06600
C  22.92400 -3.77500 42.95600
C  22.41100 -1.29800 42.55200
C  25.52500 -2.68500 40.78800
C  25.99000 -1.46900 39.90000
H  25.54000 -1.55800 38.43500
N  22.15900 -6.14800 44.82900
C  21.39800 -5.55800 43.86300
C  20.14300 -6.18300 43.79800
C  20.06800 -7.17000 44.87400
C  21.45200 -7.17000 45.42500
C  19.01900 -5.76700 42.89100
C  18.92900 -7.95800 45.36500
O  17.79900 -7.69000 44.82400
C  19.03400 -8.95600 46.46600
N  24.28700 -7.22100 46.54400
C  23.34600 -8.11500 46.81600
C  23.85000 -9.26100 47.71100
C  25.24800 -8.64900 48.26300
C  25.45000 -7.49300 47.34400
C  22.88500 -9.83000 48.81800
C  26.45100 -9.63500 48.37600
C  27.34700 -9.60400 49.64800
N  26.08700 -5.08500 45.64700
C  26.93500 -5.62200 46.55100
C  28.23800 -4.92500 46.42100
C  28.07500 -3.97700 45.39700
C  26.77500 -4.15300 44.95700
C  29.47900 -5.09200 47.21700
C  28.71100 -2.85400 44.70000
O  29.79600 -2.31500 44.89400
C  27.74200 -2.52400 43.54600
C  27.58400 -1.08200 43.52400
O  27.20800 -0.40000 44.41500
O  28.05400 -0.62000 42.28100
C  28.06000 0.81200 42.17200
H  20.96600 -4.02300 42.37500
H  21.56300 -9.04000 46.55100
H  27.35300 -7.01000 48.14500
H  24.99400 -1.33300 42.42200
H  22.78000 -2.90600 41.12300
H  22.90900 -0.42700 42.97900
H  21.76200 -1.53500 43.39500
H  21.97600 -1.00700 41.59600
H  24.87500 -3.30900 40.17500
H  26.43900 -3.24500 40.98300
H  27.07600 -1.50900 39.81500
H  25.63100 -0.52400 40.31000
H  18.29300 -6.52700 42.60300
H  19.47900 -5.30200 42.01900
H  18.40300 -5.01000 43.37600
H  19.39700 -8.57100 47.41900
H  19.61400 -9.81400 46.12700
H  18.01100 -9.27500 46.66600
H  24.18800 -10.05400 47.04400
H  25.03100 -8.15100 49.20700
H  21.92400 -9.31600 48.79200
H  23.16300 -9.84400 49.87200
H  22.85500 -10.88300 48.54000
H  27.00900 -9.54100 47.44500
H  26.00000 -10.62700 48.36100
H  28.38200 -9.85600 49.41500
H  27.04400 -10.44300 50.27400
H  27.21800 -8.68400 50.22000
H  29.26200 -5.21400 48.27800
H  30.12300 -4.21300 47.18900
H  29.98400 -5.97800 46.83400
H  28.13600 -2.75000 42.55400
H  28.36300 1.21400 41.20500
H  28.82400 1.27900 42.79300
H  27.11600 1.32400 42.36000
Mg 0.65900 42.94600 26.03200
C  2.75200 42.90400 28.97000
C  -1.85200 41.74600 28.30900
C  -1.27200 42.28200 23.41400
C  3.42000 43.42100 24.21600
N  0.47900 42.45400 28.43500
C  1.49900 42.50200 29.36600
C  0.94000 42.34100 30.81800
C  -0.45000 41.76500 30.49300
C  -0.69000 42.10100 28.99400
C  -0.65200 40.22400 30.83200
C  0.94400 43.78200 31.53600
C  1.00400 43.67500 33.07100
H  0.99200 42.28300 33.76200
N  -1.36300 42.26400 25.81600
C  -2.20700 41.93700 26.87600
C  -3.54600 41.66600 26.30100
C  -3.43500 41.82200 24.87300
C  -1.98800 42.08300 24.59600
C  -4.76400 41.47700 27.16500
C  -4.45800 41.63200 23.81600
O  -4.18600 41.57200 22.62000
C  -5.92600 41.34900 24.15500
N  1.17700 42.54600 24.09900
C  0.12600 42.58500 23.21500
C  0.72700 42.75300 21.76600
C  2.04600 43.51400 22.00000
C  2.22700 43.20300 23.55300
C  0.86000 41.48600 20.94200
C  1.96900 45.03100 21.66600
C  3.34800 45.59900 21.21700
N  2.72400 43.26200 26.44100
C  3.72400 43.46100 25.59100
C  4.99700 43.68000 26.26400
C  4.62900 43.57600 27.61800
C  3.23300 43.18800 27.69700
C  6.31600 44.04800 25.76100
C  5.19300 43.49000 28.95400
O  6.31600 43.58800 29.31400
C  3.96600 43.24300 29.86700
C  4.33100 42.16400 30.80000
O  4.38600 40.99200 30.51000
O  4.48500 42.70700 32.07100
C  5.17700 41.87100 33.07000
H  -2.62100 41.27400 28.92400
H  -1.80300 42.16100 22.46800
H  4.35400 43.60700 23.68200
H  1.65300 41.70300 31.33900
H  -1.21800 42.31600 31.03600
H  -1.35600 40.11200 31.65700
H  0.32100 39.87800 31.18100
H  -1.02800 39.70100 29.95200
H  0.12000 44.43400 31.24500
H  1.76700 44.39900 31.17400
H  0.42000 44.48100 33.51600
H  1.98600 44.02200 33.39500
H  -4.95200 40.40400 27.19100
H  -5.63900 41.88000 26.65500
H  -4.77600 41.85000 28.18900
H  -6.58800 41.15800 23.31000
H  -6.33000 42.12000 24.81100
H  -6.03100 40.43800 24.74400
H  0.02400 43.45200 21.31200
H  2.92500 43.05100 21.55300
H  0.28300 40.64600 21.32800
H  1.87100 41.13300 20.73800
H  0.39200 41.64200 19.97000
H  1.63400 45.51400 22.58400
H  1.19500 45.17800 20.91300
H  3.19000 45.84700 20.16700
H  4.10100 44.81300 21.28300
H  3.68500 46.47500 21.77100
H  6.28800 44.86900 25.04500
H  6.70600 43.13700 25.30700
H  7.04500 44.29600 26.53200
H  3.72200 44.15100 30.41900
H  6.24600 41.94300 32.86500
H  4.85600 40.83500 32.96800
H  5.01000 42.18200 34.10100

