158

Mg 54.63200 22.05400 45.13500
C  52.80200 24.85600 43.90500
C  52.29900 20.04900 43.93700
C  56.83300 19.51000 45.76900
C  57.38100 24.36000 45.68800
N  52.84500 22.42800 43.73900
C  52.21100 23.62200 43.49800
C  50.76600 23.41100 42.98000
C  50.61900 21.91500 43.33100
C  52.00500 21.43700 43.73200
C  49.59900 21.57700 44.46900
C  50.45200 23.69800 41.47800
C  48.93300 24.07300 41.34200
H  48.40300 23.97100 39.89800
N  54.60700 19.98600 44.93000
C  53.47100 19.34000 44.45600
C  53.68200 17.91500 44.56200
C  54.98800 17.71100 45.08000
C  55.53600 19.08600 45.30600
C  52.62100 16.90100 44.09800
C  55.64700 16.43700 45.38000
O  55.13100 15.37300 45.02100
C  56.90200 16.28600 46.15400
N  56.87000 21.95200 45.53900
C  57.41700 20.79700 45.91200
C  58.89400 21.04600 46.34600
C  59.10000 22.56400 46.13400
C  57.69600 23.03900 45.67800
C  59.31000 20.48700 47.76600
C  60.23200 22.93400 45.07100
C  61.70700 22.88000 45.55900
N  55.05200 24.09800 44.99000
C  56.12900 24.92800 45.28200
C  55.73400 26.31500 45.27200
C  54.48500 26.27100 44.73300
C  54.10700 24.96700 44.50300
C  56.45100 27.47400 45.71800
C  53.40400 27.14900 44.26600
O  53.33800 28.39500 44.21800
C  52.23000 26.24200 43.83400
C  51.86000 26.54800 42.45600
O  52.58300 26.32900 41.53500
O  50.62600 27.08700 42.37700
C  50.37700 27.63900 41.03200
H  51.37100 19.48400 43.82100
H  57.50100 18.74000 46.16000
H  58.12200 25.10700 45.97900
H  50.08900 23.94200 43.64900
H  50.30800 21.43100 42.40500
H  49.61200 22.42000 45.16000
H  49.91600 20.67400 44.99200
H  48.62900 21.32700 44.04000
H  50.69400 22.83400 40.85900
H  51.02700 24.55500 41.12500
H  48.84800 25.03900 41.84000
H  48.31900 23.38500 41.92300
H  52.89300 16.66700 43.06800
H  51.64300 17.37300 44.19300
H  52.51400 15.99900 44.70000
H  57.70800 16.56600 45.47600
H  57.14600 15.25400 46.40300
H  56.99800 16.84800 47.08300
H  59.42500 20.56500 45.52500
H  59.40300 23.10900 47.02900
H  59.61200 21.24800 48.48600
H  60.14100 19.78400 47.70100
H  58.43400 20.00500 48.20000
H  59.92700 23.90100 44.67000
H  60.05500 22.27700 44.21900
H  62.16900 23.74300 45.07900
H  62.18100 21.97800 45.17400
H  61.76900 22.85700 46.64700
H  57.32900 27.58300 45.08100
H  56.79900 27.22000 46.71900
H  55.89700 28.40300 45.84800
H  51.31500 26.47100 44.37900
H  49.58400 28.38400 41.10300
H  50.22400 26.92300 40.22500
H  51.25700 28.16400 40.66100
Mg 16.65300 51.89500 25.27300
C  18.15400 50.57300 28.10200
C  14.10900 53.12300 27.28100
C  14.83900 52.34400 22.37600
C  18.98400 50.20900 23.34200
N  16.21200 51.78600 27.40600
C  17.02000 51.28700 28.38000
C  16.50800 51.62400 29.79000
C  15.08700 52.22100 29.47500
C  15.12500 52.40500 27.92700
C  13.87900 51.26200 29.77800
C  17.50900 52.55900 30.63300
C  17.94900 52.30000 32.07400
H  16.93200 51.52500 32.96600
N  14.75100 52.69900 24.82400
C  13.89300 53.25000 25.83800
C  12.78200 53.85900 25.11600
C  12.95600 53.61000 23.71000
C  14.20700 52.87600 23.53900
C  11.72800 54.59300 25.80900
C  11.98800 53.77500 22.50000
O  12.23800 53.45300 21.29600
C  10.58000 54.34900 22.69800
N  16.75200 51.25500 23.10300
C  15.98600 51.61700 22.14000
C  16.64500 51.47100 20.77800
C  17.82900 50.59600 21.07400
C  17.86200 50.64300 22.61600
C  15.70700 50.91400 19.66600
C  19.19200 51.02600 20.39600
C  19.56100 50.11900 19.21000
N  18.22600 50.57500 25.59600
C  19.13500 50.09600 24.69300
C  20.16500 49.39500 25.43500
C  19.84400 49.52400 26.76100
C  18.64000 50.26200 26.81800
C  21.09300 48.53500 24.69200
C  20.15300 49.24800 28.10400
O  21.07700 48.61300 28.60900
C  19.05500 49.85700 29.08700
C  18.43200 48.79000 29.88600
O  17.34900 48.29600 29.66900
O  19.09600 48.53900 31.07500
C  18.63600 47.55500 32.00100
H  13.43200 53.70900 27.90600
H  14.48700 52.82100 21.45900
H  19.79600 49.78000 22.75100
H  16.51200 50.67800 30.33100
H  14.80800 53.17600 29.92000
H  13.24700 51.15200 28.89600
H  13.17600 51.74900 30.45300
H  14.21000 50.28600 30.13400
H  16.95800 53.49700 30.69400
H  18.33600 52.75600 29.95000
H  18.06600 53.21800 32.65100
H  18.95900 51.89000 32.05800
H  10.73500 54.61500 25.35900
H  12.05700 55.62000 25.96600
H  11.69800 54.20000 26.82500
H  10.02700 54.34300 21.75800
H  10.70700 55.35800 23.08800
H  9.97700 53.83800 23.44800
H  16.97400 52.45400 20.44100
H  17.55000 49.56300 20.86700
H  14.81100 50.57600 20.18800
H  16.11500 50.09500 19.07300
H  15.50600 51.75000 18.99600
H  20.08400 50.97200 21.02100
H  18.90500 51.91200 19.83000
H  19.49900 50.66500 18.26900
H  18.87100 49.27500 19.21800
H  20.56300 49.70500 19.33000
H  21.65000 49.10400 23.94800
H  20.51800 47.78400 24.15100
H  21.92800 48.13100 25.26500
H  19.50300 50.54600 29.80200
H  19.55200 47.02600 32.26400
H  18.01300 46.82200 31.48900
H  18.15300 47.97500 32.88300

