158

Mg 49.23400 46.06400 43.94100
C  45.59900 46.34100 43.29000
C  49.18600 43.04700 42.46300
C  52.58500 46.16300 44.10300
C  49.10100 49.54600 44.59400
N  47.57500 44.89200 42.68900
C  46.20800 45.11900 42.75600
C  45.41500 43.96100 42.14000
C  46.54300 42.86400 42.14100
C  47.87500 43.61300 42.43900
C  46.27000 41.52600 42.96200
C  44.83600 44.44100 40.75600
C  43.59300 43.61500 40.33500
H  43.44800 42.69600 39.08800
N  50.67600 44.75900 43.38400
C  50.41100 43.58800 42.83300
C  51.65400 42.84300 42.72500
C  52.70000 43.62600 43.32900
C  52.00100 44.90500 43.68900
C  51.77100 41.43600 42.25600
C  54.15700 43.21400 43.48800
O  54.48800 42.23300 42.83500
C  55.17900 44.02100 44.24200
N  50.67400 47.64800 44.19000
C  51.97900 47.36600 44.33900
C  52.68100 48.55900 45.07200
C  51.64700 49.65700 44.94500
C  50.37900 48.88400 44.57200
C  53.17100 48.30300 46.50400
C  52.01900 50.79700 43.85700
C  52.01700 52.17100 44.38900
N  47.69400 47.62400 44.00400
C  47.80500 48.97600 44.37300
C  46.45400 49.58700 44.33000
C  45.57400 48.57100 44.00700
C  46.40900 47.40300 43.76100
C  46.11300 51.01600 44.53600
C  44.14200 48.21500 43.75400
O  43.08300 48.85900 43.75000
C  44.20300 46.77200 43.21200
C  43.27700 45.85600 43.97700
O  43.43300 45.38300 45.08500
O  42.21500 45.68000 43.18800
C  41.19900 44.78300 43.77500
H  49.26600 41.97400 42.27300
H  53.65600 46.30300 44.26400
H  48.98400 50.56500 44.97000
H  44.61700 43.67200 42.82400
H  46.80800 42.51000 41.14500
H  47.15600 41.53100 43.59700
H  46.32200 40.72000 42.23000
H  45.32300 41.49100 43.50000
H  45.70400 44.30600 40.11000
H  44.53400 45.47600 40.92100
H  42.75000 44.29000 40.19200
H  43.22900 43.04500 41.19000
H  52.65000 41.10900 41.70000
H  50.98800 41.34000 41.50500
H  51.61800 40.59700 42.93400
H  54.85500 44.39000 45.21500
H  55.42400 44.85900 43.59000
H  56.04100 43.37200 44.39800
H  53.54100 48.82500 44.45800
H  51.60100 50.10100 45.93900
H  53.13900 47.24600 46.76700
H  52.52000 48.77700 47.23900
H  54.23200 48.54900 46.53800
H  51.26300 50.77800 43.07200
H  53.00800 50.58000 43.45600
H  51.52300 52.80200 43.64900
H  53.02800 52.55400 44.52200
H  51.59100 52.30400 45.38300
H  46.36700 51.30300 45.55700
H  45.08800 51.34300 44.35600
H  46.75600 51.57500 43.85700
H  43.71700 46.90100 42.24500
H  40.40400 44.67100 43.03800
H  40.81400 45.27000 44.67100
H  41.62300 43.83400 44.10600
Mg -1.74500 34.23100 26.95700
C  -3.68300 32.77500 29.43000
C  -0.63700 36.53500 29.11500
C  -0.16300 35.74200 24.34000
C  -3.22100 32.07400 24.65000
N  -2.20700 34.65400 28.99900
C  -2.89600 33.81600 29.87500
C  -2.70400 34.40600 31.33500
C  -1.83000 35.67500 31.08300
C  -1.54900 35.63200 29.63900
C  -2.27600 37.00900 31.66600
C  -2.06400 33.33200 32.25800
C  -3.00800 32.73400 33.39100
H  -2.27400 32.48800 34.70200
N  -0.46100 35.85700 26.72300
C  -0.09800 36.65800 27.82100
C  0.77800 37.71800 27.26100
C  0.85900 37.50900 25.85500
C  0.05500 36.32600 25.54500
C  1.33300 38.81100 28.15600
C  1.48500 38.44200 24.85400
O  1.46200 38.24800 23.65600
C  2.35500 39.53700 25.29000
N  -1.73400 34.05700 24.72800
C  -0.96400 34.75600 23.91100
C  -1.02600 34.15400 22.46700
C  -1.96500 32.90200 22.61900
C  -2.26700 32.94200 24.10900
C  -1.49000 35.10700 21.23000
C  -1.41000 31.54300 22.14600
C  -0.79300 30.60000 23.14700
N  -3.29400 32.91200 26.92500
C  -3.76200 32.08200 25.93000
C  -4.80600 31.24200 26.43300
C  -4.74900 31.44400 27.87100
C  -3.83700 32.44700 28.06700
C  -5.67900 30.29000 25.67400
C  -5.42100 31.09300 29.11600
O  -6.39300 30.37400 29.28800
C  -4.60200 31.83600 30.25500
C  -5.56300 32.54800 31.19300
O  -6.26400 33.45400 30.85100
O  -5.80600 31.86000 32.35300
C  -6.85900 32.42600 33.23400
H  -0.26500 37.21600 29.88300
H  0.41900 36.09000 23.48400
H  -3.61700 31.32700 23.95900
H  -3.68500 34.68500 31.72000
H  -0.83500 35.55400 31.51200
H  -2.56800 37.81900 30.99800
H  -1.48700 37.38700 32.31700
H  -3.17400 37.01000 32.28400
H  -1.21100 33.79000 32.75900
H  -1.59600 32.50800 31.72100
H  -3.49900 31.79400 33.13800
H  -3.77500 33.50300 33.47900
H  2.42100 38.73500 28.14500
H  1.11300 38.57000 29.19600
H  0.88000 39.79700 28.05800
H  2.66300 40.04400 24.37600
H  3.15300 39.08100 25.87600
H  1.68200 40.18800 25.84900
H  0.02400 33.89400 22.33600
H  -2.89300 33.05200 22.06800
H  -1.79800 36.05400 21.67400
H  -2.24400 34.66700 20.57800
H  -0.59600 35.29100 20.63400
H  -0.74400 31.68000 21.29400
H  -2.34800 31.14000 21.76500
H  -0.06600 29.97800 22.62500
H  -1.60900 30.01500 23.57000
H  -0.31700 31.24300 23.88700
H  -5.35200 30.39200 24.63900
H  -6.72500 30.35500 25.97400
H  -5.30700 29.28200 25.86200
H  -4.06400 31.07500 30.82200
H  -7.85000 32.40000 32.78200
H  -6.79400 33.48700 33.47300
H  -6.78100 31.81200 34.13100

