158

Mg 9.07100 4.00100 27.93400
C  10.04200 2.26800 30.88900
C  7.48100 6.37800 29.99500
C  7.48900 5.20700 25.17900
C  10.28300 1.20700 25.99600
N  8.81000 4.29000 30.19500
C  9.34400 3.44900 31.16400
C  9.07200 4.04000 32.59500
C  8.05300 5.15800 32.29800
C  8.17000 5.30700 30.69300
C  6.65900 4.98200 32.88600
C  10.35900 4.44800 33.42000
C  10.08100 4.66900 34.87100
H  10.61100 3.65200 35.93800
N  7.87000 5.72800 27.58900
C  7.36100 6.55300 28.55800
C  6.54900 7.57800 27.86900
C  6.48900 7.24500 26.50300
C  7.30900 5.98600 26.36200
C  5.86700 8.72600 28.57100
C  5.85400 8.06400 25.35500
O  5.91400 7.65100 24.20100
C  5.16200 9.35200 25.65600
N  8.91400 3.27400 25.84800
C  8.25700 4.01100 24.97600
C  8.41500 3.42000 23.56500
C  9.49500 2.33300 23.76500
C  9.51200 2.19800 25.30300
C  7.04900 2.85100 23.01100
C  10.95000 2.70400 23.22200
C  11.62200 1.58000 22.49400
N  10.10300 2.24000 28.27400
C  10.52500 1.26100 27.40000
C  11.31000 0.30800 28.24000
C  11.11400 0.63300 29.58600
C  10.36900 1.83300 29.55800
C  12.15800 -0.84300 27.76300
C  11.50300 0.31100 30.98600
O  12.16300 -0.59700 31.46300
C  10.77700 1.32000 31.85100
C  10.07100 0.49500 32.77900
O  8.95100 0.07000 32.58300
O  10.76200 0.49800 34.01200
C  9.94200 -0.11400 35.12600
H  6.92400 7.04000 30.66200
H  6.88700 5.58100 24.34800
H  10.74400 0.32200 25.55100
H  8.46800 3.23000 33.00500
H  8.36600 6.08000 32.78600
H  6.50300 5.89500 33.46100
H  6.46200 4.13500 33.54200
H  5.84900 4.89400 32.16200
H  10.64500 5.40900 32.99100
H  11.20400 3.76000 33.43700
H  9.01100 4.74300 35.06600
H  10.52600 5.61600 35.17600
H  6.33700 9.70500 28.66500
H  5.91700 8.58400 29.65100
H  4.84900 8.70900 28.18100
H  5.77800 10.00600 26.27300
H  4.34600 8.94300 26.25100
H  4.80700 9.93600 24.80700
H  8.84900 4.17600 22.91100
H  9.06700 1.38400 23.44200
H  7.14500 1.79900 22.74100
H  6.75000 3.41900 22.13000
H  6.24700 2.97800 23.73800
H  11.50500 3.09800 24.07400
H  10.80600 3.50300 22.49400
H  11.58800 1.74200 21.41600
H  11.21500 0.59600 22.72800
H  12.67800 1.41300 22.70900
H  12.71300 -0.61500 26.85300
H  11.46800 -1.68000 27.65500
H  12.82900 -1.14000 28.56900
H  11.56900 1.84400 32.38600
H  9.85300 -1.17400 34.88800
H  8.90200 0.20400 35.19100
H  10.48400 -0.04600 36.06900
Mg 28.86900 59.54900 41.40000
C  25.73700 58.26100 40.46100
C  30.39400 56.83900 40.01000
C  31.79200 61.25200 41.56300
C  27.12700 62.61300 42.21100
N  28.16500 57.81500 40.32500
C  26.88200 57.40800 40.14900
C  26.78600 56.22000 39.23000
C  28.17300 55.58200 39.41600
C  28.99400 56.75900 39.91300
C  28.23400 54.36600 40.43000
C  26.40900 56.51000 37.86200
C  25.97600 55.21700 37.11600
H  25.20200 55.57000 35.90600
N  30.85700 59.10800 40.87100
C  31.26600 57.94400 40.36500
C  32.69500 57.96800 40.26200
C  33.14400 59.16100 40.81100
C  31.94100 59.91700 41.05200
C  33.58100 56.83000 39.75400
C  34.57200 59.47700 41.04400
O  35.42900 58.61600 40.86500
C  35.14000 60.81700 41.49800
N  29.32600 61.55100 41.73700
C  30.66500 61.94200 41.85300
C  30.78400 63.42100 42.18900
C  29.35200 63.91100 42.30600
C  28.54000 62.68700 42.03300
C  31.69000 63.88500 43.42200
C  28.84800 65.20300 41.51400
C  27.94100 66.11400 42.26900
N  26.81600 60.28900 41.53100
C  26.32100 61.49000 41.81100
C  24.86800 61.51300 41.63300
C  24.59600 60.23500 41.09900
C  25.80000 59.56000 41.07500
C  23.97700 62.61900 42.01800
C  23.53400 59.36600 40.68000
O  22.34200 59.52300 40.57300
C  24.23900 57.98200 40.26800
C  23.70700 56.97000 41.20500
O  23.49300 57.16400 42.43400
O  23.46600 55.79500 40.61100
C  23.48200 54.65100 41.58800
H  30.93300 55.95500 39.66200
H  32.68500 61.83700 41.79000
H  26.67400 63.59200 42.38500
H  25.94500 55.68700 39.67400
H  28.63100 55.39900 38.44300
H  27.22500 53.95400 40.46300
H  28.80600 54.69800 41.29600
H  28.87200 53.65500 39.90500
H  27.28200 56.94500 37.37500
H  25.65200 57.27500 37.68800
H  25.57600 54.46000 37.78900
H  26.97000 54.79600 36.96600
H  33.91500 56.37900 40.68800
H  34.36600 57.17000 39.07700
H  32.97500 56.20200 39.10100
H  34.61500 61.63500 41.00500
H  36.17400 60.97600 41.19200
H  34.97700 60.87800 42.57400
H  31.21800 63.93400 41.33100
H  29.27700 64.01900 43.38800
H  32.58100 63.26800 43.54400
H  31.10900 64.01600 44.33400
H  32.11700 64.85500 43.16700
H  28.39600 64.89000 40.57400
H  29.76700 65.77600 41.38700
H  27.32600 66.73600 41.61900
H  28.60100 66.77500 42.83000
H  27.30600 65.62500 43.00800
H  23.79400 63.23300 41.13600
H  24.47100 63.21800 42.78300
H  22.97300 62.30400 42.30500
H  24.02200 57.75400 39.22500
H  22.59900 54.80200 42.20900
H  24.42300 54.56400 42.13200
H  23.35900 53.72600 41.02500

