158

Mg 41.46200 41.61300 26.96200
C  40.56500 43.84500 29.29300
C  42.35400 39.30900 29.24500
C  42.68200 39.66100 24.39000
C  41.20700 44.21500 24.43600
N  41.29100 41.56800 29.05500
C  40.91700 42.63300 29.85400
C  40.72000 42.11000 31.32200
C  41.48900 40.75700 31.28200
C  41.67300 40.45700 29.78500
C  42.98400 40.82100 31.75800
C  39.28100 42.05500 31.94800
C  38.90800 43.26500 32.93700
H  38.42300 43.04400 34.33600
N  42.26000 39.70500 26.79600
C  42.58500 38.91200 27.85600
C  43.16300 37.63600 27.34400
C  43.17800 37.71800 25.96400
C  42.65400 39.05800 25.64900
C  43.40700 36.47100 28.25700
C  43.64400 36.66100 24.91400
O  43.56900 36.79400 23.71300
C  44.22300 35.38100 25.39400
N  41.82100 41.86500 24.77700
C  42.31200 40.90500 23.98100
C  42.37500 41.22000 22.50300
C  41.49500 42.52400 22.49100
C  41.54100 42.94700 24.01100
C  43.79700 41.55300 21.96400
C  40.07300 42.30900 21.93900
C  39.28600 41.21300 22.53100
N  41.01200 43.60100 26.87000
C  40.96000 44.51900 25.78400
C  40.48800 45.77900 26.32500
C  40.25200 45.52000 27.70500
C  40.65000 44.20000 27.96900
C  40.29700 47.05500 25.45800
C  39.80200 46.14300 28.93800
O  39.43600 47.29600 29.10900
C  39.95300 45.07900 30.04400
C  40.95300 45.71400 30.95300
O  42.15300 45.67200 30.75900
O  40.32200 46.31400 32.03700
C  41.15600 47.02900 33.00100
H  42.62000 38.57900 30.01200
H  43.11200 39.00800 23.62700
H  40.99500 44.98900 23.69600
H  41.32800 42.65100 32.04700
H  40.94100 39.90900 31.69400
H  43.65900 40.56600 30.94100
H  43.25400 40.06800 32.49800
H  43.24800 41.76400 32.23600
H  39.06600 41.03100 32.25700
H  38.72000 42.11300 31.01600
H  38.14900 43.82100 32.38600
H  39.68700 44.02600 32.97400
H  43.49500 36.84700 29.27600
H  44.36000 35.97600 28.07200
H  42.63700 35.70400 28.17500
H  45.10300 35.62800 25.98800
H  44.36100 34.81100 24.47600
H  43.61500 34.78900 26.07900
H  41.96200 40.42000 21.88900
H  41.93500 43.23300 21.79000
H  43.82300 42.52900 21.47800
H  43.98600 40.76800 21.23100
H  44.46000 41.47500 22.82500
H  39.95100 42.34400 20.85700
H  39.49000 43.17900 22.24000
H  38.60800 41.70800 23.22600
H  39.91300 40.37300 22.83100
H  38.62600 40.77600 21.78200
H  40.31100 46.74500 24.41400
H  41.10800 47.77200 25.59100
H  39.32100 47.53300 25.54100
H  38.96000 44.98600 30.48600
H  41.00400 46.62900 34.00400
H  40.72800 48.03100 32.99500
H  42.22400 47.02900 32.78400
Mg -5.37800 25.10200 25.58500
C  -3.74500 26.53000 28.42000
C  -7.23800 23.18600 27.78900
C  -6.79400 23.70900 22.86800
C  -3.21300 26.94500 23.58000
N  -5.50600 24.89600 27.84700
C  -4.82100 25.62500 28.80500
C  -5.40100 25.30700 30.19700
C  -6.22200 24.07400 29.92100
C  -6.39300 24.11900 28.41700
C  -5.68700 22.78900 30.57300
C  -6.11300 26.58300 30.73300
C  -5.98800 26.82300 32.25800
H  -5.51300 25.70900 33.16000
N  -6.78500 23.58700 25.38200
C  -7.38000 22.92100 26.41700
C  -8.33200 21.95000 25.79500
C  -8.14400 22.01700 24.33300
C  -7.25000 23.15800 24.12200
C  -9.22300 21.09700 26.72200
C  -8.83600 21.24600 23.23600
O  -8.70000 21.44900 22.03600
C  -9.76700 20.14100 23.62700
N  -5.11600 25.44900 23.60000
C  -5.82400 24.73100 22.62300
C  -5.10700 24.79500 21.21500
C  -4.20200 26.05900 21.41000
C  -4.14000 26.13800 22.92900
C  -4.31300 23.55400 20.91900
C  -4.79300 27.32000 20.77600
C  -4.05600 27.77300 19.57400
N  -3.87700 26.49000 25.87300
C  -3.07700 27.11800 24.95300
C  -2.21200 28.07500 25.67700
C  -2.45600 27.88000 27.01300
C  -3.37600 26.86300 27.08600
C  -1.28600 29.08200 25.03400
C  -2.17100 28.35800 28.28400
O  -1.49500 29.34100 28.61300
C  -2.91800 27.49400 29.29900
C  -1.95000 26.70900 30.17700
O  -0.87500 26.25500 29.84700
O  -2.49700 26.61000 31.42100
C  -1.65400 26.11700 32.55500
H  -7.93200 22.75200 28.51100
H  -7.32300 23.31100 21.99900
H  -2.62500 27.54000 22.87800
H  -4.63400 24.93000 30.87300
H  -7.25200 24.24100 30.23600
H  -4.64600 22.80400 30.89300
H  -5.63900 22.02100 29.80100
H  -6.35100 22.47900 31.38000
H  -7.17600 26.45100 30.53300
H  -5.78700 27.40100 30.08900
H  -6.89500 27.06400 32.81300
H  -5.35700 27.68500 32.47600
H  -8.73400 20.73400 27.62600
H  -9.69100 20.23200 26.25300
H  -10.13200 21.64600 26.96900
H  -9.22100 19.38800 24.19500
H  -10.30200 19.67700 22.79900
H  -10.51100 20.58800 24.28700
H  -5.89500 24.95700 20.47900
H  -3.14800 25.84000 21.23800
H  -4.64700 22.65200 21.43200
H  -3.22700 23.61900 20.98700
H  -4.62400 23.31500 19.90200
H  -5.02800 28.13800 21.45700
H  -5.81600 27.07100 20.49400
H  -3.15500 27.16900 19.47100
H  -3.66600 28.75700 19.83400
H  -4.60900 27.72800 18.63500
H  -0.68100 28.56700 24.28700
H  -0.58600 29.49600 25.75900
H  -1.84000 29.90000 24.57300
H  -3.55200 28.10200 29.94400
H  -0.59300 26.27500 32.35900
H  -1.81100 25.05200 32.72700
H  -2.00200 26.54700 33.49400

