158

Mg 23.18800 -7.86200 45.47500
C  25.58200 -5.55800 44.52800
C  21.01300 -6.28000 43.29000
C  21.07200 -10.40900 45.89700
C  25.69500 -9.59500 47.16800
N  23.32900 -6.18800 44.01800
C  24.37500 -5.31400 43.84900
C  24.06500 -4.20900 42.81000
C  22.50600 -4.41300 42.60300
C  22.28500 -5.72200 43.28000
C  21.55600 -3.25500 43.13200
C  24.95700 -4.25000 41.51700
C  25.64400 -2.94100 41.08700
H  25.83000 -2.57700 39.55400
N  21.25400 -8.24100 44.87500
C  20.52600 -7.49200 43.94600
C  19.17500 -7.97700 43.89000
C  19.21300 -9.18500 44.71300
C  20.50800 -9.28800 45.26200
C  18.09900 -7.39100 43.01600
C  17.96300 -9.99300 45.03100
O  16.98800 -9.76200 44.34500
C  17.77700 -10.92300 46.14200
N  23.50100 -9.92800 46.17300
C  22.39400 -10.68100 46.39300
C  22.75000 -11.86900 47.31000
C  24.12500 -11.47300 47.81500
C  24.50300 -10.29000 47.00800
C  21.64900 -12.29800 48.34000
C  25.20300 -12.72800 47.91000
C  25.65600 -13.36400 46.53800
N  25.20800 -7.58700 45.86000
C  26.04100 -8.40500 46.63500
C  27.31400 -7.70800 46.67900
C  27.23700 -6.62000 45.87500
C  25.91600 -6.61600 45.39900
C  28.60800 -8.26800 47.34300
C  27.91800 -5.42200 45.36200
O  29.00900 -5.00200 45.66100
C  26.88300 -4.79100 44.33700
C  26.63700 -3.42400 44.75500
O  26.10600 -3.08400 45.85200
O  27.27000 -2.60000 43.87700
C  27.19000 -1.22700 44.18500
H  20.25500 -5.69100 42.77100
H  20.42100 -11.25300 46.13400
H  26.48300 -10.12200 47.71000
H  24.29100 -3.27600 43.32600
H  22.42100 -4.56000 41.52600
H  20.88700 -2.98800 42.31300
H  22.04300 -2.30600 43.35400
H  20.94500 -3.52700 43.99200
H  24.41300 -4.64400 40.65900
H  25.70900 -5.00600 41.74500
H  26.67300 -2.83100 41.43100
H  24.99400 -2.11900 41.38700
H  17.47100 -8.17500 42.59300
H  18.64800 -6.87300 42.23000
H  17.64200 -6.54200 43.52400
H  18.36300 -10.47200 46.94300
H  18.24000 -11.82800 45.74800
H  16.82800 -11.15300 46.62500
H  22.95600 -12.70200 46.63900
H  23.99200 -11.04700 48.81000
H  21.26200 -13.28700 48.09500
H  20.73600 -11.70400 48.39600
H  22.00500 -12.17100 49.36300
H  24.73800 -13.50700 48.51400
H  26.06300 -12.49300 48.53700
H  26.65200 -12.99300 46.30000
H  24.97400 -13.22600 45.69900
H  25.75900 -14.44100 46.67200
H  29.10200 -9.02500 46.73300
H  28.48200 -8.50100 48.40000
H  29.31000 -7.43500 47.31000
H  27.26900 -4.82400 43.31800
H  26.20600 -0.80600 44.39200
H  27.48400 -0.53600 43.39500
H  27.78500 -1.01100 45.07200
Mg 40.77500 7.90100 29.70300
C  42.42400 9.40900 32.53300
C  38.43900 6.81400 31.93100
C  39.38900 6.35000 27.06600
C  43.56100 8.89100 27.71600
N  40.56600 8.11400 31.96500
C  41.18800 8.80100 32.88400
C  40.48700 8.84300 34.23100
C  39.28400 7.96300 34.01200
C  39.48300 7.50400 32.57900
C  39.21900 6.69900 34.98400
C  40.05400 10.30000 34.59600
C  39.31200 10.48900 35.87400
H  40.01600 11.25800 36.98900
N  39.11100 6.76200 29.54500
C  38.29100 6.42600 30.55700
C  37.10500 5.68000 29.95700
C  37.40700 5.52300 28.55800
C  38.71300 6.22300 28.33800
C  35.93000 5.23300 30.87600
C  36.64300 4.76300 27.51500
O  37.13100 4.35200 26.50900
C  35.24200 4.35100 27.87700
N  41.45700 7.60800 27.73100
C  40.65900 6.90900 26.80500
C  41.39700 6.81100 25.44800
C  42.62500 7.84500 25.64700
C  42.59200 8.06600 27.17600
C  41.85000 5.32200 25.05500
C  42.63800 9.13900 24.80200
C  41.37400 10.06800 24.81800
N  42.50900 8.93900 29.89700
C  43.53400 9.26500 29.01500
C  44.50900 10.06500 29.67100
C  44.14300 10.17000 31.03800
C  42.89800 9.50000 31.13800
C  45.89500 10.55400 29.08200
C  44.49700 10.69800 32.34800
O  45.38100 11.45000 32.60600
C  43.35400 10.29200 33.34200
C  43.83200 9.73500 34.58000
O  44.28200 8.60600 34.61400
O  43.71300 10.62400 35.65300
C  43.72700 9.99600 36.96800
H  37.71600 6.51200 32.69200
H  38.79700 5.94700 26.24100
H  44.25100 9.41400 27.05000
H  41.17400 8.51200 35.00900
H  38.35000 8.52600 34.02600
H  39.83900 6.92500 35.85200
H  39.68100 5.89500 34.41100
H  38.19100 6.66800 35.34500
H  39.38800 10.68200 33.82200
H  40.89800 10.99000 34.58700
H  38.90200 9.65200 36.43800
H  38.46000 11.15500 35.73500
H  34.95300 5.60100 30.56100
H  36.10200 5.59900 31.88800
H  35.89900 4.14400 30.85200
H  34.69200 5.23300 28.20500
H  35.38400 3.73200 28.76300
H  34.74300 3.88000 27.02900
H  40.79200 7.08400 24.58400
H  43.52400 7.40300 25.21800
H  41.54800 5.20200 24.01500
H  41.38700 4.63400 25.76300
H  42.92700 5.22200 25.18900
H  42.67200 8.85000 23.75100
H  43.61000 9.59500 24.98900
H  40.65700 9.67600 25.53900
H  40.82400 10.04700 23.87700
H  41.78800 11.06300 24.97700
H  46.34300 9.90100 28.33300
H  46.57400 10.62200 29.93200
H  45.82800 11.54600 28.63600
H  42.91800 11.25900 33.59200
H  44.43500 9.18600 37.13900
H  42.72000 9.61700 37.14200
H  43.97600 10.73400 37.73100

