158

Mg 43.50200 4.58100 47.18600
C  41.61800 7.70600 47.19200
C  40.68300 3.01000 46.59100
C  45.46100 1.98800 46.66200
C  46.35300 6.68000 47.06300
N  41.40000 5.27300 46.91200
C  40.87900 6.53400 47.03200
C  39.32500 6.44400 46.99500
C  39.05000 4.91000 47.02800
C  40.46400 4.36900 46.82200
C  38.45500 4.25900 48.32900
C  38.64500 7.15700 45.80700
C  39.42700 7.21900 44.45000
H  38.72400 6.81600 43.19200
N  43.13800 2.78300 46.72200
C  41.85400 2.24000 46.52000
C  41.94400 0.80800 46.30700
C  43.32400 0.44800 46.32800
C  44.06000 1.73800 46.62200
C  40.73900 -0.11400 46.03400
C  43.93700 -0.90800 46.06800
O  43.15000 -1.81200 45.92000
C  45.34400 -1.19900 46.07200
N  45.66800 4.36900 46.89500
C  46.23400 3.19300 46.71300
C  47.80500 3.29800 46.54600
C  48.00500 4.82000 46.61900
C  46.60900 5.32800 46.94300
C  48.50500 2.43900 47.64400
C  48.55600 5.45900 45.27800
C  50.00100 5.16800 44.76000
N  44.01300 6.76800 47.22900
C  45.16500 7.42300 47.06200
C  44.98300 8.87900 47.05800
C  43.57100 9.03200 47.16700
C  43.03300 7.68800 47.31500
C  46.13300 9.91000 47.15800
C  42.48800 9.98900 47.40500
O  42.52200 11.21500 47.58200
C  41.21200 9.16400 47.29100
C  40.19700 9.39300 48.37100
O  40.15800 8.99600 49.51600
O  39.19800 10.16400 47.78300
C  38.00800 10.57400 48.46100
H  39.82800 2.33700 46.50300
H  46.12300 1.12200 46.59700
H  47.32000 7.18100 46.99600
H  38.96000 6.87200 47.92900
H  38.35500 4.59200 46.25100
H  38.25500 5.08400 49.01300
H  39.04200 3.42700 48.71700
H  37.58900 3.73000 47.93100
H  38.55400 8.16500 46.21200
H  37.70900 6.66000 45.55400
H  40.34700 6.64700 44.56800
H  39.62000 8.28300 44.32000
H  40.48700 -0.20800 44.97800
H  39.87200 0.39300 46.45600
H  40.71700 -1.09700 46.50500
H  45.65600 -0.97300 47.09200
H  45.88300 -0.58100 45.35400
H  45.48800 -2.26500 45.89500
H  48.05700 2.91600 45.55700
H  48.59400 5.10800 47.49000
H  49.56800 2.52900 47.42000
H  48.24800 1.39200 47.48200
H  48.28500 2.76600 48.66000
H  48.39400 6.53000 45.15300
H  47.74100 5.13200 44.63300
H  49.88500 4.54800 43.87100
H  50.69800 4.72600 45.47200
H  50.47300 6.12600 44.54200
H  46.51300 9.89400 48.17900
H  45.79600 10.92900 46.96900
H  46.96000 9.66800 46.49000
H  40.74800 9.31800 46.31600
H  37.15600 9.99600 48.10400
H  37.86500 11.64900 48.35000
H  37.99300 10.27600 49.50900
Mg 40.51400 9.63400 28.82200
C  42.23500 10.82900 31.59800
C  38.23900 8.10200 30.95400
C  39.05300 8.13800 26.25100
C  43.36300 10.26400 26.86900
N  40.22300 9.45900 30.95700
C  40.98800 10.17900 31.89000
C  40.43100 9.96700 33.29700
C  39.28300 8.88700 33.10500
C  39.24500 8.77200 31.56000
C  39.52900 7.50400 33.83500
C  39.99900 11.17100 34.12800
C  39.93800 11.01300 35.63000
H  40.63400 12.16500 36.44200
N  38.74600 8.48000 28.60300
C  37.89100 8.03200 29.55800
C  36.83000 7.22500 29.00500
C  36.94400 7.40100 27.61800
C  38.31400 8.04600 27.42100
C  35.85900 6.43400 29.87000
C  36.02400 6.85600 26.49400
O  36.21300 7.01000 25.29200
C  34.69800 6.17000 26.78600
N  41.03500 9.34000 26.76500
C  40.27100 8.68600 25.90800
C  40.85800 8.70700 24.51300
C  42.28600 9.39900 24.77100
C  42.27600 9.63300 26.24500
C  41.17900 7.26400 23.91100
C  42.39900 10.66100 23.81200
C  41.68200 11.99200 24.18100
N  42.39200 10.38900 29.13200
C  43.41400 10.68100 28.23400
C  44.38600 11.43700 28.89300
C  43.88700 11.63500 30.22500
C  42.75400 10.87100 30.31100
C  45.67700 11.90100 28.29000
C  44.18400 12.27700 31.50900
O  45.13900 12.90400 31.90000
C  43.08600 11.71900 32.47400
C  43.79000 10.97600 33.60700
O  44.66500 10.17000 33.58700
O  43.24300 11.47300 34.71900
C  43.81700 10.87500 36.00600
H  37.53000 7.56100 31.58300
H  38.70500 7.55100 25.39800
H  44.19100 10.61300 26.24800
H  41.17000 9.46300 33.91900
H  38.37800 9.33500 33.51400
H  40.57600 7.40100 34.11800
H  39.25600 6.77400 33.07300
H  38.90000 7.40300 34.72000
H  39.01100 11.44900 33.76000
H  40.60900 12.04400 33.89500
H  40.45900 10.09100 35.88500
H  38.87700 10.99700 35.88000
H  36.35800 5.91300 30.68700
H  35.47200 5.73000 29.13300
H  35.17300 7.15900 30.30800
H  34.09900 6.40400 25.90600
H  34.16000 6.59300 27.63400
H  34.94700 5.13600 27.02600
H  40.19800 9.25200 23.83900
H  43.19300 8.80900 24.63500
H  40.39900 7.11200 23.16500
H  41.02300 6.56700 24.73500
H  42.22900 7.19600 23.62600
H  41.99100 10.27400 22.87800
H  43.46300 10.89500 23.78000
H  41.08900 11.72500 25.05600
H  41.11900 12.45200 23.36900
H  42.37200 12.76600 24.51700
H  46.25600 12.63000 28.85700
H  45.49800 12.39700 27.33600
H  46.35500 11.07200 28.08800
H  42.42000 12.53000 32.76900
H  44.89300 10.70600 36.05400
H  43.35900 9.89200 36.11200
H  43.43000 11.52000 36.79600

