158

Mg 16.52100 51.75500 25.91000
C  18.36100 50.27400 28.43300
C  14.18100 52.63600 28.12000
C  14.80000 53.21900 23.35800
C  19.02000 50.90600 23.67700
N  16.32300 51.40400 27.99700
C  17.15900 50.76500 28.89300
C  16.70200 50.92600 30.38800
C  15.21300 51.43000 30.16300
C  15.26800 51.91500 28.65600
C  14.10600 50.29500 30.35800
C  17.58400 51.97700 31.15200
C  17.99200 51.49900 32.58000
H  17.26200 52.22600 33.75800
N  14.69400 52.75000 25.73000
C  13.91300 52.97700 26.77900
C  12.79500 53.75900 26.34700
C  13.01400 54.12600 24.99200
C  14.15800 53.32000 24.60200
C  11.72900 54.20300 27.24700
C  12.26700 55.08200 24.07800
O  12.63300 55.38800 22.97200
C  11.07600 55.96000 24.59600
N  16.89800 51.96100 23.77700
C  15.99300 52.53500 22.96300
C  16.52100 52.69800 21.49300
C  17.88600 51.98200 21.54100
C  17.98400 51.60700 23.08400
C  15.58000 52.10600 20.39800
C  19.03500 52.87400 21.03400
C  19.48000 54.01900 21.97100
N  18.18600 50.64300 25.90800
C  19.17300 50.37700 24.97300
C  20.29100 49.63800 25.47200
C  19.98000 49.61700 26.85200
C  18.75900 50.24000 27.09100
C  21.52100 49.16600 24.83300
C  20.46100 49.09600 28.11500
O  21.44600 48.40700 28.39300
C  19.46800 49.61900 29.24800
C  19.06000 48.61300 30.23700
O  18.23500 47.72500 30.17600
O  19.93600 48.68500 31.36300
C  19.48600 47.78300 32.53500
H  13.45800 52.71700 28.93500
H  14.29700 53.66100 22.49500
H  19.81500 50.59100 22.99700
H  16.79600 49.98000 30.92200
H  14.97600 52.31700 30.75100
H  14.45800 49.49200 31.00500
H  13.84400 49.89200 29.38000
H  13.24800 50.77600 30.82800
H  16.90800 52.82600 31.25900
H  18.47700 52.08400 30.53600
H  19.06400 51.64200 32.72200
H  17.87800 50.43700 32.79600
H  12.00600 53.93900 28.26800
H  10.74100 53.82500 26.98200
H  11.62200 55.28500 27.17300
H  10.64300 56.50000 23.75500
H  11.41400 56.63600 25.38200
H  10.32800 55.24400 24.93700
H  16.59300 53.76100 21.26300
H  18.01100 51.08000 20.94200
H  16.09200 51.53600 19.62200
H  15.07500 52.93000 19.89500
H  14.83300 51.47600 20.88000
H  18.82400 53.32500 20.06400
H  19.90300 52.22600 20.91700
H  20.17500 53.59600 22.69600
H  18.64000 54.50900 22.46300
H  19.92900 54.80400 21.36300
H  22.25000 49.04200 25.63300
H  21.89100 49.90100 24.11800
H  21.19900 48.24100 24.35500
H  19.98300 50.44900 29.73100
H  19.82600 46.76400 32.35100
H  18.44300 47.76200 32.85100
H  20.02700 48.20300 33.38400
Mg -12.39100 16.16000 43.15000
C  -9.39400 14.62100 42.14300
C  -11.31000 18.96000 41.60800
C  -15.54000 17.46200 43.53200
C  -13.55300 13.04600 44.10800
N  -10.55600 16.65100 41.92500
C  -9.38900 15.95800 41.76200
C  -8.26400 16.82200 41.23700
C  -8.91000 18.22800 41.37900
C  -10.35600 18.00000 41.63900
C  -8.23300 19.22500 42.30400
C  -7.92800 16.42500 39.73200
C  -6.47000 16.35400 39.51600
H  -5.98800 16.91000 38.19300
N  -13.35100 18.06100 42.65500
C  -12.68500 19.03800 41.98600
C  -13.54500 20.18200 41.86000
C  -14.85400 19.79600 42.42000
C  -14.63000 18.38400 42.89300
C  -13.17600 21.38200 41.03900
C  -16.09800 20.69100 42.37900
O  -16.03000 21.79500 41.91700
C  -17.44700 20.17100 42.86400
N  -14.29200 15.26700 43.54200
C  -15.36400 16.09200 43.79200
C  -16.55800 15.28500 44.46600
C  -15.96700 13.83100 44.60800
C  -14.51300 14.02300 43.99600
C  -17.14900 15.86300 45.77400
C  -16.90400 12.77900 43.88000
C  -16.43700 12.05900 42.63900
N  -11.54100 14.28300 43.43800
C  -12.15500 13.07100 43.79400
C  -11.23600 11.94000 43.58100
C  -10.10000 12.54600 43.03900
C  -10.40400 13.91500 42.87200
C  -11.48200 10.49800 44.00600
C  -8.76800 12.34600 42.56000
O  -8.07100 11.31500 42.61600
C  -8.24600 13.65600 41.96700
C  -7.01200 14.09800 42.67400
O  -6.90100 14.59700 43.81300
O  -5.92900 13.81700 41.83900
C  -4.62300 14.47900 42.08200
H  -10.82500 19.85300 41.20900
H  -16.55300 17.84900 43.65500
H  -13.98600 12.06100 44.29600
H  -7.37300 16.71500 41.85600
H  -8.96800 18.77200 40.43700
H  -7.19600 18.89000 42.31900
H  -8.57400 19.22200 43.33900
H  -8.19900 20.22300 41.86700
H  -8.30900 17.08000 38.94900
H  -8.34800 15.43100 39.57700
H  -6.12900 15.32000 39.58200
H  -5.87800 16.99000 40.17300
H  -12.09200 21.46100 40.95100
H  -13.60200 22.19300 41.62900
H  -13.75600 21.43600 40.11700
H  -17.40900 19.79000 43.88500
H  -17.71100 19.39400 42.14600
H  -18.24200 20.91400 42.93300
H  -17.35700 15.34800 43.72800
H  -15.76800 13.41600 45.59600
H  -16.48000 15.76000 46.62800
H  -18.05400 15.27000 45.90600
H  -17.52200 16.88500 45.70900
H  -17.90900 13.13700 43.66000
H  -17.21100 11.94800 44.51500
H  -15.58000 12.63000 42.28000
H  -17.21500 11.98300 41.87900
H  -16.06000 11.05100 42.81200
H  -10.90700 9.86900 43.32800
H  -12.53900 10.27800 44.15900
H  -10.93700 10.30500 44.93000
H  -7.90600 13.51100 40.94200
H  -4.50700 15.15700 41.23600
H  -3.81600 13.75600 42.19600
H  -4.58200 15.20700 42.89200

