158

Mg 35.88900 2.43900 30.48700
C  33.42200 3.33200 32.75400
C  38.27200 2.24700 33.08000
C  38.31200 1.79800 28.21200
C  33.61900 3.16100 27.90500
N  35.81900 2.87100 32.63200
C  34.67200 2.98900 33.40200
C  34.91200 2.99600 34.85700
C  36.55700 2.83200 34.88100
C  36.98900 2.62000 33.42400
C  37.32300 4.01500 35.55400
C  34.04900 1.95300 35.65500
C  33.97700 2.10000 37.21000
H  34.79300 3.16500 37.98600
N  37.97600 2.08700 30.63000
C  38.72100 1.89000 31.76800
C  40.05100 1.42000 31.40400
C  40.12600 1.45900 30.00300
C  38.79600 1.71700 29.52900
C  41.11600 1.01900 32.37400
C  41.42400 1.26500 29.12900
O  41.34700 1.48900 27.92200
C  42.71900 0.72900 29.70600
N  35.92200 2.54400 28.38100
C  37.08700 2.14500 27.73100
C  36.85400 2.37200 26.22600
C  35.31300 2.47300 26.13400
C  34.89000 2.69600 27.51100
C  37.75600 3.49800 25.60000
C  34.47500 1.35600 25.37500
C  34.03100 0.15700 26.18100
N  33.89000 3.04800 30.31300
C  33.13000 3.34100 29.21600
C  31.78200 3.67400 29.64500
C  31.84700 3.74100 31.05300
C  33.12000 3.24500 31.37700
C  30.60100 4.02300 28.78100
C  31.11700 3.99800 32.25800
O  29.99100 4.50200 32.42200
C  32.11500 3.65200 33.42700
C  32.23900 4.81200 34.35300
O  32.80200 5.87800 34.02200
O  31.62700 4.46800 35.54700
C  31.55000 5.45100 36.57200
H  38.88300 2.24400 33.98600
H  39.01600 1.61600 27.39800
H  32.90700 3.33600 27.09600
H  34.68900 4.01300 35.17700
H  36.88800 1.95700 35.44000
H  36.95100 4.01700 36.57900
H  36.94600 4.93100 35.10100
H  38.40700 4.02900 35.44200
H  34.49800 0.96800 35.52800
H  33.07300 1.95100 35.17100
H  34.29000 1.16300 37.67200
H  32.92200 2.11800 37.48300
H  41.93100 1.74200 32.41500
H  41.57600 0.04200 32.22700
H  40.83000 0.93100 33.42300
H  43.36000 0.52500 28.84900
H  42.53600 -0.17800 30.28300
H  43.28600 1.36400 30.38700
H  37.13100 1.43700 25.73800
H  35.01600 3.45100 25.75600
H  37.07000 4.13500 25.04200
H  38.49700 3.13000 24.89100
H  38.18800 4.27900 26.22600
H  35.16500 1.01200 24.60500
H  33.64200 1.86400 24.88900
H  34.41200 -0.70100 25.62800
H  32.94200 0.10000 26.20800
H  34.52300 0.09200 27.15100
H  29.73300 4.10200 29.43500
H  30.42300 3.39600 27.90700
H  30.81400 4.96400 28.27400
H  31.62700 2.85700 33.99200
H  31.85900 6.44300 36.24500
H  31.90000 5.12400 37.55200
H  30.50500 5.65100 36.81100
Mg 6.72300 53.27700 40.73000
C  6.50300 49.89300 40.35000
C  9.87300 53.31000 39.54400
C  6.54600 56.69900 40.48800
C  3.30900 53.22100 41.75900
N  7.96400 51.77700 39.91500
C  7.72400 50.40400 39.82400
C  8.99900 49.62900 39.43200
C  10.11700 50.74100 39.72000
C  9.27800 52.06600 39.67900
C  11.00900 50.52700 41.02900
C  8.98800 49.07700 37.97900
C  8.24400 49.88100 36.96600
H  7.59000 49.10300 35.72600
N  8.07700 54.81200 40.05800
C  9.32000 54.55900 39.54300
C  9.93600 55.85100 39.21300
C  8.95300 56.86400 39.50800
C  7.79400 56.14800 40.03800
C  11.36900 56.01200 38.76000
C  9.12000 58.46400 39.33000
O  10.16600 58.87200 38.77400
C  8.08100 59.41400 39.81100
N  5.17300 54.70600 40.98400
C  5.40000 56.03900 40.90400
C  4.10900 56.83600 41.15500
C  3.11100 55.73300 41.68400
C  3.92300 54.44200 41.51200
C  4.13300 58.17400 42.08000
C  1.67200 55.67900 41.00800
C  0.44500 55.57500 41.80900
N  5.23800 51.87500 41.17400
C  3.91200 51.98600 41.49800
C  3.38000 50.67600 41.81700
C  4.34300 49.79700 41.27200
C  5.41500 50.59200 40.90000
C  1.99800 50.29200 42.37500
C  4.64800 48.41100 40.96600
O  3.97900 47.38700 41.10300
C  6.15900 48.41000 40.44900
C  6.10300 47.68300 39.13000
O  5.75600 48.14600 38.04400
O  6.38300 46.33700 39.26400
C  6.35700 45.41100 38.09400
H  10.92900 53.14900 39.32000
H  6.33200 57.76000 40.33800
H  2.29600 53.06400 42.13700
H  9.08100 48.80500 40.14100
H  10.82300 50.67200 38.89300
H  11.20400 51.45000 41.57500
H  11.94000 50.07100 40.69400
H  10.58900 49.89200 41.81000
H  8.53300 48.08700 37.97900
H  9.98900 48.97900 37.55700
H  8.95100 50.54400 36.46700
H  7.55600 50.61000 37.39500
H  11.30700 56.45300 37.76500
H  11.87800 55.05500 38.65000
H  11.96800 56.67100 39.38900
H  7.18000 59.22500 39.22700
H  8.35400 60.45000 39.60800
H  8.05500 59.25000 40.88800
H  3.65900 57.06900 40.19000
H  2.92900 55.74100 42.75800
H  3.94900 59.10100 41.53600
H  5.06700 58.16200 42.64200
H  3.36100 58.23700 42.84600
H  1.49800 54.84800 40.32400
H  1.71800 56.55200 40.35700
H  0.64700 55.30800 42.84600
H  -0.18100 54.80100 41.36500
H  -0.04400 56.54600 41.89000
H  1.59700 51.09300 42.99700
H  2.03900 49.38600 42.97900
H  1.31500 50.21800 41.52900
H  6.74800 47.83200 41.16100
H  6.08100 45.94800 37.18700
H  5.69300 44.56500 38.27000
H  7.38000 45.04500 37.99700

