158

Mg 24.96600 -7.23600 47.89600
C  27.24300 -5.03400 46.76100
C  22.77900 -6.13000 45.39300
C  22.85700 -9.80300 48.55500
C  27.24500 -8.69700 50.11500
N  25.06900 -5.87800 46.09100
C  26.11700 -4.97600 45.95200
C  25.73300 -3.84500 45.00000
C  24.24200 -4.15800 44.62600
C  24.06300 -5.49400 45.34200
C  23.16100 -3.08000 45.07200
C  26.70100 -3.77100 43.74700
C  27.20100 -2.33400 43.30500
H  27.15500 -1.95500 41.90400
N  23.15500 -7.88400 47.10700
C  22.35800 -7.26600 46.05500
C  21.10500 -7.97500 45.83900
C  21.16300 -9.00800 46.74800
C  22.42800 -8.92700 47.47700
C  19.98500 -7.53800 44.82900
C  20.06700 -10.11500 46.81700
O  19.13400 -10.19600 46.04500
C  20.09600 -11.17800 47.84300
N  24.92700 -8.87200 49.33600
C  23.93500 -9.75700 49.39600
C  24.21300 -10.90900 50.28900
C  25.62000 -10.54300 50.85000
C  26.00100 -9.34200 49.99800
C  23.10900 -11.26700 51.38300
C  26.70900 -11.64500 50.89200
C  26.31600 -13.01800 51.50700
N  26.84900 -6.93900 48.40900
C  27.65800 -7.64100 49.27700
C  28.96600 -7.01800 49.23600
C  28.83600 -5.95700 48.31200
C  27.54000 -5.99200 47.81900
C  30.10000 -7.61300 49.97300
C  29.48400 -4.76900 47.67300
O  30.62900 -4.30800 47.84100
C  28.48400 -4.17400 46.70800
C  28.22000 -2.76900 47.19200
O  27.89000 -2.45300 48.32800
O  28.39800 -1.86700 46.20000
C  28.18300 -0.44700 46.44900
H  22.02500 -5.69300 44.73400
H  22.30000 -10.73500 48.66900
H  27.97000 -9.03000 50.86100
H  25.80800 -2.86200 45.46500
H  24.23200 -4.24300 43.53900
H  23.76100 -2.30300 45.54600
H  22.53500 -3.60500 45.79400
H  22.59100 -2.83700 44.17500
H  26.28000 -4.21300 42.84500
H  27.58100 -4.35900 44.00900
H  28.27600 -2.21000 43.43000
H  26.88300 -1.53400 43.97400
H  20.18400 -8.00800 43.86600
H  19.94300 -6.45000 44.79200
H  19.07900 -7.96600 45.25800
H  20.61100 -11.97600 47.30800
H  19.02500 -11.37700 47.83700
H  20.42500 -11.02800 48.87200
H  24.31700 -11.82400 49.70700
H  25.45300 -10.14000 51.84900
H  23.53100 -11.43000 52.37400
H  22.64600 -12.20400 51.07100
H  22.28200 -10.55700 51.36200
H  27.50100 -11.30000 51.55600
H  27.14400 -11.83100 49.91000
H  26.41900 -13.82400 50.78100
H  25.27900 -13.04900 51.84300
H  26.89000 -13.27800 52.39600
H  30.91800 -6.90800 49.82500
H  30.40900 -8.56300 49.53800
H  29.97300 -7.83400 51.03200
H  28.94600 -4.18100 45.72000
H  27.09900 -0.36100 46.52300
H  28.61600 0.26100 45.74300
H  28.56500 -0.24000 47.44900
Mg 48.12600 34.46400 27.38100
C  46.07200 32.72200 29.66900
C  48.26600 37.03100 29.40900
C  49.59000 36.15300 24.91000
C  47.52300 31.65700 25.06800
N  47.29200 34.82200 29.30300
C  46.53200 33.95500 30.14500
C  46.33300 34.51300 31.52800
C  46.84100 36.01200 31.37400
C  47.55400 35.99600 30.02100
C  45.73300 37.03600 31.37400
C  47.03900 33.67400 32.63000
C  48.02700 34.42900 33.50900
H  47.50200 35.36400 34.65100
N  48.93600 36.31700 27.23300
C  48.94700 37.25000 28.25300
C  49.60700 38.39500 27.74200
C  49.99100 38.20300 26.40500
C  49.46900 36.87200 26.10000
C  49.74600 39.61700 28.50800
C  50.86800 39.03300 25.49300
O  51.10100 38.73600 24.32300
C  51.52700 40.30900 25.93100
N  48.46100 33.97800 25.31000
C  49.17000 34.89000 24.51800
C  49.58400 34.20800 23.18000
C  48.95100 32.82900 23.29600
C  48.30800 32.75100 24.67000
C  49.23100 35.00600 21.82100
C  49.83300 31.58200 22.93000
C  51.10200 31.26900 23.83800
N  47.13900 32.46300 27.35300
C  46.95800 31.51300 26.36700
C  46.15900 30.46400 26.86400
C  45.68900 30.91700 28.13700
C  46.36200 32.15100 28.41800
C  45.75200 29.25700 26.17300
C  44.93800 30.56300 29.23600
O  44.17500 29.57400 29.50100
C  44.99800 31.73400 30.23100
C  45.10800 31.13500 31.53900
O  45.95100 30.21600 31.86500
O  44.17400 31.72000 32.38300
C  44.11600 31.12000 33.75100
H  48.28600 37.86500 30.11300
H  50.03900 36.74400 24.10900
H  47.45100 30.82600 24.36300
H  45.26600 34.63100 31.71700
H  47.61200 36.34200 32.06900
H  44.73000 36.73100 31.67200
H  45.56200 37.44700 30.37900
H  45.89800 37.79300 32.14100
H  47.67000 32.86200 32.27000
H  46.29300 33.24400 33.29900
H  48.73300 34.88300 32.81400
H  48.55500 33.72700 34.15400
H  49.38800 40.52700 28.02700
H  50.81500 39.67200 28.71700
H  49.23300 39.45500 29.45500
H  52.15700 40.16300 26.80800
H  50.75300 41.06700 26.05400
H  52.25200 40.61900 25.17900
H  50.67100 34.20900 23.25500
H  48.11900 32.78300 22.59400
H  49.26100 34.40400 20.91200
H  50.00900 35.76200 21.71400
H  48.26000 35.49900 21.86100
H  50.23900 31.74800 21.93200
H  49.08800 30.78600 22.95500
H  51.99100 31.58900 23.29500
H  51.28800 30.30600 24.31400
H  51.11600 32.06600 24.58100
H  45.95900 28.38500 26.79300
H  46.20200 29.04600 25.20300
H  44.69800 29.17700 25.90500
H  44.05300 32.27200 30.16100
H  43.34000 30.36800 33.60700
H  43.71800 31.84500 34.46000
H  45.05300 30.65500 34.05900

