158

Mg 53.71200 25.14500 44.63400
C  51.01400 27.58400 43.90700
C  51.69500 22.86100 43.27400
C  56.51800 23.23400 44.28200
C  55.68700 27.91500 45.52500
N  51.70500 25.27900 43.56400
C  50.76700 26.31300 43.39200
C  49.44900 25.83500 42.73400
C  49.63000 24.23400 42.76900
C  51.11700 24.11100 43.26200
C  48.71800 23.42800 43.66200
C  49.07800 26.39700 41.32500
C  50.18500 26.41900 40.25400
H  49.88700 25.69500 38.98200
N  54.01000 23.28300 44.06500
C  53.00200 22.49100 43.61900
C  53.53100 21.11200 43.64400
C  54.95400 21.22700 43.75000
C  55.23800 22.61100 44.08200
C  52.78400 19.89800 43.18200
C  55.97200 20.08800 43.63500
O  55.60700 18.95100 43.28700
C  57.36500 20.28400 43.96100
N  55.77500 25.49100 44.87000
C  56.72600 24.56400 44.61700
C  58.11400 25.19300 44.87100
C  57.90200 26.72000 45.07500
C  56.35200 26.71500 45.15600
C  59.15100 24.60800 45.85400
C  58.32800 27.63400 43.90000
C  59.17000 28.90400 44.17400
N  53.41800 27.23000 44.91500
C  54.29800 28.20500 45.36700
C  53.59800 29.40600 45.62900
C  52.31600 29.16600 45.07800
C  52.26300 27.90100 44.52200
C  54.13900 30.72100 46.23500
C  51.10100 29.85100 44.73000
O  50.80800 31.01700 44.99600
C  50.19900 28.88600 43.91800
C  49.97900 29.51300 42.65400
O  50.90000 29.84300 41.96200
O  48.65400 29.68300 42.37700
C  48.28100 30.16000 41.03600
H  51.08800 22.00500 42.97100
H  57.45600 22.76900 43.97100
H  56.29300 28.81100 45.67700
H  48.59700 26.22600 43.29100
H  49.56700 23.79900 41.77200
H  47.70800 23.81600 43.52800
H  48.86400 23.44000 44.74200
H  48.72000 22.36300 43.42900
H  48.73500 27.42200 41.46800
H  48.14500 25.95200 40.98200
H  51.10400 25.90700 40.54000
H  50.45100 27.47400 40.19200
H  53.05500 18.99800 43.73300
H  52.90700 19.60800 42.13800
H  51.73000 19.91800 43.46000
H  57.98400 19.39400 43.85000
H  57.53800 20.63500 44.97800
H  57.77400 20.93900 43.19100
H  58.58300 25.01100 43.90400
H  58.25100 27.08100 46.04200
H  60.08900 25.05300 45.52200
H  59.14100 23.52500 45.72700
H  58.89100 24.89600 46.87200
H  57.51500 28.14700 43.38400
H  58.89800 27.10800 43.13400
H  58.65900 29.86200 44.08400
H  60.09000 28.91800 43.59000
H  59.53800 28.75200 45.18900
H  53.94400 30.60200 47.30100
H  53.55200 31.53100 45.80100
H  55.20200 30.82600 46.01600
H  49.21800 28.61500 44.30900
H  47.73900 31.10500 41.07000
H  47.58000 29.46300 40.57700
H  49.23200 30.29500 40.52000
Mg -5.95400 24.68400 26.18300
C  -4.39300 26.10500 28.96000
C  -7.58200 22.52200 28.12500
C  -7.40100 23.50700 23.42900
C  -4.06600 26.83700 24.10200
N  -5.80600 24.24800 28.21500
C  -5.31800 25.05900 29.23100
C  -5.80700 24.67300 30.62800
C  -6.55800 23.32700 30.31900
C  -6.61700 23.29200 28.76500
C  -5.89400 22.01000 30.93300
C  -6.68000 25.81600 31.42200
C  -6.51700 25.89900 32.95400
H  -5.90900 24.63100 33.56300
N  -7.45100 23.30800 25.82600
C  -7.91600 22.47600 26.80000
C  -8.84400 21.57600 26.24200
C  -8.89300 21.93500 24.82000
C  -7.87700 22.91100 24.62500
C  -9.52400 20.43100 27.00600
C  -9.77500 21.35700 23.72900
O  -9.66100 21.72300 22.57900
C  -10.79200 20.32300 24.02000
N  -5.71300 24.99400 24.06200
C  -6.41300 24.36800 23.12900
C  -5.99900 24.64700 21.64500
C  -4.91600 25.73600 21.83200
C  -4.86800 25.89700 23.44300
C  -5.37000 23.44600 20.86700
C  -5.17200 27.07600 21.07600
C  -4.33500 27.22400 19.71100
N  -4.45700 26.13500 26.38900
C  -3.82500 26.96700 25.51400
C  -3.00400 27.97800 26.27400
C  -3.19300 27.63900 27.64700
C  -4.06000 26.53900 27.64900
C  -2.33300 29.31200 25.78800
C  -2.88700 28.00900 29.05900
O  -2.30500 28.96800 29.52600
C  -3.63700 27.02000 29.93200
C  -2.65700 26.27100 30.75000
O  -1.87500 25.39200 30.32900
O  -2.70600 26.65300 32.15100
C  -1.76300 25.93700 33.01700
H  -8.08400 21.87300 28.84500
H  -7.90400 23.17700 22.51700
H  -3.41500 27.43900 23.46500
H  -4.88900 24.46000 31.17700
H  -7.56200 23.36400 30.74000
H  -5.24900 21.51400 30.20700
H  -6.67300 21.34200 31.30000
H  -5.14800 22.27700 31.68200
H  -7.71900 25.52000 31.27900
H  -6.48000 26.77700 30.94800
H  -7.46000 26.12500 33.45300
H  -5.77700 26.68200 33.11700
H  -10.59300 20.62400 26.91400
H  -9.26800 20.30100 28.05800
H  -9.35200 19.56800 26.36300
H  -10.31600 19.47500 24.51200
H  -11.18200 19.95500 23.07100
H  -11.70400 20.66700 24.50900
H  -6.83500 24.99500 21.03700
H  -3.98600 25.36200 21.40400
H  -5.56100 22.51000 21.39000
H  -4.28800 23.43900 20.73600
H  -5.80800 23.47100 19.86900
H  -4.80900 27.77000 21.83400
H  -6.21000 27.30600 20.83300
H  -5.05600 27.55700 18.96500
H  -3.87600 26.26100 19.48600
H  -3.43600 27.83500 19.79300
H  -1.42700 29.19600 25.19400
H  -1.90000 29.89100 26.60400
H  -3.05400 29.92100 25.24200
H  -4.21600 27.65900 30.59800
H  -0.81700 25.75800 32.50600
H  -2.26500 25.02300 33.33600
H  -1.55200 26.57000 33.88000

