158

Mg 40.56700 9.05400 30.51000
C  42.50100 10.36900 32.97200
C  38.36200 7.84300 32.99800
C  38.68900 7.60400 28.16100
C  43.12100 9.48300 28.20800
N  40.48300 9.03100 32.78200
C  41.30000 9.82400 33.52000
C  40.87300 9.90400 34.96600
C  39.59200 8.92200 34.96300
C  39.43300 8.56900 33.50900
C  39.74700 7.64800 35.93200
C  40.74700 11.30800 35.56300
C  39.94300 11.49000 36.86400
H  40.60100 12.11300 38.08400
N  38.76800 8.00000 30.57300
C  38.07900 7.56000 31.69300
C  36.82700 6.99400 31.23400
C  36.82900 6.95800 29.84500
C  38.18400 7.52100 29.45200
C  35.76600 6.46800 32.15000
C  35.82000 6.41800 28.87900
O  36.00900 6.40800 27.65500
C  34.58200 5.76900 29.34400
N  40.93400 8.42600 28.47600
C  39.94200 8.07400 27.70200
C  40.34900 7.93100 26.25000
C  41.80500 8.55200 26.19800
C  42.01200 8.78700 27.71400
C  40.21500 6.48300 25.72700
C  42.04000 9.82600 25.35900
C  43.19200 9.69800 24.38700
N  42.42100 9.72200 30.49100
C  43.34300 9.96200 29.47700
C  44.43800 10.66600 29.98700
C  44.14300 10.88100 31.31700
C  42.90300 10.26000 31.59500
C  45.54900 11.23500 29.19300
C  44.67600 11.38000 32.52600
O  45.75200 11.90000 32.78700
C  43.60500 11.18600 33.61300
C  44.17600 10.58200 34.86300
O  44.27300 9.35400 35.21100
O  44.58800 11.53400 35.76500
C  45.04900 11.24700 37.10600
H  37.71600 7.54400 33.82600
H  38.06000 7.20500 27.36300
H  43.88900 9.62600 27.44500
H  41.69900 9.41700 35.48500
H  38.69600 9.42200 35.33000
H  40.70500 7.52900 36.43800
H  39.68600 6.75600 35.30800
H  38.89700 7.63400 36.61500
H  40.32400 11.90900 34.75800
H  41.72900 11.68900 35.84000
H  39.78100 10.45400 37.16500
H  39.03400 12.06100 36.67200
H  35.70900 5.41100 31.89000
H  34.82500 6.99200 31.98200
H  36.05300 6.44500 33.20100
H  33.89000 5.59100 28.52100
H  33.99500 6.39000 30.02200
H  34.75900 4.76300 29.72400
H  39.79400 8.66300 25.66300
H  42.63000 7.85000 26.08000
H  40.10000 5.69800 26.47500
H  41.02300 6.10600 25.10000
H  39.40300 6.35700 25.01100
H  42.27400 10.58600 26.10400
H  41.13900 10.21000 24.88000
H  44.09700 10.14000 24.80300
H  42.98700 10.17900 23.43000
H  43.52300 8.67700 24.19600
H  45.82000 10.52600 28.41000
H  46.41500 11.25200 29.85400
H  45.31000 12.20100 28.74800
H  43.29700 12.17400 33.95400
H  44.18900 10.92200 37.69200
H  45.53300 12.14600 37.48900
H  45.80300 10.46500 37.19700
Mg -11.39500 38.89600 42.09200
C  -9.55300 36.16500 40.91900
C  -9.46400 40.93200 40.07200
C  -13.72000 41.28700 42.41300
C  -13.73500 36.53400 43.38700
N  -9.74200 38.56400 40.50300
C  -9.12200 37.35500 40.29300
C  -7.99200 37.56800 39.33000
C  -7.89600 39.13800 39.21300
C  -9.05200 39.56700 40.01900
C  -6.55600 39.71300 39.63800
C  -8.38100 36.94400 37.91600
C  -7.37100 36.00700 37.27700
H  -6.52400 36.70300 36.19100
N  -11.47100 40.86000 41.46600
C  -10.54400 41.55300 40.73200
C  -11.01900 42.95900 40.67400
C  -12.23800 43.09600 41.44500
C  -12.52400 41.68800 41.83100
C  -10.10700 43.97700 40.06500
C  -13.04600 44.34600 41.66400
O  -12.57000 45.38100 41.16700
C  -14.22800 44.49500 42.57900
N  -13.42800 38.95800 42.99100
C  -14.20900 40.08900 42.94400
C  -15.62300 39.80400 43.34700
C  -15.64000 38.23600 43.71700
C  -14.17600 37.88000 43.38100
C  -15.91400 40.71300 44.56000
C  -16.73100 37.43900 42.91400
C  -17.65700 36.62200 43.84200
N  -11.53600 36.84400 42.28000
C  -12.52500 36.04200 42.87500
C  -11.98400 34.69800 43.03600
C  -10.77500 34.71600 42.28700
C  -10.63900 35.98000 41.77700
C  -12.72300 33.57400 43.78800
C  -9.72100 33.90500 41.78600
O  -9.39800 32.76000 41.98300
C  -8.81600 34.80700 40.88500
C  -7.47300 34.82700 41.41800
O  -6.55800 34.03800 41.15000
O  -7.18400 35.91900 42.15700
C  -5.85900 35.82300 42.79800
H  -8.94800 41.65800 39.44100
H  -14.55200 41.99500 42.42900
H  -14.41700 35.78700 43.79800
H  -7.04300 37.12900 39.63800
H  -8.07000 39.51700 38.20500
H  -6.37100 40.56700 38.98700
H  -5.72600 39.05000 39.39700
H  -6.52300 39.89900 40.71200
H  -8.74300 37.70600 37.22700
H  -9.29700 36.37600 38.07900
H  -7.93600 35.23100 36.76200
H  -6.81700 35.48300 38.05600
H  -10.65700 44.62100 39.38000
H  -9.27300 43.55600 39.50500
H  -9.75700 44.46900 40.97300
H  -14.14800 45.51200 42.96400
H  -14.14100 43.94400 43.51500
H  -15.16800 44.31000 42.05900
H  -16.25900 40.12000 42.52100
H  -15.71100 38.12700 44.79900
H  -15.01600 40.79500 45.17100
H  -16.67000 40.25900 45.20100
H  -16.40400 41.65000 44.29500
H  -16.23500 36.85200 42.14100
H  -17.40800 38.13200 42.41600
H  -17.47300 35.58800 43.54900
H  -18.67500 36.91200 43.58600
H  -17.68400 36.70200 44.92900
H  -12.26500 32.58800 43.72300
H  -13.72600 33.51200 43.36600
H  -12.77300 33.87200 44.83500
H  -8.82800 34.48600 39.84400
H  -5.86300 36.37900 43.73500
H  -5.13700 36.36100 42.18300
H  -5.40200 34.86900 43.06200

