158

Mg 48.96900 13.94000 27.96500
C  47.21500 14.44400 30.94100
C  51.57300 15.66100 29.19300
C  50.64200 13.47000 25.00900
C  46.24500 12.03800 26.71200
N  49.33300 14.99900 29.82100
C  48.48500 15.07800 30.90300
C  49.17700 15.52000 32.17700
C  50.40500 16.27600 31.43400
C  50.45800 15.63500 30.03500
C  50.28800 17.82800 31.34000
C  49.56200 14.34400 33.11700
C  49.13600 14.60900 34.62100
H  49.10100 16.09200 35.19000
N  50.84200 14.47600 27.18500
C  51.79200 15.14100 27.86000
C  52.90900 15.42500 27.04500
C  52.74800 14.55000 25.94600
C  51.39600 14.08200 26.02300
C  54.06100 16.40000 27.35300
C  53.81100 14.09600 24.89900
O  53.51900 13.33800 23.95700
C  55.27300 14.44800 24.98500
N  48.52400 12.97800 26.03300
C  49.35600 12.93500 24.92100
C  48.77300 12.09200 23.78800
C  47.43100 11.59500 24.42400
C  47.38000 12.28700 25.83700
C  48.66400 12.63900 22.40600
C  47.32300 10.02300 24.52900
C  48.27400 9.32300 25.55400
N  47.07500 13.45500 28.63100
C  46.07900 12.69100 28.03800
C  44.95900 12.54800 28.95300
C  45.33000 13.24600 30.09000
C  46.68200 13.74800 29.82500
C  43.77900 11.68900 28.77400
C  44.82800 13.53000 31.43000
O  43.76700 13.31500 31.99000
C  46.06600 14.38300 31.99700
C  45.38500 15.62900 32.33000
O  44.44900 16.14700 31.70900
O  45.94800 16.19200 33.44200
C  45.60400 17.52900 33.75400
H  52.44200 16.22300 29.54000
H  51.22900 13.37200 24.09400
H  45.41100 11.51700 26.23800
H  48.43700 16.23100 32.54400
H  51.32800 15.97200 31.92700
H  51.20000 18.18700 31.81700
H  49.43900 18.13200 31.95100
H  50.22700 18.23800 30.33100
H  50.62600 14.13000 33.21500
H  49.05300 13.41500 32.86200
H  49.80300 13.97800 35.20900
H  48.12200 14.28300 34.85600
H  54.90100 15.94600 27.87900
H  53.68300 17.33900 27.75700
H  54.55900 16.79300 26.46600
H  55.32300 15.53700 24.97000
H  55.69100 13.89900 24.14100
H  55.45300 13.97700 25.95100
H  49.41000 11.20800 23.75100
H  46.49900 11.92200 23.96200
H  49.23500 11.94400 21.79000
H  49.12300 13.62400 22.48900
H  47.64300 12.63600 22.02500
H  47.71200 9.65800 23.57900
H  46.28400 9.76700 24.73800
H  47.65100 8.80500 26.28300
H  48.87200 10.06300 26.08700
H  48.88200 8.69400 24.90300
H  43.13100 11.72400 29.65000
H  44.21600 10.70900 28.58500
H  43.20700 12.04600 27.91800
H  46.47100 13.92300 32.89800
H  44.52600 17.68200 33.71100
H  46.01700 18.21500 33.01400
H  46.00600 17.70900 34.75100
Mg -10.38600 40.16700 42.51400
C  -9.64400 36.71300 41.71200
C  -7.59900 41.11600 40.77200
C  -11.52200 43.33700 42.62900
C  -13.55200 39.02100 43.52600
N  -8.82300 38.99500 41.33500
C  -8.76600 37.63300 41.16700
C  -7.49800 37.31400 40.31800
C  -6.73300 38.73200 40.13100
C  -7.73700 39.68800 40.73400
C  -5.32700 38.84700 40.85000
C  -7.65300 36.45200 39.00800
C  -6.50900 35.45000 38.74200
H  -5.47900 35.91900 37.71000
N  -9.70200 42.03400 41.83000
C  -8.46700 42.18700 41.18900
C  -8.19400 43.62900 41.07100
C  -9.29400 44.39600 41.46700
C  -10.21400 43.27200 42.06700
C  -6.88900 44.18900 40.47200
C  -9.49400 45.92400 41.38400
O  -8.58800 46.62900 40.93000
C  -10.66900 46.54100 42.02500
N  -12.31800 41.06900 42.86500
C  -12.45400 42.41300 43.01500
C  -13.95700 42.69000 43.27800
C  -14.62000 41.34600 43.42000
C  -13.43400 40.40500 43.31500
C  -14.06000 43.50400 44.57000
C  -15.75400 40.93700 42.41700
C  -17.14100 40.68300 43.05000
N  -11.37600 38.23100 42.77200
C  -12.66100 37.94800 43.18700
C  -12.97700 36.49700 43.13600
C  -11.80200 36.02500 42.59400
C  -10.88500 37.09500 42.28300
C  -14.31100 35.85600 43.46000
C  -11.12100 34.75900 42.15500
O  -11.48400 33.63400 42.15000
C  -9.78000 35.25300 41.57500
C  -8.53200 34.43100 41.89500
O  -7.60300 34.69100 42.64500
O  -8.63100 33.30900 41.17700
C  -7.46400 32.39200 41.27100
H  -6.62000 41.46300 40.43500
H  -11.87900 44.36800 42.68400
H  -14.54700 38.70200 43.84400
H  -6.73300 36.82700 40.92300
H  -6.50800 38.92300 39.08200
H  -5.37600 39.67100 41.56200
H  -4.47500 39.09300 40.21600
H  -5.11400 38.04200 41.55400
H  -7.61800 37.17900 38.19700
H  -8.59700 35.91500 38.91600
H  -7.02700 34.55000 38.40800
H  -6.00400 35.21000 39.67800
H  -6.13200 43.51700 40.87500
H  -6.65600 45.19200 40.83100
H  -6.94500 44.21500 39.38400
H  -10.73600 46.26300 43.07600
H  -11.53500 46.18500 41.46700
H  -10.55500 47.61100 41.85300
H  -14.42400 43.28600 42.49500
H  -14.95800 41.14300 44.43600
H  -13.23700 43.28300 45.25000
H  -15.02200 43.31400 45.04700
H  -13.96200 44.57000 44.36500
H  -15.45800 40.11500 41.76300
H  -15.81500 41.79900 41.75300
H  -17.06000 40.48100 44.11800
H  -17.53900 39.74400 42.66600
H  -17.82400 41.51200 42.86200
H  -15.06400 35.94500 42.67700
H  -14.74200 36.43400 44.27700
H  -14.12000 34.83500 43.79000
H  -9.89100 35.07700 40.50500
H  -7.24100 32.25700 42.33000
H  -6.55200 32.64800 40.73100
H  -7.78100 31.42700 40.87800

