158

Mg 24.44300 1.91600 29.51700
C  26.68700 1.77100 32.32900
C  21.87600 1.90300 31.74400
C  22.42800 1.87400 26.91700
C  27.22000 1.34300 27.37000
N  24.26600 1.79300 31.86200
C  25.32800 1.83100 32.79300
C  24.78600 1.90300 34.21000
C  23.21800 1.94800 33.99300
C  23.10000 1.91300 32.46300
C  22.44200 0.86700 34.68000
C  25.46600 3.12700 34.94300
C  24.74400 3.56200 36.25400
H  25.54100 3.67500 37.52600
N  22.51700 1.79400 29.30900
C  21.60600 1.95900 30.40500
C  20.26400 1.89900 29.87300
C  20.39500 2.01100 28.47400
C  21.82900 1.89000 28.17600
C  19.07400 1.90600 30.74900
C  19.22800 2.16000 27.36700
O  19.45800 2.26600 26.14900
C  17.79500 2.06300 27.76600
N  24.79700 1.65700 27.54900
C  23.79900 1.84000 26.64000
C  24.25400 1.93700 25.12000
C  25.81000 1.92100 25.36600
C  25.96800 1.58300 26.83300
C  23.67400 0.90400 24.17800
C  26.52800 3.28300 25.01500
C  25.98100 4.58000 25.64800
N  26.52500 1.64400 29.74400
C  27.51400 1.28800 28.78900
C  28.73600 1.08700 29.42800
C  28.43600 1.33700 30.80300
C  27.11300 1.69400 30.94800
C  30.06700 0.68600 28.82200
C  29.07100 1.32100 32.09100
O  30.24300 1.12900 32.38200
C  28.01400 1.78200 33.16900
C  28.06100 0.74700 34.28100
O  27.78700 -0.40900 34.10500
O  28.50800 1.27800 35.49100
C  28.64500 0.28800 36.57400
H  21.07400 2.07800 32.46500
H  21.70800 1.93300 26.09800
H  27.94600 1.35900 26.55500
H  25.16200 0.96400 34.61700
H  22.81100 2.91500 34.28600
H  21.88000 0.36300 33.89300
H  21.76900 1.33300 35.40000
H  23.05300 0.20300 35.29200
H  25.54400 4.00600 34.30400
H  26.50700 2.93400 35.20300
H  23.93400 2.87200 36.48700
H  24.32300 4.52100 35.95200
H  18.08700 2.02500 30.30100
H  19.22700 2.66600 31.51500
H  18.93900 0.96000 31.27300
H  17.19800 2.12000 26.85600
H  17.38300 2.88000 28.35800
H  17.67200 1.16600 28.37400
H  23.96100 2.93200 24.78600
H  26.32400 1.18400 24.74900
H  23.20700 0.12600 24.78200
H  24.52800 0.44300 23.68000
H  23.00700 1.32100 23.42300
H  26.57500 3.28500 23.92600
H  27.59500 3.21200 25.23100
H  26.92300 4.98600 26.01700
H  25.23200 4.40200 26.42000
H  25.60800 5.19600 24.83000
H  29.89100 0.22300 27.85100
H  30.55500 -0.07000 29.43700
H  30.60200 1.61900 28.64600
H  28.26200 2.78400 33.52000
H  27.96500 0.53800 37.38800
H  29.67300 0.12400 36.89900
H  28.45300 -0.74900 36.30000
Mg 49.15600 46.16600 42.60000
C  45.71300 46.77200 41.85700
C  48.93300 43.28800 40.97700
C  52.56200 45.95100 42.73300
C  49.32300 49.51000 43.83400
N  47.53300 45.11800 41.64300
C  46.16600 45.48900 41.44100
C  45.40100 44.39900 40.61900
C  46.44600 43.22800 40.56400
C  47.74300 43.90700 41.11400
C  46.02200 41.98300 41.49700
C  45.06200 44.93100 39.20300
C  43.69100 44.36900 38.59600
H  43.86600 43.78000 37.15900
N  50.55600 44.77500 41.92300
C  50.25900 43.64700 41.31500
C  51.42000 42.79400 41.07000
C  52.52500 43.58500 41.55400
C  51.94700 44.84800 42.14500
C  51.32000 41.51100 40.31000
C  54.02400 43.10700 41.50600
O  54.35700 42.01000 41.11200
C  55.12600 44.00900 41.92300
N  50.76700 47.52700 43.26300
C  52.05800 47.21800 43.12500
C  53.00700 48.31000 43.68600
C  51.95800 49.48300 43.91700
C  50.61300 48.87900 43.53200
C  53.78900 47.78100 44.92900
C  52.28300 50.81900 43.25100
C  52.99400 51.87900 44.19500
N  47.82200 47.80300 42.81000
C  48.04400 49.08600 43.35700
C  46.81300 49.84600 43.29900
C  45.86800 48.95900 42.82500
C  46.55800 47.73100 42.47600
C  46.67400 51.35200 43.76200
C  44.42700 48.79400 42.52900
O  43.54600 49.61700 42.66300
C  44.30900 47.33300 41.81700
C  43.48700 46.40400 42.72300
O  43.78700 45.95500 43.81300
O  42.36700 45.95100 42.06500
C  41.42700 45.03100 42.64400
H  48.89500 42.33500 40.44500
H  53.64300 46.00200 42.88000
H  49.42000 50.54800 44.15600
H  44.53700 44.11700 41.22000
H  46.65200 42.80400 39.58100
H  44.96300 42.10800 41.72300
H  46.61300 41.98500 42.41200
H  46.12900 41.08700 40.88600
H  45.89500 44.65100 38.55900
H  44.91400 46.00800 39.12400
H  43.07500 45.26700 38.54200
H  43.19400 43.63200 39.22700
H  52.32200 41.18000 40.03700
H  50.71900 41.53600 39.40100
H  50.72700 40.74900 40.81600
H  54.97200 44.08000 43.00000
H  54.98100 44.97100 41.43300
H  56.12800 43.58300 41.87300
H  53.66600 48.53000 42.84500
H  51.76200 49.75400 44.95500
H  53.67500 48.46300 45.77100
H  54.83900 47.57000 44.72400
H  53.30900 46.87100 45.28600
H  51.35000 51.12100 42.77600
H  52.97400 50.55100 42.45200
H  53.20100 51.39800 45.15100
H  52.48600 52.83900 44.28100
H  53.99100 51.98900 43.76800
H  47.39500 51.75600 44.47200
H  45.68800 51.44000 44.21800
H  46.75400 52.04500 42.92500
H  43.84200 47.41800 40.83600
H  40.46000 44.97400 42.14400
H  41.38400 45.14600 43.72700
H  41.81700 44.02600 42.48700

