158

Mg 1.46900 -1.06900 44.18800
C  4.80300 -0.15700 43.46000
C  0.59900 1.50700 42.19000
C  -1.70200 -2.23000 44.22300
C  2.59900 -4.06900 45.54600
N  2.55300 0.57900 43.08100
C  3.91500 0.72700 42.86900
C  4.28800 1.95000 41.93000
C  2.88700 2.63000 41.84500
C  1.92500 1.47200 42.37000
C  2.74300 3.86800 42.74000
C  4.87200 1.41500 40.57700
C  6.25100 1.81300 40.20800
H  6.40100 2.87000 39.09800
N  -0.29900 -0.47100 43.35300
C  -0.50500 0.69200 42.61100
C  -1.87600 1.00100 42.47500
C  -2.61100 -0.14000 43.00300
C  -1.53200 -0.99700 43.60100
C  -2.39000 2.17800 41.74500
C  -4.10200 -0.31100 42.96700
O  -4.80800 0.62300 42.52000
C  -4.78300 -1.50600 43.42000
N  0.58600 -3.12000 44.48200
C  -0.76300 -3.18700 44.66900
C  -1.11800 -4.50400 45.29600
C  0.27000 -5.13700 45.84700
C  1.23200 -3.99900 45.34700
C  -2.18600 -4.37900 46.40300
C  0.67700 -6.49800 45.16500
C  0.70800 -7.74900 46.05000
N  3.32200 -1.92200 44.57500
C  3.62300 -3.12200 45.16100
C  5.07900 -3.23600 45.39200
C  5.56100 -2.11000 44.73000
C  4.48200 -1.31600 44.22200
C  5.78000 -4.42600 46.03200
C  6.77500 -1.56000 44.24800
O  7.95500 -1.86200 44.37900
C  6.36400 -0.20300 43.46500
C  7.04800 0.98600 44.19900
O  8.22900 1.20900 44.22600
O  6.14500 1.76400 44.97800
C  6.77700 3.01300 45.36600
H  0.30500 2.39600 41.62800
H  -2.71400 -2.51300 44.51800
H  3.00400 -4.89800 46.13000
H  5.04700 2.60400 42.35900
H  2.62200 2.76700 40.79600
H  2.26800 4.64500 42.14100
H  3.72300 4.20200 43.08100
H  2.09400 3.71400 43.60300
H  4.23600 1.78700 39.77300
H  4.85300 0.32800 40.49000
H  6.91500 1.00300 39.90700
H  6.80400 2.26600 41.03100
H  -3.22400 2.57000 42.32900
H  -2.78000 1.99200 40.74400
H  -1.71400 3.03300 41.75600
H  -5.85000 -1.52600 43.19800
H  -4.72500 -1.38500 44.50200
H  -4.30500 -2.42800 43.08800
H  -1.53500 -5.15800 44.52900
H  0.25500 -5.11900 46.93700
H  -2.27500 -3.35100 46.75400
H  -1.89800 -4.92100 47.30300
H  -3.23200 -4.58000 46.17300
H  1.60400 -6.44900 44.59300
H  -0.15100 -6.71800 44.49100
H  0.03700 -7.52800 46.88000
H  1.68500 -8.21700 46.17300
H  0.11300 -8.53600 45.58700
H  6.30000 -5.08300 45.33600
H  5.06000 -4.98900 46.62700
H  6.59200 -4.13600 46.69900
H  6.83700 -0.24200 42.48300
H  6.12700 3.70900 45.89600
H  7.08500 3.56300 44.47700
H  7.59300 2.86500 46.07500
Mg -5.26500 26.11600 26.91700
C  -4.21900 27.80400 29.82400
C  -7.34400 24.25800 28.80000
C  -5.89100 24.24800 24.13600
C  -2.90800 27.90600 25.16100
N  -5.65200 26.02000 29.09900
C  -5.25300 26.88500 30.10300
C  -6.01800 26.66700 31.36500
C  -6.84200 25.43600 31.08400
C  -6.55600 25.15800 29.58200
C  -6.52700 24.09900 31.94600
C  -6.87900 27.96200 31.69200
C  -7.47600 27.99500 33.09500
H  -7.15500 26.93900 34.17500
N  -6.60000 24.58200 26.46700
C  -7.38300 23.92800 27.41800
C  -8.19400 22.91100 26.71000
C  -7.80100 22.88000 25.36200
C  -6.67600 23.89000 25.27700
C  -9.32100 22.12700 27.41800
C  -8.19500 21.99300 24.22400
O  -7.68500 22.07900 23.15800
C  -9.22700 20.94000 24.48400
N  -4.70000 26.22100 24.89300
C  -4.96600 25.24000 23.95100
C  -4.29200 25.58800 22.60000
C  -3.42600 26.83500 22.95300
C  -3.68600 27.02500 24.44300
C  -3.58600 24.45700 21.85300
C  -3.74400 28.13600 22.12700
C  -3.27300 28.13000 20.63500
N  -3.80900 27.45800 27.36000
C  -2.97700 28.15700 26.51900
C  -2.22000 29.15800 27.28300
C  -2.75500 29.11300 28.49400
C  -3.66900 28.01600 28.55700
C  -1.33200 30.24900 26.78400
C  -2.61400 29.73200 29.79500
O  -1.90100 30.67600 30.13700
C  -3.57900 28.93800 30.73500
C  -2.70500 28.19200 31.73400
O  -1.77000 27.48600 31.39100
O  -3.17000 28.44600 32.99700
C  -2.45700 27.77300 34.01500
H  -7.97700 23.75100 29.53100
H  -6.12300 23.69800 23.22200
H  -2.04300 28.43800 24.75900
H  -5.36700 26.49000 32.22100
H  -7.90200 25.59100 31.28500
H  -6.38200 23.26200 31.26300
H  -7.48000 23.99100 32.46500
H  -5.71500 24.16900 32.66900
H  -7.64800 28.15100 30.94400
H  -6.14400 28.76000 31.80700
H  -8.55100 28.14900 33.00200
H  -7.07700 28.81300 33.69400
H  -8.89200 21.16900 27.71400
H  -10.15700 21.94600 26.74200
H  -9.66200 22.77600 28.22400
H  -10.16400 21.46100 24.68200
H  -9.03000 20.31400 25.35400
H  -9.24900 20.30600 23.59700
H  -4.98200 25.90200 21.81600
H  -2.38000 26.55500 22.82300
H  -2.51800 24.60200 21.68900
H  -4.02600 24.32200 20.86500
H  -3.62000 23.50200 22.37900
H  -3.50000 29.01600 22.72200
H  -4.82400 28.27300 22.07600
H  -2.64700 27.25400 20.46500
H  -2.57900 28.95700 20.48200
H  -4.08400 28.30300 19.92800
H  -1.93300 30.98600 26.25100
H  -0.62400 29.77000 26.10800
H  -0.85900 30.86100 27.55200
H  -4.34400 29.56300 31.19500
H  -1.50400 28.22600 34.28800
H  -2.18800 26.75300 33.73800
H  -3.01100 27.75400 34.95300

