158

Mg 35.20100 0.49200 29.46700
C  32.97500 1.37700 32.02200
C  37.74600 0.38600 31.72700
C  37.36200 -0.54700 27.04000
C  32.70200 0.76500 27.16200
N  35.26200 0.88500 31.53600
C  34.27300 1.18200 32.43600
C  34.74200 1.18600 33.81000
C  36.25500 1.04900 33.68800
C  36.44300 0.70000 32.17800
C  37.08800 2.31000 34.03200
C  34.12900 0.10200 34.72000
C  34.05800 0.31600 36.24900
H  34.93400 1.49400 36.80900
N  37.29700 -0.14100 29.45800
C  38.16500 0.02000 30.44600
C  39.49300 -0.38400 30.00500
C  39.35200 -0.66600 28.62100
C  37.93800 -0.49000 28.32900
C  40.68800 -0.27100 30.95000
C  40.41100 -1.14700 27.62900
O  40.13600 -1.21800 26.40400
C  41.71700 -1.47800 28.09700
N  34.97400 0.02400 27.36900
C  36.05800 -0.36900 26.59400
C  35.59400 -0.61200 25.15000
C  34.04700 -0.25800 25.22600
C  33.89800 0.28000 26.62200
C  36.45200 0.10300 24.09500
C  33.13700 -1.46200 24.84800
C  32.81600 -2.49600 25.94400
N  33.34900 1.18100 29.46100
C  32.40400 1.27300 28.48400
C  31.14300 1.69000 29.03300
C  31.26900 1.72600 30.39200
C  32.63300 1.39300 30.63800
C  29.84800 1.93000 28.25900
C  30.65700 1.93100 31.63600
O  29.53200 2.21100 32.02000
C  31.72600 1.71400 32.79800
C  31.79400 2.88500 33.62400
O  31.91400 4.00800 33.28000
O  31.55800 2.43300 34.94100
C  31.38500 3.51800 35.92700
H  38.55700 0.31000 32.45300
H  37.99000 -0.94700 26.24200
H  31.92200 0.88600 26.40700
H  34.51000 2.17700 34.20100
H  36.53200 0.25200 34.37800
H  36.71800 2.96700 34.81800
H  36.92500 2.81400 33.07900
H  38.13300 2.04800 34.19500
H  34.53200 -0.86900 34.43300
H  33.10300 -0.02000 34.37400
H  34.32100 -0.64200 36.69700
H  33.02500 0.55700 36.50000
H  41.60300 0.05400 30.45500
H  40.82100 -1.17700 31.54100
H  40.52600 0.47200 31.73000
H  41.61600 -2.19200 28.91400
H  42.34700 -0.59500 28.21400
H  42.24900 -1.98400 27.29100
H  35.81000 -1.67500 25.04800
H  33.80800 0.44600 24.42900
H  37.32800 -0.51900 23.91200
H  36.86600 1.06600 24.39400
H  35.80600 0.17500 23.22000
H  33.62100 -1.91300 23.98200
H  32.18700 -1.17100 24.39900
H  31.74200 -2.47200 26.12600
H  33.46300 -2.30600 26.80100
H  33.17200 -3.47500 25.62300
H  29.95500 1.61400 27.22100
H  29.68400 3.00700 28.24700
H  29.04800 1.37100 28.74300
H  31.36800 0.79700 33.26600
H  30.35900 3.74500 36.21900
H  32.02500 4.39800 35.85400
H  31.85500 3.10300 36.81900
Mg 53.07100 23.28700 45.13400
C  50.42700 25.53200 44.10900
C  51.11200 20.68100 43.88800
C  55.91800 21.48700 44.88900
C  54.86500 26.10200 46.30700
N  51.01500 23.23300 44.03100
C  50.13600 24.23700 43.72000
C  48.90400 23.64100 43.01200
C  48.99200 22.14200 43.44400
C  50.43700 21.97000 43.76800
C  48.04100 21.85800 44.62800
C  48.93900 23.67400 41.41100
C  47.61000 23.62800 40.70000
H  47.48100 22.91700 39.30900
N  53.46300 21.34400 44.61300
C  52.53500 20.40400 44.11800
C  53.23400 19.13000 43.93500
C  54.60200 19.28700 44.29500
C  54.72500 20.77100 44.67200
C  52.62300 17.93100 43.28700
C  55.69700 18.25000 44.18000
O  55.46000 17.08100 43.96000
C  57.11200 18.50100 44.63300
N  55.14500 23.75900 45.50500
C  56.08800 22.79100 45.48700
C  57.40000 23.25300 46.12400
C  57.12100 24.71100 46.60700
C  55.68800 24.91900 45.98100
C  57.79800 22.31700 47.29000
C  58.27400 25.74900 46.10600
C  59.13100 26.42100 47.19700
N  52.72600 25.39000 45.31800
C  53.50100 26.35300 45.91200
C  52.76700 27.62100 45.85600
C  51.52700 27.32400 45.17900
C  51.56600 25.97800 44.87200
C  53.23500 29.01600 46.29500
C  50.30800 27.93400 44.75100
O  49.83700 29.05200 44.98600
C  49.47500 26.75600 44.11200
C  48.89000 27.07700 42.76000
O  49.54700 27.36600 41.72500
O  47.55800 27.13200 42.88600
C  46.86300 27.44400 41.64100
H  50.49100 19.85000 43.54700
H  56.84300 20.95200 44.66200
H  55.53700 26.87400 46.68700
H  48.07700 24.23300 43.40300
H  48.71000 21.44000 42.65800
H  47.41300 22.73600 44.77900
H  48.62200 21.72000 45.54000
H  47.41700 21.02000 44.31700
H  49.47500 22.80400 41.03100
H  49.48800 24.56400 41.10400
H  47.34900 24.65200 40.43300
H  46.83600 23.27500 41.38100
H  53.09800 17.61300 42.35900
H  51.63600 18.16100 42.88700
H  52.54900 17.18000 44.07400
H  57.51200 19.03800 43.77300
H  57.58800 17.54300 44.84200
H  57.17300 19.10900 45.53500
H  58.15200 23.09400 45.35100
H  57.08800 24.82500 47.69100
H  58.85600 22.07000 47.20000
H  57.24300 21.38300 47.19900
H  57.61300 22.79400 48.25200
H  57.75500 26.51300 45.52800
H  59.01100 25.24200 45.48300
H  58.95800 25.85400 48.11100
H  58.84100 27.46700 47.29800
H  60.17900 26.37300 46.90300
H  54.10800 28.97600 46.94600
H  52.37900 29.53200 46.73000
H  53.42700 29.69300 45.46300
H  48.66900 26.62200 44.83400
H  46.12300 28.23100 41.78500
H  46.25200 26.62200 41.27000
H  47.45200 27.75500 40.77800

