158

Mg 29.38100 59.38700 40.60300
C  26.35200 57.70700 40.13200
C  30.98600 56.60300 39.22000
C  32.21200 61.08600 40.66400
C  27.55000 62.30800 41.42000
N  28.67000 57.48000 39.58700
C  27.42400 56.93900 39.63900
C  27.39200 55.63700 38.80800
C  28.93300 55.18700 38.78900
C  29.58000 56.47800 39.27500
C  29.28800 53.88600 39.60200
C  26.73800 55.75900 37.42900
C  25.80500 54.60800 37.00000
H  25.81000 54.04400 35.61400
N  31.34700 58.93000 39.96300
C  31.78100 57.69200 39.55800
C  33.19700 57.70800 39.46200
C  33.61700 59.04800 39.99000
C  32.39800 59.71800 40.29000
C  34.08400 56.62400 38.84600
C  34.96300 59.53600 40.16100
O  35.88800 58.82500 39.84900
C  35.27900 60.84500 40.81600
N  29.74900 61.46900 40.82200
C  31.05000 61.87100 40.90400
C  31.06700 63.35100 41.39400
C  29.58000 63.72800 41.55000
C  28.90600 62.44400 41.30400
C  32.09900 63.67400 42.51700
C  29.18000 64.98700 40.70300
C  28.46600 66.14600 41.47800
N  27.42100 59.94700 40.81300
C  26.75900 61.15300 41.17200
C  25.33600 60.91700 41.25600
C  25.13300 59.57400 40.97000
C  26.42000 59.06800 40.61700
C  24.33900 61.93300 41.64400
C  24.07100 58.47300 40.81800
O  22.86300 58.49700 41.06600
C  24.88900 57.29600 40.22700
C  24.71200 56.23400 41.19800
O  24.66600 56.33000 42.39200
O  24.63500 54.99800 40.57400
C  24.80100 53.83000 41.45900
H  31.51700 55.78600 38.72800
H  33.08400 61.73600 40.75600
H  27.08900 63.27800 41.61800
H  26.84200 54.96200 39.46400
H  29.26000 54.94800 37.77700
H  29.76800 54.06900 40.56400
H  29.96200 53.31300 38.96400
H  28.46000 53.18600 39.71000
H  27.56100 55.82600 36.71700
H  26.25600 56.73600 37.38400
H  24.74900 54.85300 37.11600
H  25.88100 53.77000 37.69300
H  33.65600 55.78400 38.29900
H  34.60400 56.21900 39.71300
H  34.89200 57.02400 38.23400
H  35.17100 61.62800 40.06500
H  36.33700 60.69700 41.03300
H  34.77800 60.93300 41.78000
H  31.54400 63.99700 40.65700
H  29.38300 63.94000 42.60100
H  32.39000 62.67500 42.84200
H  31.62500 64.17300 43.36300
H  32.97500 64.21600 42.16200
H  28.45100 64.69800 39.94600
H  29.98800 65.44600 40.13200
H  27.39500 66.15000 41.27200
H  29.02500 67.07600 41.37600
H  28.51500 65.87700 42.53300
H  24.68600 62.88900 41.25400
H  24.23200 61.92300 42.72900
H  23.40400 61.55600 41.23000
H  24.48800 56.86700 39.30900
H  24.46100 52.95500 40.90600
H  24.16700 53.91500 42.34100
H  25.84100 53.57900 41.66500
Mg 15.63800 51.45900 25.91300
C  17.22900 50.35300 28.67600
C  13.06700 52.66500 27.87900
C  13.96800 52.12100 23.06200
C  17.99600 49.85700 23.88100
N  15.24100 51.58900 28.06900
C  16.08700 51.13600 29.03000
C  15.69500 51.56300 30.39500
C  14.22500 52.09000 30.18700
C  14.12800 52.16900 28.64900
C  13.13600 51.08400 30.74800
C  16.62100 52.65900 30.95200
C  17.02100 52.70600 32.43200
H  16.08800 51.83900 33.23900
N  13.84500 52.35200 25.52400
C  12.93100 52.75800 26.46900
C  11.71700 53.12100 25.78400
C  11.95500 53.03900 24.36500
C  13.30700 52.49300 24.23800
C  10.49700 53.46100 26.46000
C  11.02900 53.30900 23.33200
O  11.31700 52.99500 22.15700
C  9.66000 53.99100 23.56100
N  16.06700 51.20600 23.81700
C  15.22200 51.53800 22.84600
C  15.80600 51.45900 21.37400
C  17.10100 50.70200 21.67800
C  17.02200 50.52600 23.24200
C  14.89500 50.60200 20.37500
C  18.35400 51.41200 21.12100
C  19.26000 50.69100 20.05500
N  17.40500 50.42900 26.21600
C  18.22200 49.84300 25.30300
C  19.16400 49.07100 26.08700
C  18.80300 49.25400 27.37400
C  17.73600 50.10000 27.42500
C  20.19600 48.16500 25.61300
C  19.16600 48.88900 28.70500
O  19.95200 48.02000 29.05500
C  18.22600 49.66900 29.60400
C  17.67100 48.77300 30.53400
O  16.60600 48.19900 30.55000
O  18.54600 48.75300 31.62800
C  18.02300 48.08800 32.82000
H  12.24900 52.94500 28.54500
H  13.52200 52.45700 22.12300
H  18.70600 49.31800 23.25100
H  15.76000 50.67500 31.02200
H  14.09900 53.11600 30.53200
H  12.47200 51.60000 31.44100
H  13.60300 50.18500 31.15100
H  12.50600 50.72000 29.93600
H  16.28100 53.68300 30.79400
H  17.56000 52.60800 30.40000
H  17.11600 53.76100 32.68700
H  17.95300 52.16200 32.58100
H  9.73500 52.70400 26.27900
H  10.13200 54.39800 26.03800
H  10.47800 53.63900 27.53500
H  9.05300 53.43500 24.27600
H  9.22500 54.13800 22.57200
H  9.99100 54.97900 23.87900
H  16.02500 52.44500 20.96200
H  17.19700 49.71000 21.23700
H  14.08700 50.09000 20.89800
H  15.45400 49.89400 19.76400
H  14.53300 51.32200 19.64000
H  19.04900 51.63700 21.93100
H  18.17100 52.37400 20.64200
H  19.30900 49.61400 20.21600
H  20.28800 50.98400 20.26700
H  19.00200 51.02000 19.04900
H  20.31700 47.26700 26.21800
H  21.17500 48.60700 25.42900
H  19.81200 47.94600 24.61600
H  18.84300 50.38600 30.14400
H  17.16200 47.45000 32.62300
H  17.81800 48.81100 33.61000
H  18.79000 47.43300 33.23200

