158

Mg 24.08400 -4.73500 45.98800
C  26.22500 -2.34300 44.56600
C  21.55400 -3.63900 43.95100
C  22.41900 -7.51300 46.77400
C  27.02200 -6.19700 47.51400
N  23.90500 -3.22200 44.41500
C  24.92400 -2.31200 44.06600
C  24.48000 -1.33700 42.92400
C  22.88800 -1.52200 43.09700
C  22.72600 -2.86000 43.85600
C  22.09300 -0.31800 43.62200
C  25.15400 -1.70500 41.60400
C  25.38300 -0.48000 40.78900
H  25.63200 -0.61100 39.25500
N  22.24000 -5.43100 45.48000
C  21.31700 -4.80500 44.64700
C  20.09500 -5.62600 44.51800
C  20.36400 -6.74600 45.37400
C  21.68300 -6.61000 45.96800
C  18.96400 -5.26700 43.83100
C  19.33100 -7.88800 45.52500
O  18.28700 -7.89700 44.86700
C  19.51300 -8.95700 46.63300
N  24.67100 -6.61800 46.94000
C  23.71400 -7.48100 47.17400
C  24.32800 -8.66400 47.86100
C  25.84700 -8.38200 48.07800
C  25.87000 -6.96000 47.58000
C  23.51700 -9.04300 49.15300
C  26.75700 -9.41100 47.42100
C  27.77400 -10.02900 48.34200
N  26.12700 -4.29800 46.15700
C  27.19300 -4.97000 46.80700
C  28.40900 -4.31000 46.64500
C  28.17300 -3.23400 45.71900
C  26.75600 -3.36400 45.40700
C  29.78100 -4.64200 47.24600
C  28.72400 -2.09700 45.00200
O  29.91600 -1.72500 44.98100
C  27.50200 -1.50800 44.18800
C  27.41700 -0.07500 44.57000
O  26.43200 0.39800 45.10500
O  28.53500 0.64200 44.16300
C  28.49600 2.07600 44.58700
H  20.72800 -3.24900 43.35300
H  21.92000 -8.44700 47.04000
H  27.81800 -6.66500 48.09600
H  24.65700 -0.28800 43.16000
H  22.68800 -1.74500 42.04900
H  21.60600 -0.56500 44.56500
H  21.32600 -0.11600 42.87500
H  22.65200 0.61800 43.60800
H  24.53900 -2.34800 40.97400
H  26.13800 -2.16000 41.72200
H  26.24400 0.06500 41.17500
H  24.48000 0.11900 40.90800
H  19.04900 -5.85500 42.91700
H  18.94500 -4.22700 43.50400
H  17.99200 -5.39800 44.30400
H  20.23000 -9.74500 46.40000
H  18.53700 -9.41800 46.78400
H  19.71500 -8.58900 47.63900
H  24.14400 -9.46400 47.14500
H  26.13500 -8.28800 49.12500
H  22.56300 -8.51600 49.17200
H  24.08200 -8.73200 50.03100
H  23.39000 -10.12000 49.26300
H  27.31600 -9.06800 46.55100
H  26.08200 -10.21700 47.13300
H  28.17200 -9.30300 49.05100
H  28.65100 -10.30800 47.75700
H  27.34000 -10.91900 48.79800
H  30.06200 -5.56800 46.74400
H  29.73500 -4.72100 48.33300
H  30.46000 -3.81600 47.03800
H  27.79400 -1.63700 43.14500
H  27.51000 2.54000 44.53900
H  29.00900 2.72700 43.87900
H  28.82100 2.25400 45.61200
Mg 42.34900 40.67300 26.44600
C  41.49900 43.13600 28.69700
C  43.22700 38.63200 29.01400
C  43.16600 38.35000 24.13000
C  41.98500 42.95800 23.70800
N  42.53600 40.99300 28.62400
C  41.81000 41.91100 29.30600
C  41.72300 41.58600 30.79000
C  42.52900 40.20400 30.91000
C  42.86800 39.96100 29.43600
C  43.84700 40.19900 31.77000
C  40.26500 41.55700 31.40300
C  40.08000 42.49200 32.60100
H  39.41300 42.03100 33.87400
N  43.09800 38.73700 26.56900
C  43.43600 38.08500 27.72600
C  43.94100 36.78800 27.42200
C  43.81500 36.62500 25.96000
C  43.32800 37.94700 25.48100
C  44.28400 35.81900 28.56600
C  44.10900 35.44300 25.13800
O  43.91500 35.44000 23.91300
C  44.60500 34.12400 25.76200
N  42.66600 40.66300 24.19400
C  42.86300 39.53200 23.50800
C  42.64900 39.72400 21.94400
C  42.42300 41.28100 21.84300
C  42.28300 41.63800 23.32300
C  43.86000 39.19500 21.20300
C  41.10300 41.59000 20.90800
C  41.30900 42.85800 20.08600
N  41.91700 42.59300 26.26700
C  41.82000 43.40900 25.08600
C  41.39300 44.74400 25.46200
C  41.15100 44.68900 26.86700
C  41.61800 43.38300 27.32000
C  41.16400 45.97700 24.68500
C  40.87400 45.47700 28.08700
O  40.49100 46.61800 28.21000
C  40.90800 44.48000 29.26500
C  41.74800 45.15600 30.38800
O  42.93900 44.98700 30.51200
O  40.92000 45.70200 31.32400
C  41.48100 45.93400 32.61000
H  43.39800 37.94000 29.84100
H  43.23900 37.61300 23.32700
H  41.89400 43.73100 22.94300
H  42.27900 42.30800 31.38900
H  41.81000 39.44300 31.21500
H  44.68200 40.04700 31.08700
H  43.81900 39.40800 32.51900
H  43.93600 41.13400 32.32400
H  39.84800 40.56000 31.54100
H  39.62500 41.93000 30.60400
H  39.48500 43.31700 32.21000
H  41.00100 42.99000 32.90400
H  44.47100 34.78400 28.28000
H  43.43200 35.68700 29.23300
H  45.06800 36.28300 29.16600
H  45.55200 34.28700 26.27600
H  44.70700 33.27900 25.08100
H  43.86000 33.79400 26.48600
H  41.75300 39.23300 21.56200
H  43.31800 41.68900 21.37300
H  44.59200 38.88600 21.94900
H  44.36700 39.87200 20.51500
H  43.60300 38.33600 20.58400
H  40.27000 41.77900 21.58600
H  41.02800 40.70600 20.27500
H  40.48100 43.08500 19.41500
H  42.21700 42.89900 19.48400
H  41.45300 43.70400 20.75800
H  41.32000 46.90700 25.23200
H  40.12000 45.84300 24.40300
H  41.76600 45.90300 23.77900
H  39.89800 44.24000 29.59800
H  42.55000 45.74400 32.69600
H  40.96300 45.33100 33.35600
H  41.41700 46.99200 32.86400

