158

Mg 25.10900 1.25200 30.27300
C  27.56000 1.19700 32.65800
C  22.64900 1.63200 32.71200
C  22.73400 1.25200 27.84800
C  27.54200 1.04300 27.86500
N  25.08700 1.47200 32.45200
C  26.27800 1.52900 33.17900
C  25.98900 1.91700 34.59600
C  24.33500 2.15000 34.56900
C  23.98700 1.74700 33.21600
C  23.65900 1.34700 35.67200
C  26.82700 2.98600 35.33600
C  26.12600 3.53400 36.56000
H  26.00700 2.74600 37.86800
N  22.99200 1.24700 30.29500
C  22.15200 1.45300 31.37500
C  20.74900 1.44100 30.88700
C  20.74600 1.23300 29.47700
C  22.20300 1.21900 29.12400
C  19.63100 1.40200 31.88000
C  19.61700 1.07800 28.52300
O  19.74300 0.77900 27.29500
C  18.25500 1.27400 29.02700
N  25.13600 1.12300 28.18700
C  24.03300 1.17400 27.40700
C  24.42900 1.60600 25.97000
C  25.93600 1.29400 25.93300
C  26.24600 1.23900 27.42700
C  23.63000 1.00600 24.80300
C  26.84300 2.37900 25.16200
C  26.96000 3.77900 25.80700
N  27.17200 0.96000 30.22400
C  28.05900 0.87700 29.17400
C  29.32700 0.58200 29.65500
C  29.19200 0.84400 31.02200
C  27.84500 0.95000 31.29200
C  30.51600 0.29400 28.77800
C  29.97400 0.99900 32.20000
O  31.17000 1.06900 32.32900
C  28.94700 1.29300 33.34600
C  29.07900 0.24300 34.31600
O  28.86500 -0.96400 34.15000
O  29.42800 0.88500 35.53800
C  29.27200 0.11900 36.77000
H  21.94300 1.87000 33.51000
H  22.01600 1.58900 27.09700
H  28.25100 1.16600 27.04300
H  26.18000 1.03800 35.21100
H  24.11600 3.21800 34.57100
H  23.30300 2.12100 36.35200
H  24.39700 0.65900 36.08300
H  22.83000 0.74400 35.30100
H  27.03000 3.73600 34.57100
H  27.73000 2.43200 35.59200
H  25.14400 3.99200 36.43500
H  26.63300 4.44900 36.86600
H  19.06500 2.33200 31.94400
H  19.88000 1.11100 32.90000
H  19.02400 0.53900 31.60700
H  17.99100 0.35700 29.55500
H  17.55800 1.45800 28.21000
H  18.12900 2.05300 29.77900
H  24.18500 2.66600 25.91100
H  26.04200 0.32800 25.43900
H  24.35900 0.71600 24.04600
H  22.92600 1.64000 24.26400
H  23.15000 0.08000 25.11900
H  26.18800 2.57000 24.31300
H  27.75700 1.85400 24.88200
H  26.24800 3.87500 26.62700
H  26.75700 4.59700 25.11600
H  27.91800 3.91600 26.30700
H  31.14100 -0.57100 29.00100
H  31.23800 1.10200 28.88900
H  30.16300 0.28600 27.74700
H  29.21900 2.22100 33.84800
H  28.85500 -0.85100 36.49800
H  28.75300 0.66100 37.56100
H  30.26600 -0.09800 37.16000
Mg -11.53800 38.93900 41.77100
C  -9.57600 36.36600 41.05800
C  -9.17700 41.24600 40.43000
C  -13.84000 41.52000 41.81100
C  -14.05000 36.72600 42.87300
N  -9.50600 38.80700 41.06400
C  -8.99600 37.53300 40.61400
C  -7.72800 37.73500 39.80200
C  -7.58600 39.27800 39.62600
C  -8.75800 39.84300 40.49000
C  -6.15200 39.69300 40.06200
C  -7.69700 36.95000 38.43200
C  -6.51000 35.90200 38.36100
H  -5.55600 36.04800 37.15700
N  -11.47000 41.05900 41.25300
C  -10.37000 41.80400 40.87700
C  -10.74100 43.18400 40.64800
C  -12.10200 43.22700 40.74600
C  -12.55300 41.91200 41.27200
C  -9.84700 44.24100 40.15100
C  -12.91300 44.39700 40.41800
O  -12.45500 45.45500 40.00500
C  -14.44600 44.44900 40.54800
N  -13.63000 39.08200 42.10500
C  -14.27800 40.27200 42.26100
C  -15.65900 40.20700 42.96600
C  -15.72800 38.60500 43.15200
C  -14.36300 38.10500 42.76600
C  -15.85700 41.02000 44.27100
C  -16.80400 37.90600 42.19700
C  -18.03800 37.33200 42.94000
N  -11.77600 37.03100 41.93700
C  -12.78500 36.24000 42.53600
C  -12.39600 34.83800 42.63600
C  -11.13500 34.88400 42.04800
C  -10.80600 36.19900 41.67100
C  -13.19500 33.67000 43.12700
C  -9.99000 34.04000 41.61000
O  -9.82600 32.88800 41.70400
C  -8.97900 34.94200 40.87900
C  -7.63700 34.76600 41.43000
O  -6.85800 34.01400 40.96500
O  -7.50200 35.60300 42.49000
C  -6.15200 35.60500 43.11800
H  -8.51200 41.88200 39.84100
H  -14.52200 42.36000 41.95300
H  -14.73100 36.00600 43.33100
H  -6.94200 37.35600 40.45500
H  -7.71900 39.49800 38.56700
H  -5.94900 40.60300 39.49800
H  -5.39800 39.01800 39.65600
H  -5.95500 39.91100 41.11200
H  -7.46200 37.67900 37.65600
H  -8.68400 36.50200 38.32100
H  -6.96000 34.90900 38.36000
H  -5.88700 35.93000 39.25500
H  -8.79700 44.05900 40.38000
H  -9.94100 45.25300 40.54400
H  -9.95000 44.34300 39.07100
H  -14.93200 43.60500 40.05900
H  -14.75200 45.42900 40.18200
H  -14.78200 44.60100 41.57400
H  -16.32300 40.50000 42.15300
H  -16.09500 38.36800 44.15100
H  -16.44400 41.91500 44.06500
H  -14.86400 41.34800 44.57800
H  -16.42800 40.46300 45.01400
H  -16.31700 37.15400 41.57600
H  -17.27600 38.63300 41.53700
H  -17.81600 36.28300 43.13200
H  -18.91800 37.48000 42.31400
H  -18.14900 37.89500 43.86700
H  -14.22700 33.72000 42.78000
H  -13.23200 33.78200 44.21000
H  -12.59900 32.76900 42.97700
H  -9.01500 34.66300 39.82600
H  -5.83600 36.64400 43.20700
H  -5.31600 35.13100 42.60300
H  -6.16100 35.21700 44.13700

