158

Mg 2.35700 -2.03500 45.04700
C  5.69100 -1.05500 44.45100
C  1.32300 0.53800 43.03300
C  -0.68700 -3.30600 45.37300
C  3.70200 -4.97200 46.63100
N  3.41000 -0.52900 43.67800
C  4.77200 -0.24600 43.73600
C  5.10900 0.94000 42.79900
C  3.68400 1.53100 42.51200
C  2.74600 0.45500 43.13700
C  3.35600 2.98500 43.05100
C  5.96400 0.47400 41.55600
C  7.25400 1.32100 41.30600
H  7.93100 1.15100 40.00900
N  0.52600 -1.37600 44.33700
C  0.32500 -0.35700 43.51800
C  -1.04400 -0.37700 43.19800
C  -1.73500 -1.37400 43.96400
C  -0.65400 -2.04900 44.63500
C  -1.58700 0.66300 42.19600
C  -3.17900 -1.71400 43.92700
O  -3.83000 -0.98300 43.24900
C  -3.84200 -2.61300 44.86000
N  1.63800 -3.88800 45.89400
C  0.27300 -4.13400 45.92300
C  0.09700 -5.49300 46.66900
C  1.45500 -6.14000 46.75900
C  2.34100 -4.95400 46.42400
C  -0.70900 -5.26100 48.05800
C  1.76100 -7.41200 45.93400
C  2.64500 -8.49600 46.55600
N  4.25500 -2.87600 45.54000
C  4.61100 -4.08300 46.14000
C  6.07700 -4.10400 46.33700
C  6.52000 -2.90800 45.67500
C  5.42300 -2.22800 45.15800
C  6.92800 -5.17400 46.95200
C  7.69400 -2.23900 45.19600
O  8.89400 -2.50800 45.20900
C  7.16900 -0.93800 44.56000
C  7.51400 0.02000 45.53400
O  7.30200 -0.13400 46.72900
O  7.98600 1.19400 44.90600
C  7.98700 2.43400 45.71300
H  0.82700 1.31200 42.44400
H  -1.71700 -3.64500 45.50300
H  4.00500 -5.83700 47.22500
H  5.58200 1.63600 43.49200
H  3.48200 1.56300 41.44100
H  4.32200 3.38600 43.35900
H  2.63400 2.98400 43.86800
H  2.99400 3.49100 42.15700
H  5.37300 0.31800 40.65400
H  6.33900 -0.51500 41.81800
H  8.00200 1.14300 42.07800
H  6.89800 2.33100 41.50800
H  -1.13800 0.48300 41.21900
H  -1.38600 1.68100 42.53200
H  -2.67400 0.65200 42.11800
H  -3.74200 -3.66400 44.59200
H  -4.89800 -2.35700 44.77700
H  -3.38200 -2.37000 45.81800
H  -0.54200 -6.09400 46.02300
H  1.59400 -6.38000 47.81400
H  -0.97600 -6.12100 48.67100
H  -1.64100 -4.77900 47.76000
H  -0.14700 -4.59700 48.71500
H  2.23100 -7.18300 44.97800
H  0.82200 -7.88500 45.64700
H  3.43100 -8.78000 45.85600
H  2.16100 -9.42800 46.84800
H  3.06100 -8.05500 47.46200
H  7.87800 -4.83700 47.36600
H  7.18400 -5.89600 46.17700
H  6.42700 -5.68400 47.77500
H  7.71300 -0.74500 43.63500
H  9.03300 2.68100 45.89300
H  7.45500 2.29900 46.65500
H  7.45000 3.21400 45.17300
Mg 54.20000 24.46500 44.80900
C  51.68800 26.72400 43.65200
C  52.43400 21.85900 43.51800
C  57.10800 22.79100 44.85100
C  56.00200 27.46900 45.78400
N  52.33200 24.30000 43.67900
C  51.49000 25.38100 43.28900
C  50.21000 24.73200 42.64200
C  50.31800 23.18500 43.11900
C  51.78300 23.08400 43.41300
C  49.54400 22.74300 44.34200
C  50.06800 24.86400 41.07300
C  51.27400 25.06500 40.23700
H  52.30300 23.97300 40.05300
N  54.66500 22.55300 44.42700
C  53.80000 21.61000 43.89000
C  54.46900 20.36800 43.79400
C  55.83000 20.56100 44.29300
C  55.93400 22.03100 44.58100
C  53.82600 19.18800 43.24900
C  56.96000 19.55400 44.46100
O  56.78900 18.34800 44.20200
C  58.34800 19.93600 44.99000
N  56.23600 25.02400 45.32200
C  57.23300 24.12300 45.22200
C  58.58600 24.76100 45.28500
C  58.26000 26.22400 45.52100
C  56.78300 26.28000 45.58900
C  59.60600 24.19000 46.31600
C  58.80600 27.17200 44.31400
C  59.78100 28.37600 44.75800
N  53.93400 26.66400 44.84900
C  54.65800 27.68300 45.38900
C  53.84900 28.90100 45.52200
C  52.62900 28.55000 44.87800
C  52.74800 27.17100 44.46600
C  54.26600 30.25400 46.14200
C  51.35700 29.03100 44.43100
O  50.80600 30.09500 44.55200
C  50.73700 27.91900 43.49200
C  50.60200 28.41500 42.07300
O  51.46300 28.91000 41.32800
O  49.31500 28.15300 41.77200
C  48.89200 28.54200 40.36000
H  51.77600 20.98900 43.45900
H  58.03600 22.22400 44.76000
H  56.50600 28.40600 46.03300
H  49.29200 25.13700 43.06700
H  49.98900 22.45800 42.37700
H  50.23300 22.13500 44.92700
H  48.67600 22.16400 44.02800
H  49.27600 23.55400 45.02000
H  49.38800 25.69300 40.87800
H  49.55000 24.05400 40.56000
H  51.69300 25.89800 40.80200
H  50.98300 25.15100 39.19000
H  53.47600 19.50200 42.26600
H  52.99800 18.91300 43.90200
H  54.54800 18.38600 43.09800
H  58.91800 19.05600 45.28700
H  58.30700 20.56100 45.88200
H  59.05100 20.45100 44.33500
H  59.05700 24.57600 44.32000
H  58.52900 26.54100 46.52900
H  59.09500 23.62200 47.09300
H  60.23300 24.93000 46.81300
H  60.36800 23.60800 45.79800
H  57.98500 27.65600 43.78500
H  59.28500 26.69100 43.46100
H  60.82500 28.27600 44.46400
H  59.82200 28.54800 45.83400
H  59.19800 29.21600 44.37900
H  55.20700 30.62400 45.73500
H  54.27800 30.04300 47.21100
H  53.50300 31.03200 46.14100
H  49.75500 27.61800 43.85600
H  49.66400 28.93900 39.70200
H  48.04000 29.22000 40.32100
H  48.46500 27.64600 39.91000

