158

Mg 48.99100 46.59500 42.03800
C  45.94300 47.14700 40.48700
C  49.15600 43.46300 40.35900
C  52.37100 46.48400 42.50000
C  49.07800 50.04400 42.69800
N  47.67200 45.49300 40.60000
C  46.51100 45.94900 40.13800
C  45.99700 44.92400 39.05500
C  46.83900 43.64100 39.29900
C  47.98000 44.18800 40.13200
C  46.26400 42.28400 39.75200
C  46.16700 45.44500 37.60600
C  45.05300 45.12700 36.60200
H  45.28700 44.91700 35.09300
N  50.51900 45.08700 41.72700
C  50.39000 43.93700 41.06200
C  51.55600 43.13800 41.34900
C  52.52000 43.93600 41.87300
C  51.85500 45.24000 42.05800
C  51.66300 41.66100 40.85000
C  53.92300 43.41600 42.33300
O  54.35800 42.25200 42.28700
C  55.00500 44.48300 42.90600
N  50.49200 48.09500 42.42700
C  51.77400 47.76000 42.60000
C  52.59600 48.95800 43.18700
C  51.59800 50.12300 43.06400
C  50.28400 49.40000 42.83500
C  53.04000 48.60600 44.66400
C  51.95400 51.07600 41.87000
C  52.27600 52.52100 42.29300
N  47.68500 48.22400 41.90200
C  47.84400 49.53200 42.22700
C  46.60000 50.25500 42.05800
C  45.87200 49.33900 41.22800
C  46.61200 48.14700 41.19500
C  46.28700 51.64100 42.41700
C  44.62600 49.21500 40.49600
O  43.73900 50.01800 40.23100
C  44.66600 47.65200 39.95900
C  43.40100 46.92500 40.46100
O  43.24300 46.22000 41.45400
O  42.34700 47.31700 39.66600
C  41.15700 46.49200 39.95100
H  49.22400 42.44000 39.98500
H  53.40600 46.48800 42.84600
H  49.01000 51.11000 42.92800
H  44.95700 44.71200 39.30400
H  47.34500 43.48800 38.34600
H  45.17500 42.27100 39.80200
H  46.64100 42.03400 40.74300
H  46.65300 41.52900 39.06800
H  47.13200 45.11300 37.22500
H  46.25000 46.53200 37.58900
H  44.35200 45.95800 36.67100
H  44.51600 44.27600 37.02000
H  52.55200 41.09700 41.13100
H  51.41100 41.54400 39.79600
H  50.87600 41.18000 41.43100
H  55.12700 45.36900 42.28300
H  55.95100 43.95400 43.01900
H  54.59000 44.90300 43.82200
H  53.51900 49.10400 42.62700
H  51.35400 50.60900 44.00900
H  52.56900 47.70400 45.05500
H  52.91000 49.55000 45.19300
H  54.11500 48.42400 44.63200
H  51.16500 51.19000 41.12700
H  52.88000 50.78500 41.37300
H  51.87000 53.19200 41.53600
H  53.34300 52.73000 42.36100
H  51.91500 52.68600 43.30800
H  47.03800 52.31000 41.99600
H  46.12000 51.88700 43.46500
H  45.32000 51.87400 41.97200
H  44.67700 47.75400 38.87300
H  40.96100 46.31800 41.00900
H  41.30000 45.50200 39.51800
H  40.25000 46.89100 39.49600
Mg 36.02100 49.22200 24.71800
C  35.99400 47.41800 27.75200
C  33.88900 51.55400 26.14500
C  35.43900 50.58000 21.65800
C  37.68200 46.69500 23.28000
N  34.95400 49.40600 26.70900
C  35.28000 48.63200 27.79700
C  34.84400 49.39000 29.09500
C  33.86600 50.41600 28.53900
C  34.28100 50.50100 27.00800
C  32.37400 50.09900 28.72400
C  36.01400 49.92700 29.89700
C  35.97100 49.91300 31.48400
H  34.71100 49.53200 32.29800
N  34.84600 50.88700 24.00500
C  34.18700 51.84200 24.83100
C  33.85800 53.01600 24.05200
C  34.36500 52.76600 22.74500
C  34.93500 51.37600 22.71800
C  33.34000 54.30600 24.65900
C  34.41000 53.71100 21.50700
O  35.00400 53.46700 20.47900
C  33.72200 55.17500 21.56200
N  36.27700 48.60200 22.71800
C  35.96100 49.28300 21.63300
C  36.60700 48.65700 20.28900
C  37.43000 47.48600 20.91100
C  37.10900 47.55000 22.36200
C  35.50500 48.26200 19.23800
C  38.97700 47.58200 20.54900
C  39.83000 48.60400 21.25000
N  36.79100 47.47600 25.30800
C  37.55100 46.60000 24.66100
C  38.02300 45.57400 25.53700
C  37.44800 45.90200 26.83000
C  36.66000 46.98300 26.60000
C  38.84300 44.40200 25.03700
C  37.37200 45.55300 28.15500
O  38.01600 44.69700 28.78500
C  36.40200 46.44800 28.76600
C  35.25000 45.64500 29.39800
O  34.44400 45.00900 28.74200
O  35.11000 45.86700 30.77700
C  34.07400 45.10500 31.51500
H  33.32200 52.41500 26.50600
H  35.43000 51.01300 20.65600
H  38.46000 46.03100 22.89500
H  34.26600 48.69500 29.70500
H  34.01500 51.41400 28.95200
H  32.04900 49.13200 29.10600
H  31.91200 50.16700 27.73900
H  32.05300 50.88900 29.40300
H  36.03400 51.00200 29.71300
H  36.92400 49.45900 29.52200
H  36.31900 50.78500 32.03700
H  36.72500 49.16400 31.72700
H  32.59700 54.86900 24.09300
H  34.18100 54.99000 24.77700
H  32.96000 54.28500 25.68000
H  32.64500 55.21200 21.72800
H  33.84600 55.76900 20.65700
H  34.26300 55.66800 22.36900
H  37.19100 49.47100 19.85900
H  37.05300 46.52900 20.55100
H  35.66100 48.60700 18.21600
H  34.47500 48.51800 19.49000
H  35.54300 47.17300 19.20100
H  39.06500 47.83500 19.49200
H  39.40100 46.58500 20.66700
H  39.76400 49.58400 20.77800
H  40.86700 48.26800 21.22400
H  39.43300 48.86800 22.23000
H  39.73100 44.58000 24.43100
H  38.22800 43.73400 24.43500
H  39.33000 43.94100 25.89700
H  36.91700 46.97700 29.56800
H  33.10400 45.60200 31.50900
H  34.26900 45.07200 32.58700
H  34.02400 44.04300 31.27600

