158

Mg 30.13500 57.32600 38.89300
C  27.22200 55.62300 37.95300
C  31.93300 54.53100 38.20300
C  32.92600 59.21000 38.43300
C  28.24800 60.27000 39.12300
N  29.56600 55.36300 38.26100
C  28.34400 54.85700 37.91600
C  28.40200 53.28900 37.72800
C  29.88100 52.98800 38.17100
C  30.52100 54.33400 38.20600
C  30.00700 52.07000 39.44400
C  28.09300 52.79100 36.24000
C  28.82400 53.57400 35.16400
H  27.93400 54.53200 34.35200
N  32.23700 56.90300 38.57100
C  32.70800 55.69700 38.29300
C  34.12500 55.78400 38.00700
C  34.46800 57.13500 38.09600
C  33.22600 57.84500 38.40200
C  35.07500 54.56400 37.68300
C  35.80500 57.72600 37.77200
O  36.74800 56.93100 37.74200
C  36.14600 59.08700 37.62700
N  30.51300 59.41000 38.81100
C  31.77200 59.95100 38.70400
C  31.76400 61.49800 38.68000
C  30.30200 61.82500 39.17000
C  29.62800 60.41300 38.98800
C  32.92000 62.12000 39.62200
C  29.65100 63.06000 38.44400
C  29.42400 64.32200 39.30800
N  28.04600 57.89500 38.72600
C  27.48000 59.13700 38.87900
C  25.99300 59.02100 38.72700
C  25.88700 57.59400 38.38100
C  27.13000 56.99600 38.33500
C  24.96400 60.14300 38.74600
C  24.93700 56.52900 38.13600
O  23.72000 56.61700 38.12200
C  25.75500 55.27100 37.69500
C  25.40100 54.19000 38.66400
O  25.36900 54.25700 39.91100
O  25.10500 53.10400 37.94600
C  24.59500 51.95700 38.69500
H  32.41800 53.55800 38.10000
H  33.71700 59.96200 38.42100
H  27.85700 61.26300 39.35600
H  27.59200 52.92500 38.36000
H  30.34600 52.39900 37.38000
H  30.39400 52.66700 40.27000
H  30.74100 51.29600 39.21800
H  29.00400 51.69200 39.64400
H  27.02300 52.95800 36.12000
H  28.35100 51.73700 36.13600
H  29.22200 52.83900 34.46300
H  29.66200 54.12400 35.59200
H  35.55000 54.76100 36.72200
H  34.60100 53.58900 37.56900
H  35.81000 54.41100 38.47400
H  36.56300 59.42500 38.57600
H  35.26400 59.65400 37.32800
H  36.77000 59.27200 36.75200
H  31.84500 61.86100 37.65500
H  30.32700 61.97700 40.24900
H  33.25300 61.28000 40.23100
H  32.63800 62.80700 40.42000
H  33.77900 62.44700 39.03600
H  28.71700 62.58700 38.14000
H  30.28100 63.45000 37.64500
H  30.06600 64.26900 40.18700
H  28.38100 64.24500 39.61600
H  29.50900 65.16100 38.61700
H  24.45500 60.21700 37.78400
H  25.59200 61.02700 38.85000
H  24.19400 60.19700 39.51500
H  25.50200 55.04400 36.65900
H  24.05300 52.28900 39.58100
H  25.43200 51.34100 39.02500
H  24.01600 51.23000 38.12600
Mg -10.81100 16.57200 42.55000
C  -7.80100 15.04100 42.50500
C  -9.46900 19.35200 41.07200
C  -14.06200 17.90700 42.14600
C  -12.38000 13.58000 43.54200
N  -8.83100 17.05500 41.70700
C  -7.72000 16.34100 42.06700
C  -6.47600 17.14600 41.65900
C  -7.02300 18.60700 41.53600
C  -8.53800 18.33800 41.39400
C  -6.60600 19.67200 42.58200
C  -5.80600 16.65900 40.32800
C  -4.36000 16.07200 40.41300
H  -4.19900 14.89100 39.44100
N  -11.64700 18.43800 41.85100
C  -10.87700 19.34300 41.18900
C  -11.79500 20.39100 40.71600
C  -13.09600 20.12300 41.14100
C  -12.99300 18.81000 41.78300
C  -11.30300 21.57600 39.94600
C  -14.28100 20.98000 40.98300
O  -14.16800 22.15200 40.54900
C  -15.69500 20.60300 41.36700
N  -12.95100 15.81400 42.92500
C  -14.05800 16.60400 42.67400
C  -15.34300 15.86600 42.92500
C  -14.82800 14.54700 43.63900
C  -13.34500 14.59300 43.32300
C  -16.47300 16.49500 43.66200
C  -15.44100 13.23400 43.18900
C  -15.77000 12.21800 44.22300
N  -10.29400 14.69900 42.83700
C  -10.98400 13.57500 43.28600
C  -10.03700 12.50300 43.53400
C  -8.81700 13.07000 43.29200
C  -8.99700 14.36600 42.87300
C  -10.35800 11.07700 43.99900
C  -7.38100 12.74000 43.25800
O  -6.88200 11.66000 43.57800
C  -6.62700 14.05900 42.78500
C  -5.80700 14.52900 43.95400
O  -6.16500 15.07400 44.97800
O  -4.52200 14.29000 43.62600
C  -3.54800 14.84500 44.59500
H  -8.88600 20.16900 40.64100
H  -15.06900 18.12000 41.78000
H  -12.79700 12.66400 43.96600
H  -5.71500 17.08900 42.43700
H  -6.73800 19.01000 40.56400
H  -7.49100 20.11000 43.04400
H  -6.06500 20.44300 42.03200
H  -5.85200 19.35400 43.30200
H  -5.89300 17.46400 39.59900
H  -6.47400 16.00100 39.77300
H  -4.04300 15.68600 41.38200
H  -3.66600 16.88300 40.19200
H  -11.31900 22.41700 40.64000
H  -11.93100 21.81800 39.08900
H  -10.28500 21.54900 39.55800
H  -16.33600 21.43000 41.06400
H  -15.73300 20.44000 42.44400
H  -16.01000 19.76200 40.74800
H  -15.75500 15.58600 41.95500
H  -14.95800 14.55800 44.72100
H  -17.36000 16.59000 43.03500
H  -16.15600 17.48700 43.98000
H  -16.68600 15.85200 44.51500
H  -14.84400 12.66800 42.47400
H  -16.27400 13.45500 42.52200
H  -16.85900 12.18700 44.26100
H  -15.38000 12.47200 45.20900
H  -15.51300 11.16900 44.07000
H  -10.55900 10.46400 43.12000
H  -11.21500 11.02200 44.67000
H  -9.42900 10.78400 44.48600
H  -5.99400 13.84400 41.92500
H  -3.07400 15.77200 44.27200
H  -2.65500 14.23400 44.71900
H  -3.93500 15.17500 45.56000

