158

Mg 47.32600 16.59900 28.07700
C  45.19900 16.29500 30.97000
C  49.55100 18.37700 30.09900
C  49.04700 17.31000 25.24800
C  44.75400 15.25800 26.27300
N  47.37900 17.15500 30.31600
C  46.45900 16.83900 31.28200
C  46.90300 17.36100 32.61400
C  48.16600 18.26300 32.29200
C  48.44600 17.97800 30.80400
C  48.06200 19.82300 32.54400
C  47.22700 16.14200 33.56600
C  47.13400 16.37700 35.06100
H  47.31700 17.78000 35.58100
N  49.13300 17.59200 27.71000
C  49.86900 18.24100 28.71900
C  50.96900 18.89400 28.04800
C  50.99500 18.43000 26.66300
C  49.67400 17.73900 26.44500
C  51.94800 19.70200 28.87200
C  52.00600 18.73000 25.62700
O  51.90400 18.43200 24.43700
C  53.20800 19.58800 25.92500
N  46.91400 16.52900 26.12200
C  47.76600 16.83000 25.11400
C  47.21800 16.59000 23.77500
C  45.85500 15.80100 24.03000
C  45.81400 15.82000 25.62600
C  46.98500 17.93300 22.99400
C  45.98600 14.24600 23.69100
C  45.05300 13.71200 22.59000
N  45.34000 15.95900 28.50100
C  44.41700 15.39100 27.66900
C  43.18100 15.05300 28.40500
C  43.48400 15.46500 29.68600
C  44.79000 15.95100 29.71300
C  41.92000 14.47700 27.88300
C  42.87800 15.54700 31.02700
O  41.84000 15.09700 31.48200
C  44.02100 16.07800 31.90500
C  43.50200 17.27700 32.63200
O  43.47500 18.39400 32.12200
O  42.98000 16.93200 33.82600
C  42.53500 17.95600 34.76800
H  50.28100 18.95500 30.67000
H  49.52500 17.55900 24.29800
H  43.91500 14.90000 25.67200
H  46.17600 18.03900 33.06100
H  49.01300 17.85100 32.84100
H  47.07300 19.97900 32.97500
H  47.97100 20.40600 31.62800
H  48.86700 20.12700 33.21300
H  48.23700 15.78800 33.36200
H  46.54600 15.32300 33.33600
H  47.91800 15.76300 35.50300
H  46.20800 15.97000 35.46700
H  52.44600 18.89400 29.40700
H  51.38100 20.34900 29.54200
H  52.61800 20.23200 28.19500
H  53.79900 19.76300 25.02700
H  53.76700 19.28500 26.81000
H  52.92800 20.57800 26.28400
H  48.04400 15.95300 23.45700
H  44.99600 16.39100 23.70900
H  45.96100 18.10700 22.66400
H  47.72700 17.96600 22.19600
H  47.21500 18.78300 23.63600
H  45.80200 13.63900 24.57800
H  46.97900 14.04600 23.28800
H  45.50500 13.98400 21.63600
H  44.02700 14.08100 22.61700
H  44.95900 12.62700 22.63900
H  41.90800 13.43900 28.21400
H  41.80400 14.62300 26.80900
H  41.10000 14.94200 28.43000
H  44.29200 15.26700 32.58100
H  41.45700 18.03400 34.62300
H  43.00500 18.91000 34.53000
H  42.55900 17.64500 35.81200
Mg -11.82200 16.73300 40.71600
C  -8.45600 15.60000 40.48400
C  -10.76000 20.01500 40.05900
C  -14.98000 17.73400 40.44700
C  -12.77300 13.52800 41.36800
N  -9.84900 17.66900 40.24900
C  -8.56600 17.02200 40.16400
C  -7.47600 18.07700 39.91000
C  -8.19800 19.43300 39.67800
C  -9.71700 19.06000 40.03700
C  -7.61100 20.63900 40.43000
C  -6.56700 17.61700 38.58800
C  -5.01400 17.64600 38.84900
H  -4.21700 16.36600 38.79300
N  -12.77400 18.62800 40.35100
C  -12.14800 19.84200 40.21400
C  -13.14400 20.81900 40.17900
C  -14.44900 20.25800 40.40200
C  -14.12000 18.80000 40.37700
C  -12.80700 22.33000 39.87400
C  -15.81400 20.98800 40.68700
O  -15.89400 22.20600 40.57800
C  -16.98000 20.27400 41.40600
N  -13.59300 15.68700 40.52600
C  -14.73200 16.35200 40.53400
C  -15.91100 15.49800 40.98800
C  -15.28700 14.07200 41.09500
C  -13.76600 14.46700 41.06000
C  -16.60500 16.12700 42.23900
C  -15.74700 13.14600 39.87400
C  -16.47800 11.85700 40.31900
N  -10.85100 14.85600 40.96600
C  -11.33800 13.65400 41.27800
C  -10.26000 12.68500 41.49700
C  -9.15100 13.39200 41.17200
C  -9.56500 14.71900 40.81700
C  -10.26600 11.22600 41.85100
C  -7.70900 13.38000 41.10100
O  -6.97200 12.39800 41.25200
C  -7.19000 14.74700 40.62300
C  -6.19700 15.18300 41.62200
O  -6.41400 15.71000 42.66900
O  -4.99000 14.53400 41.36400
C  -3.87100 14.60900 42.38500
H  -10.55600 21.07400 39.89200
H  -16.04100 17.99100 40.47800
H  -13.08100 12.50400 41.58700
H  -6.92400 17.98000 40.84500
H  -8.31900 19.50700 38.59700
H  -6.76800 20.19700 40.96000
H  -8.37000 21.06500 41.08600
H  -7.29900 21.44300 39.76300
H  -6.75300 18.29200 37.75400
H  -6.86600 16.59700 38.34600
H  -4.81100 18.01100 39.85500
H  -4.56200 18.31400 38.11500
H  -13.68000 22.94500 39.65800
H  -12.08400 22.42700 39.06300
H  -12.26300 22.75800 40.71600
H  -17.92900 20.25800 40.87000
H  -17.15700 20.94000 42.25100
H  -16.77700 19.30100 41.85400
H  -16.60700 15.49800 40.14900
H  -15.38300 13.56100 42.05400
H  -16.25000 17.11000 42.54800
H  -16.56300 15.38600 43.03800
H  -17.64400 16.29500 41.95600
H  -14.82600 12.89100 39.35100
H  -16.39600 13.61900 39.13700
H  -15.72900 11.06600 40.27900
H  -17.39400 11.56500 39.80700
H  -16.77900 11.95700 41.36200
H  -11.17800 10.68700 41.59400
H  -10.24400 11.08900 42.93200
H  -9.41000 10.82100 41.31100
H  -6.66900 14.68400 39.66800
H  -3.13300 13.90900 41.99400
H  -4.23900 14.33500 43.37400
H  -3.54500 15.62200 42.62100

