158

Mg 1.82200 -1.78400 43.55300
C  5.34000 -1.07100 43.01000
C  1.05100 0.97000 42.05800
C  -1.39100 -2.92000 43.51700
C  2.93600 -4.86900 44.93100
N  3.12900 -0.32200 42.51600
C  4.52400 -0.08200 42.49100
C  4.84900 1.26600 41.90400
C  3.43800 1.95200 41.60500
C  2.44700 0.83400 42.19100
C  3.28100 3.36600 42.21000
C  5.65900 1.26300 40.60400
C  5.49800 0.05300 39.70600
H  5.41400 0.31800 38.12800
N  0.03900 -1.03800 42.91400
C  -0.10700 0.15300 42.38700
C  -1.50500 0.43900 42.10000
C  -2.21100 -0.70900 42.56500
C  -1.19800 -1.63000 43.02800
C  -1.95300 1.83400 41.61600
C  -3.66500 -0.82600 42.70200
O  -4.35600 0.00500 42.15500
C  -4.33500 -1.83600 43.59200
N  0.91400 -3.67700 43.96200
C  -0.47300 -3.88700 43.96700
C  -0.82400 -5.24100 44.36200
C  0.53100 -5.72600 45.06700
C  1.56900 -4.65300 44.74300
C  -1.94700 -5.45700 45.37900
C  0.94400 -7.12400 44.57100
C  1.79400 -8.09500 45.48500
N  3.74700 -2.85600 43.96600
C  4.02300 -4.02900 44.57000
C  5.41000 -4.34800 44.68000
C  5.96500 -3.16500 44.06400
C  4.89500 -2.27900 43.68100
C  6.14000 -5.54700 45.22900
C  7.25400 -2.49100 43.70600
O  8.39200 -2.93500 43.80200
C  6.86900 -1.10900 43.02900
C  7.42900 0.12500 43.74400
O  6.81700 0.66600 44.66600
O  8.54500 0.65500 43.20400
C  9.01100 1.93600 43.59100
H  0.80300 2.00500 41.81400
H  -2.39900 -3.31100 43.36000
H  3.35000 -5.77000 45.38900
H  5.39800 1.71300 42.73300
H  3.23800 1.98200 40.53400
H  3.61900 4.14200 41.52400
H  3.84600 3.36300 43.14200
H  2.22100 3.41900 42.46000
H  6.68700 1.46400 40.90700
H  5.32200 2.10300 39.99600
H  4.79300 -0.71300 40.02900
H  6.39500 -0.56600 39.73400
H  -3.03400 1.94400 41.53000
H  -1.37100 2.09300 40.73200
H  -1.66300 2.59500 42.34100
H  -4.49100 -2.67300 42.91000
H  -5.28700 -1.44900 43.95500
H  -3.72400 -2.08900 44.45800
H  -1.06900 -5.83400 43.48000
H  0.48600 -5.82400 46.15200
H  -2.29400 -4.53600 45.84700
H  -1.74000 -6.21100 46.13800
H  -2.76300 -5.84500 44.76900
H  1.56900 -7.09600 43.67900
H  0.08600 -7.78300 44.43900
H  1.98200 -7.70200 46.48400
H  2.76400 -8.27500 45.02100
H  1.40100 -9.10600 45.59100
H  6.94900 -5.84300 44.56100
H  5.45600 -6.39200 45.30900
H  6.54800 -5.33000 46.21600
H  7.28000 -1.03800 42.02200
H  8.21500 2.66400 43.74900
H  9.72000 2.31600 42.85600
H  9.47400 2.00100 44.57500
Mg -9.96600 40.65200 43.34700
C  -8.86300 37.42100 42.55900
C  -6.93500 41.77800 41.95500
C  -11.13300 43.75100 43.51200
C  -13.15300 39.48500 44.09400
N  -8.07400 39.65800 42.24000
C  -7.80400 38.31600 42.26200
C  -6.33000 38.04700 41.81500
C  -5.76400 39.54300 41.80500
C  -6.95900 40.45900 42.06000
C  -4.51500 39.77700 42.74900
C  -6.32300 37.30900 40.43400
C  -5.00600 36.53500 40.12300
H  -3.98200 37.22200 39.13800
N  -9.18700 42.54600 42.73400
C  -7.93400 42.76600 42.18100
C  -7.76000 44.14300 42.08100
C  -8.96400 44.81200 42.47000
C  -9.84500 43.69700 42.91300
C  -6.44200 44.82300 41.60100
C  -9.29100 46.35600 42.54000
O  -8.41900 47.21700 42.33400
C  -10.73400 46.86500 42.73900
N  -11.87500 41.51000 43.89400
C  -12.00500 42.82700 44.06100
C  -13.39500 43.26300 44.43000
C  -14.14400 41.78600 44.61900
C  -13.00000 40.82500 44.24200
C  -13.59000 44.29600 45.57400
C  -15.45500 41.67900 43.91300
C  -16.48200 40.76500 44.59000
N  -10.85100 38.87600 43.33900
C  -12.20100 38.55000 43.68400
C  -12.34200 37.07400 43.60000
C  -11.09900 36.62600 43.19200
C  -10.21900 37.77600 42.93400
C  -13.46800 36.17600 43.89000
C  -10.29200 35.45700 42.90000
O  -10.60000 34.27000 42.83100
C  -8.87400 35.88600 42.38900
C  -7.83800 35.03200 42.97200
O  -7.45000 35.13200 44.09100
O  -7.43000 34.09800 42.09000
C  -6.44000 33.10800 42.53800
H  -5.91900 42.15000 41.80500
H  -11.63000 44.72300 43.48800
H  -14.11500 39.02800 44.33600
H  -5.92100 37.45200 42.63200
H  -5.31400 39.70200 40.82500
H  -3.58900 39.43500 42.28800
H  -4.52600 39.08500 43.59200
H  -4.28300 40.79600 43.05800
H  -6.44100 38.07500 39.66700
H  -7.12000 36.58800 40.25500
H  -5.29500 35.56600 39.71800
H  -4.52300 36.36200 41.08500
H  -6.53300 45.48600 40.74000
H  -5.63800 44.09600 41.48900
H  -6.09300 45.56000 42.32300
H  -10.91600 47.84500 42.29800
H  -10.86400 46.84900 43.82200
H  -11.47100 46.23600 42.24000
H  -13.88900 43.57800 43.51100
H  -14.29800 41.65200 45.68900
H  -12.71800 44.93300 45.72400
H  -13.94500 43.74800 46.44600
H  -14.28700 45.05700 45.22100
H  -15.15800 41.30400 42.93400
H  -15.87100 42.68200 43.81500
H  -16.06800 40.13400 45.37600
H  -16.78700 40.08900 43.79100
H  -17.26400 41.43600 44.94600
H  -14.11100 36.52600 44.69800
H  -13.26400 35.16700 44.24800
H  -14.00800 35.91900 42.97900
H  -8.85500 35.75200 41.30700
H  -5.90200 32.69800 41.68300
H  -6.83900 32.45000 43.30900
H  -5.64300 33.70900 42.97700

