158

Mg 24.64600 -6.48500 46.47200
C  26.93300 -4.22800 45.20000
C  22.41600 -5.37500 44.16800
C  22.70600 -9.14800 47.29100
C  27.38100 -8.19700 48.08900
N  24.80600 -5.08900 44.82600
C  25.72100 -4.17400 44.55900
C  25.35000 -3.21500 43.40600
C  23.82600 -3.37200 43.33100
C  23.66300 -4.75100 44.14400
C  22.91400 -2.28500 43.88300
C  26.06400 -3.65600 42.12400
C  26.79200 -2.68600 41.24200
H  26.32700 -2.62500 39.81400
N  22.65300 -7.05500 45.92100
C  21.91600 -6.44800 44.93100
C  20.67800 -7.20200 44.81000
C  20.74000 -8.26600 45.70100
C  22.05300 -8.17600 46.37200
C  19.53700 -6.92800 43.78700
C  19.73100 -9.33100 45.77400
O  18.71900 -9.25700 45.11900
C  19.85600 -10.43900 46.78900
N  25.07900 -8.50400 47.39900
C  24.04600 -9.33000 47.67800
C  24.49500 -10.57700 48.42400
C  25.99300 -10.26900 48.71800
C  26.14900 -8.87500 48.09400
C  23.66100 -11.03900 49.72500
C  27.04500 -11.33200 48.13000
C  27.52000 -12.41600 49.15100
N  26.74200 -6.28000 46.62900
C  27.68000 -6.98500 47.42100
C  28.92000 -6.20700 47.43900
C  28.68300 -5.08800 46.59400
C  27.35400 -5.23100 46.07100
C  30.13700 -6.83000 48.13400
C  29.29000 -4.01200 45.94100
O  30.46100 -3.54300 46.00400
C  28.23100 -3.36500 44.97900
C  28.06700 -1.92500 45.23200
O  28.42700 -0.97500 44.47700
O  27.36300 -1.75100 46.31200
C  27.19200 -0.39200 46.82200
H  21.72900 -4.84000 43.51000
H  22.22800 -10.09600 47.54600
H  28.13900 -8.64300 48.73700
H  25.73900 -2.21800 43.61500
H  23.40900 -3.69700 42.37800
H  23.59100 -1.57500 44.35800
H  22.27200 -2.62800 44.69400
H  22.27400 -2.00600 43.04600
H  25.42100 -4.18700 41.42200
H  26.78800 -4.39400 42.47000
H  27.85100 -2.84700 41.43900
H  26.40900 -1.74000 41.62600
H  19.73000 -6.13300 43.06600
H  18.55500 -6.63800 44.16000
H  19.28700 -7.80600 43.19100
H  20.15500 -10.07000 47.77100
H  20.73600 -10.89100 46.33100
H  19.16600 -11.28300 46.80400
H  24.45700 -11.46400 47.79100
H  26.12600 -10.18700 49.79700
H  23.38200 -10.11800 50.23700
H  24.23800 -11.61500 50.44800
H  22.89800 -11.69600 49.30800
H  27.89300 -10.78700 47.71500
H  26.67700 -11.88300 47.26400
H  27.12800 -12.48200 50.16500
H  28.61000 -12.38500 49.16500
H  27.28200 -13.36500 48.67100
H  30.89500 -6.04600 48.14400
H  30.42500 -7.70500 47.55100
H  29.93000 -6.98900 49.19200
H  28.50200 -3.36500 43.92300
H  27.51600 0.40200 46.15000
H  27.59700 -0.27500 47.82800
H  26.12500 -0.17000 46.84400
Mg 29.81900 58.65000 39.04000
C  27.02900 56.70100 38.14800
C  31.85600 56.01500 38.50900
C  32.38300 60.81100 39.13500
C  27.61700 61.35000 39.30200
N  29.46200 56.66000 38.02300
C  28.18700 56.03800 37.92000
C  28.40800 54.57500 37.51500
C  29.83100 54.25500 38.20400
C  30.46300 55.72700 38.25000
C  29.77300 53.57800 39.59100
C  28.41700 54.44700 35.96000
C  27.23300 53.67100 35.30200
H  26.21700 54.48700 34.43700
N  31.97000 58.40600 39.01700
C  32.59600 57.25900 38.73100
C  34.01500 57.46200 38.75700
C  34.26200 58.82400 39.05700
C  32.86800 59.42000 39.01900
C  34.96500 56.34700 38.67700
C  35.51000 59.52600 39.17500
O  36.59500 59.01800 38.99900
C  35.56000 60.92000 39.51100
N  30.02300 60.76300 39.45200
C  31.18200 61.43700 39.29300
C  30.95700 62.96400 39.45200
C  29.48000 63.11600 39.61400
C  29.01400 61.64300 39.45600
C  31.83700 63.58900 40.61200
C  28.75100 64.08000 38.64600
C  28.15300 65.29000 39.18800
N  27.73900 59.05700 38.82400
C  26.98800 60.15100 38.98600
C  25.64700 59.86200 38.85200
C  25.55000 58.56700 38.51900
C  26.87900 58.07300 38.51800
C  24.50900 60.74700 39.22100
C  24.69300 57.47200 38.28000
O  23.47200 57.41900 38.19300
C  25.58300 56.21300 38.01500
C  25.17400 55.10900 38.94400
O  25.32000 55.10700 40.15400
O  24.57700 54.12200 38.19100
C  23.89100 52.95100 38.78400
H  32.44600 55.09700 38.46400
H  33.17100 61.55100 39.28900
H  26.93600 62.16000 39.57400
H  27.57500 53.93100 37.79900
H  30.45000 53.53600 37.66800
H  30.47200 52.74500 39.66800
H  28.78500 53.11900 39.57100
H  29.90000 54.23200 40.45400
H  29.28500 53.84300 35.69700
H  28.55300 55.45500 35.56800
H  26.66300 53.11200 36.04500
H  27.66700 52.88100 34.68800
H  35.92100 56.65500 39.10000
H  35.16300 56.16400 37.62100
H  34.53800 55.47800 39.17800
H  36.57500 61.22700 39.76500
H  34.85800 61.27200 40.26700
H  35.38700 61.48000 38.59200
H  31.26400 63.40200 38.50300
H  29.18900 63.32200 40.64400
H  31.94100 64.66900 40.50300
H  32.82100 63.14000 40.48200
H  31.27300 63.34100 41.51100
H  27.94800 63.61900 38.07100
H  29.51400 64.40800 37.94000
H  28.64200 66.09000 38.63300
H  28.51800 65.42500 40.20700
H  27.07200 65.31900 39.05300
H  24.88700 61.44300 39.97000
H  23.61300 60.17900 39.47200
H  24.24400 61.45900 38.43900
H  25.47900 55.90900 36.97400
H  23.15500 52.46500 38.14300
H  23.31900 53.12500 39.69500
H  24.66500 52.23400 39.06100

