158

Mg 26.05900 -0.49100 29.04200
C  28.02000 -0.33000 31.85400
C  23.21900 0.06200 31.12200
C  24.07000 -0.62200 26.28000
C  28.73900 -1.45200 27.09300
N  25.71000 -0.29600 31.18700
C  26.69200 -0.09100 32.12800
C  26.13600 0.14100 33.56200
C  24.54300 0.31700 33.23100
C  24.43600 -0.03600 31.80300
C  23.49700 -0.29900 34.22100
C  26.93100 1.23300 34.33400
C  26.23600 1.99400 35.42700
H  27.06000 2.10600 36.76800
N  23.96100 -0.37900 28.73600
C  23.00800 -0.16200 29.74300
C  21.72400 -0.15200 29.05000
C  21.97000 -0.26800 27.67300
C  23.38600 -0.37600 27.49500
C  20.48700 -0.10000 29.77800
C  20.99600 -0.09100 26.50100
O  21.36300 -0.08600 25.36100
C  19.58400 0.00200 26.74800
N  26.35000 -0.79700 27.07900
C  25.36800 -0.80900 26.11500
C  25.89400 -0.93100 24.66200
C  27.42500 -1.12100 24.89700
C  27.55000 -1.12900 26.44900
C  25.28700 -2.09700 23.80500
C  28.36800 -0.12300 24.17700
C  28.83400 1.17200 24.91100
N  28.01100 -0.96800 29.39800
C  29.03200 -1.30100 28.47300
C  30.26400 -1.39400 29.23000
C  29.87700 -0.99800 30.55300
C  28.51700 -0.73700 30.55800
C  31.59200 -1.72400 28.54200
C  30.33700 -0.84300 31.84300
O  31.48300 -0.97800 32.24200
C  29.24100 -0.39200 32.79400
C  29.16600 -1.48700 33.91100
O  28.59800 -2.55500 33.73900
O  29.71000 -0.95500 35.12300
C  29.41900 -1.89500 36.23800
H  22.33200 0.33500 31.69800
H  23.51600 -0.72600 25.34500
H  29.56500 -1.57900 26.39100
H  26.30600 -0.70400 34.22800
H  24.32800 1.38000 33.34600
H  22.76300 -1.00600 33.83400
H  22.93200 0.51300 34.67700
H  24.12800 -0.68400 35.02200
H  27.47800 1.87800 33.64700
H  27.79000 0.78300 34.83100
H  25.33000 1.44800 35.69000
H  25.99900 3.00700 35.10200
H  20.10100 -1.08600 29.51800
H  19.88700 0.78000 29.54700
H  20.66200 -0.12600 30.85400
H  18.92700 0.30200 25.93100
H  19.52600 0.74600 27.54300
H  19.26500 -0.97700 27.10500
H  25.75700 -0.04300 24.04600
H  27.61700 -2.16900 24.66800
H  26.06400 -2.53700 23.17900
H  24.57000 -1.55200 23.19100
H  24.75900 -2.82100 24.42600
H  27.97400 0.20100 23.21300
H  29.28100 -0.71600 24.11700
H  28.18900 1.39000 25.76300
H  28.86300 2.06600 24.28900
H  29.82700 1.01800 25.33300
H  31.71300 -1.34400 27.52700
H  31.75200 -2.79900 28.45800
H  32.41800 -1.30700 29.11900
H  29.49700 0.58900 33.19400
H  28.50200 -1.50100 36.67700
H  30.21100 -1.79500 36.98000
H  29.30300 -2.94300 35.96000
Mg 9.43600 46.79500 26.76600
C  7.18500 46.81700 29.50700
C  11.95600 47.45900 28.94200
C  11.43500 47.15800 24.06600
C  6.70500 46.44800 24.59300
N  9.49800 47.30800 28.98000
C  8.49600 47.12800 29.92200
C  9.11800 47.35900 31.38500
C  10.57800 47.60600 31.08300
C  10.71400 47.48400 29.58600
C  11.13500 48.90100 31.71500
C  8.83400 46.29300 32.49400
C  9.86400 46.17500 33.64100
H  9.28600 45.87800 35.07300
N  11.37100 47.34900 26.54500
C  12.28400 47.34800 27.56300
C  13.56700 47.55100 27.00600
C  13.51500 47.45400 25.60200
C  12.07700 47.24700 25.34500
C  14.75600 47.58200 27.93000
C  14.64800 47.53700 24.56700
O  14.55600 47.24900 23.38300
C  16.09000 47.73700 24.98600
N  9.09900 46.92300 24.57800
C  10.10400 46.97900 23.69100
C  9.51900 46.89000 22.30100
C  8.04100 46.60000 22.50700
C  7.92400 46.63000 23.97600
C  9.91000 48.05200 21.36100
C  7.48600 45.29400 21.85100
C  6.50100 45.57200 20.63300
N  7.38200 46.59000 26.91500
C  6.39500 46.46000 25.99300
C  5.15800 46.24500 26.61500
C  5.38000 46.46100 27.97900
C  6.80100 46.61900 28.12900
C  3.83300 46.02700 25.89500
C  4.71700 46.54500 29.24300
O  3.55000 46.49700 29.53000
C  5.90700 46.77300 30.32500
C  5.89200 45.56600 31.11700
O  6.40900 44.50600 30.82900
O  5.18300 45.79900 32.28200
C  5.38900 44.74500 33.30700
H  12.84600 47.70900 29.52300
H  12.19400 47.07000 23.28600
H  5.84100 46.21900 23.96500
H  8.67000 48.28200 31.75200
H  11.15000 46.78800 31.52100
H  11.48500 49.56300 30.92300
H  11.82500 48.61800 32.51000
H  10.33500 49.47700 32.18100
H  8.77000 45.30400 32.04000
H  7.87300 46.49900 32.96600
H  10.33600 47.14900 33.77200
H  10.57300 45.39600 33.36000
H  15.46600 46.88100 27.49000
H  14.71100 47.29500 28.98100
H  15.23400 48.55100 27.78800
H  16.61200 48.14100 24.11900
H  16.58000 46.80600 25.26800
H  16.08400 48.57800 25.68000
H  10.00300 46.04000 21.81900
H  7.39800 47.42000 22.18800
H  10.40300 47.76000 20.43400
H  10.64200 48.71500 21.82300
H  9.04900 48.69200 21.16700
H  6.87800 44.68100 22.51800
H  8.25500 44.62600 21.46300
H  6.62500 46.53200 20.13200
H  5.52400 45.43100 21.09300
H  6.66000 44.89200 19.79700
H  3.88400 46.12800 24.81100
H  3.11700 46.72600 26.32900
H  3.53100 44.99100 26.04900
H  5.89800 47.54900 31.09000
H  6.31200 44.16500 33.28900
H  4.52200 44.08400 33.30700
H  5.37700 45.27500 34.25900

