158

Mg 23.66000 -6.04800 46.55600
C  26.11300 -3.54700 45.80400
C  21.54000 -4.45200 44.38500
C  21.70300 -8.66300 46.90400
C  26.38100 -7.93000 48.08000
N  23.89600 -4.22600 45.23600
C  24.96200 -3.35200 45.12300
C  24.70900 -2.40800 43.98800
C  23.09300 -2.46200 43.76500
C  22.83300 -3.83000 44.49400
C  22.30900 -1.25900 44.40900
C  25.48600 -2.85500 42.74200
C  26.78700 -2.08300 42.50600
H  27.08300 -1.48400 41.14000
N  21.82000 -6.48600 45.83100
C  21.05000 -5.66000 45.03100
C  19.73500 -6.27900 44.84100
C  19.70900 -7.51800 45.54300
C  21.14600 -7.63300 46.15000
C  18.63500 -5.60200 44.06200
C  18.55700 -8.51700 45.58900
O  17.46700 -8.44100 45.00000
C  18.69100 -9.68700 46.42500
N  23.94900 -7.96600 47.43600
C  22.95900 -8.86100 47.42400
C  23.43600 -10.23200 48.01500
C  25.01300 -10.09000 48.11000
C  25.14300 -8.58400 47.88300
C  22.73000 -10.81200 49.22700
C  25.78300 -10.91700 47.09400
C  26.69300 -11.97600 47.83600
N  25.70300 -5.76900 47.07800
C  26.62700 -6.64100 47.68000
C  27.85200 -5.95500 47.88300
C  27.76100 -4.83600 47.04200
C  26.41200 -4.72600 46.64600
C  29.14200 -6.45300 48.57900
C  28.50800 -3.72700 46.55300
O  29.65300 -3.45500 46.68400
C  27.43500 -2.80200 45.92300
C  27.36600 -1.51000 46.67700
O  27.08700 -1.31200 47.88300
O  27.42600 -0.42900 45.87200
C  27.09000 0.92700 46.39100
H  20.78700 -3.97400 43.75400
H  21.12100 -9.57200 47.07100
H  27.15800 -8.58700 48.47500
H  25.02600 -1.42500 44.33600
H  22.80600 -2.48300 42.71400
H  22.96200 -0.46200 44.76500
H  21.65400 -1.64600 45.19000
H  21.66100 -0.94700 43.59000
H  24.85400 -2.96800 41.86100
H  25.72600 -3.90000 42.94100
H  27.62200 -2.77400 42.61400
H  26.84200 -1.29600 43.25900
H  17.78100 -6.25700 43.89000
H  18.89200 -5.07400 43.14300
H  18.28100 -4.91200 44.82800
H  17.73800 -10.21500 46.46100
H  18.90600 -9.22000 47.38600
H  19.43200 -10.40000 46.06300
H  23.16700 -10.97500 47.26400
H  25.29900 -10.25700 49.14900
H  23.31000 -11.55100 49.78000
H  21.75500 -11.25800 49.02900
H  22.52700 -9.99200 49.91600
H  26.38000 -10.29600 46.42600
H  25.12800 -11.51000 46.45700
H  27.71500 -12.03300 47.45900
H  26.42000 -12.95200 47.43500
H  26.64800 -11.88200 48.92100
H  29.02700 -7.22000 49.34400
H  29.57600 -5.58900 49.08200
H  29.73000 -6.89500 47.77400
H  27.81900 -2.54700 44.93500
H  26.24000 0.86200 47.07000
H  27.06800 1.63900 45.56600
H  27.95300 1.12400 47.02700
Mg -12.33300 17.25400 40.79700
C  -9.54900 15.21700 40.10800
C  -10.72000 19.83700 39.53900
C  -15.40900 18.75900 40.54600
C  -14.08100 14.17700 41.61300
N  -10.28600 17.53600 40.05500
C  -9.33700 16.55200 39.83500
C  -7.99100 17.19000 39.44300
C  -8.39300 18.70200 39.28700
C  -9.86200 18.76000 39.70700
C  -7.34800 19.58700 39.97700
C  -7.40600 16.56500 38.19100
C  -5.88100 16.16300 38.10700
H  -5.16000 16.60100 36.86700
N  -12.93900 19.14500 40.26100
C  -12.13000 20.08900 39.75100
C  -12.89700 21.25600 39.36700
C  -14.29600 20.93800 39.66300
C  -14.26400 19.54300 40.20200
C  -12.17300 22.52700 38.85500
C  -15.45500 21.92000 39.46800
O  -15.19500 23.04500 39.10700
C  -16.84200 21.56600 39.75500
N  -14.46400 16.53400 41.00400
C  -15.49200 17.39300 40.94200
C  -16.80500 16.82400 41.46700
C  -16.42000 15.39700 41.93200
C  -14.86500 15.36200 41.49500
C  -17.50600 17.74600 42.59900
C  -17.35600 14.25400 41.29600
C  -17.96900 13.42300 42.31700
N  -11.92700 15.11800 41.01400
C  -12.72400 14.03300 41.33700
C  -11.92300 12.82700 41.33700
C  -10.67400 13.21400 40.84600
C  -10.71100 14.59700 40.67800
C  -12.34200 11.43100 41.64300
C  -9.34500 12.74100 40.39400
O  -8.86500 11.60400 40.35100
C  -8.55400 14.04100 39.95800
C  -7.46000 14.32600 40.89600
O  -7.50600 14.65900 42.06300
O  -6.33400 13.75500 40.33700
C  -5.04800 13.83200 41.05100
H  -10.09700 20.62600 39.11300
H  -16.40800 19.16000 40.36000
H  -14.60500 13.27400 41.93100
H  -7.27500 16.98700 40.24000
H  -8.25500 19.07100 38.27100
H  -7.80700 20.57400 40.03600
H  -6.36300 19.51400 39.51600
H  -7.27800 19.14800 40.97200
H  -7.61500 17.28600 37.40100
H  -7.89600 15.61400 37.98200
H  -5.79400 15.09500 38.30500
H  -5.38700 16.64500 38.95000
H  -12.46300 22.59900 37.80700
H  -11.08400 22.52300 38.89600
H  -12.54300 23.39200 39.40500
H  -17.56000 22.35100 39.52100
H  -16.87400 21.28400 40.80800
H  -17.10600 20.74100 39.09300
H  -17.48600 16.76700 40.61700
H  -16.47200 15.28600 43.01500
H  -18.48300 18.11500 42.28700
H  -16.95800 18.61900 42.95300
H  -17.63900 17.25100 43.56100
H  -16.75800 13.56100 40.70300
H  -18.06300 14.73300 40.61900
H  -19.03200 13.30800 42.10600
H  -17.96700 13.91300 43.29100
H  -17.49000 12.44700 42.40600
H  -13.04300 11.36000 42.47500
H  -11.54200 10.71100 41.81800
H  -12.82800 11.14200 40.71100
H  -8.16900 13.79900 38.96800
H  -4.93400 12.92300 41.64200
H  -4.98800 14.72100 41.67800
H  -4.27000 13.82200 40.28800

