158

Mg 16.80400 -2.02200 27.86200
C  15.81100 0.10700 30.37300
C  18.49500 -3.94700 30.04700
C  18.24200 -3.69700 25.24000
C  15.52600 0.30000 25.48600
N  17.23500 -1.80800 29.87000
C  16.58600 -0.93800 30.77900
C  16.94200 -1.36000 32.24200
C  17.93200 -2.50700 32.14500
C  17.93900 -2.77600 30.55700
C  19.42200 -2.16200 32.55900
C  15.72600 -1.49400 33.21500
C  15.83800 -0.60900 34.49800
H  17.29400 -0.25400 35.07600
N  18.13100 -3.71100 27.68300
C  18.57800 -4.43800 28.73400
C  19.24000 -5.62700 28.23600
C  19.07200 -5.56800 26.83100
C  18.53500 -4.23300 26.54600
C  19.75000 -6.72000 29.21500
C  19.42700 -6.57500 25.85200
O  19.32100 -6.43700 24.62800
C  19.97100 -7.83700 26.33600
N  16.81200 -1.81200 25.65600
C  17.61000 -2.52800 24.88200
C  17.47300 -2.05300 23.42400
C  16.35300 -0.94900 23.48900
C  16.22500 -0.76200 24.93300
C  18.72900 -1.57200 22.69500
C  15.00900 -1.30400 22.89300
C  14.37100 -0.42300 21.88500
N  15.78900 -0.24100 27.88800
C  15.28800 0.50400 26.85900
C  14.49600 1.66100 27.41700
C  14.79300 1.57700 28.81400
C  15.46900 0.34300 29.06100
C  13.70300 2.64800 26.71100
C  14.55000 2.21400 30.03200
O  14.09100 3.32500 30.28800
C  15.08600 1.30600 31.17400
C  15.97300 2.11100 31.96600
O  17.16900 2.37600 31.67900
O  15.34600 2.52600 33.12500
C  16.08900 3.35300 34.09500
H  18.79700 -4.70000 30.77900
H  18.51900 -4.18900 24.30500
H  15.08700 1.05700 24.83200
H  17.53100 -0.56600 32.70200
H  17.56500 -3.35900 32.71700
H  19.85700 -3.09900 32.90700
H  19.37800 -1.55800 33.46600
H  19.92100 -1.68600 31.71500
H  15.73100 -2.55200 33.47500
H  14.83700 -1.16500 32.67700
H  15.24900 -1.13900 35.24600
H  15.23900 0.29600 34.39100
H  20.57800 -7.30000 28.80800
H  18.90300 -7.28900 29.59700
H  20.18300 -6.21900 30.08000
H  20.09500 -8.35600 25.38500
H  19.25500 -8.36100 26.97000
H  20.98700 -7.65400 26.68700
H  17.00000 -2.86500 22.87200
H  16.76200 -0.06500 23.00100
H  18.69600 -0.51200 22.44500
H  18.76900 -2.14900 21.77100
H  19.63500 -1.91100 23.19800
H  14.29800 -1.29800 23.71900
H  15.03800 -2.36900 22.66500
H  13.61800 0.21300 22.35100
H  13.84100 -1.06700 21.18400
H  14.93400 0.28600 21.27700
H  14.39500 2.85500 25.89400
H  13.50400 3.54300 27.30100
H  12.78900 2.30100 26.23100
H  14.22400 1.02300 31.77800
H  15.65200 4.35100 34.11800
H  17.14400 3.40300 33.82500
H  16.06900 2.87600 35.07500
Mg 40.73200 7.58700 28.75800
C  42.52100 9.07400 31.47300
C  38.47800 6.26300 31.08800
C  39.09900 6.23400 26.14300
C  43.45100 8.45900 26.63500
N  40.60000 7.60200 31.10700
C  41.36000 8.34300 31.88500
C  40.85200 8.26000 33.35300
C  39.57500 7.28700 33.15700
C  39.45600 7.06500 31.67000
C  39.55900 6.01300 34.03700
C  40.43200 9.62300 34.01800
C  40.12300 9.66500 35.55300
H  40.94300 10.64000 36.40500
N  39.02900 6.36700 28.68800
C  38.30400 5.88200 29.75100
C  37.24200 5.17900 29.17900
C  37.27400 5.27900 27.75700
C  38.51000 5.91000 27.46900
C  36.07200 4.61000 30.02300
C  36.21700 4.86000 26.76900
O  36.45300 4.93600 25.59900
C  34.91900 4.18200 27.18100
N  41.25900 7.16700 26.65500
C  40.37300 6.70000 25.76400
C  40.89000 6.79900 24.37200
C  42.29500 7.50900 24.48700
C  42.39700 7.76000 26.05600
C  41.02300 5.31200 23.81400
C  42.28900 8.88400 23.71100
C  41.12800 9.86000 23.95500
N  42.62000 8.53500 28.94400
C  43.57100 8.85400 28.01700
C  44.62300 9.60600 28.58200
C  44.27200 9.71100 29.98900
C  43.03900 9.06800 30.12100
C  45.81000 10.10900 27.83000
C  44.64500 10.25800 31.18900
O  45.58900 10.97900 31.42400
C  43.52600 9.88700 32.25100
C  44.01900 9.36600 33.52200
O  44.15600 8.18400 33.72600
O  44.29700 10.43500 34.36300
C  44.88800 10.02900 35.66900
H  37.71300 5.83900 31.74200
H  38.51600 6.00200 25.24900
H  44.35200 8.69300 26.06300
H  41.66700 7.83000 33.93600
H  38.69400 7.92700 33.19200
H  40.23500 6.25900 34.85600
H  39.90800 5.12600 33.50800
H  38.53000 5.92300 34.38700
H  39.52100 9.96600 33.52600
H  41.33500 10.22600 33.92300
H  39.92500 8.71300 36.04600
H  39.11600 10.07600 35.47500
H  35.74800 3.59000 29.81600
H  35.11800 5.13700 30.01900
H  36.23600 4.59000 31.10000
H  34.15100 4.21100 26.40800
H  34.41700 4.58600 28.06000
H  35.05300 3.14500 27.48900
H  40.21500 7.46200 23.83000
H  43.09000 6.81500 24.21600
H  42.04800 4.94500 23.75800
H  40.49400 5.26400 22.86300
H  40.53100 4.67900 24.55300
H  42.41100 8.53000 22.68800
H  43.22900 9.38600 23.94000
H  40.83000 10.43200 23.07700
H  41.56900 10.62000 24.60000
H  40.27600 9.43900 24.49000
H  46.54600 9.30700 27.77300
H  46.07800 10.99300 28.40800
H  45.50500 10.47100 26.84800
H  43.08400 10.85600 32.48300
H  45.91700 9.67500 35.60800
H  44.32300 9.19300 36.08200
H  44.90000 10.80100 36.43900

