158

Mg 46.35400 34.87100 27.67100
C  44.92400 33.13000 30.33200
C  46.98300 37.53400 29.95300
C  47.85700 36.67100 25.17800
C  45.58000 32.34200 25.51300
N  46.10700 35.26500 29.87000
C  45.38900 34.43200 30.69600
C  45.46900 34.92600 32.09800
C  45.66300 36.49600 31.95000
C  46.28800 36.45600 30.49300
C  44.34200 37.33800 32.04800
C  46.67000 34.26700 32.85800
C  46.42800 33.99900 34.38200
H  45.42400 34.88300 35.13500
N  47.34600 36.77300 27.59700
C  47.44900 37.66000 28.63000
C  48.09200 38.85000 28.06800
C  48.46800 38.65100 26.74600
C  47.92100 37.28900 26.46400
C  48.50500 40.04600 28.86200
C  49.22600 39.54900 25.66600
O  49.35800 39.18100 24.48600
C  49.56200 40.96100 26.00800
N  46.62700 34.46400 25.61600
C  47.27500 35.35000 24.83400
C  47.35600 34.77800 23.38800
C  46.43400 33.47000 23.42200
C  46.16900 33.36200 24.91300
C  47.05600 35.85200 22.33500
C  47.01100 32.12200 22.78400
C  46.21400 31.42400 21.61600
N  45.52700 33.12500 27.85400
C  45.32900 32.16600 26.91800
C  44.82800 30.92700 27.53800
C  44.63300 31.32500 28.87700
C  45.09500 32.59100 29.05100
C  44.62800 29.62600 26.87600
C  44.19600 30.75900 30.16900
O  43.79600 29.68900 30.54200
C  44.14300 32.01800 31.05300
C  44.67800 31.71600 32.41000
O  45.72900 31.19000 32.69500
O  43.72400 32.00200 33.31400
C  43.88900 31.45100 34.67100
H  47.30400 38.27200 30.69100
H  48.29900 37.30900 24.41000
H  45.23500 31.51300 24.89200
H  44.54300 34.81500 32.66200
H  46.37000 37.04000 32.57600
H  43.58100 36.59100 32.27100
H  44.12800 37.85300 31.11100
H  44.39200 38.03300 32.88600
H  47.55400 34.90500 32.85000
H  47.01000 33.41900 32.26400
H  47.34500 34.32700 34.87100
H  46.37500 32.92900 34.58200
H  49.41400 39.66200 29.32600
H  47.84500 40.18500 29.71900
H  48.72100 40.94800 28.29000
H  50.30300 40.98400 26.80700
H  48.61600 41.43600 26.26700
H  50.05400 41.45700 25.17100
H  48.35600 34.41700 23.14600
H  45.47100 33.73800 22.98600
H  46.35800 35.49400 21.57900
H  47.94600 36.11700 21.76400
H  46.59100 36.78500 22.65200
H  47.25700 31.34600 23.50900
H  47.96400 32.37400 22.32000
H  46.84900 31.25900 20.74500
H  45.34400 31.94100 21.21200
H  45.91200 30.42800 21.93900
H  45.45300 29.35300 26.21800
H  43.74000 29.57600 26.24600
H  44.54600 28.79300 27.57400
H  43.08400 32.27300 31.08100
H  44.89800 31.18900 34.99000
H  43.31800 30.54200 34.86100
H  43.49900 32.20500 35.35500
Mg -8.35300 40.50200 42.54100
C  -7.42900 37.36100 41.35300
C  -5.79200 41.89300 40.87300
C  -9.99400 43.51600 42.73000
C  -11.27200 38.99000 43.71700
N  -6.90600 39.70400 41.24600
C  -6.56900 38.40300 40.92100
C  -5.22100 38.17800 40.27600
C  -4.57400 39.62100 40.44300
C  -5.84300 40.49700 40.88700
C  -3.47400 39.66400 41.57000
C  -5.29500 37.67000 38.77500
C  -4.48500 36.35100 38.61300
H  -3.23100 36.45500 37.68800
N  -7.83600 42.51500 42.14400
C  -6.71800 42.86700 41.41800
C  -6.55100 44.32300 41.46700
C  -7.77900 44.88600 42.02600
C  -8.62600 43.65000 42.27900
C  -5.25100 44.84100 40.97300
C  -8.10300 46.30100 42.29500
O  -7.32400 47.16200 41.89200
C  -9.33200 46.69300 42.98400
N  -10.44100 41.17200 43.00600
C  -10.76900 42.49200 43.14000
C  -12.20500 42.62000 43.68900
C  -12.48000 41.18100 44.17900
C  -11.40900 40.38900 43.49600
C  -12.40200 43.70400 44.79800
C  -13.91800 40.71400 44.08200
C  -14.25900 39.80100 42.86900
N  -9.24000 38.57500 42.61000
C  -10.40100 38.13000 43.12400
C  -10.40600 36.68200 43.05600
C  -9.26100 36.33100 42.40900
C  -8.60900 37.55600 42.09600
C  -11.45900 35.78400 43.68800
C  -8.41800 35.19900 41.89000
O  -8.57600 34.00700 41.96500
C  -7.22100 35.85700 41.12500
C  -5.96900 35.38500 41.83800
O  -5.56500 35.75200 42.89600
O  -5.40500 34.38600 41.09800
C  -4.10200 33.94800 41.56200
H  -4.85200 42.16600 40.38900
H  -10.54600 44.45600 42.80100
H  -12.03000 38.50600 44.33700
H  -4.69100 37.50200 40.94700
H  -4.16400 40.01400 39.51200
H  -3.85900 39.98900 42.53700
H  -2.74200 40.38400 41.20500
H  -3.07400 38.66800 41.75700
H  -4.85600 38.37300 38.06700
H  -6.32600 37.56200 38.43900
H  -5.23000 35.63500 38.26600
H  -4.12300 36.02100 39.58700
H  -5.22700 44.51900 39.93200
H  -4.35400 44.40600 41.41200
H  -5.16900 45.92800 40.98600
H  -9.09100 47.67400 43.39300
H  -9.51500 46.08600 43.87100
H  -10.13600 46.68100 42.24800
H  -12.88600 42.84400 42.86800
H  -12.35900 41.20300 45.26200
H  -12.67800 43.33700 45.78600
H  -13.28300 44.26100 44.48000
H  -11.48500 44.29200 44.82300
H  -14.57000 41.58600 44.03500
H  -14.27000 40.13600 44.93700
H  -14.43000 38.78300 43.22100
H  -13.41700 39.93000 42.18900
H  -15.16800 40.18700 42.40700
H  -12.29600 35.68400 42.99700
H  -11.65600 36.15300 44.69500
H  -11.08400 34.76500 43.78700
H  -7.30200 35.62400 40.06300
H  -3.44200 34.72800 41.94200
H  -3.53800 33.33500 40.85900
H  -4.24700 33.31200 42.43500

