158

Mg 53.50800 25.78200 45.87300
C  50.75500 27.65600 44.76100
C  52.16800 23.08800 44.16200
C  56.51200 24.15800 46.13100
C  54.96200 28.68600 46.92500
N  51.87100 25.52600 44.27700
C  50.83100 26.39000 44.16300
C  49.70400 25.75000 43.23000
C  49.96200 24.27700 43.58300
C  51.43900 24.27400 44.03500
C  49.01700 23.67900 44.66700
C  49.87100 26.05000 41.72400
C  48.66500 25.92500 40.75600
H  48.83800 25.27900 39.33000
N  54.20700 23.82600 45.35700
C  53.47400 22.87600 44.72100
C  54.21200 21.65800 44.70100
C  55.42600 21.95400 45.29900
C  55.41800 23.36600 45.67200
C  53.60300 20.36900 44.09600
C  56.58400 21.00400 45.37400
O  56.44900 19.91200 44.84200
C  57.90200 21.25800 46.03500
N  55.48000 26.31300 46.22800
C  56.49900 25.52500 46.33700
C  57.78800 26.20200 46.89100
C  57.31400 27.67700 46.96200
C  55.78300 27.60100 46.64300
C  58.52800 25.64000 48.18700
C  58.14300 28.65100 46.08400
C  58.38400 30.03400 46.64800
N  52.93700 27.80700 45.92100
C  53.55500 28.83800 46.55100
C  52.73900 29.95300 46.58300
C  51.57600 29.56400 45.91700
C  51.78200 28.22500 45.47500
C  53.02000 31.32500 47.20800
C  50.25200 29.99800 45.45800
O  49.62700 31.04500 45.62100
C  49.73900 28.78500 44.63400
C  49.66500 29.32900 43.27400
O  50.43300 30.04500 42.71600
O  48.40500 29.03400 42.77300
C  48.06200 29.62200 41.50700
H  51.57800 22.23800 43.81400
H  57.50000 23.69100 46.12500
H  55.42300 29.55000 47.40800
H  48.75200 26.05600 43.66500
H  49.80300 23.73700 42.65000
H  49.57400 22.95400 45.26100
H  48.18800 23.12000 44.23200
H  48.56000 24.42200 45.32100
H  50.66800 25.38900 41.38300
H  50.33800 27.01400 41.52300
H  48.27100 26.91300 40.51800
H  47.86000 25.35300 41.21800
H  53.94000 20.08100 43.10000
H  52.52900 20.41500 43.91500
H  53.68100 19.60000 44.86500
H  58.44300 20.34300 46.27600
H  57.73900 21.86700 46.92400
H  58.52100 21.80600 45.32500
H  58.41000 26.02200 46.01400
H  57.41900 28.02700 47.98900
H  58.30500 24.58500 48.34700
H  58.30000 26.20300 49.09200
H  59.60100 25.80700 48.08700
H  57.55600 28.71800 45.16800
H  59.05800 28.18200 45.72300
H  59.43300 30.32600 46.68600
H  58.01800 30.08800 47.67400
H  57.72400 30.68400 46.07400
H  52.11000 31.56400 47.75800
H  53.35400 32.08500 46.50200
H  53.78900 31.19600 47.97000
H  48.75700 28.49400 45.00800
H  47.08200 29.30400 41.15300
H  48.78400 29.61000 40.69000
H  47.74600 30.62900 41.77900
Mg 47.25700 25.22300 29.41500
C  47.74500 27.73400 31.92000
C  46.51200 23.04000 31.83300
C  47.24900 22.84900 27.00400
C  48.80300 27.49000 27.23700
N  47.19800 25.45100 31.56700
C  47.26200 26.54400 32.41200
C  46.97000 26.20400 33.90700
C  46.89100 24.65900 33.79100
C  46.80600 24.33700 32.28200
C  47.98900 23.79800 34.46000
C  45.72300 26.91500 34.51500
C  46.08600 27.84800 35.61700
H  45.17300 28.05200 36.78000
N  46.85800 23.29100 29.41700
C  46.55000 22.53800 30.52400
C  46.06000 21.28700 30.09600
C  46.19100 21.20700 28.65500
C  46.78500 22.54400 28.28800
C  45.64000 20.21900 31.02000
C  45.98300 20.01900 27.69000
O  46.23500 20.07700 26.52900
C  45.50700 18.68300 28.20000
N  47.95100 25.18500 27.48500
C  47.82600 24.11900 26.68200
C  48.30500 24.35200 25.27000
C  48.73600 25.85900 25.28800
C  48.43700 26.22000 26.75800
C  49.62100 23.49900 25.06100
C  47.84700 26.61100 24.28100
C  48.07200 26.26000 22.79900
N  48.04700 27.23300 29.47900
C  48.67700 28.01300 28.52500
C  48.98700 29.32800 29.07000
C  48.58300 29.23500 30.41000
C  48.07900 27.95000 30.62100
C  49.77100 30.40100 28.28200
C  48.59700 29.97300 31.67400
O  48.92800 31.12800 31.94500
C  48.06200 28.96400 32.73400
C  49.21100 28.70700 33.66000
O  50.28100 28.20300 33.28500
O  48.90700 29.08300 34.93200
C  49.92000 28.75900 35.96800
H  46.02500 22.38200 32.55600
H  47.10300 22.10700 26.21700
H  49.20400 28.14000 26.45600
H  47.91300 26.33700 34.43700
H  45.99700 24.17500 34.18300
H  48.52100 23.16200 33.75300
H  47.48900 23.23100 35.24600
H  48.81200 24.35900 34.90200
H  44.94200 26.22500 34.83400
H  45.28700 27.57300 33.76300
H  46.33100 28.81800 35.18400
H  47.02700 27.56400 36.08800
H  44.55000 20.22600 31.01100
H  45.97800 20.33400 32.05000
H  46.01200 19.26400 30.65000
H  46.29700 18.18900 28.76500
H  45.13500 18.14100 27.33000
H  44.62900 18.78500 28.83800
H  47.52800 24.16300 24.52900
H  49.73400 26.19500 25.00600
H  50.02400 23.04500 25.96600
H  50.39500 24.02200 24.50100
H  49.34400 22.68100 24.39600
H  47.82700 27.68900 24.43800
H  46.81800 26.26100 24.36500
H  48.80700 25.45900 22.72000
H  48.44000 27.20200 22.39000
H  47.19900 25.98400 22.20700
H  49.41400 30.38200 27.25200
H  50.78700 30.02100 28.17300
H  49.71000 31.36100 28.79500
H  47.23800 29.46700 33.24100
H  50.49800 29.66400 36.15500
H  50.60600 27.95200 35.70800
H  49.46200 28.42900 36.90000

