158

Mg 9.70600 47.27200 26.60200
C  8.04700 47.46300 29.60100
C  12.40200 49.02300 28.01900
C  11.34600 46.94500 23.65800
C  6.67700 46.46300 25.02300
N  10.17200 48.16400 28.59700
C  9.40700 47.97000 29.66700
C  10.03600 48.53900 30.89400
C  11.24100 49.39700 30.29900
C  11.27900 48.88100 28.88000
C  11.11800 50.93800 30.36300
C  10.53100 47.50200 31.97200
C  10.18100 47.67500 33.44100
H  9.88300 46.59500 34.48000
N  11.63000 47.70300 26.09000
C  12.59900 48.46600 26.73400
C  13.85000 48.51900 25.91800
C  13.59500 47.72700 24.77000
C  12.15700 47.37900 24.82700
C  15.15300 49.16500 26.38400
C  14.46500 47.39600 23.64200
O  14.08400 46.72500 22.67800
C  15.85700 47.87600 23.63000
N  9.02700 46.71500 24.64700
C  9.91200 46.78100 23.56700
C  9.18600 46.45000 22.23500
C  7.78400 46.01400 22.74300
C  7.81800 46.48300 24.17800
C  9.20800 47.58100 21.22100
C  7.50000 44.51700 22.59700
C  8.52900 43.60600 23.38000
N  7.65700 47.09100 27.15300
C  6.59800 46.65800 26.43900
C  5.37300 46.55100 27.31600
C  5.92000 46.94100 28.55400
C  7.30600 47.25500 28.41100
C  4.06900 45.97000 26.83900
C  5.66200 46.98500 29.99400
O  4.64700 46.74000 30.67600
C  7.05900 47.26000 30.69100
C  7.32500 46.06700 31.58400
O  7.88700 45.04200 31.21400
O  6.69900 46.34100 32.81100
C  6.53300 45.08600 33.58500
H  13.24500 49.57300 28.44200
H  11.90200 46.92300 22.71800
H  5.84500 46.02600 24.46800
H  9.36100 49.25600 31.36300
H  12.20800 49.16900 30.74700
H  10.19800 51.25300 30.85400
H  11.26800 51.32700 29.35600
H  11.99900 51.21500 30.94200
H  11.61700 47.45100 31.89800
H  10.22100 46.48400 31.73600
H  9.27200 48.26800 33.34300
H  11.09800 48.12800 33.81700
H  15.27100 49.98700 25.67800
H  15.89800 48.37000 26.36900
H  15.13100 49.63600 27.36700
H  15.78500 48.96300 23.64900
H  16.19600 47.57100 22.64000
H  16.45800 47.39700 24.40300
H  9.68800 45.62300 21.73300
H  6.86300 46.48100 22.39500
H  8.18400 47.89200 21.01500
H  9.60300 47.29500 20.24700
H  9.85600 48.38000 21.57900
H  7.60900 44.18200 21.56600
H  6.47300 44.33500 22.91300
H  7.94000 42.84600 23.89300
H  9.08700 44.01700 24.22200
H  9.27500 43.18800 22.70300
H  4.17800 45.31700 25.97400
H  3.50600 46.78600 26.38500
H  3.42500 45.62900 27.65000
H  6.89600 48.13400 31.32200
H  6.52900 45.20700 34.66800
H  7.14700 44.19900 33.42300
H  5.61700 44.62900 33.21100
Mg -11.37700 16.00100 41.29700
C  -8.17500 14.59800 41.08600
C  -10.14300 18.81600 39.73000
C  -14.52400 17.24200 41.04000
C  -12.47800 12.93000 42.34500
N  -9.42200 16.60900 40.51800
C  -8.28600 15.91100 40.52200
C  -7.11300 16.65100 39.74500
C  -7.77500 18.10700 39.51000
C  -9.22600 17.76400 39.84000
C  -7.15900 19.05800 40.52400
C  -6.74000 15.97300 38.44400
C  -5.26400 15.85700 38.00500
H  -4.87300 16.72700 36.87900
N  -12.23400 17.71500 40.38000
C  -11.52300 18.79800 39.88100
C  -12.41100 19.88700 39.52900
C  -13.73900 19.54400 39.94200
C  -13.57900 18.10500 40.46700
C  -12.00600 21.23200 39.06900
C  -15.04400 20.39100 39.90600
O  -14.95600 21.54400 39.56500
C  -16.35200 19.92400 40.40800
N  -13.29600 15.12000 41.50600
C  -14.39900 15.94100 41.57400
C  -15.64100 15.16100 42.08700
C  -14.97000 13.83300 42.65100
C  -13.52300 13.92900 42.07000
C  -16.48500 16.06900 43.11000
C  -15.69900 12.54700 42.35100
C  -16.56300 11.89200 43.46200
N  -10.52800 14.11400 41.65900
C  -11.12600 12.95900 42.12100
C  -10.12800 11.94100 42.31300
C  -8.99900 12.53000 41.87900
C  -9.26500 13.85100 41.51000
C  -10.32100 10.61600 42.83600
C  -7.56400 12.32600 41.73600
O  -6.94400 11.33100 41.88400
C  -6.91100 13.72700 41.24300
C  -5.95200 14.34600 42.18600
O  -6.21100 15.03700 43.16500
O  -4.72500 13.79600 41.90900
C  -3.63400 14.28600 42.67500
H  -9.79600 19.67300 39.14900
H  -15.55600 17.57900 41.16000
H  -12.78500 12.01600 42.85800
H  -6.18600 16.68300 40.31600
H  -7.71300 18.43100 38.47100
H  -7.98300 19.44700 41.12200
H  -6.63600 19.89400 40.05900
H  -6.54900 18.52500 41.25300
H  -7.24800 16.44200 37.60100
H  -7.07900 14.93800 38.48200
H  -4.93900 14.82400 37.88200
H  -4.63500 16.35100 38.74500
H  -11.85100 21.94500 39.87900
H  -12.70800 21.78200 38.44200
H  -11.08300 21.12700 38.50000
H  -17.11300 20.67600 40.19900
H  -16.20700 19.70400 41.46600
H  -16.65600 18.98100 39.95400
H  -16.33500 14.88800 41.29100
H  -14.81700 13.96300 43.72200
H  -17.50000 16.24000 42.75300
H  -16.10900 17.09200 43.12900
H  -16.44000 15.51200 44.04700
H  -14.93500 11.85700 41.99400
H  -16.28300 12.80500 41.46700
H  -16.22900 10.87000 43.64000
H  -17.56900 11.78000 43.05800
H  -16.47200 12.33400 44.45400
H  -11.35400 10.29300 42.70300
H  -10.23900 10.70400 43.91900
H  -9.58600 9.89200 42.48400
H  -6.39200 13.58700 40.29500
H  -3.22700 15.14200 42.13700
H  -2.93800 13.47500 42.89100
H  -3.92200 14.58700 43.68300

