158

Mg 48.60300 45.10300 42.51600
C  45.24300 44.44200 42.29400
C  49.23900 41.72800 42.19000
C  51.88400 45.79500 42.50600
C  47.86500 48.52700 42.06800
N  47.35100 43.35200 42.46300
C  45.96600 43.28800 42.22100
C  45.50700 41.82700 42.00900
C  46.85100 40.98500 42.35600
C  47.85600 42.12200 42.40300
C  46.82200 40.08000 43.60200
C  44.97300 41.56900 40.53200
C  45.88700 42.21700 39.48000
H  45.69400 41.48800 38.04500
N  50.31900 43.95400 42.20600
C  50.34200 42.57800 42.20600
C  51.70600 42.15100 42.10600
C  52.52700 43.31300 42.23900
C  51.59800 44.42300 42.31900
C  52.15200 40.70900 41.94600
C  53.99300 43.32600 42.27900
O  54.60400 42.26800 42.27600
C  54.86700 44.56400 42.32500
N  49.72700 46.84000 42.04600
C  51.00100 46.89700 42.46000
C  51.52900 48.35900 42.56100
C  50.31000 49.13100 42.04100
C  49.22600 48.13600 42.10000
C  52.10800 48.73600 43.97700
C  50.45100 49.86300 40.69600
C  49.45600 50.96900 40.28900
N  46.96500 46.31800 42.38100
C  46.75400 47.68200 42.25300
C  45.32700 48.00600 42.33700
C  44.68200 46.70900 42.32700
C  45.70400 45.76300 42.36800
C  44.62000 49.34000 42.55500
C  43.43700 46.03500 42.27100
O  42.30800 46.52300 42.27000
C  43.68500 44.50000 42.28100
C  43.08800 43.98500 43.58600
O  42.24300 43.09000 43.55400
O  43.67800 44.61400 44.71400
C  42.99600 44.08200 45.93600
H  49.36300 40.64500 42.12100
H  52.90700 46.10600 42.72700
H  47.57800 49.57300 41.94200
H  44.71100 41.68500 42.74000
H  47.10200 40.33100 41.52100
H  45.80400 39.72300 43.76200
H  47.25100 40.61200 44.45000
H  47.44200 39.19600 43.45300
H  44.05400 42.15100 40.45300
H  44.88200 40.50200 40.32700
H  46.95600 42.14400 39.68000
H  45.64500 43.27200 39.35300
H  52.98900 40.46200 42.60000
H  52.50100 40.54800 40.92700
H  51.27400 40.09400 42.14400
H  54.66700 45.27600 41.52400
H  55.91300 44.31600 42.14700
H  54.69600 45.02700 43.29700
H  52.25000 48.48800 41.75400
H  50.23600 49.92900 42.77900
H  53.15300 49.01500 43.83400
H  52.00300 47.90500 44.67400
H  51.63200 49.55000 44.52200
H  50.50200 48.97800 40.06200
H  51.44200 50.31400 40.65400
H  49.06100 51.37700 41.21900
H  48.60700 50.64800 39.68500
H  49.97000 51.81000 39.82500
H  44.94200 49.67100 43.54200
H  43.53600 49.23900 42.51400
H  44.86400 50.20200 41.93400
H  43.10300 44.01500 41.49700
H  42.84600 43.00400 45.87700
H  42.11100 44.70900 46.04300
H  43.54200 44.20600 46.87200
Mg 36.41800 50.08800 25.24100
C  36.60300 48.37600 28.18600
C  34.61400 52.61100 26.98200
C  36.20400 51.80400 22.30200
C  37.73600 47.31100 23.55400
N  35.69900 50.40300 27.29600
C  36.05800 49.63500 28.38500
C  35.61800 50.23900 29.79800
C  34.80000 51.49000 29.25000
C  35.09300 51.55600 27.79000
C  33.28600 51.44700 29.53700
C  36.78000 50.51800 30.76200
C  36.72100 49.76700 32.10700
H  35.33100 49.55000 32.73900
N  35.55600 52.02300 24.78900
C  34.86000 52.90100 25.59600
C  34.40800 54.01800 24.78700
C  34.78900 53.72700 23.40700
C  35.57500 52.47800 23.44300
C  33.70600 55.26500 25.49700
C  34.29700 54.38800 22.11900
O  34.65900 53.97300 21.03000
C  33.44000 55.59200 22.09600
N  36.94700 49.69800 23.25100
C  36.86700 50.55100 22.24700
C  37.14600 49.82600 20.93400
C  37.84500 48.51800 21.30100
C  37.45600 48.46800 22.80100
C  35.85300 49.56900 19.97300
C  39.37200 48.71300 21.10000
C  40.17100 47.54600 20.47900
N  37.02400 48.22600 25.70200
C  37.57800 47.18500 24.92400
C  37.78000 46.00300 25.75800
C  37.50900 46.45400 27.03500
C  36.92200 47.77500 26.92500
C  38.19800 44.67300 25.20100
C  37.56900 46.12300 28.44300
O  38.01700 45.16100 29.04700
C  36.93000 47.25200 29.25400
C  35.71000 46.78200 30.00700
O  34.63100 47.24300 29.81700
O  36.01400 45.85900 30.94100
C  34.89600 45.28300 31.77500
H  34.03100 53.40400 27.45400
H  36.12900 52.26900 21.31600
H  38.08100 46.43300 23.00500
H  34.94900 49.47800 30.20100
H  35.17400 52.45600 29.58700
H  33.13200 50.60200 30.20700
H  32.71700 51.19000 28.64300
H  32.89600 52.29200 30.10500
H  36.90700 51.57400 30.99900
H  37.74800 50.19500 30.37700
H  37.33700 50.30000 32.83100
H  37.27700 48.84600 31.93400
H  34.44500 55.96900 25.88000
H  33.02200 55.02400 26.31000
H  33.15200 55.79900 24.72500
H  33.02400 55.90200 21.13700
H  34.05900 56.46200 22.31600
H  32.59100 55.41400 22.75600
H  37.87500 50.53100 20.53200
H  37.37100 47.68200 20.78600
H  34.97100 49.78800 20.57400
H  35.86600 48.52400 19.66400
H  36.06800 50.28100 19.17600
H  39.82800 48.93000 22.06600
H  39.62400 49.59700 20.51400
H  40.92300 47.23100 21.20300
H  40.71800 47.93200 19.61900
H  39.56500 46.68800 20.19000
H  37.51600 44.25900 24.45800
H  38.26400 43.99000 26.04800
H  39.21800 44.78300 24.83100
H  37.59200 47.60700 30.04400
H  34.64600 46.05900 32.49900
H  35.35900 44.44400 32.29500
H  34.04800 44.95300 31.17700

