158

Mg -0.31600 7.06900 26.20700
C  0.32100 9.14800 28.84800
C  0.10300 4.34200 28.31200
C  -0.36800 4.90500 23.50800
C  0.07800 9.77600 23.96800
N  0.08500 6.84000 28.30300
C  0.19100 7.82400 29.23100
C  0.29800 7.30700 30.68900
C  0.59800 5.78500 30.36300
C  0.22500 5.65100 28.90400
C  2.05200 5.26600 30.74600
C  -1.02600 7.75700 31.42900
C  -0.80900 8.18500 32.85700
H  0.39400 7.60500 33.59600
N  -0.45000 4.97200 25.96400
C  -0.24000 4.06200 26.98000
C  -0.34700 2.74200 26.37900
C  -0.65500 2.87200 25.02700
C  -0.44100 4.27900 24.77400
C  -0.37800 1.51900 27.24500
C  -1.08500 1.79800 24.01700
O  -1.42300 2.08000 22.88300
C  -1.23500 0.34900 24.48100
N  -0.17300 7.27800 24.09400
C  -0.28300 6.23000 23.17900
C  -0.37000 6.73200 21.73600
C  -0.25300 8.27300 21.93800
C  -0.06700 8.51600 23.41000
C  0.71500 6.15300 20.75700
C  -1.17500 9.13100 21.14600
C  -2.51900 9.49500 21.79900
N  0.21000 9.10300 26.34600
C  0.30300 10.03600 25.33600
C  0.46700 11.36700 25.99100
C  0.48800 11.08600 27.35700
C  0.39700 9.68400 27.51900
C  0.63000 12.73000 25.10500
C  0.65800 11.59500 28.67500
O  0.98800 12.71400 28.99300
C  0.48500 10.39900 29.66700
C  1.65100 10.35100 30.50200
O  2.77800 10.01400 30.18400
O  1.33100 10.85900 31.72100
C  2.52000 11.16400 32.54100
H  0.26300 3.51900 29.01100
H  -0.54700 4.29500 22.62000
H  -0.06500 10.59300 23.25700
H  1.14500 7.84900 31.10900
H  -0.15500 5.21500 30.90700
H  2.69000 5.11000 29.87600
H  2.04600 4.36100 31.35300
H  2.52600 6.03500 31.35600
H  -1.74800 6.94300 31.49900
H  -1.54000 8.52500 30.85100
H  -1.64000 7.97000 33.52800
H  -0.84300 9.26500 33.00200
H  -0.03200 1.64100 28.27200
H  0.25900 0.73700 26.83200
H  -1.42000 1.21500 27.34200
H  -0.29900 -0.14300 24.74600
H  -1.65200 -0.12700 23.59400
H  -1.76200 0.19100 25.42200
H  -1.39300 6.60500 21.38200
H  0.72000 8.51900 21.51400
H  1.25700 6.85300 20.12000
H  0.14600 5.62200 19.99400
H  1.33300 5.38400 21.22000
H  -1.40000 8.66500 20.18600
H  -0.77800 10.13200 20.97800
H  -3.33000 9.50600 21.07100
H  -2.48900 10.52600 22.15000
H  -2.80800 8.77300 22.56300
H  -0.33500 13.21200 24.94800
H  1.16900 12.42600 24.20800
H  1.28000 13.49000 25.53900
H  -0.37900 10.47900 30.32700
H  2.27800 10.76700 33.52700
H  2.77300 12.21700 32.66400
H  3.44600 10.61700 32.36300
Mg 27.32700 50.13700 27.10000
C  25.10700 50.96200 29.66100
C  29.71100 49.43900 29.52500
C  29.57700 49.53400 24.65100
C  25.11700 51.41700 24.81300
N  27.37400 50.26300 29.28300
C  26.28100 50.42200 30.14200
C  26.63100 50.24900 31.59600
C  28.23900 50.01700 31.48500
C  28.50400 49.95500 29.96000
C  29.05000 50.97300 32.41800
C  25.74000 49.11900 32.29800
C  24.84000 49.53100 33.55300
H  24.72300 48.63500 34.81300
N  29.35500 49.49600 27.07700
C  30.09900 49.17400 28.14600
C  31.39000 48.75900 27.76400
C  31.41200 48.85700 26.36400
C  30.06000 49.38200 25.95300
C  32.45600 48.30800 28.76700
C  32.52600 48.58000 25.30500
O  32.42700 48.71100 24.09200
C  33.85700 47.96900 25.73500
N  27.32700 50.28800 24.99400
C  28.30500 49.89100 24.19700
C  27.80300 49.92700 22.66300
C  26.34900 50.51500 22.78600
C  26.26400 50.78500 24.28900
C  28.62600 50.58800 21.53800
C  25.23600 49.55700 22.32700
C  24.05800 50.21500 21.65000
N  25.44900 50.96800 27.12800
C  24.63500 51.36200 26.11500
C  23.35000 51.76200 26.58200
C  23.46100 51.71300 27.99200
C  24.79200 51.13300 28.27000
C  22.20100 52.20000 25.74200
C  22.80300 51.94500 29.31200
O  21.71600 52.31700 29.60500
C  23.90700 51.42800 30.48900
C  24.14900 52.63800 31.27100
O  24.75400 53.58300 30.75400
O  23.58200 52.66500 32.49400
C  23.47000 53.92400 33.17600
H  30.35400 49.14500 30.35700
H  30.26700 49.23200 23.86000
H  24.30800 51.65500 24.11900
H  26.45200 51.21300 32.07300
H  28.36700 49.01900 31.90200
H  29.92100 51.37800 31.90300
H  29.58000 50.63800 33.31000
H  28.47400 51.85500 32.69700
H  26.39900 48.36300 32.72600
H  25.19800 48.60400 31.50500
H  23.77100 49.51800 33.34300
H  25.21300 50.51700 33.82800
H  33.47700 48.24600 28.39300
H  32.32000 47.31700 29.20200
H  32.39000 49.04200 29.57000
H  33.74900 46.92800 26.03900
H  34.19300 48.63200 26.53200
H  34.54800 47.91800 24.89300
H  27.72400 48.87700 22.38100
H  26.26700 51.52200 22.37700
H  29.11500 49.91600 20.83400
H  29.37700 51.24400 21.98100
H  27.95800 51.20200 20.93500
H  24.90700 48.94200 23.16400
H  25.68800 49.00100 21.50500
H  24.25700 51.27100 21.46800
H  23.09500 50.14700 22.15500
H  24.07100 49.74300 20.66800
H  22.58200 52.96600 25.06600
H  21.44600 52.59100 26.42300
H  21.74900 51.36200 25.21000
H  23.56100 50.65700 31.17700
H  22.39100 54.03800 33.28600
H  23.72000 54.83100 32.62700
H  23.91900 53.88500 34.16900

