158

Mg 17.30800 -1.21600 28.29200
C  16.22700 0.90900 30.91300
C  19.15400 -2.94300 30.42400
C  18.66900 -2.71400 25.52400
C  15.73800 1.10100 26.04800
N  17.57200 -1.01400 30.46500
C  16.99500 -0.18300 31.33100
C  17.52100 -0.49700 32.71200
C  18.59800 -1.57600 32.48100
C  18.41600 -1.94300 31.00400
C  19.99100 -1.28200 32.99500
C  16.33800 -0.79400 33.67600
C  16.47900 -0.29000 35.13000
H  17.80700 0.20000 35.61800
N  18.62600 -2.68300 28.06100
C  19.33200 -3.27700 29.02300
C  20.14100 -4.38500 28.52800
C  19.88800 -4.47800 27.13100
C  19.00900 -3.21500 26.82500
C  21.02200 -5.28400 29.40500
C  20.24200 -5.52500 26.19900
O  19.87700 -5.55300 25.03700
C  21.13100 -6.73400 26.59000
N  17.25300 -0.78900 26.05600
C  17.88500 -1.61400 25.12300
C  17.38200 -1.42500 23.71100
C  16.37100 -0.19200 23.97800
C  16.37800 0.04500 25.45200
C  18.52900 -1.21800 22.67800
C  15.04600 -0.46500 23.38200
C  14.00000 -1.17100 24.21100
N  16.10700 0.57900 28.39900
C  15.58500 1.45400 27.43700
C  14.88400 2.56400 27.98400
C  15.08500 2.33500 29.42200
C  15.78900 1.19900 29.60300
C  14.16900 3.64000 27.18200
C  14.72300 2.89100 30.68500
O  14.06900 3.87400 31.01300
C  15.49000 1.97200 31.73200
C  16.36100 2.96100 32.51600
O  17.28500 3.58000 32.00900
O  15.86900 3.15800 33.82400
C  16.48300 4.07000 34.75600
H  19.76500 -3.46900 31.16100
H  19.08100 -3.32500 24.71800
H  15.19000 1.73300 25.34600
H  18.14300 0.33600 33.04100
H  18.31200 -2.45600 33.05800
H  20.21900 -1.89100 33.86900
H  20.12300 -0.23900 33.28300
H  20.71100 -1.52500 32.21400
H  16.41600 -1.87400 33.79900
H  15.39900 -0.47300 33.22400
H  16.17100 -1.17800 35.68100
H  15.78300 0.52300 35.33600
H  20.63700 -6.29200 29.25600
H  20.95100 -5.06600 30.47100
H  22.06400 -5.19300 29.09900
H  20.52800 -7.43100 27.17200
H  21.97200 -6.44600 27.22000
H  21.55800 -7.27000 25.74200
H  16.81900 -2.33200 23.49200
H  16.83300 0.68800 23.53100
H  19.44900 -1.68600 23.02800
H  18.57900 -0.14300 22.50700
H  18.22200 -1.77700 21.79400
H  15.19900 -1.25300 22.64400
H  14.68100 0.39000 22.81400
H  14.08800 -0.87100 25.25500
H  14.12900 -2.23900 24.38600
H  12.98800 -0.92900 23.88600
H  14.01500 3.31900 26.15200
H  14.76600 4.54900 27.11200
H  13.19700 3.94100 27.57200
H  14.75600 1.46100 32.35500
H  16.44400 5.10000 34.40300
H  17.52600 3.77300 34.86500
H  15.91500 4.05500 35.68600
Mg 6.93400 55.18800 40.33800
C  6.07700 51.78400 40.26200
C  10.19500 54.44900 39.63100
C  7.57800 58.46100 39.65700
C  3.48300 55.96600 40.46400
N  7.94000 53.37200 39.89600
C  7.40300 52.10500 39.91200
C  8.55100 51.07200 39.70300
C  9.78700 51.91300 39.93500
C  9.32500 53.36800 39.90800
C  10.67300 51.59500 41.20000
C  8.48600 50.40100 38.27900
C  8.14400 51.35900 37.08500
H  6.78200 51.10300 36.35000
N  8.61100 56.32000 39.83900
C  9.86000 55.81900 39.55000
C  10.75400 56.84100 39.16400
C  10.01200 58.04900 39.09800
C  8.67100 57.65100 39.60800
C  12.19700 56.60700 38.90900
C  10.63600 59.40100 38.69400
O  11.72300 59.55600 38.13700
C  9.86900 60.77700 38.88200
N  5.70100 56.96100 40.01700
C  6.16400 58.23500 39.85900
C  5.01000 59.21200 39.56000
C  3.80000 58.37300 39.80700
C  4.34400 57.00700 40.06100
C  5.02800 60.49800 40.51600
C  2.85200 58.35900 38.58100
C  1.64300 59.37600 38.56000
N  5.11500 54.15200 40.47300
C  3.77200 54.57300 40.68900
C  2.96600 53.44100 40.93500
C  3.84100 52.24500 40.79500
C  5.13700 52.73700 40.51400
C  1.51900 53.47200 41.37700
C  3.97900 50.85000 40.88400
O  3.13500 49.99100 41.22100
C  5.40400 50.44400 40.64300
C  5.49300 49.40600 39.51900
O  5.15800 49.54500 38.39000
O  5.94300 48.19000 40.09600
C  5.80700 46.98800 39.32500
H  11.20600 54.20200 39.30000
H  7.75000 59.49700 39.35700
H  2.41900 56.20000 40.37900
H  8.33500 50.30100 40.44300
H  10.43200 51.72100 39.07700
H  10.12000 50.87400 41.80200
H  10.88900 52.46900 41.81300
H  11.63900 51.14000 40.98100
H  7.77900 49.58200 38.41300
H  9.42000 49.89800 38.02800
H  8.91400 51.21900 36.32600
H  8.20700 52.40200 37.39400
H  12.33800 56.88800 37.86600
H  12.55500 55.60100 39.12900
H  12.87500 57.28900 39.42200
H  10.53100 61.61700 38.67300
H  9.43400 60.86700 39.87700
H  9.04600 60.87900 38.17500
H  5.09300 59.49600 38.51200
H  3.30700 58.71700 40.71600
H  4.04300 60.67300 40.94600
H  5.36400 61.41500 40.03100
H  5.72200 60.48100 41.35600
H  2.31000 57.41300 38.58800
H  3.40200 58.50400 37.65100
H  1.95700 60.22300 37.95100
H  1.32100 59.78100 39.52000
H  0.89000 58.85800 37.96600
H  1.08600 52.47200 41.40700
H  1.04100 54.20400 40.72700
H  1.58600 53.69900 42.44100
H  5.82300 50.04700 41.56700
H  6.41400 46.84700 38.43100
H  4.73900 46.85100 39.15500
H  6.15200 46.18600 39.97800

