158

Mg -10.06500 40.50900 42.32000
C  -9.31100 37.22700 41.31800
C  -7.22700 41.45200 40.53900
C  -11.29200 43.66800 42.08100
C  -13.42500 39.25700 42.97500
N  -8.55500 39.45500 40.94400
C  -8.37000 38.07300 40.84600
C  -6.96600 37.68700 40.40700
C  -6.24800 39.10000 40.44100
C  -7.39500 40.11400 40.63600
C  -5.16900 39.26000 41.49600
C  -6.95200 37.14700 38.93600
C  -6.32000 35.75100 38.68900
H  -5.19300 35.63700 37.56900
N  -9.25000 42.31100 41.69000
C  -8.09500 42.47500 41.02800
C  -7.84900 43.88000 40.83400
C  -9.08500 44.55700 41.13700
C  -9.94400 43.51400 41.64000
C  -6.52000 44.48900 40.37900
C  -9.31200 46.02700 40.96400
O  -8.39000 46.70100 40.46600
C  -10.63400 46.74300 41.34400
N  -12.03100 41.35500 42.61800
C  -12.25100 42.73900 42.53300
C  -13.70300 43.10900 43.01500
C  -14.34900 41.65100 43.28000
C  -13.19000 40.69100 42.88800
C  -13.67600 43.95400 44.30100
C  -15.62300 41.39400 42.38300
C  -16.93600 41.33800 43.20300
N  -11.17900 38.61200 42.36400
C  -12.47800 38.25900 42.64100
C  -12.62600 36.81600 42.56800
C  -11.43300 36.36800 42.09800
C  -10.57600 37.53200 41.85600
C  -13.87300 35.97500 42.67600
C  -10.67700 35.19600 41.65700
O  -10.89600 34.02700 41.65700
C  -9.36900 35.73700 41.09600
C  -8.23200 35.04300 41.69200
O  -7.52400 35.56500 42.55000
O  -8.06300 33.81300 41.15500
C  -6.82800 33.15900 41.56100
H  -6.26800 41.68300 40.07100
H  -11.78100 44.64300 42.02600
H  -14.44300 38.94500 43.21800
H  -6.36500 37.04100 41.04800
H  -5.75700 39.31600 39.49200
H  -4.21700 39.67400 41.16600
H  -5.15600 38.43800 42.21100
H  -5.39500 40.07100 42.18900
H  -6.41800 37.90300 38.36000
H  -7.93900 37.10700 38.47500
H  -7.17500 35.23000 38.25900
H  -5.90800 35.30700 39.59500
H  -6.22900 45.10100 41.23300
H  -6.78500 45.16600 39.56700
H  -5.83400 43.69400 40.08800
H  -10.87900 46.68200 42.40400
H  -11.39200 46.46800 40.61000
H  -10.39400 47.78100 41.11500
H  -14.15900 43.70900 42.22800
H  -14.52100 41.32600 44.30600
H  -12.67100 43.75200 44.67000
H  -14.50500 43.74100 44.97700
H  -13.76300 44.98900 43.96900
H  -15.54300 40.57900 41.66400
H  -15.72400 42.36800 41.90500
H  -17.04000 42.31900 43.66700
H  -16.86100 40.49300 43.88700
H  -17.81400 41.25500 42.56300
H  -14.13500 35.70300 43.69800
H  -13.78200 35.04900 42.10800
H  -14.68800 36.51700 42.19700
H  -9.34200 35.51100 40.03000
H  -6.73600 33.00000 42.63600
H  -5.92900 33.67200 41.22200
H  -6.85500 32.19300 41.05800
Mg -0.26900 43.42500 26.85700
C  1.71800 43.35700 29.77200
C  -2.95100 42.27700 28.76100
C  -2.17100 43.55600 24.09500
C  2.57600 44.06300 24.90200
N  -0.55600 42.93100 29.04400
C  0.35600 43.00700 30.04100
C  -0.27200 42.76800 31.35600
C  -1.63600 42.05700 30.96800
C  -1.74800 42.47100 29.50600
C  -1.60700 40.50200 31.00000
C  -0.39600 44.10900 32.15700
C  0.17800 44.11800 33.66200
H  -0.20100 42.89300 34.58600
N  -2.31100 43.01200 26.46100
C  -3.16400 42.54200 27.40600
C  -4.46100 42.40600 26.71600
C  -4.30600 42.82100 25.34700
C  -2.90200 43.23100 25.26400
C  -5.72400 41.87400 27.43000
C  -5.28000 42.87000 24.24300
O  -4.99400 43.26900 23.10200
C  -6.64600 42.36900 24.37600
N  0.08700 43.75700 24.75300
C  -0.85600 43.78000 23.83100
C  -0.32300 44.41000 22.46800
C  1.15800 44.50300 22.83300
C  1.29500 44.04200 24.28100
C  -0.53100 43.49900 21.26900
C  1.76000 45.86500 22.39900
C  1.73600 47.02400 23.45700
N  1.74900 43.71900 27.18000
C  2.81700 43.90300 26.29700
C  4.02500 44.03200 27.07600
C  3.65100 43.80500 28.39100
C  2.26700 43.58400 28.43200
C  5.39700 44.37500 26.50900
C  4.12900 43.69300 29.77200
O  5.27200 43.68700 30.21800
C  2.87300 43.51600 30.71100
C  3.23900 42.35300 31.60500
O  2.93300 41.16700 31.39700
O  3.88900 42.77800 32.72200
C  4.37300 41.77800 33.64400
H  -3.68700 41.66300 29.28400
H  -2.80600 43.77100 23.23300
H  3.46400 44.46200 24.40700
H  0.32700 42.06700 31.93800
H  -2.47900 42.37600 31.58100
H  -2.07200 40.11500 31.90700
H  -0.57600 40.15200 30.95100
H  -2.16300 40.09600 30.15500
H  -1.41400 44.49600 32.19900
H  0.08400 44.83200 31.49700
H  -0.15800 45.03100 34.15400
H  1.25800 44.25700 33.61300
H  -6.59600 42.52400 27.35900
H  -5.46500 41.62800 28.46000
H  -5.76100 40.95100 26.85100
H  -6.46600 41.36500 24.75900
H  -7.29300 42.63400 23.54000
H  -7.06000 42.92700 25.21600
H  -0.83800 45.36700 22.38500
H  1.64000 43.73000 22.23500
H  -1.59600 43.49700 21.03900
H  -0.29200 42.46200 21.50600
H  0.01000 43.72100 20.35000
H  1.28400 46.22700 21.48800
H  2.75100 45.60700 22.02400
H  1.38700 47.90700 22.92200
H  2.80200 47.16100 23.64000
H  1.15800 46.81300 24.35700
H  5.90700 43.41100 26.52300
H  5.91400 45.03600 27.20500
H  5.32600 44.83800 25.52500
H  2.70400 44.42900 31.28100
H  3.58900 41.41000 34.30500
H  5.19300 42.20700 34.22100
H  4.82900 40.96200 33.08300

