158

Mg 16.75100 51.54200 26.40400
C  18.67500 49.99900 29.02000
C  14.36000 52.30400 28.60100
C  15.03000 52.45100 23.72700
C  19.38500 50.30900 24.13600
N  16.59600 51.16600 28.52600
C  17.48800 50.63300 29.41500
C  17.02500 50.84000 30.89600
C  15.51100 51.32300 30.68700
C  15.47200 51.64100 29.16000
C  14.41500 50.34800 31.17400
C  17.99500 51.88500 31.61600
C  18.45700 51.52700 32.97300
H  17.36000 50.76900 33.89800
N  14.98700 52.31600 26.17300
C  14.12600 52.64200 27.24000
C  12.99000 53.33000 26.69800
C  13.20000 53.43700 25.28700
C  14.49900 52.79100 24.98100
C  11.88500 53.78900 27.58300
C  12.45500 54.21400 24.26300
O  12.82800 54.39400 23.10000
C  11.10400 54.87800 24.67000
N  17.21900 51.32800 24.25300
C  16.25300 51.81200 23.39000
C  16.57200 51.26100 21.97600
C  18.10200 50.99600 22.04500
C  18.33300 50.93400 23.58200
C  15.62800 50.11300 21.58400
C  19.09900 51.99500 21.35500
C  18.76200 53.50100 21.54000
N  18.64700 50.48900 26.53100
C  19.60600 50.07900 25.57000
C  20.69200 49.34500 26.15800
C  20.35400 49.31900 27.51900
C  19.10600 49.94100 27.68200
C  22.01600 48.77100 25.46200
C  20.83200 48.83500 28.74300
O  21.86300 48.21800 28.90400
C  19.86700 49.36000 29.82400
C  19.38300 48.27100 30.51800
O  18.99100 47.27300 29.98900
O  19.45600 48.45500 31.88200
C  18.93400 47.31600 32.62000
H  13.61700 52.58500 29.35100
H  14.35100 52.69600 22.90700
H  20.11400 49.95400 23.40500
H  17.06400 49.92000 31.47800
H  15.28400 52.18000 31.32000
H  13.90900 50.59400 32.10800
H  14.86100 49.36500 31.32400
H  13.76000 50.28200 30.30500
H  17.48300 52.84200 31.71200
H  18.91900 52.06400 31.06600
H  18.78100 52.38800 33.55800
H  19.24200 50.79500 32.78400
H  11.18000 52.98900 27.81000
H  11.38500 54.69200 27.23200
H  12.28600 54.03500 28.56600
H  10.37200 54.17800 25.07300
H  10.77700 55.34100 23.73900
H  11.34200 55.66400 25.38800
H  16.50600 52.12700 21.31700
H  18.32600 50.08900 21.48300
H  15.17200 50.46100 20.65700
H  14.85000 49.92200 22.32300
H  16.23900 49.34800 21.10400
H  18.93900 51.76400 20.30200
H  20.10000 51.66100 21.62700
H  19.64400 54.14000 21.51300
H  18.50600 53.60600 22.59400
H  18.02400 53.90600 20.84700
H  22.21500 49.06200 24.43000
H  21.86000 47.70300 25.31200
H  22.91500 48.90900 26.06200
H  20.34000 50.01200 30.55800
H  17.94300 46.96600 32.33100
H  18.83100 47.64700 33.65400
H  19.70400 46.54500 32.58100
Mg -5.76400 25.20000 26.00100
C  -4.58600 26.79000 28.91600
C  -7.50900 23.14400 28.06000
C  -6.77100 23.58900 23.30500
C  -3.34100 26.87000 24.15100
N  -5.94200 24.97100 28.22100
C  -5.48300 25.78100 29.22000
C  -5.91100 25.36700 30.60600
C  -6.56400 24.00400 30.33800
C  -6.64400 23.95300 28.74300
C  -5.81600 22.70900 30.87600
C  -6.87600 26.34100 31.27400
C  -6.89100 26.57200 32.71100
H  -6.16100 25.51400 33.63300
N  -7.06900 23.72200 25.70200
C  -7.74300 23.06000 26.65400
C  -8.83300 22.21200 26.04000
C  -8.50300 22.22600 24.67400
C  -7.39300 23.18300 24.50100
C  -9.71000 21.45700 27.00200
C  -9.05900 21.38200 23.58400
O  -8.61700 21.29600 22.43600
C  -10.31100 20.63000 23.88500
N  -5.12000 25.22300 24.05200
C  -5.66500 24.45100 23.10100
C  -4.94600 24.51700 21.76300
C  -3.94500 25.61000 22.03700
C  -4.10800 25.92200 23.53000
C  -4.14200 23.21600 21.35900
C  -4.26400 26.91600 21.14300
C  -3.51200 27.04300 19.79600
N  -4.35100 26.70400 26.40500
C  -3.46700 27.29500 25.52100
C  -2.56600 28.19900 26.30700
C  -3.00200 28.03600 27.60200
C  -4.08100 27.12800 27.63500
C  -1.51700 28.93800 25.73100
C  -2.80800 28.48900 28.95100
O  -1.99200 29.31400 29.43500
C  -3.83100 27.74200 29.83700
C  -3.16200 27.02600 30.90500
O  -2.39400 26.09300 30.70000
O  -3.24400 27.67000 32.06600
C  -2.21200 27.41300 33.16100
H  -7.99900 22.47900 28.77500
H  -7.06100 23.11100 22.36700
H  -2.48900 27.24100 23.57600
H  -5.05200 25.27400 31.27100
H  -7.55700 23.92300 30.77900
H  -5.45500 22.06400 30.07500
H  -6.47500 22.11600 31.51000
H  -4.91700 23.04000 31.39600
H  -7.84300 25.97500 30.92800
H  -6.71800 27.25500 30.70100
H  -7.91300 26.54100 33.08900
H  -6.47000 27.53700 32.99200
H  -9.44700 20.54000 27.52800
H  -10.68100 21.10500 26.65500
H  -10.16600 22.14800 27.71100
H  -10.20600 19.55800 24.05700
H  -10.82600 20.72200 22.92900
H  -10.96800 21.12100 24.60200
H  -5.70100 24.72200 21.00400
H  -2.89600 25.38300 21.84600
H  -4.71700 22.61300 20.65600
H  -4.07700 22.61000 22.26200
H  -3.12400 23.43000 21.03200
H  -4.10900 27.87600 21.63500
H  -5.33500 26.85500 20.94600
H  -2.79600 27.86400 19.84500
H  -4.17300 27.03500 18.92900
H  -2.82100 26.21300 19.65400
H  -1.91800 29.92100 25.48300
H  -1.12200 28.57200 24.78300
H  -0.70100 29.22900 26.39200
H  -4.50300 28.44700 30.32500
H  -2.36900 26.46500 33.67500
H  -2.22900 28.33000 33.75100
H  -1.18200 27.44100 32.80600

