158

Mg 46.50700 25.68800 28.64600
C  47.88300 27.78300 31.24200
C  45.57900 23.47100 31.21100
C  45.95500 23.49600 26.29800
C  48.09200 27.81300 26.34600
N  46.78900 25.65300 30.97900
C  47.16000 26.71600 31.74000
C  46.80300 26.43200 33.27100
C  46.40300 24.88700 33.18800
C  46.17100 24.67900 31.69500
C  47.41000 23.93300 33.84200
C  45.75200 27.49900 33.84000
C  46.21600 28.25900 35.13500
H  45.31200 28.02700 36.37100
N  45.75100 23.75300 28.74300
C  45.44000 23.00900 29.79900
C  44.89300 21.79100 29.29100
C  45.07600 21.72400 27.89200
C  45.66000 22.98500 27.59200
C  44.38800 20.60600 30.19400
C  44.56800 20.68400 26.87600
O  44.71500 20.96200 25.67700
C  43.85100 19.36400 27.28200
N  46.99700 25.68100 26.54600
C  46.61100 24.60900 25.81500
C  47.16700 24.81600 24.30600
C  47.52900 26.30100 24.31000
C  47.59900 26.65500 25.81800
C  48.27500 23.77600 23.84700
C  46.61700 27.17300 23.32400
C  47.33300 27.69100 22.04500
N  47.58700 27.47100 28.70200
C  48.14400 28.22600 27.72600
C  48.80500 29.41800 28.18800
C  48.79200 29.26400 29.61300
C  48.03400 28.09100 29.87100
C  49.47500 30.38200 27.22400
C  49.21100 29.91600 30.86700
O  49.88600 30.89300 31.05600
C  48.52000 28.92800 31.94900
C  49.51700 28.47500 33.04100
O  50.30800 27.56900 32.86100
O  49.30900 29.18500 34.21000
C  50.08700 28.64400 35.42700
H  45.25700 22.77800 31.99100
H  45.80900 22.89400 25.39900
H  48.39500 28.50700 25.56000
H  47.67900 26.52400 33.91200
H  45.46200 24.91600 33.73700
H  48.39700 24.28900 33.54600
H  47.29100 22.89600 33.53000
H  47.35600 24.03000 34.92600
H  44.84600 26.93000 34.04800
H  45.51500 28.26500 33.10200
H  46.27900 29.28800 34.78200
H  47.17000 27.95200 35.56200
H  43.41400 20.33500 29.78600
H  44.38100 20.86400 31.25300
H  44.97400 19.68900 30.12300
H  44.50700 18.81100 27.95400
H  43.84800 18.75100 26.38100
H  42.79200 19.46200 27.52400
H  46.40300 24.74200 23.53200
H  48.57800 26.46300 24.05900
H  47.71100 23.11700 23.18700
H  48.70000 23.30200 24.73200
H  49.09700 24.38600 23.47200
H  46.20300 27.98200 23.92700
H  45.81700 26.51100 22.99300
H  48.40300 27.49900 22.12300
H  47.21500 28.77200 22.11600
H  46.86500 27.40800 21.10200
H  49.68900 31.31900 27.73700
H  48.77000 30.57600 26.41600
H  50.28200 29.79800 26.78100
H  47.67600 29.41700 32.43400
H  50.64700 27.72600 35.24800
H  49.38900 28.38800 36.22500
H  50.73200 29.50000 35.62400
Mg 26.90700 50.66000 26.98400
C  24.78800 51.76200 29.59700
C  29.33500 49.82800 29.28300
C  28.87000 50.06100 24.42500
C  24.43900 51.99100 24.76100
N  27.03200 50.82600 29.10200
C  26.05800 51.21100 30.01100
C  26.44200 50.94300 31.45000
C  28.00600 50.68800 31.27800
C  28.11900 50.37000 29.82400
C  28.91900 51.85100 31.66900
C  25.66400 49.78600 32.16600
C  25.08100 50.26200 33.51800
H  26.08600 50.56800 34.59300
N  28.86600 49.99200 26.89300
C  29.70600 49.56500 27.89800
C  30.95100 49.00000 27.37100
C  30.87300 49.28900 25.89200
C  29.52300 49.83200 25.68000
C  31.91200 48.28600 28.24900
C  31.84000 48.90200 24.79200
O  31.62600 49.16700 23.61700
C  33.15100 48.16400 25.08600
N  26.71200 51.02900 24.95700
C  27.70400 50.72800 24.07300
C  27.28200 50.90400 22.54900
C  25.76300 51.27600 22.73300
C  25.65800 51.46300 24.29300
C  28.08700 51.77200 21.60700
C  24.79300 50.18500 22.04000
C  24.30000 49.08600 22.92200
N  25.00800 51.71100 27.11300
C  24.16800 52.08500 26.11100
C  23.05100 52.71100 26.70900
C  23.22500 52.63500 28.05800
C  24.44000 51.98000 28.30400
C  21.84800 53.32100 25.95400
C  22.72600 53.08800 29.26300
O  21.75500 53.84700 29.50500
C  23.69100 52.54100 30.40200
C  24.26200 53.69600 31.22500
O  25.23700 54.33500 30.90600
O  23.47400 53.78400 32.39600
C  23.73500 54.80100 33.40200
H  30.14100 49.55700 29.96800
H  29.54200 49.86700 23.58700
H  23.69300 52.42400 24.09100
H  26.16500 51.84400 31.99800
H  28.17800 49.80500 31.89400
H  29.06500 51.83100 32.74900
H  28.34500 52.72800 31.36800
H  29.86700 51.78800 31.13500
H  26.30700 48.92600 32.35200
H  24.87000 49.46500 31.49200
H  24.45300 49.43100 33.84000
H  24.38300 51.09400 33.41800
H  31.57500 47.25000 28.20700
H  31.98800 48.73000 29.24200
H  32.93100 48.34100 27.86600
H  33.04800 47.10000 25.30000
H  33.72100 48.62400 25.89300
H  33.74100 48.27200 24.17600
H  27.51700 49.90300 22.18700
H  25.60900 52.27500 22.32500
H  28.22800 51.29200 20.63800
H  29.08600 51.96100 21.99800
H  27.64900 52.73100 21.33100
H  25.17800 49.77800 21.10500
H  23.96500 50.82800 21.74200
H  24.92600 48.93700 23.80300
H  24.34800 48.14000 22.38200
H  23.24000 49.31000 23.03900
H  21.64200 52.87300 24.98200
H  21.91300 54.39800 25.80500
H  20.88900 53.09500 26.42000
H  23.12800 51.89100 31.07200
H  24.26600 55.53100 32.79100
H  24.36500 54.28500 34.12700
H  22.77000 55.06000 33.83700

