158

Mg 2.35900 -2.08600 44.84700
C  5.68100 -1.33300 44.06200
C  1.59000 0.69600 42.57000
C  -0.81600 -3.00100 44.72200
C  3.38700 -5.12800 46.17200
N  3.58700 -0.52500 43.36100
C  4.88300 -0.48600 43.28300
C  5.33500 0.64700 42.34100
C  4.00900 1.36600 41.90300
C  2.96300 0.48400 42.67900
C  3.89500 2.87000 42.30300
C  6.36700 0.07600 41.24800
C  7.66000 0.86400 41.05000
H  8.03600 1.23700 39.68000
N  0.65100 -1.19200 44.00000
C  0.55000 -0.05600 43.14800
C  -0.77500 0.20100 42.90800
C  -1.57300 -0.81300 43.48200
C  -0.61700 -1.75300 44.09700
C  -1.21000 1.42300 42.21900
C  -3.12600 -0.93600 43.49500
O  -3.88600 -0.14900 42.89700
C  -3.78600 -2.01200 44.19100
N  1.38400 -3.80800 45.42000
C  0.04100 -3.91800 45.40400
C  -0.39800 -5.35500 45.96900
C  0.97300 -5.93600 46.31000
C  2.01200 -4.93400 45.95700
C  -1.30300 -5.19400 47.21700
C  1.19700 -7.42800 45.83900
C  1.57000 -8.53500 46.84900
N  4.13500 -3.00500 45.18500
C  4.45300 -4.25200 45.91900
C  5.86900 -4.27500 46.15300
C  6.36500 -3.15500 45.48600
C  5.32200 -2.44000 44.90800
C  6.68500 -5.30500 46.94000
C  7.58600 -2.46400 45.25500
O  8.69900 -2.75900 45.58100
C  7.20600 -1.16500 44.33000
C  7.62200 0.00200 44.97300
O  7.45100 0.27100 46.14600
O  8.08600 0.86400 43.99500
C  8.15700 2.34100 44.35400
H  1.39600 1.53200 41.89400
H  -1.79300 -3.48100 44.64000
H  3.69200 -6.08600 46.59800
H  5.77800 1.31500 43.08000
H  3.88300 1.37700 40.82100
H  3.37500 3.42100 41.52000
H  4.92900 3.21500 42.30700
H  3.43400 2.91600 43.28900
H  5.80200 0.03600 40.31700
H  6.60200 -0.95700 41.50400
H  8.38200 0.10800 41.36000
H  7.72500 1.74200 41.69300
H  -0.57300 1.65600 41.36600
H  -1.36800 2.24000 42.92200
H  -2.17500 1.09600 41.83300
H  -3.71700 -2.91000 43.57600
H  -4.82000 -1.67100 44.22600
H  -3.40100 -2.08400 45.20800
H  -0.88500 -5.83400 45.12000
H  1.01600 -5.90800 47.39900
H  -1.26800 -4.18500 47.62600
H  -1.07200 -5.89100 48.02200
H  -2.30100 -5.32700 46.80100
H  1.90300 -7.33200 45.01400
H  0.25200 -7.73300 45.39000
H  0.82000 -9.32600 46.86000
H  1.82800 -8.03300 47.78200
H  2.51200 -8.97500 46.52200
H  7.44700 -4.80400 47.53700
H  7.15900 -6.00800 46.25400
H  6.00200 -5.81300 47.62000
H  7.71900 -1.31600 43.38000
H  7.19100 2.81500 44.17800
H  8.84000 2.81800 43.65100
H  8.62600 2.60200 45.30300
Mg 6.30500 53.93600 40.53200
C  5.55700 50.57700 39.93000
C  9.64500 53.07100 39.62500
C  7.31400 57.09900 40.60700
C  3.12400 54.70200 41.24700
N  7.38900 52.07800 39.70000
C  6.83100 50.85400 39.51500
C  7.89900 49.82900 39.10700
C  9.23300 50.56400 39.43700
C  8.73100 52.05300 39.59300
C  9.86000 50.21400 40.80700
C  7.75700 49.29500 37.66400
C  7.48500 50.28400 36.57100
H  6.43500 49.88700 35.45900
N  8.25000 54.95300 40.13400
C  9.45100 54.42200 39.72500
C  10.47400 55.52200 39.66400
C  9.79800 56.70100 40.00700
C  8.36500 56.28300 40.36800
C  11.95000 55.43800 39.20700
C  10.39100 58.13200 39.96000
O  11.50100 58.28000 39.50800
C  9.75500 59.28500 40.47500
N  5.25700 55.67900 40.77400
C  5.86500 56.89400 40.73800
C  4.98100 58.11800 40.96700
C  3.64500 57.28800 41.29900
C  3.97100 55.82600 41.05500
C  5.40800 59.05300 42.16000
C  2.40500 57.72100 40.47900
C  2.15300 57.23400 39.02400
N  4.63000 52.93400 40.61000
C  3.37000 53.30800 40.97300
C  2.51100 52.14900 41.16400
C  3.37300 51.06800 40.77500
C  4.61900 51.59600 40.42300
C  1.17800 52.07700 41.80600
C  3.42800 49.62100 40.64700
O  2.55300 48.82100 40.89300
C  4.83000 49.26000 40.10800
C  4.65600 48.54900 38.84600
O  4.13100 49.02900 37.86000
O  4.96500 47.19000 38.88900
C  4.25700 46.23400 38.04900
H  10.67000 52.78500 39.37900
H  7.57600 58.15900 40.57800
H  2.10500 54.96700 41.53600
H  7.72400 48.90700 39.66200
H  9.94800 50.46600 38.62100
H  9.28200 49.32300 41.05400
H  9.72300 51.01500 41.53300
H  10.87100 49.80800 40.80800
H  7.16200 48.38200 37.63500
H  8.72100 48.86500 37.39400
H  8.42700 50.38100 36.03200
H  7.19600 51.28400 36.89500
H  12.61300 55.88500 39.94800
H  11.95300 55.77800 38.17100
H  12.30000 54.40600 39.21600
H  10.54700 59.98400 40.74500
H  9.25400 59.15200 41.43300
H  9.06400 59.69000 39.73500
H  4.80400 58.69100 40.05600
H  3.38100 57.21400 42.35400
H  4.58600 59.19800 42.86200
H  5.62700 59.99100 41.65100
H  6.23700 58.59500 42.70000
H  2.35600 58.81000 40.50300
H  1.48700 57.46100 41.00500
H  2.43300 57.89000 38.20000
H  1.09500 56.99700 39.13500
H  2.69000 56.30300 38.84100
H  0.64500 53.02600 41.86700
H  1.18100 51.64500 42.80600
H  0.63200 51.46400 41.08900
H  5.30400 48.54800 40.78400
H  4.25300 45.24300 38.50400
H  4.72600 46.22000 37.06600
H  3.21200 46.51600 37.92000

