158

Mg 2.17100 -1.43800 43.30300
C  5.52100 -1.20200 43.34900
C  1.91300 1.35300 41.49600
C  -1.13000 -2.22600 42.62400
C  2.56100 -4.79700 44.38000
N  3.51700 -0.06900 42.63900
C  4.87300 -0.13200 42.74900
C  5.64500 1.02400 42.06800
C  4.40700 1.84400 41.55100
C  3.20300 0.98100 41.92600
C  4.36100 3.33900 42.05600
C  6.56700 0.63800 40.80600
C  7.03400 1.92500 40.05600
H  6.49000 2.26900 38.66200
N  0.63300 -0.45500 42.29100
C  0.65200 0.71100 41.63200
C  -0.66900 1.16300 41.32000
C  -1.55700 0.16700 41.61400
C  -0.67000 -0.87800 42.23700
C  -1.14000 2.44300 40.63400
C  -3.05500 0.21800 41.51900
O  -3.56900 1.17600 40.94700
C  -4.03000 -0.96900 41.95600
N  0.95800 -3.31800 43.33500
C  -0.43800 -3.27300 43.17700
C  -1.10300 -4.62300 43.54600
C  0.11900 -5.45100 44.01100
C  1.31300 -4.48300 43.84200
C  -2.23700 -4.46800 44.54600
C  0.35500 -6.73800 43.11900
C  -0.78200 -7.86900 42.99300
N  3.68900 -2.66100 44.06400
C  3.69400 -3.98700 44.47100
C  5.04600 -4.43900 44.74900
C  5.77900 -3.30700 44.46100
C  4.91000 -2.31200 43.93500
C  5.49000 -5.77300 45.12400
C  7.09900 -2.82300 44.37000
O  8.19500 -3.34300 44.63800
C  6.98400 -1.42300 43.58800
C  7.43700 -0.34200 44.46200
O  6.93100 0.04400 45.50200
O  8.47000 0.26100 43.80000
C  8.88300 1.57700 44.29500
H  1.91000 2.31000 40.97000
H  -2.19800 -2.41800 42.50300
H  2.56100 -5.81900 44.76400
H  6.24000 1.46400 42.86900
H  4.31500 1.94800 40.47000
H  3.42600 3.50600 42.59200
H  4.41800 3.97600 41.17300
H  5.26200 3.43800 42.66000
H  5.86600 0.09900 40.16800
H  7.43200 0.03700 41.08300
H  8.09600 1.79200 39.85000
H  6.88200 2.86800 40.58000
H  -0.22100 2.97300 40.38300
H  -1.77700 3.02600 41.29900
H  -1.60800 2.05900 39.72700
H  -5.08500 -0.74100 42.10700
H  -3.68900 -1.24800 42.95300
H  -3.92500 -1.82200 41.28500
H  -1.37600 -5.05100 42.58100
H  0.16600 -5.70500 45.07000
H  -3.16900 -4.85400 44.13300
H  -2.37600 -3.39400 44.66700
H  -2.10900 -4.90300 45.53800
H  1.27300 -7.22800 43.44300
H  0.41700 -6.20400 42.17100
H  -1.32600 -7.91300 42.04900
H  -1.64000 -7.76800 43.65800
H  -0.38000 -8.81800 43.34700
H  6.01800 -6.16800 44.25600
H  4.60200 -6.33200 45.41800
H  6.14000 -5.53100 45.96400
H  7.67000 -1.57600 42.75500
H  8.06900 2.30300 44.31500
H  9.55600 2.05500 43.58300
H  9.34300 1.54900 45.28300
Mg 54.14100 25.08800 44.76600
C  51.41500 27.17800 43.80300
C  52.22600 22.52600 43.72200
C  57.00900 23.31200 44.78000
C  55.99300 27.97000 45.48800
N  52.09000 24.95400 43.64100
C  51.19800 25.83800 43.39300
C  50.04400 25.29100 42.57400
C  50.01100 23.81100 43.15300
C  51.56000 23.73500 43.52900
C  48.95400 23.53800 44.29200
C  50.39100 25.38000 41.10600
C  49.13900 25.54000 40.18600
H  48.99300 24.72000 38.94700
N  54.50200 23.08000 44.36100
C  53.57200 22.21900 43.94700
C  54.17800 20.90700 43.84600
C  55.62800 21.07600 44.21800
C  55.79400 22.54000 44.48400
C  53.39400 19.70700 43.51000
C  56.66800 19.88200 44.41700
O  56.22300 18.74300 44.37200
C  58.02200 20.14800 44.93600
N  56.21600 25.54700 45.10600
C  57.21800 24.65500 45.09400
C  58.57300 25.27300 45.45100
C  58.19800 26.71300 45.68500
C  56.69100 26.76900 45.39500
C  59.22800 24.65500 46.79400
C  59.03600 27.56100 44.68700
C  60.54000 27.75000 45.12400
N  53.86200 27.10500 44.76800
C  54.57200 28.16500 45.25900
C  53.79900 29.38200 45.25700
C  52.57700 28.94300 44.68700
C  52.58200 27.62200 44.50600
C  54.27400 30.72200 45.59000
C  51.32800 29.48800 44.35800
O  50.93200 30.65300 44.42100
C  50.50700 28.38300 43.73400
C  50.16900 28.73400 42.30400
O  50.95400 29.10900 41.48600
O  48.82800 28.67000 42.19200
C  48.38000 29.29200 40.90100
H  51.54300 21.68100 43.60700
H  57.86100 22.64400 44.63600
H  56.63700 28.81900 45.72400
H  49.07500 25.72600 42.81700
H  49.94100 23.15600 42.28400
H  48.56700 24.54000 44.47700
H  49.36700 23.20800 45.24600
H  48.17400 22.88500 43.90200
H  50.86600 24.44100 40.82100
H  51.09900 26.19400 40.95100
H  49.10600 26.59700 39.92500
H  48.22600 25.36100 40.75500
H  54.10900 19.01200 43.07000
H  52.69900 19.90900 42.69400
H  52.82400 19.30300 44.34600
H  58.01300 20.58700 45.93400
H  58.60900 20.66600 44.17600
H  58.40300 19.15500 45.17100
H  59.39600 25.24100 44.73600
H  58.33600 26.97900 46.73300
H  58.83100 23.67000 47.04100
H  59.21500 25.27500 47.69000
H  60.29300 24.44400 46.69300
H  58.67000 28.58700 44.66800
H  58.96900 27.18100 43.66800
H  60.67100 27.51500 46.18000
H  60.84900 28.78300 44.96200
H  61.16000 27.09300 44.51400
H  53.55500 31.33400 46.13300
H  54.53100 31.16200 44.62600
H  55.19100 30.61100 46.17000
H  49.61700 28.21500 44.34000
H  48.86400 30.26200 40.78700
H  47.30500 29.47300 40.89800
H  48.68300 28.72800 40.01900

