158

Mg 53.82900 24.51200 45.07500
C  51.14200 26.33200 43.94100
C  52.52000 21.64000 43.78000
C  56.71600 22.91600 45.57300
C  55.08000 27.31700 46.74100
N  52.14400 24.09400 43.82500
C  51.05400 24.95900 43.58300
C  50.06800 24.29500 42.68000
C  50.27700 22.81400 43.17200
C  51.74100 22.82600 43.65200
C  49.25300 22.42300 44.32700
C  50.43000 24.70000 41.29900
C  49.32000 24.98000 40.32300
H  49.76000 25.53100 38.96700
N  54.54200 22.55600 44.56700
C  53.86200 21.50100 44.08300
C  54.66000 20.36200 43.83900
C  55.94500 20.72400 44.39900
C  55.77000 22.15700 44.85400
C  54.15900 19.06700 43.26200
C  57.16800 19.81300 44.45700
O  57.01400 18.65100 44.04600
C  58.47600 20.18400 45.12900
N  55.75100 25.06800 45.96900
C  56.68900 24.19000 46.13100
C  57.91800 24.83700 46.63900
C  57.39400 26.26900 47.16100
C  55.98900 26.25600 46.62600
C  58.68200 24.13100 47.70400
C  58.19600 27.50600 46.62900
C  58.26900 28.75500 47.55300
N  53.33900 26.49700 45.25100
C  53.78900 27.49800 46.08200
C  52.80600 28.62600 46.11600
C  51.79500 28.22500 45.19300
C  52.18600 26.96400 44.71400
C  52.88400 29.85900 46.91200
C  50.57300 28.65600 44.67900
O  49.95100 29.77800 44.73600
C  50.03600 27.41600 43.83800
C  49.69100 27.86000 42.45200
O  50.49200 28.16600 41.58200
O  48.35000 27.78100 42.22600
C  47.73600 28.34400 41.07000
H  51.94400 20.78900 43.41100
H  57.65700 22.36800 45.48900
H  55.46000 28.14400 47.34500
H  49.07500 24.66300 42.94000
H  50.13500 22.24800 42.25200
H  48.70300 21.50200 44.13100
H  48.55100 23.21900 44.57200
H  49.75900 22.26400 45.27900
H  51.16200 23.98900 40.91500
H  50.96100 25.64900 41.37200
H  48.70300 25.71800 40.83500
H  48.78500 24.05200 40.12300
H  53.07500 19.08800 43.14300
H  54.27000 18.17300 43.87500
H  54.61100 18.81500 42.30300
H  58.48200 20.37000 46.20300
H  58.90500 21.02700 44.58800
H  59.17600 19.35900 44.99700
H  58.58500 24.93400 45.78300
H  57.44200 26.37200 48.24500
H  59.04900 23.17300 47.33700
H  57.99600 23.99000 48.53900
H  59.49500 24.82000 47.93300
H  57.73200 27.81800 45.69300
H  59.22300 27.15300 46.54200
H  57.79700 29.61500 47.07900
H  59.28400 29.14800 47.49000
H  57.93600 28.53200 48.56700
H  53.53600 29.74100 47.77700
H  51.89400 30.05200 47.32500
H  53.21300 30.73600 46.35400
H  49.15200 27.10000 44.39100
H  48.41700 28.34100 40.21900
H  47.36600 29.32100 41.38100
H  46.89600 27.70800 40.79100
Mg 6.48900 53.22800 42.28400
C  6.37100 49.71800 42.07400
C  9.46600 53.11800 40.71500
C  6.09800 56.47100 41.70200
C  3.09500 53.05100 43.24000
N  7.64300 51.57700 41.30500
C  7.44800 50.21700 41.37900
C  8.59900 49.40500 40.65800
C  9.61800 50.58800 40.55300
C  8.86800 51.84300 40.84000
C  10.91800 50.31100 41.44700
C  8.27600 48.77000 39.25500
C  7.21300 49.45200 38.28500
H  7.62900 49.73800 36.81300
N  7.58800 54.64800 41.38500
C  8.88400 54.39800 40.98900
C  9.52200 55.67500 40.70200
C  8.55700 56.68700 40.94300
C  7.31400 55.96600 41.31500
C  10.98500 55.79800 40.37200
C  8.82900 58.15600 41.02600
O  9.94900 58.55200 40.75300
C  7.83300 59.09700 41.45700
N  4.83100 54.57000 42.56200
C  4.98500 55.90100 42.32100
C  3.64100 56.71900 42.62100
C  2.65800 55.53900 42.92700
C  3.58000 54.29500 43.01400
C  3.80600 57.65500 43.84800
C  1.67700 55.25300 41.76100
C  0.77400 56.38000 41.35400
N  5.05100 51.80500 42.80800
C  3.77400 51.88000 43.24000
C  3.18200 50.58500 43.48100
C  4.18400 49.70400 43.12900
C  5.32400 50.45200 42.70000
C  1.75500 50.14600 43.91800
C  4.49400 48.30800 43.09800
O  3.95900 47.30500 43.51800
C  5.94000 48.22900 42.32400
C  5.64800 47.52800 41.05800
O  4.77600 47.91100 40.21000
O  6.34200 46.36300 40.92700
C  5.89300 45.43900 39.85000
H  10.46400 53.11000 40.27200
H  5.91700 57.54200 41.59100
H  2.06600 52.94500 43.58900
H  8.86800 48.65900 41.40600
H  9.86100 50.71900 39.49800
H  11.17900 51.24900 41.93700
H  11.78500 50.24800 40.78900
H  10.85400 49.44800 42.11000
H  7.95300 47.77800 39.57000
H  9.26700 48.78400 38.80200
H  6.97400 50.41600 38.73500
H  6.29500 48.88200 38.42900
H  11.34000 56.81400 40.53900
H  11.14200 55.49200 39.33800
H  11.50500 55.14000 41.06900
H  7.06100 59.20000 40.69500
H  8.33600 60.06200 41.52500
H  7.49300 58.70700 42.41700
H  3.39200 57.32600 41.75100
H  2.19200 55.59600 43.91100
H  3.59300 58.68600 43.56400
H  4.80200 57.71800 44.28700
H  3.15900 57.36800 44.67700
H  1.01600 54.48900 42.17100
H  2.14500 54.78700 40.89300
H  0.68000 57.14600 42.12300
H  -0.25600 56.08900 41.15000
H  1.13700 56.79400 40.41200
H  1.37900 50.80600 44.70000
H  1.81900 49.11500 44.26700
H  1.04900 50.16400 43.08700
H  6.65000 47.61400 42.87600
H  5.96000 46.00600 38.92100
H  4.86800 45.07400 39.92100
H  6.56600 44.58100 39.83300

