158

Mg 46.80000 15.92800 27.67500
C  44.84100 15.78400 30.59600
C  49.12400 17.67000 29.58500
C  48.58200 16.82400 24.88300
C  44.24700 14.77600 25.83600
N  46.89600 16.75300 29.81300
C  46.01100 16.45000 30.82800
C  46.49100 17.02700 32.16300
C  47.85800 17.75600 31.77000
C  47.95400 17.40400 30.27600
C  47.84300 19.32800 32.12600
C  46.77100 15.90000 33.18300
C  46.52500 16.16500 34.63200
H  46.09000 17.51900 35.14200
N  48.60400 16.97800 27.31400
C  49.41300 17.59100 28.20700
C  50.62300 18.07900 27.55400
C  50.58000 17.68100 26.25600
C  49.17200 17.16900 26.07300
C  51.61900 18.99500 28.21000
C  51.67100 17.87900 25.10600
O  51.50100 17.47900 23.99300
C  53.05200 18.62700 25.31000
N  46.37100 15.96900 25.68200
C  47.30900 16.26800 24.72400
C  46.71100 16.06500 23.32700
C  45.47800 15.17900 23.59600
C  45.34700 15.26800 25.10900
C  46.41800 17.46700 22.59700
C  45.64900 13.75100 23.09100
C  46.63500 12.92300 23.91400
N  44.94700 15.24600 28.11700
C  43.99400 14.79000 27.21500
C  42.85800 14.21800 27.91300
C  43.11900 14.61900 29.28800
C  44.38000 15.28800 29.31500
C  41.61200 13.61300 27.33800
C  42.57600 14.64700 30.60500
O  41.50600 14.23300 30.96600
C  43.64800 15.42200 31.48800
C  43.01400 16.58200 32.23200
O  42.35800 17.41300 31.59100
O  42.83900 16.28400 33.59600
C  41.79300 17.13200 34.24800
H  49.80200 18.28900 30.17500
H  49.21500 17.02500 24.01600
H  43.51900 14.31800 25.16300
H  45.81700 17.77400 32.58400
H  48.72300 17.22900 32.17300
H  47.82300 19.88200 31.18800
H  48.77700 19.53300 32.64900
H  47.11100 19.60200 32.88500
H  47.78600 15.51400 33.08900
H  46.08500 15.06900 33.02100
H  47.56300 16.04200 34.94000
H  45.91900 15.41000 35.13400
H  52.66700 18.69500 28.19800
H  51.21800 19.20000 29.20300
H  51.55800 19.95500 27.69800
H  53.06400 19.46700 26.00300
H  53.33200 18.86700 24.28400
H  53.82700 17.93800 25.64600
H  47.51600 15.60400 22.75400
H  44.56700 15.67300 23.25900
H  45.45600 17.83200 22.95400
H  46.26300 17.29300 21.53200
H  47.09400 18.30800 22.75200
H  46.13400 13.71400 22.11600
H  44.63600 13.34800 23.09400
H  47.05500 12.14900 23.27200
H  46.05500 12.29400 24.58900
H  47.32000 13.42300 24.59900
H  41.39300 14.27500 26.50000
H  40.85300 13.78200 28.10200
H  41.85200 12.58400 27.07100
H  43.97800 14.69000 32.22500
H  41.60300 16.73000 35.24300
H  40.88800 17.35400 33.68200
H  42.24600 18.12200 34.19100
Mg -11.74900 15.55500 41.88600
C  -8.54200 14.50800 41.14300
C  -10.85100 18.75900 40.66900
C  -15.02000 16.35500 41.74900
C  -12.65800 12.29100 42.70500
N  -9.90600 16.42100 40.87000
C  -8.69100 15.80600 40.77900
C  -7.62300 16.75100 40.29500
C  -8.33100 18.19600 40.43000
C  -9.80400 17.73800 40.66500
C  -7.76400 19.14100 41.59300
C  -7.12500 16.51000 38.77400
C  -5.66400 16.14600 38.61000
H  -4.96000 16.67200 37.33200
N  -12.79600 17.30600 41.30300
C  -12.21400 18.52000 40.88700
C  -13.27400 19.39400 40.47100
C  -14.52800 18.75100 40.72300
C  -14.16600 17.43200 41.31900
C  -13.04000 20.77500 40.00100
C  -15.86200 19.32500 40.44000
O  -15.94500 20.52500 40.08100
C  -17.26300 18.67300 40.60200
N  -13.61200 14.42700 42.00400
C  -14.77100 15.11100 42.23400
C  -15.99100 14.20200 42.74500
C  -15.12900 12.94300 43.13600
C  -13.71200 13.17800 42.51800
C  -16.92300 14.83400 43.90600
C  -15.79900 11.60500 43.00000
C  -16.52600 11.18300 44.32300
N  -10.83000 13.69900 42.04700
C  -11.31500 12.49800 42.45300
C  -10.30800 11.47800 42.36100
C  -9.18000 12.25600 41.90600
C  -9.56600 13.59700 41.69900
C  -10.32400 10.03100 42.62100
C  -7.75900 12.17700 41.61200
O  -6.99500 11.18000 41.63000
C  -7.33700 13.62800 41.17600
C  -6.36800 14.17100 42.11000
O  -6.53500 14.28600 43.33300
O  -5.13300 14.35800 41.54900
C  -3.93100 14.72200 42.40800
H  -10.54800 19.74300 40.30600
H  -16.08700 16.55200 41.63200
H  -12.90200 11.36500 43.23100
H  -6.76600 16.64500 40.96000
H  -8.23200 18.72900 39.48400
H  -7.10700 18.42300 42.08400
H  -8.54300 19.54400 42.24000
H  -7.20400 20.00700 41.23900
H  -7.37300 17.27100 38.03400
H  -7.71600 15.61900 38.56600
H  -5.73100 15.05900 38.58500
H  -5.07500 16.26000 39.52000
H  -13.42500 20.84100 38.98400
H  -12.04100 21.21200 40.03500
H  -13.61700 21.47900 40.60100
H  -18.13600 19.13200 40.13900
H  -17.42800 18.62300 41.67800
H  -17.23100 17.66100 40.19900
H  -16.53200 13.84800 41.86800
H  -14.89000 13.05900 44.19300
H  -17.93400 14.68300 43.52500
H  -16.79100 15.91400 43.96100
H  -16.75500 14.29800 44.84000
H  -15.11100 10.83100 42.65900
H  -16.51000 11.54800 42.17600
H  -17.57600 11.24500 44.03800
H  -16.33300 11.72800 45.24700
H  -16.37500 10.11700 44.49500
H  -9.32900 9.62600 42.80500
H  -10.79800 9.49600 41.79800
H  -10.85600 9.84100 43.55300
H  -6.90100 13.59300 40.17800
H  -3.01700 14.23300 42.07100
H  -4.06600 14.54300 43.47400
H  -3.76700 15.79500 42.31500

