158

Mg 47.47100 16.76100 28.43700
C  45.64800 16.28300 31.39300
C  49.55800 18.89700 29.97300
C  48.95600 17.27900 25.34500
C  44.66600 15.30500 26.68000
N  47.57900 17.53600 30.49200
C  46.80600 17.11500 31.55100
C  47.39000 17.65600 32.89800
C  48.58000 18.65000 32.33200
C  48.64700 18.30300 30.85200
C  48.42300 20.16500 32.48800
C  47.99000 16.45900 33.73600
C  48.33200 16.89700 35.19800
H  48.19500 18.40100 35.56100
N  49.06500 17.79400 27.81000
C  49.86300 18.61400 28.57800
C  50.99100 19.05900 27.84700
C  50.95600 18.37900 26.61500
C  49.64100 17.70700 26.51900
C  52.08000 20.03800 28.45100
C  51.97600 18.41300 25.63500
O  51.90500 17.85400 24.50000
C  53.29900 19.10400 25.86100
N  46.88600 16.37800 26.38200
C  47.66400 16.79600 25.26300
C  47.00200 16.48200 23.92700
C  45.79100 15.70500 24.41300
C  45.67700 15.81000 25.93700
C  46.66900 17.72700 23.08400
C  45.68000 14.21800 23.87900
C  44.81300 13.96500 22.60700
N  45.55000 15.79600 28.85200
C  44.46700 15.32400 28.06200
C  43.37900 14.94000 28.88400
C  43.79200 15.20700 30.22000
C  45.11300 15.80500 30.15000
C  42.15300 14.28800 28.38100
C  43.41400 15.15600 31.62700
O  42.34300 14.77700 32.12000
C  44.57700 15.79300 32.38000
C  43.98200 16.90200 33.22000
O  43.22800 17.76000 32.81300
O  44.46200 16.92700 34.45200
C  44.02900 18.02600 35.35000
H  50.28900 19.35800 30.64100
H  49.44300 17.48300 24.38900
H  43.84900 14.90100 26.07800
H  46.65200 18.24600 33.44100
H  49.58000 18.41700 32.70000
H  49.24100 20.66400 33.00700
H  47.47600 20.30000 33.01000
H  48.28100 20.69600 31.54700
H  48.94700 16.17700 33.29500
H  47.37800 15.56500 33.85000
H  49.35400 16.55700 35.36800
H  47.72600 16.31800 35.89600
H  52.56000 20.75800 27.78800
H  52.78500 19.37500 28.95300
H  51.67400 20.57100 29.31000
H  54.02900 18.80000 25.11000
H  53.72500 18.70200 26.78100
H  53.23400 20.18900 25.78600
H  47.76300 15.83300 23.49400
H  44.88500 16.19800 24.05800
H  47.10500 18.57600 23.61000
H  45.62700 17.73800 22.76400
H  47.17000 17.65800 22.11800
H  45.22200 13.57400 24.63000
H  46.69500 13.84700 23.73200
H  44.13100 14.78400 22.37600
H  44.26400 13.02600 22.54300
H  45.57000 13.94200 21.82300
H  41.61500 13.89200 29.24300
H  42.45400 13.56200 27.62600
H  41.42800 14.93900 27.89200
H  44.94500 15.01200 33.04600
H  43.70200 18.93300 34.84100
H  44.80900 18.41100 36.00700
H  43.16900 17.73200 35.95200
Mg 49.52900 45.95300 43.20300
C  46.22500 46.82000 42.34400
C  49.04700 43.00000 41.35300
C  52.79000 45.47000 43.41200
C  50.01700 49.35200 44.08700
N  47.78500 45.06900 41.86600
C  46.57900 45.57700 41.77700
C  45.73500 44.71600 40.87300
C  46.63800 43.40400 40.65100
C  47.87300 43.80900 41.33100
C  46.07300 42.10300 41.20100
C  45.17700 45.34700 39.60700
C  43.70200 45.17000 39.24100
H  43.31800 44.90400 37.76800
N  50.73100 44.36800 42.56900
C  50.34300 43.19600 41.93000
C  51.55100 42.34500 41.69900
C  52.60300 42.99600 42.38300
C  52.10000 44.36100 42.79200
C  51.47500 41.05100 40.90600
C  53.99000 42.41800 42.74700
O  54.15700 41.22100 42.49800
C  55.01300 43.19000 43.27700
N  51.18900 47.30700 43.65200
C  52.41000 46.76800 43.85500
C  53.33400 47.92600 44.41200
C  52.33200 49.12300 44.56300
C  51.10900 48.56700 43.96400
C  54.08300 47.61600 45.73000
C  52.81300 50.51200 43.96200
C  53.36100 51.63200 44.92200
N  48.34800 47.70900 43.29500
C  48.65200 48.96500 43.75100
C  47.45900 49.75600 43.84000
C  46.47400 48.96300 43.25800
C  47.07300 47.75400 42.89700
C  47.38300 51.02600 44.50700
C  45.02600 48.86800 42.92100
O  44.11600 49.69200 43.02500
C  44.82800 47.47600 42.20800
C  43.83100 46.71900 42.96700
O  43.82200 46.56600 44.17900
O  42.93300 46.09600 42.14800
C  42.07400 45.11800 42.80200
H  48.88800 41.96500 41.04400
H  53.87600 45.35800 43.38200
H  50.17900 50.36500 44.46000
H  44.91300 44.33700 41.48000
H  46.84300 43.30600 39.58500
H  44.98500 42.10000 41.26000
H  46.43000 41.92900 42.21600
H  46.35500 41.29500 40.52600
H  45.82600 45.13900 38.75600
H  45.34000 46.42000 39.70100
H  43.07400 46.00900 39.54000
H  43.37600 44.26100 39.74800
H  52.16000 40.28100 41.26000
H  51.55800 41.33100 39.85600
H  50.47600 40.64300 41.05600
H  54.86200 43.65400 44.25100
H  55.32400 43.97700 42.59100
H  55.89300 42.55100 43.35200
H  54.08600 48.26500 43.70000
H  52.13400 49.32700 45.61500
H  53.88900 46.54600 45.81100
H  53.60100 48.13800 46.55600
H  55.14700 47.84800 45.68300
H  52.04800 50.97600 43.33900
H  53.57900 50.28800 43.22000
H  53.19400 51.22100 45.91700
H  52.74500 52.51800 44.76500
H  54.38900 51.90800 44.68600
H  48.06400 51.78400 44.11800
H  47.62200 50.96300 45.56900
H  46.37100 51.42400 44.42700
H  44.53000 47.67300 41.17800
H  41.24700 45.66400 43.25700
H  42.61900 44.45500 43.47300
H  41.50500 44.60800 42.02400

