158

Mg 25.21600 -8.58500 48.06600
C  27.46000 -6.21700 46.84100
C  23.05700 -7.66500 45.64700
C  23.10300 -10.99500 49.23700
C  27.68600 -9.73900 50.38600
N  25.31800 -7.23200 46.38900
C  26.27700 -6.31600 46.05900
C  25.88900 -5.34100 44.95300
C  24.40400 -5.83700 44.60400
C  24.25100 -7.00500 45.58100
C  23.35100 -4.69800 44.86000
C  26.80900 -5.37500 43.72600
C  27.46600 -3.97300 43.28600
H  27.30200 -3.60600 41.84800
N  23.36600 -9.35300 47.41100
C  22.66000 -8.80700 46.35300
C  21.49600 -9.62200 46.22000
C  21.39200 -10.49700 47.33500
C  22.64700 -10.35100 48.02900
C  20.58400 -9.43100 45.11600
C  20.17600 -11.33300 47.67700
O  19.14800 -11.41900 46.99700
C  20.16900 -12.11600 48.95500
N  25.39300 -10.24700 49.45700
C  24.29100 -10.94400 49.94200
C  24.61300 -11.81100 51.14000
C  26.14500 -11.64600 51.27600
C  26.47700 -10.47800 50.30900
C  23.74600 -11.44800 52.41400
C  27.08300 -12.88200 50.92400
C  28.08300 -13.45400 51.98900
N  27.08700 -8.06000 48.56900
C  27.98100 -8.66400 49.51200
C  29.23200 -7.90100 49.38900
C  29.03700 -6.89300 48.42300
C  27.73400 -7.08100 47.94400
C  30.52400 -8.30500 50.21600
C  29.58700 -5.71800 47.75300
O  30.57300 -5.14000 48.00400
C  28.55600 -5.19200 46.80300
C  28.08500 -3.92000 47.43400
O  27.37800 -3.84500 48.43000
O  28.51400 -2.97500 46.64100
C  28.14700 -1.60900 47.00300
H  22.23700 -7.42600 44.96700
H  22.38900 -11.65800 49.73100
H  28.44300 -10.24400 50.99000
H  25.87500 -4.35800 45.42400
H  24.33500 -6.21200 43.58200
H  23.84800 -3.76000 44.61400
H  22.89700 -4.81000 45.84400
H  22.52700 -4.84200 44.16100
H  26.34100 -5.71400 42.80200
H  27.54300 -6.13900 43.98600
H  28.54600 -3.95200 43.43300
H  27.15000 -3.15300 43.93200
H  19.79500 -10.17100 44.98500
H  21.08800 -9.44000 44.15000
H  19.96600 -8.54600 45.26600
H  20.96400 -12.85600 48.86400
H  19.19500 -12.59900 49.03400
H  20.30900 -11.39100 49.75600
H  24.40400 -12.82100 50.78700
H  26.40100 -11.21900 52.24500
H  24.32100 -10.75100 53.02400
H  23.58600 -12.41300 52.89500
H  22.82600 -10.98100 52.06300
H  27.61300 -12.55300 50.03000
H  26.44300 -13.73900 50.71500
H  27.87700 -14.44900 52.38400
H  28.35200 -12.75600 52.78300
H  28.99700 -13.56400 51.40500
H  30.37500 -8.21300 51.29200
H  31.41000 -7.71000 49.99600
H  30.84600 -9.32200 49.99100
H  28.93800 -5.12700 45.78400
H  28.80300 -1.17100 47.75600
H  27.13000 -1.42100 47.34800
H  28.21600 -0.96300 46.12800
Mg 25.92600 -0.74300 29.72700
C  27.55600 -1.24600 32.68300
C  23.00500 -0.37400 31.47100
C  24.40100 -0.45300 26.85500
C  28.94500 -1.58200 27.97800
N  25.30900 -0.81000 31.83300
C  26.19800 -0.78900 32.91900
C  25.59700 -0.38600 34.24600
C  24.05700 -0.52000 33.83100
C  24.12700 -0.59900 32.28100
C  23.38000 -1.86600 34.30800
C  26.20000 1.02600 34.65000
C  27.08900 1.03500 35.89500
H  26.59200 1.90500 37.04600
N  23.93800 -0.51000 29.28000
C  22.85800 -0.34800 30.07100
C  21.63300 -0.12800 29.29300
C  21.99200 -0.27400 27.95000
C  23.48200 -0.39600 27.98300
C  20.22500 0.33500 29.86500
C  21.16600 -0.23300 26.67200
O  21.56100 -0.62900 25.56900
C  19.74000 0.31200 26.78600
N  26.56800 -1.19600 27.60400
C  25.76600 -0.68600 26.68300
C  26.41700 -0.52100 25.34900
C  27.94700 -0.81900 25.70700
C  27.84700 -1.19800 27.20200
C  25.85200 -1.38000 24.12700
C  28.99900 0.25900 25.32200
C  30.09100 -0.12200 24.33000
N  27.84600 -1.38900 30.16800
C  28.90800 -1.71400 29.39500
C  30.05700 -1.92800 30.21100
C  29.59300 -1.80500 31.52500
C  28.23500 -1.48500 31.44100
C  31.36900 -2.33500 29.79500
C  29.94700 -1.77800 32.97700
O  31.07100 -1.93900 33.53900
C  28.60600 -1.40800 33.72100
C  28.45300 -2.48500 34.71400
O  27.90000 -3.55500 34.48000
O  29.24200 -2.25000 35.86200
C  29.01000 -3.25100 36.84600
H  22.03600 -0.32900 31.97200
H  23.75100 -0.14900 26.03100
H  29.94500 -1.68300 27.55100
H  25.96400 -1.10800 34.97500
H  23.42600 0.28400 34.21000
H  23.01600 -1.74900 35.32900
H  24.16600 -2.61900 34.25800
H  22.46400 -2.13500 33.78200
H  25.39900 1.76000 34.73700
H  26.85500 1.41900 33.87300
H  28.04300 1.36400 35.48400
H  27.27900 0.03600 36.28900
H  20.25900 0.71000 30.88800
H  19.42700 -0.38100 29.66800
H  19.97200 1.19700 29.24800
H  19.87200 1.37600 26.98200
H  19.29300 -0.15800 27.66200
H  19.12900 0.17300 25.89400
H  26.27200 0.55400 25.24400
H  28.20100 -1.72000 25.14900
H  24.94800 -1.90100 24.44100
H  26.57400 -2.15100 23.85800
H  25.68100 -0.73900 23.26200
H  29.48300 0.60600 26.23500
H  28.42200 1.01000 24.78200
H  31.02200 0.27000 24.74000
H  30.00500 0.41900 23.38800
H  30.14100 -1.19600 24.15600
H  32.05400 -2.40900 30.64000
H  31.71000 -1.55000 29.11900
H  31.34600 -3.29800 29.28600
H  28.71200 -0.39800 34.11600
H  29.56600 -4.15300 36.58500
H  27.96400 -3.47600 37.05100
H  29.52300 -3.05900 37.78800

