158

Mg 1.53800 -1.60500 44.35500
C  4.77600 -0.72400 43.40100
C  0.36000 1.27800 42.60000
C  -1.69600 -2.79600 44.37000
C  2.73300 -4.68300 45.52200
N  2.47200 0.12000 43.18600
C  3.80700 0.20900 42.93100
C  4.05600 1.51400 42.11300
C  2.70800 2.31700 42.18200
C  1.79700 1.16800 42.69000
C  2.65400 3.49600 43.19600
C  4.38600 1.15500 40.63300
C  5.53200 2.04000 40.10200
H  5.24400 2.64000 38.72700
N  -0.51400 -0.79300 43.70200
C  -0.71400 0.34800 42.98700
C  -2.09100 0.38500 42.61800
C  -2.78700 -0.73600 43.10400
C  -1.65400 -1.52100 43.76100
C  -2.62600 1.53400 41.77900
C  -4.28800 -1.10800 43.10900
O  -5.02200 -0.40400 42.42700
C  -4.87000 -2.13300 44.00100
N  0.59600 -3.45900 44.91100
C  -0.69700 -3.74000 44.83800
C  -0.92700 -5.15500 45.47600
C  0.45200 -5.82300 45.62600
C  1.35700 -4.56800 45.26400
C  -1.89300 -5.13600 46.75600
C  0.68100 -7.03700 44.73000
C  1.60600 -8.11600 45.36200
N  3.39100 -2.50300 44.64600
C  3.75400 -3.76500 45.12500
C  5.18400 -3.93100 44.99500
C  5.58600 -2.78500 44.32200
C  4.48300 -1.99100 44.11900
C  5.88800 -5.11600 45.40000
C  6.80500 -2.13200 43.80500
O  7.96900 -2.46200 43.74500
C  6.28000 -0.67200 43.27900
C  6.87700 0.47100 43.98700
O  6.75500 0.73900 45.17200
O  7.57900 1.23800 43.04500
C  8.40700 2.30200 43.65500
H  -0.03200 2.23600 42.25200
H  -2.65900 -3.30300 44.45900
H  2.96800 -5.69900 45.84600
H  4.82900 2.00900 42.70200
H  2.38500 2.69600 41.21200
H  2.37200 4.35800 42.59200
H  3.70800 3.57500 43.46300
H  2.04700 3.42500 44.09800
H  3.48400 1.19200 40.02300
H  4.65300 0.10900 40.47900
H  6.47700 1.49700 40.11400
H  5.72100 2.91900 40.71800
H  -2.89900 1.20700 40.77600
H  -2.01000 2.43300 41.80900
H  -3.54100 1.95300 42.19900
H  -5.90100 -1.85100 44.21800
H  -4.46800 -2.00000 45.00500
H  -4.90400 -3.16300 43.64600
H  -1.43100 -5.59000 44.61400
H  0.51000 -6.10000 46.67800
H  -2.86400 -5.57700 46.53000
H  -2.00800 -4.14400 47.19200
H  -1.39700 -5.65400 47.57700
H  1.25000 -6.81200 43.82700
H  -0.30200 -7.48000 44.57100
H  1.97300 -8.72400 44.53500
H  1.02500 -8.92600 45.80400
H  2.43800 -7.69200 45.92500
H  5.85800 -5.91400 44.65800
H  5.43300 -5.50400 46.31200
H  6.90100 -4.76700 45.60200
H  6.57300 -0.61100 42.23100
H  9.26800 2.55300 43.03600
H  8.75200 1.90600 44.61000
H  7.83400 3.20000 43.88600
Mg 7.18800 2.72800 27.65500
C  8.75100 1.40400 30.50800
C  5.05000 4.52400 29.69900
C  5.45600 3.78300 24.89900
C  8.92400 0.39900 25.67900
N  6.87200 2.84000 29.84700
C  7.71000 2.29800 30.85100
C  7.29000 2.77500 32.28600
C  6.05700 3.67700 31.92600
C  5.99900 3.70000 30.33800
C  4.69100 3.41200 32.59200
C  8.50800 3.37700 33.09000
C  8.22300 4.39300 34.21900
H  8.94300 4.04600 35.54300
N  5.58200 4.15300 27.31800
C  4.92200 4.79600 28.30700
C  3.98200 5.71300 27.68500
C  4.13900 5.54700 26.25900
C  5.11900 4.51000 26.06400
C  3.10900 6.65900 28.47800
C  3.55800 6.33600 25.17900
O  3.84400 6.07100 24.05500
C  2.46800 7.49800 25.44600
N  7.00200 2.01000 25.62700
C  6.24700 2.57000 24.73700
C  6.42300 2.02800 23.30400
C  7.74300 1.15100 23.55300
C  7.89400 1.16900 25.04300
C  5.22500 1.15900 22.69800
C  9.00100 1.78100 22.89400
C  9.81900 2.74900 23.72900
N  8.56300 1.20400 27.96500
C  9.22000 0.38700 27.06900
C  10.10400 -0.46800 27.75800
C  10.01000 -0.04500 29.13600
C  9.04100 0.92200 29.15600
C  11.01900 -1.50400 27.10700
C  10.62200 -0.19300 30.42800
O  11.58300 -0.88200 30.79300
C  9.72200 0.66700 31.45400
C  9.11000 -0.46700 32.27500
O  8.14000 -1.10100 31.93300
O  9.81000 -0.51000 33.43000
C  9.26500 -1.38600 34.44100
H  4.47800 5.06600 30.45400
H  5.11900 4.22900 23.96000
H  9.65900 -0.14500 25.08300
H  6.98700 1.90500 32.86700
H  6.33400 4.67000 32.28000
H  4.21100 4.34900 32.87300
H  4.74600 2.72400 33.43600
H  3.91500 3.07700 31.90500
H  9.25000 3.83400 32.43600
H  9.02600 2.59700 33.64900
H  7.14100 4.38900 34.35000
H  8.39300 5.41700 33.88700
H  3.38800 7.71300 28.46100
H  3.07400 6.41100 29.53900
H  2.08200 6.55800 28.12700
H  1.51000 7.04300 25.69900
H  2.38300 7.99700 24.48100
H  2.84000 8.23300 26.15900
H  6.61000 2.87200 22.63900
H  7.54000 0.11800 23.27300
H  4.30600 1.44700 23.20900
H  5.32400 0.07900 22.80600
H  5.19800 1.27900 21.61500
H  8.54500 2.38500 22.11000
H  9.55200 0.95400 22.44500
H  9.24800 3.07700 24.59800
H  9.91000 3.70500 23.21400
H  10.86100 2.45300 23.84900
H  10.70200 -1.79300 26.10400
H  10.90300 -2.41400 27.69500
H  12.07800 -1.24700 27.13800
H  10.35600 1.36100 32.00500
H  8.94700 -2.34900 34.04100
H  8.42400 -0.96200 34.98900
H  10.13300 -1.58200 35.07000

