158

Mg -9.27100 18.55400 42.94200
C  -5.82200 18.08000 43.14200
C  -8.75900 21.83500 42.28700
C  -12.56200 18.83500 42.29100
C  -9.71400 14.99800 43.00200
N  -7.44200 19.68300 42.43900
C  -6.15700 19.36700 42.77200
C  -5.18500 20.63200 42.51700
C  -6.24200 21.80700 42.49400
C  -7.57500 21.04600 42.35700
C  -6.20200 22.68700 43.82100
C  -4.25500 20.71400 41.19100
C  -4.72500 20.08100 39.79200
H  -4.74100 21.04000 38.61200
N  -10.52200 20.16300 42.39900
C  -10.09500 21.44800 42.23100
C  -11.18900 22.26000 41.94700
C  -12.34400 21.35600 41.81600
C  -11.85000 20.03100 42.19100
C  -11.13900 23.68700 41.68600
C  -13.73900 21.75200 41.40700
O  -14.06800 22.91400 41.26500
C  -14.88400 20.84100 41.33300
N  -10.98400 17.08800 42.64100
C  -12.23400 17.47000 42.48300
C  -13.22600 16.22000 42.65300
C  -12.25500 14.99600 42.83100
C  -10.94200 15.72300 42.86000
C  -14.40300 16.27100 43.68300
C  -12.35400 13.87900 41.75700
C  -13.38000 12.75500 42.06200
N  -8.03900 16.88300 43.02300
C  -8.34900 15.52500 43.15900
C  -7.10200 14.80100 43.40200
C  -6.06000 15.77900 43.41200
C  -6.68600 17.00900 43.12900
C  -6.94500 13.28300 43.50500
C  -4.59900 15.97300 43.47300
O  -3.68500 15.15200 43.56900
C  -4.37500 17.50400 43.32300
C  -3.75800 17.97900 44.62700
O  -2.78300 18.68200 44.69000
O  -4.48000 17.54100 45.66700
C  -3.89300 17.92600 46.94800
H  -8.60400 22.91500 42.34200
H  -13.64900 18.91900 42.23400
H  -9.73100 13.90700 43.05300
H  -4.52300 20.61500 43.38200
H  -6.11500 22.37000 41.56900
H  -7.07700 22.53800 44.45400
H  -6.28400 23.74700 43.58200
H  -5.31700 22.47000 44.41900
H  -3.24400 20.40800 41.45800
H  -4.22000 21.79200 41.03200
H  -5.76500 19.77400 39.90600
H  -4.08500 19.24100 39.52400
H  -11.05000 23.88700 40.61800
H  -10.27300 24.13400 42.17500
H  -11.97800 24.31200 41.99000
H  -15.10800 20.48900 42.34000
H  -14.57300 19.94900 40.78800
H  -15.75000 21.27200 40.83100
H  -13.73700 16.12800 41.69500
H  -12.38700 14.57000 43.82600
H  -14.33900 17.22900 44.19900
H  -14.47100 15.47400 44.42400
H  -15.33700 16.23000 43.12300
H  -11.41200 13.40000 41.48800
H  -12.68100 14.38300 40.84800
H  -13.68200 12.71800 43.10900
H  -12.87300 11.81900 41.82900
H  -14.20200 12.93800 41.37000
H  -6.03200 13.02000 44.04000
H  -6.80300 12.81900 42.52900
H  -7.83700 12.84900 43.95700
H  -3.64700 17.51500 42.51200
H  -4.63800 17.89200 47.74300
H  -3.50600 18.94500 46.96000
H  -3.14900 17.16200 47.17400
Mg -5.19400 24.46400 27.31600
C  -3.83000 26.48000 29.67100
C  -6.49300 22.50700 29.77300
C  -5.97000 22.17200 24.98400
C  -3.61800 26.27300 24.77000
N  -5.20400 24.57000 29.42500
C  -4.70400 25.53000 30.24000
C  -4.94100 25.26900 31.72800
C  -5.66000 23.91100 31.72300
C  -5.79800 23.65200 30.26000
C  -4.99400 22.78200 32.57700
C  -5.73400 26.43900 32.45500
C  -5.52700 26.52000 33.98000
H  -6.73500 26.56000 34.90500
N  -6.32500 22.74000 27.32200
C  -6.69900 22.07800 28.43900
C  -7.33200 20.85900 28.10100
C  -7.19100 20.69500 26.71500
C  -6.47500 21.89700 26.21200
C  -8.09900 20.08100 29.02200
C  -7.76100 19.60200 25.82900
O  -7.73600 19.69900 24.61600
C  -8.42500 18.39800 26.39600
N  -4.91600 24.30200 25.13400
C  -5.14600 23.23500 24.45700
C  -4.73000 23.31000 22.96800
C  -4.24200 24.82400 22.91000
C  -4.25500 25.20600 24.37400
C  -3.63300 22.17800 22.75300
C  -5.23300 25.75700 22.12100
C  -4.65500 27.09500 21.82500
N  -4.01000 26.01400 27.21500
C  -3.44900 26.63400 26.11100
C  -2.69300 27.78200 26.58900
C  -2.77700 27.77600 27.95600
C  -3.59200 26.66100 28.28900
C  -2.11700 28.73300 25.67000
C  -2.48300 28.45300 29.21800
O  -1.95800 29.56500 29.49900
C  -3.03200 27.52800 30.39700
C  -1.88500 27.10000 31.20500
O  -0.84800 26.59300 30.77500
O  -2.19100 27.35100 32.53000
C  -1.16700 26.78100 33.42700
H  -6.75700 21.85800 30.61100
H  -6.06300 21.36100 24.25800
H  -2.99800 26.76100 24.01400
H  -3.96300 25.25800 32.20900
H  -6.64900 23.95200 32.18100
H  -4.13800 23.05700 33.19300
H  -4.42500 22.06000 31.99200
H  -5.75800 22.35200 33.22600
H  -6.79200 26.40500 32.19600
H  -5.38800 27.39600 32.06400
H  -5.08300 27.50800 34.10500
H  -4.87800 25.73700 34.37200
H  -9.01100 19.82100 28.48500
H  -8.44300 20.61300 29.90900
H  -7.61800 19.25300 29.54300
H  -9.45600 18.59700 26.68900
H  -7.97900 17.99700 27.30700
H  -8.42100 17.63100 25.62200
H  -5.56800 23.08800 22.30700
H  -3.25300 24.95600 22.47200
H  -3.99900 21.31100 22.20300
H  -3.31400 21.92000 23.76300
H  -2.92700 22.65700 22.07500
H  -6.14200 25.85200 22.71400
H  -5.43400 25.16300 21.22900
H  -5.22500 27.86400 22.34600
H  -4.75900 27.28600 20.75700
H  -3.59600 27.14600 22.07800
H  -1.82300 29.68000 26.12200
H  -2.78000 28.99000 24.84400
H  -1.27900 28.16000 25.27200
H  -3.67600 28.19300 30.97300
H  -1.65800 26.75800 34.40000
H  -0.28200 27.40600 33.54700
H  -0.90800 25.78400 33.07000

