158

Mg -2.49400 17.16700 27.40000
C  -3.32500 14.73200 29.96600
C  -3.56000 19.63200 29.37800
C  -2.61400 19.14900 24.68700
C  -2.20600 14.25000 25.12100
N  -3.18800 17.14500 29.50000
C  -3.52100 16.08900 30.36500
C  -3.98000 16.57900 31.72800
C  -4.24200 18.09200 31.39200
C  -3.61900 18.31900 29.97100
C  -5.74900 18.59000 31.39000
C  -2.99500 16.29200 32.88800
C  -3.04400 17.28500 34.10300
H  -2.33100 16.65000 35.30700
N  -2.91800 19.24700 27.09700
C  -3.26600 20.11100 28.09600
C  -3.30100 21.45400 27.52000
C  -3.01600 21.29000 26.17400
C  -2.88500 19.84100 25.92100
C  -3.58000 22.70900 28.36300
C  -2.76000 22.30100 25.19000
O  -2.41900 22.06500 24.02500
C  -2.72800 23.78300 25.57200
N  -2.42200 16.75900 25.27800
C  -2.49100 17.80300 24.38700
C  -2.36400 17.29300 22.92600
C  -1.75500 15.87700 23.08700
C  -2.18300 15.57500 24.55700
C  -3.53400 17.40700 21.98300
C  -0.22100 15.72500 22.77700
C  0.73800 16.59700 23.62600
N  -2.57800 14.99300 27.45700
C  -2.38900 13.96400 26.51700
C  -2.53700 12.69200 27.13300
C  -2.76000 12.94300 28.51100
C  -2.88900 14.36600 28.61300
C  -2.56100 11.40500 26.44300
C  -3.05200 12.27900 29.81300
O  -3.05800 11.13800 30.10200
C  -3.54800 13.43700 30.72700
C  -2.72600 13.31100 31.98800
O  -1.48700 13.56900 32.07400
O  -3.37800 12.86300 33.09500
C  -2.57600 12.64800 34.30100
H  -3.97400 20.43400 29.99200
H  -2.49600 19.64000 23.71800
H  -1.97200 13.42400 24.44500
H  -4.90700 16.05800 31.96600
H  -3.68900 18.73800 32.07400
H  -6.03200 18.75100 30.35000
H  -5.83500 19.52600 31.94200
H  -6.39700 17.86200 31.87800
H  -2.00200 16.17200 32.45400
H  -3.21300 15.31200 33.31200
H  -4.05500 17.50800 34.44400
H  -2.50600 18.19800 33.84600
H  -2.77700 23.44500 28.30900
H  -3.76000 22.51800 29.42100
H  -4.49000 23.16400 27.96900
H  -1.97400 24.09600 26.29400
H  -3.74300 23.93800 25.93900
H  -2.66700 24.31700 24.62400
H  -1.52100 17.82300 22.48300
H  -2.31700 15.13100 22.52500
H  -4.04400 16.46200 21.79000
H  -3.33000 18.01300 21.10000
H  -4.32400 17.98500 22.46300
H  0.02500 15.78100 21.71600
H  -0.05700 14.65700 22.92200
H  1.31900 17.18700 22.91600
H  1.38200 15.90700 24.17100
H  0.25400 17.27500 24.32800
H  -2.06700 11.51600 25.47800
H  -3.59100 11.19000 26.15800
H  -2.06100 10.60900 26.99400
H  -4.56200 13.23700 31.07500
H  -2.94600 11.72100 34.73900
H  -2.72400 13.46700 35.00500
H  -1.53000 12.37700 34.16200
Mg 28.35500 56.43200 40.87800
C  25.76300 54.18000 40.34000
C  30.56300 54.12600 39.60200
C  30.66600 58.92100 40.63600
C  25.74100 58.90900 41.28500
N  28.13300 54.39000 39.99300
C  27.02600 53.64600 39.89300
C  27.27900 52.29200 39.18000
C  28.80100 52.27700 39.19000
C  29.19500 53.71800 39.59800
C  29.38000 51.07900 39.98300
C  26.44400 52.11600 37.91300
C  26.21000 53.42400 37.02600
H  26.77300 53.42600 35.64800
N  30.41500 56.49100 40.41700
C  31.11000 55.45300 39.88500
C  32.50200 55.87200 39.73100
C  32.55000 57.24300 40.16100
C  31.20000 57.62400 40.45000
C  33.65800 54.94500 39.20000
C  33.79800 58.13500 40.18200
O  34.94800 57.72000 39.90200
C  33.83700 59.60800 40.61300
N  28.15100 58.63900 40.53100
C  29.31500 59.40800 40.78300
C  28.90600 60.79600 41.01100
C  27.32200 60.84800 41.16200
C  27.01000 59.40400 40.85600
C  29.70200 61.56700 42.15400
C  26.43100 61.94700 40.50000
C  25.40200 62.68400 41.40100
N  26.22200 56.57800 40.84300
C  25.32600 57.59700 41.10000
C  24.02100 57.07800 41.35800
C  24.13200 55.69800 41.03600
C  25.47500 55.50500 40.69800
C  22.78100 57.75800 41.73100
C  23.45800 54.45000 41.08700
O  22.30800 54.04800 41.29800
C  24.38600 53.45600 40.38200
C  24.48500 52.09400 41.05000
O  23.74000 51.19800 40.71600
O  25.48200 52.08000 42.02900
C  25.53900 50.75800 42.60300
H  31.21200 53.34700 39.19500
H  31.31700 59.79000 40.52000
H  24.99100 59.65000 41.56700
H  26.83000 51.48700 39.76300
H  29.06500 52.21100 38.13500
H  29.01200 50.29200 39.32500
H  29.08600 51.11400 41.03200
H  30.46500 51.03000 39.89400
H  25.56100 51.52200 38.14600
H  26.96900 51.32200 37.38200
H  26.52200 54.34300 37.52200
H  25.13200 53.51400 36.89000
H  33.35800 54.60400 38.20900
H  33.66400 54.06400 39.84200
H  34.60000 55.49300 39.20800
H  33.24300 59.46900 41.51700
H  33.38300 60.19800 39.81800
H  34.84300 59.95500 40.84900
H  29.28200 61.36100 40.15900
H  27.31500 60.83100 42.25200
H  30.16700 60.82900 42.80700
H  28.96500 62.17100 42.68200
H  30.48000 62.16300 41.67700
H  25.92700 61.57300 39.60900
H  27.10300 62.73400 40.15800
H  25.55600 62.39800 42.44200
H  24.40200 62.40800 41.06600
H  25.43600 63.76900 41.30100
H  22.84900 58.68600 42.29900
H  22.21300 57.06600 42.35200
H  22.28200 57.95500 40.78200
H  23.95900 53.28400 39.39400
H  25.98300 50.14400 41.82000
H  24.59200 50.44900 43.04600
H  26.30100 50.75600 43.38300

