158

Mg 17.39600 -1.02300 27.34700
C  16.26800 1.11200 29.85500
C  19.25300 -2.64700 29.88100
C  18.84800 -2.70300 24.99600
C  15.70200 1.06600 24.99800
N  17.63200 -0.85000 29.64200
C  17.11900 0.16200 30.38800
C  17.42800 -0.03500 31.90200
C  18.54500 -1.14100 31.82900
C  18.53700 -1.51800 30.39300
C  19.90900 -0.78000 32.37200
C  16.19300 -0.45500 32.80600
C  16.54000 -0.47400 34.29900
H  17.78600 0.16500 34.86600
N  18.83500 -2.52600 27.40700
C  19.36800 -3.19000 28.53300
C  20.11200 -4.33400 28.10000
C  19.94700 -4.38400 26.67000
C  19.24400 -3.14000 26.28400
C  20.82000 -5.31700 28.97500
C  20.48500 -5.37600 25.59300
O  20.40500 -5.20000 24.38300
C  21.24000 -6.55300 26.14900
N  17.48600 -0.65700 25.35000
C  18.09500 -1.59000 24.57200
C  17.84200 -1.32600 23.04700
C  16.88100 -0.05400 23.08000
C  16.66400 0.19500 24.56600
C  19.03400 -1.24300 22.17600
C  15.66500 -0.41000 22.21100
C  14.94500 0.72600 21.58300
N  16.07300 0.65800 27.39200
C  15.46900 1.32400 26.36500
C  14.70300 2.39200 26.88800
C  14.96700 2.36700 28.23200
C  15.81600 1.27600 28.52300
C  13.75500 3.33200 26.15300
C  14.76500 3.04100 29.49600
O  13.97800 3.95100 29.75400
C  15.43900 2.23200 30.57100
C  16.24600 3.16600 31.42300
O  17.43600 3.35700 31.25000
O  15.56000 3.72800 32.51200
C  16.31200 4.47700 33.45800
H  19.75800 -3.12300 30.72300
H  19.15800 -3.26400 24.11200
H  15.20500 1.71500 24.27400
H  17.87300 0.92100 32.17500
H  18.27800 -2.05200 32.36500
H  19.87600 0.08800 33.02900
H  20.52100 -0.44600 31.53300
H  20.26300 -1.57000 33.03400
H  15.82300 -1.43200 32.49500
H  15.44500 0.31500 32.61400
H  16.45300 -1.52500 34.57600
H  15.74700 -0.01400 34.88800
H  21.85900 -5.13900 28.69700
H  20.46700 -6.31600 28.71800
H  20.59400 -5.01600 29.99800
H  22.07600 -6.24100 26.77500
H  21.62800 -7.20100 25.36300
H  20.47800 -7.11100 26.69300
H  17.33500 -2.23900 22.73500
H  17.43400 0.83500 22.77500
H  18.87400 -0.47700 21.41700
H  19.14900 -2.23600 21.74100
H  19.83600 -1.03100 22.88300
H  14.99600 -0.94400 22.88700
H  15.87000 -1.04000 21.34600
H  13.89200 0.50500 21.40400
H  15.46000 0.84300 20.63000
H  15.15100 1.67200 22.08400
H  13.06000 2.85600 25.46100
H  14.32300 4.17600 25.76200
H  13.12900 3.65900 26.98300
H  14.59800 1.86200 31.15700
H  16.52200 5.44900 33.01100
H  17.23600 4.01900 33.81200
H  15.58000 4.69100 34.23700
Mg 50.63700 46.65500 42.80900
C  47.47100 47.87800 41.71000
C  49.91500 43.73100 41.06600
C  53.80300 45.75100 43.06900
C  51.21600 49.76100 44.22500
N  48.92900 45.95400 41.36800
C  47.72500 46.54300 41.21500
C  46.68900 45.58000 40.53900
C  47.42900 44.19400 40.60600
C  48.83300 44.64200 41.02800
C  46.82500 43.15400 41.56100
C  46.41500 46.00000 39.06200
C  45.03600 45.53800 38.68300
H  44.78900 44.36900 37.73000
N  51.65400 44.82900 42.33900
C  51.22300 43.79400 41.61600
C  52.29400 42.80700 41.47000
C  53.46100 43.44500 41.93400
C  53.00200 44.71500 42.53500
C  52.18900 41.47400 40.65300
C  54.87500 42.83600 41.87400
O  54.99600 41.75400 41.30000
C  56.07400 43.41300 42.42800
N  52.33400 47.61600 43.62000
C  53.56700 47.02500 43.55300
C  54.58100 47.92600 44.16000
C  53.76700 49.17100 44.58300
C  52.37600 48.93800 44.03700
C  55.26500 47.24900 45.30900
C  54.52600 50.52700 44.18600
C  55.01400 51.53800 45.27800
N  49.59900 48.49100 42.96900
C  49.98900 49.62700 43.66200
C  48.82200 50.58300 43.68900
C  47.87100 49.86400 42.93700
C  48.39400 48.70000 42.47900
C  48.81900 51.93000 44.24900
C  46.52100 49.95900 42.46400
O  45.65100 50.85200 42.61200
C  46.20700 48.69200 41.64300
C  44.91100 48.10400 42.00600
O  44.67100 47.38500 42.96800
O  43.97700 48.43400 41.07400
C  42.58000 47.87900 41.20900
H  49.63800 42.78900 40.58800
H  54.83900 45.46100 43.25900
H  51.52700 50.71200 44.66100
H  45.89600 45.54100 41.28600
H  47.49700 43.73300 39.62000
H  47.05100 42.15000 41.20200
H  45.75500 43.31800 41.43500
H  47.13600 43.20800 42.60500
H  47.05700 45.53800 38.31200
H  46.40400 47.09000 39.05500
H  44.46400 46.31300 38.17300
H  44.37000 45.35500 39.52700
H  52.84800 41.71700 39.81900
H  51.18900 41.18400 40.33200
H  52.72000 40.60500 41.04200
H  56.15700 44.47700 42.20400
H  56.98300 42.94200 42.05400
H  55.81900 43.29600 43.48100
H  55.26800 48.11600 43.33600
H  53.63800 49.16100 45.66500
H  54.91800 46.21600 45.32900
H  55.18700 47.74200 46.27800
H  56.32600 47.20900 45.06200
H  53.83400 51.11500 43.58300
H  55.48400 50.35000 43.69700
H  55.98400 51.96000 45.01100
H  55.04800 51.10200 46.27600
H  54.26400 52.32400 45.36400
H  49.55600 52.03800 45.04500
H  47.83700 52.05900 44.70200
H  48.88000 52.65700 43.43800
H  46.07200 48.92300 40.58700
H  42.76500 46.82400 41.00300
H  41.88100 48.33000 40.50500
H  42.15600 48.04000 42.20000

