158

Mg -1.98700 17.73000 27.37400
C  -2.84200 15.50200 30.10100
C  -2.61300 20.23200 29.43800
C  -1.67000 19.50500 24.77900
C  -1.93700 14.74700 25.31700
N  -2.92700 17.84300 29.45000
C  -2.97200 16.86100 30.44200
C  -2.99300 17.46100 31.84400
C  -3.15200 18.97800 31.58700
C  -2.83100 19.04200 30.03800
C  -4.62800 19.45600 31.90200
C  -1.71100 16.94600 32.62900
C  -1.25000 17.82500 33.78200
H  -0.92200 17.04500 35.10800
N  -2.08900 19.66300 27.14400
C  -2.36100 20.57200 28.08500
C  -2.26100 21.91500 27.55700
C  -2.05200 21.71500 26.18100
C  -1.89800 20.27700 26.05400
C  -2.37500 23.15400 28.33700
C  -1.90200 22.76800 25.07300
O  -1.65800 22.46300 23.88300
C  -2.28500 24.12100 25.35600
N  -1.76900 17.22200 25.38000
C  -1.72300 18.15300 24.48600
C  -1.67800 17.60600 23.07000
C  -1.45000 16.11400 23.24700
C  -1.65900 16.01800 24.75800
C  -2.89300 17.85700 22.14200
C  -0.02600 15.56800 22.63800
C  1.27000 16.31800 22.89900
N  -2.23700 15.64400 27.54800
C  -2.19700 14.58700 26.64900
C  -2.44800 13.31900 27.29200
C  -2.69300 13.66600 28.62300
C  -2.56500 15.06000 28.76800
C  -2.51600 11.92400 26.64200
C  -3.08400 13.12700 29.93100
O  -3.28400 12.00200 30.26900
C  -2.98200 14.26200 30.96700
C  -1.80600 13.98100 31.77300
O  -0.61800 14.28200 31.43200
O  -2.19900 13.37600 32.93000
C  -1.12300 12.99900 33.79200
H  -2.57000 21.05200 30.15800
H  -1.59100 20.13900 23.89300
H  -1.79800 13.87200 24.67900
H  -3.78700 17.16000 32.52700
H  -2.44500 19.60200 32.13300
H  -5.31400 19.46900 31.05500
H  -4.62100 20.45100 32.34600
H  -5.05800 18.85500 32.70300
H  -0.94400 16.81400 31.86600
H  -1.95000 16.01200 33.13700
H  -1.95400 18.60800 34.06600
H  -0.35400 18.31700 33.40100
H  -1.61000 23.84600 27.98500
H  -2.40800 23.08200 29.42400
H  -3.29200 23.68800 28.08800
H  -2.30600 24.78100 24.48900
H  -1.51300 24.42500 26.06200
H  -3.29500 24.05400 25.76000
H  -0.82900 18.05900 22.55900
H  -2.22000 15.43400 22.88200
H  -3.46300 16.98700 21.81300
H  -2.47000 18.39000 21.29100
H  -3.60600 18.58200 22.53300
H  -0.19600 15.41900 21.57200
H  0.04400 14.60700 23.14800
H  1.62200 16.56300 21.89700
H  1.89200 15.62300 23.46300
H  1.00800 17.20400 23.47900
H  -1.50600 11.51700 26.61100
H  -3.00700 12.02600 25.67400
H  -3.10700 11.37400 27.37400
H  -3.89900 14.43100 31.53200
H  -1.44100 12.12100 34.35400
H  -0.77800 13.75400 34.49800
H  -0.27400 12.74700 33.15600
Mg -2.25400 34.51700 27.01300
C  -4.36300 33.14100 29.46100
C  -1.21100 36.75600 29.42500
C  -0.62400 36.09000 24.57900
C  -3.79000 32.41800 24.69000
N  -2.87300 35.03100 29.13000
C  -3.54700 34.15300 29.98600
C  -3.31400 34.43600 31.48500
C  -2.55400 35.81000 31.42600
C  -2.23100 35.92500 29.89300
C  -3.39700 37.02900 31.99300
C  -2.66300 33.27300 32.38300
C  -3.51000 32.69700 33.54300
H  -2.76500 32.31300 34.80900
N  -0.97100 36.04500 26.98900
C  -0.66700 36.89000 28.08300
C  0.24500 37.93300 27.69500
C  0.33000 37.80700 26.28200
C  -0.42400 36.57500 25.88400
C  0.83000 38.96500 28.66700
C  1.04500 38.75100 25.30500
O  1.02300 38.48200 24.11500
C  1.80200 40.02900 25.76900
N  -2.31800 34.37300 24.87300
C  -1.49300 35.14900 24.08900
C  -1.44100 34.50600 22.62900
C  -2.20100 33.15200 22.85000
C  -2.76800 33.33100 24.21300
C  -2.20100 35.40100 21.56800
C  -1.29000 31.87700 22.92300
C  -1.88100 30.52000 22.21700
N  -3.75400 33.08700 26.96700
C  -4.27800 32.28700 26.00700
C  -5.18100 31.28100 26.56000
C  -5.20400 31.60900 27.97200
C  -4.35900 32.76500 28.14600
C  -5.84600 30.18800 25.79200
C  -5.74700 31.16300 29.16500
O  -6.43000 30.20900 29.53100
C  -5.20400 32.14800 30.24600
C  -6.28400 32.90000 30.94000
O  -6.87000 33.85800 30.52800
O  -6.54000 32.27700 32.10600
C  -7.72700 32.70200 32.89800
H  -0.68600 37.42900 30.10700
H  0.06500 36.49400 23.83400
H  -4.14800 31.60400 24.05600
H  -4.30500 34.62900 31.89400
H  -1.66400 35.77700 32.05300
H  -4.44700 36.98500 31.70200
H  -2.93600 37.82200 31.40400
H  -3.34000 37.15100 33.07500
H  -1.64300 33.58100 32.61000
H  -2.52700 32.37700 31.77600
H  -4.02100 31.80500 33.18000
H  -4.30800 33.40600 33.76200
H  0.81000 40.00600 28.34700
H  1.86300 38.61800 28.62200
H  0.52000 39.10400 29.70300
H  1.15200 40.85000 26.07000
H  2.40500 40.20900 24.87900
H  2.55200 39.80700 26.52800
H  -0.40900 34.33900 22.32200
H  -2.97000 32.95500 22.10400
H  -2.42800 36.40700 21.92000
H  -3.14600 34.95700 21.25200
H  -1.60700 35.53700 20.66400
H  -1.03800 31.62900 23.95400
H  -0.36100 32.10800 22.40200
H  -2.80700 30.71900 21.67800
H  -2.23000 29.73300 22.88600
H  -1.05400 30.23400 21.56700
H  -5.53300 29.40600 26.48400
H  -5.54000 30.17100 24.74600
H  -6.91600 30.39700 25.79900
H  -4.60900 31.60500 30.98000
H  -8.14400 31.80100 33.34800
H  -8.55100 33.10500 32.30900
H  -7.58300 33.43300 33.69400

