158

Mg 17.36200 -0.47700 27.79400
C  15.90300 1.19900 30.55600
C  19.39300 -2.14900 30.03400
C  18.73700 -2.07900 25.21800
C  15.50700 1.68800 25.73100
N  17.47800 -0.55600 30.00500
C  16.87200 0.20300 30.89600
C  17.41800 0.12700 32.30100
C  18.63900 -0.80600 32.10600
C  18.54100 -1.21900 30.63200
C  19.97700 -0.02600 32.35500
C  16.37500 -0.55200 33.27400
C  16.10800 -0.06500 34.73500
H  17.32100 0.38900 35.47500
N  18.81400 -1.97200 27.69800
C  19.47100 -2.58600 28.68300
C  20.42300 -3.62000 28.15900
C  20.15100 -3.66300 26.77100
C  19.14400 -2.60600 26.50100
C  21.33000 -4.48100 28.95500
C  20.46400 -4.70400 25.68700
O  20.07700 -4.59000 24.53000
C  21.14700 -6.02700 26.11800
N  17.29300 -0.11800 25.84000
C  17.97500 -0.87000 24.94300
C  17.82400 -0.25300 23.53500
C  16.72500 0.84600 23.80400
C  16.47000 0.86400 25.27100
C  19.21700 0.31700 23.27900
C  15.39300 0.61300 22.94700
C  14.91500 1.75900 22.09700
N  15.84100 1.10600 28.01600
C  15.20700 1.90800 27.11100
C  14.38200 2.88400 27.82300
C  14.66400 2.63900 29.14900
C  15.49900 1.56600 29.23500
C  13.65200 4.07100 27.11800
C  14.33000 3.13400 30.46200
O  13.56900 4.04400 30.79000
C  15.18100 2.21800 31.40800
C  15.95700 3.11600 32.34400
O  16.91400 3.79300 31.99100
O  15.38600 3.13200 33.55600
C  15.80800 4.08700 34.55300
H  20.12700 -2.62900 30.68600
H  18.90100 -2.51900 24.23200
H  15.03200 2.29100 24.95500
H  17.58500 1.14800 32.64400
H  18.61800 -1.68000 32.75700
H  20.59600 0.12500 31.47100
H  20.54000 -0.70800 32.99200
H  19.73700 0.94100 32.79900
H  16.37600 -1.62700 33.45000
H  15.41700 -0.45400 32.76400
H  15.76200 -0.93900 35.28700
H  15.42600 0.78600 34.73000
H  22.35700 -4.59500 28.60900
H  20.88400 -5.47300 29.02400
H  21.36200 -4.10100 29.97600
H  21.09200 -6.76000 25.31400
H  20.71800 -6.43600 27.03300
H  22.19300 -5.83600 26.35800
H  17.66000 -1.13800 22.92000
H  16.99600 1.87000 23.54800
H  19.13200 1.29600 22.80700
H  19.80400 -0.33100 22.62700
H  19.83400 0.51300 24.15600
H  14.56500 0.40500 23.62400
H  15.52900 -0.18400 22.21600
H  14.13500 2.19600 22.72000
H  14.36400 1.56400 21.17700
H  15.75900 2.40100 21.84500
H  13.32700 3.81600 26.10900
H  14.12900 5.04900 27.16900
H  12.68300 4.03000 27.61600
H  14.43700 1.75100 32.05300
H  14.98400 4.13800 35.26500
H  16.06000 5.06600 34.14700
H  16.65800 3.83200 35.18500
Mg -11.19600 16.32300 42.95600
C  -8.08400 14.70700 42.76300
C  -9.54400 19.24900 41.89300
C  -14.14800 17.64800 41.96400
C  -12.62700 13.36000 43.77500
N  -9.12100 16.85200 42.14100
C  -8.03000 16.04500 42.27700
C  -6.72500 16.69900 41.76800
C  -7.20000 18.28200 42.01500
C  -8.70900 18.11900 41.91400
C  -6.78900 18.91700 43.32400
C  -6.40900 16.37400 40.32500
C  -5.20500 15.38100 40.02000
H  -5.52700 14.40400 38.88400
N  -11.75800 18.16300 42.16300
C  -10.92100 19.26000 41.85700
C  -11.75400 20.31000 41.33400
C  -13.12100 19.91700 41.38500
C  -13.05200 18.47000 41.79800
C  -11.05900 21.52100 40.77600
C  -14.27200 20.70600 40.88800
O  -14.12900 21.82300 40.43000
C  -15.69400 20.26500 40.80600
N  -13.10700 15.63200 42.78900
C  -14.19600 16.30300 42.37700
C  -15.49300 15.37300 42.39200
C  -14.97700 14.13900 43.17600
C  -13.46300 14.39700 43.26300
C  -16.71600 16.03300 43.05800
C  -15.48500 12.81700 42.55300
C  -15.83500 11.65400 43.54500
N  -10.53800 14.43700 43.43500
C  -11.20800 13.30600 43.81700
C  -10.27600 12.24400 44.06100
C  -9.00000 12.77300 43.68200
C  -9.23700 14.07300 43.26300
C  -10.71000 10.86000 44.44600
C  -7.62000 12.51700 43.63000
O  -6.98100 11.50300 43.99000
C  -6.94900 13.76200 43.01600
C  -6.05000 14.20800 44.07500
O  -6.43100 14.57500 45.20700
O  -4.83100 14.19900 43.60600
C  -3.83000 14.85900 44.47100
H  -9.04500 20.19500 41.67500
H  -15.10100 18.03100 41.59200
H  -13.03400 12.42200 44.15900
H  -5.88000 16.56100 42.44300
H  -6.86400 18.89500 41.17800
H  -6.23800 19.84100 43.15000
H  -6.20100 18.27600 43.98000
H  -7.62000 19.09600 44.00700
H  -6.08800 17.28100 39.81300
H  -7.27200 15.92100 39.83800
H  -4.93300 14.82300 40.91600
H  -4.29300 15.94900 39.84000
H  -11.81000 22.31100 40.80000
H  -10.61500 21.39300 39.78900
H  -10.40000 21.96800 41.52100
H  -15.78000 19.46800 40.06700
H  -16.36900 21.02600 40.41300
H  -15.96700 19.96400 41.81700
H  -15.69900 15.17400 41.34100
H  -15.39400 14.24700 44.17800
H  -16.29400 16.84800 43.64500
H  -17.34600 15.32400 43.59600
H  -17.37100 16.46300 42.30000
H  -14.79700 12.33200 41.86000
H  -16.40800 13.06800 42.03100
H  -16.67500 11.01600 43.27000
H  -15.73700 11.99700 44.57500
H  -15.04800 10.92100 43.37000
H  -10.75100 10.25500 43.54000
H  -11.70300 10.81900 44.89600
H  -9.96200 10.43400 45.11500
H  -6.39300 13.43800 42.13600
H  -3.14300 15.40500 43.82400
H  -3.33600 14.16400 45.14900
H  -4.29200 15.60100 45.12300

