158

Mg 41.57400 7.95100 29.77700
C  43.25600 9.39700 32.45400
C  39.43800 6.44400 31.99000
C  39.82200 6.78800 27.12500
C  44.02800 9.07200 27.56000
N  41.53400 7.73200 31.99900
C  42.13100 8.59600 32.89700
C  41.57200 8.36300 34.37100
C  40.43600 7.29100 34.15600
C  40.50000 7.06400 32.61700
C  40.61100 5.90600 34.89500
C  41.12700 9.73300 34.83500
C  40.93700 9.92500 36.35200
H  41.62400 11.04500 37.11100
N  39.80000 7.01000 29.61200
C  39.06100 6.41700 30.59400
C  37.79800 6.00000 30.06900
C  37.86100 6.19300 28.63000
C  39.14900 6.70400 28.37700
C  36.64100 5.48400 30.89800
C  36.74200 6.03500 27.63700
O  36.88200 6.18000 26.42900
C  35.33900 5.77400 28.17200
N  41.94400 7.86600 27.64100
C  41.08600 7.31900 26.79300
C  41.60500 7.47500 25.30300
C  42.76400 8.55100 25.45500
C  42.96000 8.49700 26.96500
C  41.95500 6.16600 24.63000
C  42.59700 9.98000 24.87100
C  41.33600 10.73900 25.13600
N  43.32500 8.89800 29.91400
C  44.23200 9.31500 28.89500
C  45.35000 10.03000 29.57700
C  44.97500 10.13000 30.91400
C  43.81800 9.38700 31.09500
C  46.52700 10.53800 28.81100
C  45.33200 10.75800 32.17700
O  46.32100 11.51700 32.41800
C  44.28500 10.29500 33.20400
C  45.02900 9.64300 34.36600
O  45.98900 8.89300 34.29600
O  44.48000 10.11500 35.51200
C  44.98500 9.74300 36.88900
H  38.66700 6.26300 32.74200
H  39.32000 6.50100 26.19900
H  44.77000 9.39800 26.82900
H  42.33900 8.00800 35.06000
H  39.44100 7.58400 34.49200
H  39.84800 5.81400 35.66800
H  41.56300 5.77400 35.40900
H  40.39400 5.08800 34.20800
H  40.21200 9.89300 34.26500
H  41.78200 10.57200 34.60200
H  41.17000 8.92400 36.71600
H  39.90400 10.27100 36.35300
H  36.68700 4.41700 30.67500
H  35.62600 5.81600 30.67800
H  36.72500 5.49300 31.98400
H  35.14400 6.61200 28.84100
H  35.25200 4.87200 28.77800
H  34.59800 5.71400 27.37500
H  40.79200 7.80300 24.65500
H  43.66400 8.11700 25.02000
H  43.02100 6.20700 24.40700
H  41.27400 6.03300 23.78900
H  41.73200 5.35000 25.31800
H  42.96100 10.14300 23.85600
H  43.37000 10.52900 25.40800
H  41.01800 11.23100 24.21700
H  41.43600 11.66000 25.71100
H  40.58200 10.13600 25.64300
H  46.84900 9.77600 28.10200
H  47.35500 10.90300 29.41900
H  46.11600 11.32400 28.17700
H  43.85200 11.21400 33.59800
H  46.04700 9.51200 36.80100
H  44.31500 9.06400 37.41600
H  44.95700 10.67200 37.45800
Mg 47.77600 15.78700 28.18700
C  45.91200 15.45000 31.20200
C  49.73200 18.16600 29.72300
C  49.18700 16.61500 25.19400
C  45.23100 13.91900 26.50000
N  47.80900 16.72500 30.22900
C  47.04000 16.30800 31.27300
C  47.58700 17.04900 32.48500
C  48.63600 18.06800 31.96600
C  48.83200 17.52800 30.56800
C  48.23000 19.61100 31.89100
C  48.10000 15.98900 33.53700
C  47.87800 16.18800 35.00500
H  47.89700 17.57200 35.56600
N  49.40200 17.01200 27.62200
C  50.07200 17.91800 28.35400
C  51.09600 18.55600 27.56400
C  51.05000 18.01800 26.27700
C  49.86500 17.07800 26.31400
C  52.04100 19.57500 28.13900
C  51.87700 18.31600 25.06000
O  51.79100 17.60100 24.08900
C  52.76700 19.45800 25.13400
N  47.31100 15.33700 26.18500
C  48.00100 15.83600 25.12500
C  47.38900 15.36900 23.76600
C  46.26800 14.41400 24.18300
C  46.31700 14.47100 25.74600
C  46.95300 16.56900 22.91500
C  46.36000 12.89300 23.75800
C  45.19900 12.34900 22.87100
N  45.96100 14.74300 28.70200
C  45.10100 13.97700 27.93800
C  44.07900 13.35900 28.82700
C  44.37000 13.92800 30.06500
C  45.51300 14.72100 29.98500
C  42.97400 12.54400 28.19700
C  43.94200 13.96100 31.45300
O  43.01800 13.39500 31.97100
C  44.89700 14.92100 32.20200
C  44.25600 16.01600 32.96900
O  44.10000 17.12500 32.37100
O  43.89800 15.68100 34.26700
C  43.15600 16.73200 34.99200
H  50.11200 19.10200 30.13600
H  49.49400 16.83100 24.16900
H  44.52700 13.32600 25.91300
H  46.71400 17.60100 32.83300
H  49.51600 17.90700 32.58800
H  48.01000 19.92400 30.87000
H  48.97700 20.26700 32.33800
H  47.26800 19.85700 32.33800
H  49.14700 15.77900 33.31700
H  47.79800 15.05200 33.07000
H  48.74000 15.67300 35.43000
H  46.96600 15.64800 35.25900
H  53.06700 19.37000 27.83300
H  52.03000 19.56900 29.22900
H  51.62600 20.49000 27.71500
H  52.07300 20.24900 25.41900
H  53.00800 19.84700 24.14500
H  53.64700 19.28000 25.75200
H  48.16100 14.75200 23.30600
H  45.31000 14.82100 23.86000
H  47.31500 16.44900 21.89400
H  47.47800 17.43600 23.31800
H  45.89200 16.74300 23.09400
H  46.42100 12.19000 24.58900
H  47.30900 12.70400 23.25700
H  45.68500 12.05100 21.94200
H  44.50500 13.12900 22.55800
H  44.61300 11.53100 23.29100
H  43.53100 11.79000 27.64000
H  42.26300 13.02600 27.52500
H  42.34500 12.08800 28.96100
H  45.47500 14.41400 32.97500
H  42.10400 16.70500 34.70800
H  43.57800 17.72000 34.80700
H  43.14400 16.44100 36.04200

