158

Mg 47.16300 17.25700 27.87400
C  45.36300 17.05700 30.97600
C  49.75100 18.72200 29.49700
C  48.52500 17.81600 24.89400
C  44.26600 15.75500 26.22200
N  47.48400 17.88600 29.90900
C  46.59800 17.66300 31.01400
C  47.24600 18.08200 32.28700
C  48.55500 18.82000 31.77700
C  48.62100 18.39400 30.32800
C  48.58400 20.36200 32.02300
C  47.45500 16.94100 33.37900
C  46.78900 17.21800 34.70400
H  46.70300 18.71600 35.15600
N  48.88600 18.24800 27.30800
C  49.86100 18.68000 28.12500
C  51.01500 19.01000 27.34800
C  50.77500 18.71700 25.96900
C  49.32700 18.25400 26.00700
C  52.32400 19.41600 27.93900
C  51.59000 18.89600 24.65800
O  51.08900 18.56700 23.62500
C  53.03300 19.43800 24.71100
N  46.47700 16.88900 25.97100
C  47.29700 17.23900 24.92100
C  46.65700 16.85600 23.62000
C  45.52500 15.88400 24.04100
C  45.35100 16.20100 25.50500
C  46.31600 17.98500 22.67600
C  45.84500 14.32100 23.69100
C  44.80900 13.20400 23.63500
N  45.25500 16.45500 28.45200
C  44.14800 15.96000 27.67900
C  43.07200 15.53200 28.57500
C  43.52500 15.90200 29.86100
C  44.80400 16.44500 29.76400
C  41.79500 14.92300 28.20100
C  43.09200 15.96400 31.20300
O  42.00400 15.62100 31.69300
C  44.39700 16.52200 31.99400
C  43.97100 17.68600 32.80400
O  43.89400 18.84000 32.36900
O  43.57900 17.24700 34.04800
C  42.70300 18.17800 34.78200
H  50.45800 19.30900 30.08700
H  48.92300 18.02800 23.89900
H  43.45200 15.21700 25.73200
H  46.48600 18.83300 32.50400
H  49.41300 18.30900 32.21200
H  48.93000 20.93800 31.16500
H  49.33700 20.52300 32.79500
H  47.66600 20.79300 32.42400
H  48.52400 16.88100 33.58300
H  47.12000 15.99200 32.96000
H  47.33800 16.70200 35.49100
H  45.79900 16.76200 34.70800
H  52.28100 19.41600 29.02800
H  52.67800 20.41500 27.68300
H  53.04800 18.69400 27.56100
H  53.11600 20.06000 23.82000
H  53.65300 18.58400 24.43700
H  53.38600 19.88000 25.64200
H  47.42200 16.23400 23.15500
H  44.61000 16.23700 23.56600
H  45.25700 18.18300 22.84300
H  46.50400 17.58500 21.67900
H  46.85900 18.91600 22.83900
H  46.47700 14.07800 24.54500
H  46.46700 14.29300 22.79700
H  43.87400 13.61300 23.25200
H  44.61200 12.55500 24.48800
H  45.18900 12.48800 22.90600
H  41.66800 13.89100 28.52800
H  41.58100 15.10100 27.14700
H  41.05900 15.46400 28.79600
H  44.70200 15.65200 32.57600
H  41.83700 18.25300 34.12400
H  43.21100 19.08200 35.11700
H  42.33600 17.74900 35.71500
Mg -1.49000 34.78000 26.76600
C  -3.19100 33.31900 29.49100
C  0.16700 36.85700 29.16100
C  -0.19900 36.52200 24.30100
C  -3.07700 32.64500 24.58500
N  -1.61900 35.13800 29.08600
C  -2.36600 34.33200 29.94400
C  -2.13400 34.80100 31.39900
C  -1.00000 35.91000 31.27500
C  -0.80800 35.97200 29.72600
C  -1.34100 37.31100 31.87600
C  -1.93100 33.60000 32.36500
C  -0.96900 33.70500 33.50700
H  -1.06900 32.75600 34.62500
N  -0.21600 36.40200 26.74400
C  0.48000 37.02800 27.77500
C  1.30400 38.03100 27.24900
C  1.10100 37.96600 25.83600
C  0.15500 36.97100 25.59000
C  2.05600 38.98800 28.22700
C  1.77100 38.85000 24.72300
O  1.54300 38.71200 23.52100
C  2.90400 39.75100 25.12500
N  -1.79000 34.72000 24.77800
C  -1.03200 35.42900 23.95800
C  -1.15700 34.87900 22.54400
C  -1.96700 33.60800 22.59900
C  -2.24900 33.61400 24.06100
C  -1.78600 35.93600 21.55500
C  -1.27900 32.28300 21.97100
C  -0.33600 31.43100 22.82200
N  -2.96300 33.30600 26.94800
C  -3.51300 32.49700 25.94400
C  -4.43600 31.52700 26.55700
C  -4.35500 31.82600 27.93400
C  -3.41700 32.94300 28.10800
C  -5.36900 30.52900 25.83200
C  -4.80700 31.47500 29.24900
O  -5.58500 30.62800 29.54800
C  -4.10200 32.33200 30.32700
C  -5.21100 32.97500 31.04700
O  -5.50200 34.19000 31.08100
O  -5.66800 32.17400 32.07700
C  -6.49000 32.76000 33.07400
H  0.69200 37.39600 29.95200
H  0.40600 36.80100 23.43700
H  -3.34400 31.86900 23.86500
H  -3.05000 35.29700 31.72000
H  -0.06900 35.59000 31.74300
H  -0.61000 37.65200 32.61000
H  -2.30600 37.28000 32.38300
H  -1.31100 38.11100 31.13700
H  -1.50400 32.84300 31.70700
H  -2.87200 33.23500 32.77700
H  -1.00900 34.69400 33.96400
H  0.06100 33.62000 33.16200
H  1.39600 39.85200 28.30300
H  3.00300 39.29200 27.78200
H  2.33700 38.54300 29.18200
H  3.81900 39.20300 25.35100
H  2.62600 40.40700 25.95000
H  3.12500 40.35500 24.24400
H  -0.18400 34.66300 22.10400
H  -2.97600 33.72400 22.20300
H  -2.08500 36.75500 22.20800
H  -2.57500 35.51100 20.93500
H  -1.01400 36.37800 20.92500
H  -0.84700 32.43000 20.98100
H  -2.14100 31.73100 21.59600
H  0.57500 31.17600 22.28100
H  -0.91900 30.51700 22.93400
H  -0.10300 31.81600 23.81500
H  -4.79000 29.88100 25.17400
H  -6.13300 31.12600 25.33400
H  -5.94900 30.07400 26.63600
H  -3.56700 31.63900 30.97600
H  -7.40500 33.19600 32.67300
H  -5.92800 33.54600 33.57800
H  -6.59600 31.96400 33.81200

