158

Mg 35.67600 1.54600 29.59500
C  33.37600 2.15800 32.09100
C  38.17400 1.75900 31.90000
C  37.84400 0.71900 27.15600
C  33.19700 2.13900 27.21200
N  35.76400 1.83900 31.73300
C  34.70100 1.91800 32.54200
C  35.11200 2.02300 34.04400
C  36.68600 2.14100 33.96800
C  36.89900 1.88400 32.47200
C  37.37300 3.44300 34.62300
C  34.68000 0.76100 34.88400
C  34.64000 0.86700 36.39200
H  35.38600 2.04200 37.10100
N  37.76200 1.24000 29.52900
C  38.56700 1.44500 30.58600
C  39.93800 1.05800 30.31400
C  39.83600 0.66100 28.88800
C  38.43700 0.85800 28.45200
C  41.14500 1.06600 31.17900
C  40.90800 0.20100 27.96200
O  40.75100 -0.10100 26.76800
C  42.38700 0.20000 28.36600
N  35.58400 1.60200 27.51700
C  36.54600 1.08300 26.75300
C  36.15900 1.20100 25.24600
C  34.73800 1.60100 25.29100
C  34.48800 1.85400 26.74800
C  37.05900 2.19000 24.51100
C  33.78400 0.61000 24.65000
C  33.51900 -0.65500 25.53000
N  33.71100 2.18500 29.57200
C  32.83800 2.33100 28.53300
C  31.46800 2.72400 29.09900
C  31.71900 2.70800 30.51700
C  33.01800 2.31200 30.71800
C  30.21400 2.96500 28.17600
C  31.03200 2.85200 31.76400
O  29.86800 3.03500 32.03200
C  32.11100 2.47500 32.84000
C  32.22000 3.70400 33.62600
O  32.68400 4.75600 33.19300
O  31.65400 3.53800 34.88600
C  31.62900 4.64700 35.87100
H  38.94700 1.77000 32.67100
H  38.56100 0.49600 26.36300
H  32.43300 2.41900 26.48400
H  34.66200 2.90500 34.50000
H  37.07000 1.27700 34.51100
H  38.04000 3.21700 35.45500
H  36.60700 4.20700 34.75800
H  38.00900 3.85100 33.83800
H  35.31300 -0.10800 34.70400
H  33.67500 0.44600 34.60200
H  34.92200 -0.07300 36.86500
H  33.60900 0.97100 36.73100
H  41.63500 2.04000 31.20700
H  41.96100 0.38100 30.94800
H  40.66800 0.90900 32.14600
H  42.54300 1.15300 28.87100
H  42.99600 0.17500 27.46200
H  42.69400 -0.61900 29.01700
H  36.29900 0.19600 24.84900
H  34.54400 2.56700 24.82600
H  36.40100 2.88900 23.99500
H  37.65000 1.58400 23.82400
H  37.79500 2.67600 25.15000
H  34.20500 0.22000 23.72300
H  32.89300 1.21200 24.46900
H  32.48100 -0.71500 25.85500
H  34.28300 -0.68100 26.30700
H  33.59500 -1.45200 24.79100
H  29.33100 2.36900 28.40900
H  30.48500 2.91500 27.12200
H  29.77800 3.92900 28.43700
H  31.79200 1.65000 33.47600
H  30.81200 4.38500 36.54300
H  31.54400 5.60600 35.35900
H  32.55600 4.70500 36.44300
Mg 47.98400 15.44700 28.18700
C  45.81000 15.38900 30.87100
C  50.03700 17.50000 29.79700
C  49.86600 15.53900 25.29900
C  45.42900 13.89800 26.16200
N  47.87300 16.36700 30.09100
C  46.96400 16.16700 31.09100
C  47.50400 16.74300 32.42000
C  48.50600 17.79200 31.89500
C  48.84200 17.26500 30.49700
C  47.99300 19.29700 31.88500
C  48.02300 15.73700 33.46400
C  47.81100 15.98000 35.03000
H  49.09800 16.12200 35.80400
N  49.79000 16.27000 27.68800
C  50.49700 17.11600 28.47100
C  51.68800 17.43300 27.80700
C  51.67900 16.82500 26.52600
C  50.44000 16.08600 26.44600
C  52.68600 18.38300 28.40900
C  52.79100 16.82500 25.41700
O  52.63700 16.17600 24.35200
C  54.10400 17.55000 25.65200
N  47.63000 14.98900 25.91400
C  48.66600 14.95100 25.04100
C  48.31100 14.25100 23.70900
C  46.81500 13.85300 24.00100
C  46.59100 14.24300 25.44200
C  48.41200 15.16800 22.46000
C  46.51700 12.33800 23.61500
C  46.92600 11.29700 24.64300
N  46.06800 14.71400 28.33200
C  45.18400 14.08300 27.49200
C  43.94900 13.79800 28.28200
C  44.19000 14.27500 29.57200
C  45.48300 14.85800 29.58800
C  42.72700 13.07900 27.75100
C  43.56600 14.40300 30.87200
O  42.48800 14.09400 31.27800
C  44.65000 15.10200 31.80700
C  44.01000 16.22800 32.50000
O  43.46200 17.15200 31.91200
O  43.85600 15.86700 33.76900
C  42.98100 16.74100 34.60800
H  50.63600 18.12800 30.46000
H  50.52100 15.49900 24.42600
H  44.73300 13.19300 25.70300
H  46.65500 17.27900 32.84400
H  49.40300 17.79700 32.51400
H  48.02300 19.62500 30.84600
H  48.74100 19.90500 32.39500
H  46.96300 19.37100 32.23500
H  49.08700 15.51700 33.37700
H  47.56500 14.77700 33.22400
H  47.17800 15.19500 35.44400
H  47.20900 16.85800 35.26500
H  52.51500 18.36800 29.48500
H  52.67600 19.32300 27.85900
H  53.70500 18.05500 28.20200
H  53.98900 18.59400 25.94300
H  54.57100 17.56200 24.66700
H  54.65800 17.00000 26.41300
H  48.90300 13.37900 23.43100
H  46.09100 14.39300 23.39000
H  48.77000 16.14900 22.77400
H  47.45500 15.22000 21.94100
H  49.15100 14.73200 21.78700
H  46.83200 12.06700 22.60700
H  45.43100 12.27500 23.55400
H  47.67400 11.72600 25.31100
H  47.42000 10.46700 24.13800
H  46.09500 11.03300 25.29600
H  42.59800 13.06100 26.66800
H  41.91900 13.49500 28.35300
H  42.70600 12.02400 28.02600
H  45.04100 14.36500 32.50800
H  42.53500 16.05700 35.33000
H  42.15000 17.20800 34.07900
H  43.46100 17.50000 35.22600

