158

Mg -12.69500 36.92200 42.86800
C  -9.92400 34.95100 42.04700
C  -10.94600 39.70400 41.47500
C  -15.43000 38.75400 43.23500
C  -14.42300 34.04800 43.99700
N  -10.70500 37.24500 41.74200
C  -9.81700 36.19800 41.47000
C  -8.59200 36.81000 40.69600
C  -8.84200 38.34800 40.65300
C  -10.23500 38.48000 41.37600
C  -7.77700 39.41600 41.11900
C  -8.37700 36.09600 39.31700
C  -6.98600 35.48400 38.99100
H  -6.13000 36.34500 37.99900
N  -13.07700 38.88200 42.53800
C  -12.27400 39.83700 41.99300
C  -13.04000 41.09800 41.83800
C  -14.37200 40.78900 42.10000
C  -14.34600 39.41000 42.58400
C  -12.43500 42.42600 41.36400
C  -15.52200 41.72000 41.98200
O  -15.37400 42.86100 41.62500
C  -16.93400 41.37500 42.25400
N  -14.81400 36.37400 43.24800
C  -15.64200 37.44300 43.63500
C  -16.92500 36.92900 44.17100
C  -16.58900 35.35200 44.38500
C  -15.18100 35.25900 43.84100
C  -17.45000 37.68500 45.47500
C  -17.54200 34.54000 43.56200
C  -18.88300 34.19100 44.17400
N  -12.33700 34.94600 43.03500
C  -13.06500 33.93100 43.66000
C  -12.19700 32.75900 43.74200
C  -10.99400 33.09300 43.09900
C  -11.12700 34.43500 42.76700
C  -12.52700 31.36000 44.37800
C  -9.65400 32.66600 42.66000
O  -9.14500 31.55100 42.70200
C  -8.90800 33.90800 42.11400
C  -7.84200 34.09100 43.22000
O  -6.65500 33.91000 43.02500
O  -8.31700 34.57400 44.37300
C  -7.45800 34.48700 45.57500
H  -10.38500 40.55800 41.08800
H  -16.18800 39.44900 43.60500
H  -14.99700 33.19300 44.36100
H  -7.70600 36.68200 41.31800
H  -9.18800 38.67600 39.67200
H  -6.92500 38.79200 41.38800
H  -8.19900 39.94400 41.97400
H  -7.43400 40.19100 40.43400
H  -8.57000 36.79700 38.50500
H  -9.01000 35.24300 39.07300
H  -7.12300 34.50700 38.52800
H  -6.26600 35.45600 39.80800
H  -12.73500 43.24300 42.02100
H  -12.87200 42.77700 40.42900
H  -11.36000 42.36400 41.19600
H  -17.57300 42.01700 41.64800
H  -17.14000 41.53000 43.31300
H  -17.12300 40.35400 41.92000
H  -17.72700 37.00600 43.43600
H  -16.60200 35.06600 45.43600
H  -18.28400 38.34500 45.23700
H  -16.69600 38.37300 45.85800
H  -17.70300 36.94200 46.23100
H  -17.09600 33.58000 43.29900
H  -17.74200 34.99200 42.59000
H  -18.94900 33.16700 44.54200
H  -19.69900 34.38200 43.47700
H  -19.04700 34.88200 45.00200
H  -13.29300 30.84600 43.79700
H  -12.89700 31.38700 45.40300
H  -11.63300 30.74500 44.27400
H  -8.48600 33.68800 41.13300
H  -6.44700 34.67500 45.21400
H  -7.51000 33.56000 46.14600
H  -7.71400 35.37200 46.15800
Mg -1.90100 33.69900 26.84500
C  -3.66800 31.77500 29.21900
C  -0.69700 35.60300 29.44000
C  -0.61700 35.77600 24.53500
C  -3.79000 32.07400 24.42900
N  -2.20300 33.70600 29.03500
C  -2.94000 32.77100 29.78700
C  -2.69100 32.98200 31.24700
C  -2.04900 34.41400 31.28400
C  -1.64000 34.59700 29.82900
C  -3.03000 35.50000 31.75600
C  -1.84600 31.82900 31.82500
C  -2.33700 31.26600 33.18400
H  -1.57500 31.92100 34.40000
N  -0.66900 35.39500 26.92900
C  -0.22800 35.98000 28.09000
C  0.64500 37.07800 27.77000
C  0.56000 37.18600 26.34400
C  -0.23300 36.07900 25.88600
C  1.36200 37.83800 28.87200
C  1.16500 38.23200 25.41800
O  0.99000 38.23200 24.19900
C  2.26200 39.10100 25.97400
N  -2.33900 33.97400 24.81600
C  -1.49800 34.80500 24.07200
C  -1.53800 34.44400 22.58800
C  -2.47500 33.16100 22.53600
C  -2.92000 33.01400 24.02000
C  -1.90300 35.67000 21.69300
C  -1.81700 31.83000 21.97700
C  -1.05800 30.88000 22.92600
N  -3.33300 32.11400 26.76400
C  -4.07000 31.65800 25.74700
C  -4.89400 30.54700 26.17500
C  -4.75100 30.45300 27.52600
C  -3.88100 31.53400 27.83700
C  -5.64000 29.52300 25.29500
C  -5.10100 29.75800 28.76600
O  -5.76900 28.76800 28.88500
C  -4.38100 30.55600 29.92400
C  -5.40900 30.95800 30.95200
O  -6.17600 31.87500 30.82300
O  -5.36600 30.21800 32.13900
C  -6.20700 30.64800 33.23400
H  -0.23900 35.96600 30.36200
H  -0.26700 36.33000 23.66200
H  -4.34100 31.45500 23.71800
H  -3.67000 33.04200 31.72300
H  -1.21800 34.58400 31.96800
H  -3.85500 35.08400 32.33300
H  -3.47100 36.03600 30.91500
H  -2.53300 36.21900 32.40800
H  -0.84400 32.24200 31.94200
H  -1.75200 31.02100 31.10000
H  -2.09300 30.20700 33.26800
H  -3.41400 31.41200 33.26500
H  2.42100 37.68300 28.66400
H  0.99000 37.63500 29.87600
H  1.28200 38.92100 28.78300
H  1.76400 39.86200 26.57500
H  2.78000 39.59100 25.14900
H  2.99100 38.49900 26.51500
H  -0.50600 34.12400 22.44300
H  -3.40900 33.29400 21.98900
H  -2.60600 35.45500 20.88800
H  -1.03500 35.94800 21.09500
H  -2.32100 36.49800 22.26500
H  -1.17400 31.95200 21.10600
H  -2.70000 31.32700 21.58100
H  -0.55400 31.33600 23.77800
H  -0.40000 30.28400 22.29300
H  -1.90500 30.27700 23.25300
H  -6.16000 29.98100 24.45400
H  -6.48200 29.07300 25.82000
H  -4.91700 28.76200 25.00000
H  -3.72700 29.81100 30.37900
H  -5.81700 31.47800 33.82500
H  -6.10400 29.82300 33.93900
H  -7.26300 30.81300 33.02400

