158

Mg 25.80700 0.01300 29.15500
C  27.87400 -0.05300 32.09000
C  23.09200 0.92500 31.08400
C  23.94000 0.01600 26.48100
C  28.59300 -1.01900 27.35300
N  25.51800 0.33100 31.35200
C  26.53900 0.34400 32.35900
C  25.91600 0.79100 33.69400
C  24.31600 0.92600 33.31100
C  24.30200 0.83100 31.80800
C  23.42600 -0.22500 33.95600
C  26.53800 2.01800 34.39900
C  27.31600 1.83900 35.69700
H  27.10800 2.92300 36.80700
N  23.86100 0.36700 28.77000
C  22.87600 0.74100 29.67500
C  21.56900 0.80700 29.02500
C  21.79900 0.60200 27.65200
C  23.21700 0.30100 27.58100
C  20.18500 1.16000 29.69000
C  20.79900 0.69000 26.41600
O  21.20600 0.60800 25.27100
C  19.30700 0.85000 26.58200
N  26.19400 -0.58800 27.19600
C  25.27600 -0.36800 26.26700
C  25.84200 -0.69600 24.84600
C  27.38900 -0.87600 25.14200
C  27.37900 -0.80400 26.69500
C  25.19700 -1.77300 23.90800
C  28.39500 0.18900 24.53100
C  29.73700 -0.31600 24.02600
N  27.80400 -0.66100 29.57700
C  28.80800 -0.95100 28.79700
C  30.02500 -1.10600 29.54400
C  29.68500 -0.75000 30.83700
C  28.29300 -0.46100 30.83200
C  31.34600 -1.51700 28.83300
C  30.20500 -0.57600 32.13700
O  31.29300 -0.79000 32.59300
C  29.00700 -0.17600 33.02400
C  28.75700 -1.23300 34.02900
O  28.30200 -2.35100 33.83300
O  29.10700 -0.73300 35.29800
C  28.82200 -1.58600 36.45500
H  22.23100 1.29700 31.64400
H  23.35800 0.12600 25.56300
H  29.47400 -1.32600 26.78500
H  26.08800 -0.05300 34.36200
H  24.07900 1.94000 33.63100
H  23.99300 -1.09200 34.29600
H  22.65100 -0.54500 33.26000
H  22.98800 0.31300 34.79600
H  25.93300 2.92000 34.49800
H  27.18500 2.30800 33.57200
H  28.29600 1.97900 35.24100
H  27.31900 0.86500 36.18600
H  19.55100 0.27700 29.60300
H  19.65800 2.02200 29.28000
H  20.22300 1.44600 30.74200
H  18.91600 1.19000 25.62300
H  19.21000 1.74700 27.19500
H  19.10400 -0.14600 26.97600
H  25.65900 0.18900 24.23600
H  27.74900 -1.84700 24.80100
H  24.26400 -2.27000 24.17400
H  25.91300 -2.55500 23.66100
H  24.76700 -1.22400 23.07000
H  28.47100 0.98700 25.27000
H  27.88700 0.62400 23.67100
H  30.33800 -0.53400 24.90900
H  30.17300 0.52500 23.48500
H  29.68300 -1.15300 23.33000
H  32.11500 -1.21200 29.54300
H  31.55400 -0.80900 28.03000
H  31.40300 -2.59300 28.66700
H  29.31100 0.73700 33.53500
H  29.09800 -1.10700 37.39500
H  29.44800 -2.47700 36.40000
H  27.77000 -1.86800 36.50700
Mg 35.75300 49.97200 25.62800
C  35.76600 47.89600 28.50900
C  34.22100 52.30100 27.40700
C  35.78100 51.70600 22.83700
C  37.21000 47.23300 23.87000
N  35.13500 50.04200 27.77500
C  35.23000 49.11800 28.77600
C  34.91200 49.78600 30.14700
C  34.30300 51.17400 29.72100
C  34.60200 51.21000 28.16700
C  32.84900 51.52100 30.13900
C  36.15700 49.85700 31.15700
C  35.92300 49.31600 32.55700
H  34.43800 49.44700 33.08500
N  34.98500 51.66600 25.16000
C  34.37500 52.53600 26.02900
C  33.90600 53.69900 25.31100
C  34.27100 53.51500 23.96200
C  35.07700 52.29300 23.93000
C  33.09900 54.71700 25.95300
C  33.93800 54.31200 22.72600
O  34.39300 54.10100 21.63400
C  32.88500 55.35400 22.81400
N  36.40500 49.52100 23.63100
C  36.34200 50.42700 22.66100
C  36.54600 49.82500 21.24800
C  37.47200 48.59100 21.76800
C  36.99200 48.42300 23.15500
C  35.27500 49.46300 20.44400
C  38.99100 48.61300 21.34600
C  39.95600 49.04300 22.38000
N  36.34300 47.99900 26.04100
C  36.87700 47.00000 25.19900
C  36.99900 45.76800 25.94700
C  36.60000 46.13600 27.26000
C  36.17300 47.42600 27.23800
C  37.37600 44.43200 25.47400
C  36.43800 45.55800 28.54400
O  36.73800 44.42000 28.97000
C  35.86900 46.74200 29.45500
C  34.58400 46.29700 30.05800
O  33.49400 46.17300 29.55300
O  34.84900 45.88000 31.41200
C  33.63800 45.65300 32.18300
H  33.77600 53.17100 27.89500
H  35.78700 52.17800 21.85300
H  37.79300 46.52200 23.28100
H  34.13200 49.20200 30.63600
H  34.91600 51.87800 30.28300
H  32.13000 51.60900 29.32400
H  32.84200 52.40400 30.77800
H  32.47100 50.67500 30.71200
H  36.40000 50.91300 31.27400
H  37.03400 49.45000 30.65500
H  36.57200 49.85100 33.24900
H  36.36300 48.32000 32.59600
H  32.05200 54.66100 25.65500
H  33.31700 55.73000 25.61300
H  33.17400 54.77200 27.03900
H  33.21500 56.19300 23.42700
H  32.03600 54.93800 23.35700
H  32.62800 55.68000 21.80600
H  37.05900 50.60200 20.68100
H  37.14100 47.62400 21.38800
H  34.32800 49.71300 20.92300
H  35.28400 48.38300 20.30100
H  35.25800 50.04900 19.52500
H  39.12000 49.23200 20.45800
H  39.34300 47.61400 21.08900
H  40.62500 49.81200 21.99300
H  40.57800 48.24100 22.77700
H  39.46900 49.47500 23.25500
H  37.31600 44.54100 24.39100
H  36.66100 43.71400 25.87700
H  38.36000 44.27800 25.91800
H  36.61000 46.95300 30.22600
H  32.73800 46.21700 31.93800
H  33.84000 45.78200 33.24600
H  33.43100 44.58200 32.18100

