158

Mg 30.35500 57.61900 39.93100
C  27.58000 55.63300 38.82600
C  32.39100 54.99000 39.07300
C  33.00200 59.61000 40.17200
C  28.18000 60.41600 40.12000
N  29.99900 55.53800 39.03200
C  28.80800 54.92400 38.73800
C  29.12100 53.60100 37.99700
C  30.55700 53.23400 38.63600
C  31.00300 54.67000 39.00100
C  30.50500 52.31600 39.93200
C  29.03300 53.65800 36.46700
C  27.98000 52.75700 35.84600
H  27.09800 53.28900 34.68000
N  32.34500 57.36000 39.74100
C  32.98800 56.19100 39.45800
C  34.45100 56.48000 39.53000
C  34.68100 57.83900 39.85800
C  33.30100 58.31800 39.92800
C  35.41800 55.30100 39.34900
C  36.09200 58.45300 39.99000
O  37.09600 57.80300 39.81400
C  36.23800 59.90400 40.22100
N  30.48500 59.71000 40.16100
C  31.76100 60.27500 40.31400
C  31.62600 61.84600 40.52000
C  30.07700 62.05600 40.74400
C  29.53900 60.64200 40.30200
C  32.44300 62.46200 41.71800
C  29.56100 63.37900 40.10600
C  28.36600 64.18300 40.70300
N  28.24600 58.01400 39.59800
C  27.56800 59.18400 39.74600
C  26.17400 58.88300 39.53400
C  26.10500 57.48800 39.13000
C  27.42000 56.99900 39.18100
C  24.96000 59.85000 39.63300
C  25.22600 56.40900 38.73200
O  24.00300 56.38000 38.56000
C  26.19500 55.12400 38.43200
C  25.79600 53.97700 39.29700
O  25.69100 53.97800 40.54200
O  25.42200 52.92600 38.56800
C  24.85200 51.71100 39.30700
H  33.07600 54.17500 38.82700
H  33.84600 60.30000 40.24000
H  27.46700 61.21000 40.35000
H  28.41200 52.80600 38.22700
H  31.05300 52.69000 37.83200
H  29.47100 51.97900 40.00100
H  30.70000 52.81500 40.88100
H  30.99400 51.34300 39.87800
H  29.94800 53.36800 35.94900
H  28.66800 54.62400 36.12100
H  27.23300 52.42300 36.56600
H  28.48400 51.86100 35.48400
H  36.40700 55.57900 38.98400
H  35.10400 54.41600 38.79500
H  35.54300 54.79400 40.30500
H  35.90900 60.28600 41.18700
H  35.97500 60.49300 39.34200
H  37.32000 60.03300 40.20900
H  31.90700 62.35100 39.59600
H  29.83000 62.02800 41.80500
H  33.14100 63.20700 41.33500
H  32.86700 61.66300 42.32600
H  31.72700 63.05600 42.28500
H  29.22100 63.11900 39.10400
H  30.34500 64.11200 39.91400
H  28.01400 63.63800 41.57900
H  27.52200 64.07700 40.02200
H  28.57100 65.24100 40.86600
H  25.10900 60.75600 39.04500
H  24.66800 60.01300 40.67000
H  24.10900 59.34300 39.17900
H  26.07400 54.90100 37.37200
H  23.83600 51.90200 39.65200
H  25.45300 51.39100 40.15800
H  24.76900 50.83200 38.66800
Mg 26.98300 50.27100 26.89200
C  24.62400 51.13000 29.45100
C  29.12000 49.34900 29.53300
C  29.19200 49.95400 24.55500
C  24.71300 51.65400 24.57500
N  26.87300 50.28100 29.26600
C  25.80200 50.59300 30.03900
C  26.09500 50.47600 31.55500
C  27.55700 49.90900 31.54600
C  27.88400 49.83100 30.02000
C  28.66800 50.73100 32.27300
C  25.01900 49.45500 32.22700
C  24.62800 49.80000 33.70500
H  24.97500 48.83000 34.85600
N  28.84200 49.67400 27.00300
C  29.56800 49.30900 28.15900
C  30.91000 48.88300 27.76600
C  31.04100 49.22700 26.35200
C  29.64100 49.60100 25.88300
C  31.97900 48.28100 28.67000
C  32.18000 49.33100 25.42200
O  32.12400 49.88600 24.35000
C  33.55400 48.86400 25.89800
N  27.02600 51.02700 24.93800
C  27.96900 50.44100 24.12000
C  27.56000 50.42000 22.61800
C  26.13600 50.79000 22.62700
C  25.90400 51.18600 24.15200
C  28.46200 51.28100 21.78100
C  25.15700 49.74200 22.15600
C  24.19300 50.22900 21.07200
N  25.13900 51.29600 26.97400
C  24.33800 51.75600 25.91400
C  23.12600 52.23800 26.39100
C  23.22700 52.01600 27.79600
C  24.45900 51.36600 28.07400
C  21.98600 52.66600 25.49600
C  22.32700 52.09400 28.97300
O  21.15800 52.40000 29.12800
C  23.28000 51.61600 30.11800
C  23.58400 52.79500 30.96900
O  24.56000 53.50100 30.86100
O  22.61500 52.85700 31.87100
C  22.79100 53.74100 33.03100
H  29.78600 49.02900 30.33700
H  29.89100 49.68900 23.75900
H  24.00100 51.96900 23.81000
H  25.92200 51.43800 32.03600
H  27.45200 48.86900 31.85400
H  28.44200 51.54200 32.96500
H  29.25900 51.18100 31.47500
H  29.12300 49.92000 32.84200
H  25.42600 48.44400 32.20500
H  24.11000 49.37700 31.63100
H  23.53800 49.76200 33.72200
H  24.95800 50.79800 33.99300
H  31.61200 48.06100 29.67200
H  32.83800 48.94400 28.76800
H  32.32500 47.34500 28.22900
H  33.50000 47.97400 26.52500
H  33.87900 49.74000 26.45900
H  34.31600 48.73600 25.12900
H  27.67000 49.40700 22.23100
H  26.05900 51.67500 21.99600
H  28.93500 50.63700 21.04000
H  29.12200 51.78000 22.49000
H  27.95000 52.16100 21.39100
H  24.51800 49.55400 23.01900
H  25.71700 48.82500 21.97000
H  24.57300 51.15100 20.63300
H  23.20000 50.39400 21.49100
H  24.11500 49.42300 20.34200
H  22.04200 53.73300 25.27700
H  21.05900 52.30800 25.94400
H  22.04700 52.08700 24.57500
H  22.81700 50.84800 30.73700
H  23.66700 54.38600 32.95900
H  23.08100 53.13300 33.88800
H  21.85100 54.16800 33.37900

