158

Mg 43.51700 4.22800 47.30900
C  41.20100 6.87200 47.19600
C  40.76700 2.10000 46.74500
C  45.65000 1.67100 46.78200
C  46.14400 6.52400 47.02000
N  41.22000 4.44300 47.01600
C  40.54300 5.59300 47.10000
C  39.03900 5.31500 47.20000
C  38.89400 3.76500 47.30700
C  40.37600 3.39200 46.95700
C  38.22500 3.22800 48.58200
C  38.27500 6.05800 46.05400
C  38.59500 5.60400 44.60300
H  39.30000 6.67900 43.71200
N  43.30100 2.14200 46.87600
C  42.05600 1.48500 46.69400
C  42.30100 0.08200 46.57200
C  43.67500 -0.16000 46.50200
C  44.29700 1.25200 46.74400
C  41.23900 -0.95900 46.25600
C  44.26500 -1.47600 46.08800
O  43.63000 -2.50500 45.91300
C  45.72900 -1.54900 45.90500
N  45.58900 4.11200 46.90500
C  46.21400 2.91800 46.83900
C  47.76500 3.09400 47.06400
C  47.95600 4.66500 47.09400
C  46.48800 5.16700 46.99600
C  48.30300 2.23600 48.29500
C  48.94100 5.21600 45.99200
C  50.35200 5.27900 46.48500
N  43.73900 6.26500 47.30500
C  44.84100 7.12600 47.21100
C  44.44100 8.52200 47.45100
C  43.03500 8.40800 47.40600
C  42.60600 7.09500 47.20700
C  45.27700 9.70200 47.73500
C  41.81900 9.22600 47.60300
O  41.76000 10.41900 47.84700
C  40.57700 8.26300 47.45900
C  39.71700 8.34900 48.71200
O  40.24700 8.19400 49.83400
O  38.37200 8.36800 48.44200
C  37.44700 8.24700 49.56100
H  39.92200 1.40900 46.74100
H  46.34500 0.83300 46.86700
H  47.01900 7.13700 47.24800
H  38.68100 5.64500 48.17500
H  38.31400 3.32800 46.49500
H  38.73700 2.34400 48.96400
H  37.18400 2.97900 48.37200
H  38.29400 3.91700 49.42400
H  38.35600 7.14500 46.06600
H  37.25800 5.71600 46.24700
H  37.60400 5.37700 44.21000
H  39.29200 4.77100 44.69800
H  41.37700 -1.84200 46.88000
H  41.42100 -1.11600 45.19300
H  40.26700 -0.54900 46.53000
H  46.21900 -1.25600 46.83400
H  45.95400 -0.79200 45.15300
H  46.21000 -2.46600 45.56400
H  48.21900 2.65500 46.17600
H  48.32300 5.02800 48.05400
H  47.42800 1.82500 48.79900
H  48.85600 2.98700 48.86000
H  48.88200 1.34700 48.04400
H  48.57100 6.20300 45.71300
H  48.93700 4.63100 45.07300
H  50.48600 5.20600 47.56500
H  50.73900 6.26200 46.21800
H  50.90200 4.48500 45.97900
H  45.18700 9.87000 48.80800
H  44.79500 10.51600 47.19400
H  46.31600 9.54600 47.44600
H  40.09900 8.65500 46.56100
H  37.81900 8.82200 50.41000
H  37.23200 7.20500 49.79900
H  36.45400 8.56800 49.24700
Mg 48.84000 45.43400 42.90000
C  45.40600 45.45800 41.66700
C  48.90200 41.99400 41.98100
C  52.17900 45.41600 43.17400
C  48.87100 48.87700 42.71400
N  47.39600 43.90900 41.82100
C  46.00000 44.16000 41.50200
C  45.25600 42.88700 41.19000
C  46.38800 41.80800 41.25900
C  47.67300 42.57000 41.76400
C  46.11800 40.62700 42.29200
C  44.46300 42.95000 39.79300
C  45.24400 43.29300 38.50100
H  45.44600 42.32200 37.29300
N  50.30500 43.87700 42.76800
C  50.11400 42.54600 42.42000
C  51.34000 41.88500 42.71600
C  52.30500 42.81000 43.16900
C  51.60600 44.15100 43.03600
C  51.59500 40.41800 42.43900
C  53.78000 42.64000 43.63800
O  54.18800 41.47800 43.63800
C  54.77700 43.62900 44.26000
N  50.32400 46.95800 42.74800
C  51.61900 46.65300 43.14000
C  52.36500 48.00900 43.26600
C  51.40100 49.05200 42.60100
C  50.15400 48.27600 42.70300
C  52.78100 48.39100 44.77200
C  51.70600 49.37200 41.13700
C  52.30100 50.68100 40.74200
N  47.44400 46.88800 42.48400
C  47.62500 48.21300 42.59700
C  46.27100 48.86100 42.48000
C  45.46200 47.76700 41.98000
C  46.16200 46.58200 42.06200
C  45.90800 50.33300 42.60200
C  44.13400 47.47900 41.60800
O  43.13500 48.23300 41.58600
C  44.05500 46.02800 41.29100
C  42.81700 45.44900 41.91500
O  41.79600 44.98200 41.36100
O  42.94300 45.41100 43.27100
C  41.70900 45.24800 44.06400
H  48.92700 40.90500 41.89700
H  53.26600 45.33900 43.24000
H  48.85200 49.96800 42.77200
H  44.52900 42.78400 41.99600
H  46.66800 41.37600 40.29800
H  46.81000 40.80700 43.11500
H  46.22100 39.62200 41.88400
H  45.13500 40.69200 42.75900
H  43.60700 43.57900 40.03800
H  44.11600 41.94300 39.56100
H  46.23700 43.69800 38.69700
H  44.68100 44.16200 38.15900
H  51.61000 39.78500 43.32600
H  52.48600 40.17500 41.85900
H  50.78900 39.92100 41.90000
H  55.50700 43.22200 44.96000
H  54.12900 44.29900 44.82400
H  55.30200 44.18400 43.48100
H  53.32400 47.83400 42.77800
H  51.33700 49.98800 43.15600
H  53.86500 48.28600 44.82600
H  52.29800 47.74500 45.50400
H  52.52100 49.39400 45.10900
H  50.91200 49.14800 40.42400
H  52.42900 48.65400 40.75100
H  53.37600 50.53700 40.63100
H  52.06000 51.41700 41.50900
H  51.82800 51.12600 39.86700
H  44.90400 50.57000 42.25000
H  46.55200 50.97900 42.00600
H  46.03200 50.65500 43.63500
H  43.99600 46.00900 40.20300
H  41.34600 44.22200 44.01700
H  40.95000 45.96600 43.75400
H  42.01700 45.55700 45.06400

