158

Mg 47.52900 35.09900 27.75900
C  45.74000 33.37900 30.33400
C  48.09700 37.70000 30.09900
C  48.30900 37.29800 25.24500
C  46.63400 32.75400 25.55400
N  46.86500 35.47000 30.02300
C  46.33200 34.55600 30.87800
C  46.41400 35.16900 32.28700
C  46.71900 36.70800 32.12300
C  47.26600 36.65700 30.67400
C  45.51400 37.67400 32.20300
C  47.57000 34.51800 33.13400
C  47.06700 34.34700 34.56500
H  47.71300 35.35500 35.55900
N  48.30400 37.13100 27.74800
C  48.50400 37.98900 28.80800
C  49.13700 39.18700 28.35300
C  49.27900 39.11300 26.97100
C  48.62200 37.81000 26.60700
C  49.53800 40.25800 29.36500
C  50.01600 39.98700 25.97900
O  50.28100 39.60300 24.88600
C  50.75600 41.27800 26.42300
N  47.47500 35.09200 25.64800
C  47.71100 36.09300 24.79700
C  47.68100 35.66000 23.32900
C  47.33800 34.09700 23.53000
C  47.16700 33.93200 25.01800
C  46.64100 36.36700 22.49100
C  48.36400 33.16500 22.84500
C  47.90900 32.00700 22.00200
N  46.52300 33.43700 27.89200
C  46.37200 32.47200 26.87400
C  45.73000 31.29700 27.45400
C  45.47400 31.54300 28.85000
C  45.90100 32.93000 29.03300
C  45.23600 30.09300 26.62700
C  44.89200 31.05900 30.07200
O  44.26100 30.05000 30.36800
C  44.97800 32.25400 31.07100
C  45.45800 31.87400 32.42700
O  46.50500 31.31300 32.68200
O  44.44100 32.05100 33.28200
C  44.47200 31.31500 34.54500
H  48.40700 38.38000 30.89600
H  48.64300 38.04800 24.52500
H  46.35200 32.04800 24.77000
H  45.47000 34.87900 32.74800
H  47.52700 37.06900 32.75900
H  45.44000 38.15600 33.17800
H  44.57400 37.12600 32.15000
H  45.42500 38.46100 31.45400
H  48.45100 35.14700 33.00500
H  47.83100 33.55900 32.68500
H  47.37000 33.38400 34.97600
H  45.97900 34.36000 34.63600
H  48.82500 40.19400 30.18700
H  49.51600 41.25800 28.93300
H  50.54800 40.08100 29.73500
H  51.48400 40.90100 27.14200
H  49.99300 41.96800 26.78200
H  51.36100 41.68100 25.61100
H  48.60500 35.85200 22.78300
H  46.36700 33.89700 23.07600
H  46.67800 36.11900 21.43000
H  46.59200 37.45300 22.57300
H  45.66100 35.96900 22.75300
H  49.03900 32.79800 23.61800
H  49.04600 33.75900 22.23600
H  48.13700 32.24700 20.96300
H  46.83800 31.82800 22.08900
H  48.37100 31.05200 22.25400
H  44.26200 30.32500 26.19400
H  45.04900 29.21500 27.24600
H  45.96100 29.92400 25.83200
H  43.99600 32.69300 31.24900
H  45.37800 30.73100 34.71000
H  43.63200 30.63400 34.68000
H  44.37200 32.13300 35.25800
Mg 25.91200 50.27600 26.41900
C  23.59300 51.52400 28.70600
C  28.04700 49.54900 29.04500
C  28.14800 49.52000 24.11700
C  23.70100 51.53500 23.79400
N  25.79000 50.55300 28.67200
C  24.72000 51.07800 29.39600
C  24.94800 50.84900 30.89700
C  26.37900 50.47600 30.88600
C  26.81600 50.18600 29.42100
C  27.40800 51.32300 31.72000
C  23.96600 49.82200 31.56900
C  24.16400 49.37100 33.03800
H  24.68700 50.36100 34.08100
N  27.83400 49.52000 26.51500
C  28.53700 49.22400 27.69000
C  29.83800 48.64300 27.29900
C  29.82800 48.64700 25.86800
C  28.57600 49.27200 25.41200
C  30.88500 48.21500 28.36000
C  30.94800 48.09300 24.92900
O  30.77700 48.01500 23.66500
C  32.29700 47.49900 25.45200
N  25.78600 50.24400 24.22000
C  26.90100 49.98000 23.53200
C  26.60000 50.22400 22.02300
C  25.12200 50.70700 21.98800
C  24.85800 50.83500 23.43700
C  27.55500 51.06800 21.33400
C  23.99500 49.82400 21.40000
C  23.05100 50.62500 20.35200
N  23.91200 51.31500 26.22200
C  23.18800 51.68000 25.12700
C  21.99000 52.27800 25.56300
C  22.11000 52.25300 26.94300
C  23.28900 51.67000 27.30800
C  20.87100 52.83200 24.74900
C  21.40000 52.58800 28.19200
O  20.36200 53.15200 28.41600
C  22.32300 52.14500 29.34900
C  22.72500 53.20500 30.19800
O  23.48100 54.10500 29.90700
O  22.27600 52.95900 31.44300
C  22.35600 54.17600 32.41200
H  28.66100 49.28800 29.90900
H  28.79100 49.23800 23.28100
H  23.05600 51.93400 23.00900
H  24.99000 51.80400 31.42100
H  26.42100 49.50800 31.38600
H  27.82700 52.09700 31.07700
H  28.23900 50.81100 32.20500
H  26.88400 51.88700 32.49200
H  24.05800 48.92200 30.96100
H  22.97700 50.22100 31.34000
H  24.67800 48.41100 33.01600
H  23.10800 49.36000 33.31100
H  31.11300 47.16300 28.18900
H  30.48700 48.34300 29.36700
H  31.73900 48.89000 28.41700
H  32.97900 48.26900 25.81200
H  32.57100 46.84200 24.62700
H  32.09200 46.78100 26.24600
H  26.79000 49.25600 21.56100
H  25.07100 51.69400 21.52900
H  28.44700 51.27500 21.92600
H  27.17400 52.08500 21.24400
H  27.95000 50.66500 20.40100
H  23.29100 49.33600 22.07400
H  24.46700 48.97700 20.90100
H  22.81900 49.99000 19.49800
H  23.60200 51.52100 20.06600
H  22.15700 50.89000 20.91700
H  20.32600 53.52700 25.38800
H  20.24700 52.01200 24.39400
H  21.34200 53.42100 23.96200
H  21.86100 51.33900 29.91800
H  22.36500 55.08200 31.80600
H  23.24400 54.04700 33.03100
H  21.49500 54.12500 33.07800

