158

Mg 41.63200 40.58500 27.03400
C  40.95200 43.23300 29.49900
C  42.52700 38.69700 29.54200
C  42.68200 38.60600 24.65500
C  40.98100 43.17500 24.46500
N  41.83000 41.02600 29.34400
C  41.41500 42.03000 30.09700
C  41.40000 41.71800 31.61900
C  42.04100 40.21000 31.55600
C  42.06500 39.91000 30.03800
C  43.43200 40.09600 32.29600
C  39.92400 41.87900 32.23300
C  39.74200 42.68500 33.50800
H  39.07000 42.04900 34.82400
N  42.49000 38.83700 27.14300
C  42.79100 38.16800 28.26200
C  43.31200 36.88600 27.91100
C  43.20500 36.75900 26.48700
C  42.78100 38.10800 26.03100
C  43.81500 35.91900 28.90900
C  43.45800 35.55700 25.57300
O  43.58400 35.66100 24.33000
C  43.53800 34.22400 26.25900
N  41.81700 40.88500 24.90900
C  42.15900 39.79600 24.16200
C  42.09200 40.09500 22.63300
C  41.58400 41.56000 22.60800
C  41.47300 41.91200 24.09700
C  43.51100 39.95200 22.00400
C  40.27500 41.64100 21.70400
C  40.32200 42.53500 20.55500
N  41.20400 42.77300 26.96900
C  40.86300 43.59900 25.85500
C  40.56300 44.93300 26.41800
C  40.52700 44.80400 27.84100
C  40.93600 43.51600 28.09300
C  40.11100 46.18600 25.60500
C  40.17700 45.47500 29.03100
O  39.78200 46.64700 29.16600
C  40.37600 44.48300 30.16700
C  41.33100 45.18300 31.13300
O  42.53900 45.26200 30.97500
O  40.71700 45.80600 32.14300
C  41.59900 46.55400 33.03000
H  42.62900 37.94000 30.32300
H  43.10700 37.90900 23.93000
H  40.67900 43.85900 23.66900
H  42.05500 42.45100 32.09200
H  41.31700 39.56600 32.05400
H  43.74900 41.04300 32.73300
H  44.10400 39.61400 31.58600
H  43.43500 39.38600 33.12300
H  39.39400 40.95100 32.44800
H  39.24100 42.29300 31.49100
H  39.06300 43.44600 33.12300
H  40.67500 43.10500 33.88400
H  43.11200 35.08600 28.90400
H  43.95900 36.28500 29.92600
H  44.76100 35.53000 28.53100
H  44.49900 33.97800 26.71100
H  43.30200 33.49100 25.48800
H  42.67500 34.15500 26.92200
H  41.38700 39.33500 22.29500
H  42.40400 42.11600 22.15400
H  44.19800 40.44700 22.69000
H  43.55900 40.41500 21.01900
H  44.01400 38.98700 21.93900
H  39.38900 41.91000 22.28000
H  39.95900 40.64900 21.38000
H  39.29600 42.88700 20.44100
H  40.59900 41.88800 19.72200
H  41.03900 43.32600 20.77200
H  39.02400 46.12000 25.54900
H  40.46800 46.24700 24.57700
H  40.33200 47.12200 26.11800
H  39.39900 44.33100 30.62600
H  41.96700 46.01400 33.90200
H  41.00900 47.36300 33.46000
H  42.45000 47.01200 32.52600
Mg 29.82000 58.06700 41.65400
C  26.96000 56.64000 39.99500
C  31.73300 55.99400 39.89800
C  32.34400 60.28300 42.22200
C  27.50800 60.66700 42.91800
N  29.40100 56.69200 40.06600
C  28.19600 56.16000 39.60100
C  28.36700 55.02700 38.64300
C  29.88300 54.64200 38.87600
C  30.36800 55.88900 39.65500
C  30.35100 53.26700 39.46500
C  27.99400 55.28800 37.11100
C  26.88000 54.46600 36.48100
H  26.16600 54.97400 35.25100
N  31.85700 57.97400 41.34600
C  32.45900 56.99100 40.59800
C  33.93700 57.19400 40.73600
C  34.09600 58.43700 41.44400
C  32.71900 58.98000 41.72100
C  34.82800 56.14400 40.11000
C  35.46800 59.17400 41.70500
O  36.52000 58.60100 41.48000
C  35.61500 60.57300 42.24900
N  29.89700 60.30600 42.38700
C  31.08200 60.92000 42.54800
C  30.90900 62.32800 43.07100
C  29.39200 62.34800 43.42100
C  28.85200 61.05500 42.84600
C  31.95800 62.88800 44.06800
C  28.60000 63.66200 43.12100
C  27.86500 64.35100 44.23300
N  27.65700 58.46900 41.71200
C  26.95400 59.55500 42.18000
C  25.56700 59.33400 41.90600
C  25.58600 58.14800 41.14100
C  26.85500 57.72300 40.92600
C  24.39600 60.05000 42.41500
C  24.73700 57.31800 40.42100
O  23.53200 57.43700 40.32100
C  25.55600 56.29200 39.66900
C  25.25700 54.96800 40.19100
O  25.51500 54.56200 41.34100
O  24.51300 54.20500 39.32300
C  23.76700 53.03000 39.77400
H  32.33200 55.14900 39.55200
H  33.15500 61.01200 42.28900
H  26.76300 61.37800 43.28300
H  27.69600 54.20800 38.89900
H  30.45700 54.74100 37.95500
H  30.59200 53.24400 40.52700
H  31.24000 52.93800 38.92600
H  29.52600 52.61500 39.17600
H  28.88500 55.03500 36.53700
H  27.71300 56.33700 37.01900
H  26.16000 54.32600 37.28600
H  27.30300 53.51400 36.16100
H  34.79400 55.21900 40.68600
H  35.82800 56.56700 40.02000
H  34.50700 55.96000 39.08500
H  35.27400 61.24000 41.45600
H  36.63100 60.79100 42.57800
H  34.93000 60.68100 43.09000
H  30.95100 62.97200 42.19200
H  29.29600 62.09400 44.47700
H  31.65700 62.75600 45.10700
H  32.14000 63.94700 43.88400
H  32.97300 62.50900 43.94800
H  27.82900 63.29300 42.44400
H  29.16600 64.42500 42.58600
H  27.92800 65.43000 44.08900
H  28.31500 64.15700 45.20700
H  26.81300 64.07000 44.18200
H  24.20900 59.69600 43.42900
H  23.48300 60.01900 41.81900
H  24.69300 61.08300 42.59500
H  25.22800 56.34200 38.63000
H  22.70100 53.22900 39.66900
H  23.95900 52.64400 40.77600
H  23.99300 52.21600 39.08600

