158

Mg 42.42500 40.91100 26.36500
C  41.68000 43.06100 29.03200
C  43.62700 38.60000 28.58100
C  43.15000 38.90900 23.76800
C  41.61300 43.44000 24.13300
N  42.77000 40.97800 28.53100
C  42.31600 41.88400 29.42200
C  42.47500 41.42400 30.96400
C  43.17300 40.07600 30.73900
C  43.15300 39.84700 29.12800
C  44.57100 39.88700 31.43300
C  41.14200 41.33200 31.73800
C  41.16700 41.94100 33.13900
H  40.54200 41.12100 34.21100
N  43.21300 38.95100 26.21900
C  43.68000 38.17800 27.20100
C  44.06800 36.91100 26.73100
C  43.81200 36.87800 25.32300
C  43.44200 38.25700 25.03500
C  44.56700 35.84300 27.66800
C  44.08600 35.84300 24.29300
O  43.88100 35.95600 23.09300
C  44.58900 34.61500 24.85700
N  42.41100 41.08000 24.26900
C  42.74500 40.18900 23.40400
C  42.62800 40.64400 21.94700
C  42.00700 42.06700 21.97800
C  41.98600 42.21500 23.56100
C  43.95400 40.70300 21.20300
C  40.64300 42.18800 21.30700
C  40.48600 43.43500 20.45200
N  41.86400 42.91000 26.47900
C  41.49700 43.82700 25.50500
C  41.05900 45.02300 26.07500
C  40.94000 44.66700 27.46100
C  41.59200 43.44600 27.66000
C  40.73500 46.30300 25.37000
C  40.47300 45.17700 28.75600
O  39.91200 46.23600 29.00100
C  41.15700 44.20400 29.81300
C  42.23400 44.97200 30.50100
O  43.35900 45.07000 30.15000
O  41.74800 45.12400 31.75900
C  42.77100 45.62300 32.72800
H  43.74100 37.83400 29.35200
H  43.30100 38.25800 22.90400
H  41.33700 44.21500 23.41400
H  43.05600 42.22900 31.41400
H  42.54200 39.27100 31.11700
H  45.37300 40.27700 30.80700
H  44.67400 38.84900 31.74800
H  44.44500 40.43500 32.36700
H  40.90600 40.27200 31.83000
H  40.40600 41.83400 31.10900
H  40.76300 42.95100 33.06200
H  42.20000 42.09900 33.44900
H  44.01700 34.91700 27.50000
H  44.58200 36.10600 28.72600
H  45.60600 35.63000 27.41800
H  43.82400 34.32800 25.57900
H  45.58300 34.85500 25.23500
H  44.78800 33.94100 24.02400
H  41.95500 39.98900 21.39400
H  42.71500 42.73400 21.48700
H  44.77500 40.59700 21.91100
H  44.08100 41.63800 20.65700
H  43.90400 39.86500 20.50700
H  39.88800 42.30500 22.08500
H  40.56100 41.26600 20.73100
H  39.41400 43.61900 20.38800
H  40.82200 43.29800 19.42400
H  41.01100 44.28900 20.88000
H  41.26200 46.26000 24.41700
H  40.97700 47.19000 25.95500
H  39.68200 46.10700 25.16500
H  40.35300 43.86100 30.46400
H  42.74400 46.70000 32.56200
H  43.75600 45.23800 32.46300
H  42.53900 45.50400 33.78600
Mg -3.13500 35.31600 27.27100
C  -4.95700 33.50800 29.69700
C  -2.16400 37.38900 29.84400
C  -1.56300 37.07300 24.98300
C  -4.24400 33.11400 24.88400
N  -3.46100 35.40800 29.51000
C  -4.20900 34.53100 30.24500
C  -3.93600 34.72200 31.73700
C  -3.22700 36.12100 31.72600
C  -2.99700 36.38300 30.27100
C  -4.18400 37.21300 32.24800
C  -3.27100 33.54400 32.53600
C  -4.17600 32.98600 33.67800
H  -3.83100 33.58700 35.07000
N  -2.05700 36.98700 27.39700
C  -1.65400 37.63000 28.54500
C  -0.58700 38.60600 28.15400
C  -0.44300 38.52400 26.77200
C  -1.34600 37.45700 26.34300
C  0.06300 39.47600 29.16200
C  0.44200 39.35000 25.81700
O  0.55300 39.12500 24.63100
C  1.14800 40.55200 26.25800
N  -3.11500 35.19800 25.17400
C  -2.31800 36.04200 24.46100
C  -2.31000 35.62100 22.97400
C  -2.96200 34.25900 22.97600
C  -3.44400 34.15500 24.43200
C  -3.06200 36.70000 22.08500
C  -2.16600 33.02100 22.44900
C  -2.94000 31.87300 21.96000
N  -4.41300 33.66900 27.27000
C  -4.76300 32.85000 26.19500
C  -5.73000 31.91700 26.57800
C  -5.82800 32.11300 28.02000
C  -4.99400 33.20300 28.33000
C  -6.44000 30.85500 25.74500
C  -6.48500 31.61100 29.17000
O  -7.20500 30.64100 29.26200
C  -5.90900 32.47200 30.35400
C  -7.00700 33.08400 31.09700
O  -7.50300 34.15900 30.80600
O  -7.54400 32.10700 31.95000
C  -8.72200 32.58400 32.69100
H  -1.80900 38.11500 30.57900
H  -1.01500 37.42000 24.10400
H  -4.50700 32.31900 24.18200
H  -4.89700 34.95600 32.19600
H  -2.25700 36.07800 32.22100
H  -5.13400 37.13700 31.71800
H  -3.81100 38.19200 31.94600
H  -4.30700 37.18400 33.33100
H  -2.41000 33.95100 33.06500
H  -2.90000 32.74700 31.89200
H  -4.21200 31.89800 33.74300
H  -5.24700 33.04900 33.48700
H  1.14400 39.59600 29.22700
H  -0.31000 39.49400 30.18600
H  -0.39800 40.38100 28.76600
H  0.49300 41.27000 26.75100
H  1.69700 40.93500 25.39700
H  1.88900 40.34400 27.02900
H  -1.30000 35.46600 22.59400
H  -3.84100 34.39900 22.34600
H  -2.93200 37.67800 22.54700
H  -4.12300 36.55600 21.87600
H  -2.58500 36.63700 21.10700
H  -1.66800 32.73300 23.37500
H  -1.35000 33.36900 21.81500
H  -2.82700 30.96900 22.55900
H  -2.62400 31.55600 20.96600
H  -3.99500 32.13800 22.02700
H  -6.69400 29.94700 26.29100
H  -5.73300 30.70800 24.92800
H  -7.32900 31.25800 25.25900
H  -5.45000 31.78300 31.06300
H  -9.28000 31.70100 33.00300
H  -9.43200 33.17600 32.11500
H  -8.47100 33.20100 33.55400

