158

Mg 8.55900 3.28300 28.09800
C  9.83900 2.05300 30.92000
C  6.64400 5.50400 29.99000
C  6.87100 4.25900 25.33300
C  10.41100 1.02200 26.18400
N  8.20100 3.62900 30.19900
C  8.90300 3.01500 31.18500
C  8.51700 3.49700 32.54300
C  7.25600 4.37800 32.18300
C  7.31700 4.48800 30.69100
C  5.88300 3.79500 32.54000
C  9.68600 4.33800 33.17900
C  10.00100 3.95300 34.67000
H  9.01100 3.14700 35.56600
N  6.96000 4.68400 27.73500
C  6.40600 5.56200 28.54700
C  5.59500 6.53500 27.81500
C  5.60000 6.16400 26.52200
C  6.45700 4.93800 26.50900
C  4.85500 7.68300 28.56400
C  4.86800 6.69900 25.26900
O  4.97400 6.25400 24.14900
C  4.01400 7.90600 25.37700
N  8.53900 2.66700 26.03300
C  7.74500 3.23600 25.13700
C  7.91000 2.54600 23.77300
C  9.31600 1.73900 23.87300
C  9.47400 1.78500 25.38200
C  6.77100 1.63700 23.36700
C  10.39800 2.39500 23.12600
C  10.57400 2.01200 21.64600
N  9.85600 1.79700 28.39500
C  10.65300 1.00800 27.55600
C  11.49300 0.18300 28.32700
C  11.23500 0.58600 29.63500
C  10.24300 1.58600 29.62700
C  12.40800 -0.91100 27.83900
C  11.55400 0.32700 31.04400
O  12.33500 -0.44400 31.51100
C  10.65600 1.25200 31.88500
C  9.88500 0.42400 32.87300
O  8.81800 -0.08900 32.66700
O  10.56100 0.37500 34.03100
C  9.95300 -0.45700 35.08300
H  6.04000 6.16800 30.61300
H  6.38300 4.58700 24.41200
H  11.05900 0.34400 25.62500
H  8.36900 2.62300 33.17600
H  7.31800 5.38100 32.60600
H  5.48400 4.35900 33.38400
H  5.87100 2.81300 33.01300
H  5.03600 3.89700 31.86100
H  9.47500 5.40700 33.20800
H  10.67400 4.21900 32.73400
H  10.26700 4.87700 35.18500
H  10.92400 3.37900 34.74400
H  5.26800 8.66400 28.32800
H  4.91000 7.57600 29.64700
H  3.80100 7.69900 28.28600
H  3.32900 8.01300 24.53500
H  4.59400 8.82500 25.29900
H  3.40200 7.90800 26.27900
H  7.87800 3.34100 23.02800
H  9.23600 0.75700 23.40700
H  6.35800 1.09500 24.21800
H  7.11900 0.89300 22.64900
H  6.02300 2.24500 22.85800
H  11.35500 2.23800 23.62300
H  10.22500 3.47200 23.13100
H  10.36100 0.99000 21.33400
H  11.61500 2.13600 21.34600
H  9.88000 2.68500 21.14200
H  12.82200 -0.76200 26.84200
H  11.98500 -1.91400 27.89700
H  13.18500 -0.93800 28.60300
H  11.33700 1.98500 32.31700
H  10.51100 -1.39200 35.02500
H  8.90400 -0.75100 35.06400
H  10.14900 -0.11000 36.09800
Mg -5.82500 25.36000 26.51600
C  -3.90400 26.95700 28.89800
C  -6.73500 22.99600 28.95400
C  -7.42200 23.57200 24.13500
C  -4.21300 27.20800 23.96000
N  -5.35500 25.02700 28.66600
C  -4.77700 26.00500 29.44700
C  -5.02200 25.68300 30.91100
C  -5.45100 24.18900 30.90900
C  -5.89200 24.03800 29.40000
C  -4.32400 23.24900 31.24800
C  -5.92400 26.78600 31.55800
C  -5.50200 27.15300 33.01700
H  -5.09800 25.99300 33.95500
N  -6.96200 23.59000 26.60800
C  -7.24600 22.77100 27.63700
C  -7.91100 21.49200 27.24800
C  -8.19200 21.74000 25.88700
C  -7.51600 22.99800 25.47500
C  -8.38400 20.41100 28.18200
C  -9.00700 20.89000 24.88400
O  -9.15200 21.19200 23.73100
C  -9.53800 19.56900 25.38800
N  -5.67600 25.34800 24.36500
C  -6.65300 24.63900 23.64100
C  -6.64000 24.97200 22.20400
C  -5.50700 26.06400 22.08800
C  -5.20400 26.33100 23.55300
C  -6.32900 23.73000 21.24800
C  -5.95600 27.33100 21.36200
C  -5.63500 27.33100 19.84900
N  -4.34100 26.81500 26.41600
C  -3.79800 27.43200 25.34500
C  -2.76400 28.36700 25.79900
C  -2.74900 28.27400 27.16000
C  -3.71700 27.19300 27.48600
C  -2.05700 29.32600 24.84400
C  -2.15400 28.67700 28.45000
O  -1.25200 29.46800 28.78400
C  -2.84600 27.75200 29.62200
C  -1.66000 26.95900 30.20900
O  -0.89700 26.34300 29.48800
O  -1.67800 26.94300 31.58200
C  -0.82600 25.93500 32.18700
H  -7.09800 22.32300 29.73400
H  -7.94900 23.06300 23.32500
H  -3.71800 27.79300 23.18200
H  -4.04800 25.77900 31.39100
H  -6.25200 24.21200 31.64800
H  -3.59700 23.65400 31.95200
H  -3.80800 23.04300 30.31100
H  -4.65600 22.35900 31.78200
H  -6.92000 26.37300 31.72000
H  -5.98200 27.72900 31.01400
H  -6.33500 27.62600 33.53700
H  -4.56900 27.70900 32.92800
H  -8.28500 20.77900 29.20300
H  -7.83100 19.50700 27.92900
H  -9.43400 20.19700 27.98200
H  -9.91800 18.93900 24.58400
H  -10.42500 19.80200 25.97700
H  -8.75100 19.00400 25.88700
H  -7.65600 25.31800 22.01700
H  -4.66500 25.57000 21.60500
H  -6.35400 22.78300 21.78800
H  -5.44600 23.71700 20.61000
H  -7.13000 23.55200 20.53100
H  -5.57000 28.21900 21.86300
H  -7.03700 27.44900 21.42900
H  -6.60200 27.51300 19.38000
H  -5.09200 26.47500 19.44800
H  -5.02600 28.21400 19.65700
H  -2.83400 29.66600 24.16000
H  -1.36200 28.67500 24.31400
H  -1.59700 30.19700 25.31100
H  -3.24400 28.38000 30.41900
H  0.19600 26.30400 32.09600
H  -0.96900 25.02000 31.61200
H  -0.99200 25.75200 33.24800

