158

Mg 9.15000 3.63000 27.42800
C  10.70200 2.22500 30.26200
C  7.68400 5.95600 29.26000
C  7.93800 5.02700 24.48000
C  10.43800 1.00400 25.54700
N  9.18400 3.98100 29.53200
C  9.85800 3.32800 30.53300
C  9.62100 3.96300 31.88900
C  8.62900 5.20100 31.53100
C  8.49200 5.08100 30.00600
C  7.27000 4.97100 32.22300
C  10.95400 4.41500 32.52600
C  10.79400 5.08300 34.02000
H  11.51200 4.51800 35.26600
N  7.95400 5.26400 26.93000
C  7.33700 6.04800 27.89800
C  6.54300 7.06400 27.26900
C  6.68000 6.89900 25.82800
C  7.52800 5.70700 25.68800
C  5.54600 7.95400 28.00600
C  5.98600 7.62600 24.72400
O  6.08900 7.24000 23.55200
C  5.07200 8.79900 25.03200
N  9.17100 3.07800 25.32400
C  8.60700 3.82100 24.32400
C  8.84500 3.14900 22.99800
C  9.54200 1.83100 23.33100
C  9.77100 1.97300 24.82700
C  7.49000 2.99400 22.18000
C  10.76100 1.65900 22.51200
C  10.80400 0.45600 21.56100
N  10.28300 1.85000 27.81800
C  10.80600 0.89600 26.86800
C  11.52000 -0.08300 27.59900
C  11.55600 0.41400 28.91800
C  10.76600 1.61500 29.01200
C  12.24500 -1.32400 27.13300
C  12.03200 0.08900 30.22900
O  12.68600 -0.86800 30.63000
C  11.50400 1.28000 31.18800
C  10.66800 0.66900 32.25400
O  9.59400 0.05700 32.09200
O  11.27400 0.73600 33.48400
C  10.69000 -0.10100 34.51800
H  7.33700 6.74300 29.93300
H  7.61300 5.54900 23.57800
H  10.70100 0.17600 24.88500
H  9.23000 3.14900 32.50000
H  9.07100 6.19000 31.65200
H  6.89900 5.92800 32.58900
H  7.39300 4.30500 33.07800
H  6.46700 4.52000 31.63900
H  11.38800 5.14700 31.84600
H  11.66000 3.59400 32.65300
H  9.72700 5.10700 34.24400
H  10.95700 6.16100 34.00300
H  5.81800 9.00900 27.98800
H  5.67200 7.56300 29.01500
H  4.56100 7.76900 27.57900
H  4.05100 8.58000 25.34400
H  4.90400 9.45200 24.17500
H  5.54500 9.38600 25.81900
H  9.49400 3.83100 22.44900
H  8.88300 0.98200 23.14800
H  7.35200 3.78700 21.44400
H  6.69300 3.07800 22.91900
H  7.62700 2.05000 21.65200
H  11.67800 1.62100 23.10100
H  10.82100 2.50300 21.82500
H  10.04700 0.55800 20.78300
H  10.76100 -0.48900 22.10100
H  11.78600 0.46200 21.08700
H  12.34700 -1.84400 28.08600
H  13.21300 -1.07200 26.70100
H  11.62000 -1.90000 26.45000
H  12.32000 1.80900 31.68000
H  10.09200 -0.93700 34.15700
H  10.19400 0.51900 35.26500
H  11.44300 -0.60000 35.12800
Mg 17.66500 -2.40100 28.20700
C  16.97700 -0.43800 31.13100
C  19.43000 -4.51800 30.29100
C  18.89400 -3.92900 25.51300
C  16.15500 0.07500 26.27300
N  18.18600 -2.43300 30.50600
C  17.60800 -1.63600 31.44000
C  17.80400 -2.23600 32.84300
C  18.65700 -3.53100 32.54100
C  18.80500 -3.46700 31.03700
C  20.00600 -3.53100 33.38700
C  16.48200 -2.67200 33.51500
C  16.23700 -2.13800 34.99100
H  17.45300 -1.68100 35.88400
N  18.93100 -4.02400 27.93400
C  19.48700 -4.77900 28.92600
C  20.33700 -5.82700 28.28300
C  20.12700 -5.74300 26.87600
C  19.24000 -4.58700 26.70300
C  21.07600 -6.84800 29.15300
C  20.60400 -6.62800 25.75300
O  20.29800 -6.41600 24.58700
C  21.29500 -7.81800 26.18200
N  17.51100 -1.93800 26.13700
C  18.15700 -2.70700 25.18500
C  17.85700 -2.16000 23.77000
C  16.66700 -1.14700 24.07400
C  16.75300 -1.02100 25.55200
C  19.00700 -1.47500 23.01700
C  15.24000 -1.65800 23.66400
C  14.14300 -0.61700 23.29100
N  16.78300 -0.59500 28.54700
C  16.12000 0.28500 27.65000
C  15.34500 1.24400 28.46100
C  15.80100 1.06300 29.78500
C  16.65100 -0.07700 29.78300
C  14.38500 2.35300 27.95600
C  15.56400 1.51400 31.10000
O  14.79900 2.41000 31.49000
C  16.35400 0.58800 32.06100
C  17.26900 1.37600 32.88300
O  18.40100 1.66300 32.59700
O  16.58800 1.95900 33.88700
C  17.35300 2.88900 34.68900
H  19.75900 -5.35300 30.91300
H  19.39000 -4.29800 24.61300
H  15.73700 0.86100 25.64100
H  18.39500 -1.48200 33.36400
H  18.13600 -4.47300 32.71300
H  19.93100 -2.91000 34.28000
H  20.81800 -3.12500 32.78500
H  20.21700 -4.53900 33.74500
H  16.31700 -3.74400 33.41600
H  15.78700 -2.06900 32.93000
H  15.63600 -2.91100 35.47100
H  15.54700 -1.29600 34.92500
H  20.47800 -7.75100 29.03800
H  21.39200 -6.69600 30.18600
H  22.06900 -6.99200 28.72600
H  22.31500 -7.76600 26.56000
H  21.58300 -8.35600 25.27900
H  20.59400 -8.47500 26.69700
H  17.57100 -3.07700 23.25500
H  16.72800 -0.15200 23.63300
H  19.75000 -1.44200 23.81400
H  18.68600 -0.46700 22.75500
H  19.35100 -1.99800 22.12500
H  14.94500 -2.24200 24.53500
H  15.38500 -2.24900 22.75900
H  13.25800 -0.74000 23.91600
H  13.75300 -0.95600 22.33100
H  14.56800 0.37600 23.14800
H  13.45500 1.90700 27.60400
H  14.87600 2.80300 27.09300
H  14.25800 3.18700 28.64700
H  15.69500 0.10600 32.78300
H  17.38600 2.50100 35.70700
H  16.85600 3.85500 34.77800
H  18.38900 3.05400 34.39400

