158

Mg 48.65400 45.15800 43.70100
C  45.60700 46.18500 42.19300
C  48.54600 42.26500 41.96500
C  51.83300 44.95900 44.33300
C  48.80900 48.60200 44.86000
N  47.13800 44.37500 42.37000
C  46.04100 44.91700 41.85800
C  45.40600 44.00000 40.90000
C  46.27000 42.69800 41.00800
C  47.44200 43.11900 41.87000
C  45.51100 41.41500 41.59100
C  45.35100 44.46600 39.39600
C  44.00200 44.19600 38.65600
H  44.07600 43.06700 37.60200
N  49.93200 43.71900 43.30300
C  49.70300 42.55200 42.59900
C  50.91600 41.82200 42.48600
C  51.93000 42.55100 43.20800
C  51.25300 43.87200 43.62100
C  51.03800 40.64100 41.61500
C  53.33300 42.03700 43.49400
O  53.72300 40.95800 43.06300
C  54.42200 42.77500 44.14100
N  50.17300 46.60800 44.53400
C  51.44800 46.23200 44.65900
C  52.38600 47.39300 45.03300
C  51.39400 48.59100 45.36200
C  50.02600 47.92400 44.83400
C  53.47600 47.11300 46.19200
C  51.67200 49.99800 44.68200
C  51.41400 51.17500 45.68700
N  47.44300 46.93300 43.75800
C  47.65600 48.19100 44.26600
C  46.51700 49.04700 44.03200
C  45.68900 48.25100 43.25400
C  46.25400 46.99400 43.11600
C  46.27300 50.45400 44.48000
C  44.41300 48.24200 42.54800
O  43.60600 49.20000 42.51600
C  44.36400 46.95500 41.73100
C  43.01900 46.31200 42.04900
O  42.79700 45.53200 42.91800
O  42.12900 46.59800 41.02800
C  40.92300 45.75800 41.06500
H  48.51800 41.31000 41.43600
H  52.91700 44.90800 44.45400
H  48.76800 49.62500 45.23900
H  44.38000 43.90800 41.25600
H  46.62600 42.48400 40.00100
H  44.43200 41.41100 41.43400
H  45.72600 41.36200 42.65800
H  45.71300 40.47300 41.08200
H  46.16600 44.07100 38.78900
H  45.44500 45.55200 39.37900
H  43.69600 45.14500 38.21500
H  43.10700 43.92200 39.21500
H  51.11100 40.93900 40.56900
H  50.13500 40.03900 41.70500
H  51.77600 39.85200 41.76100
H  54.14400 43.08500 45.14800
H  54.49300 43.68600 43.54700
H  55.38200 42.26100 44.09600
H  52.96500 47.67900 44.15500
H  51.28200 48.62900 46.44600
H  54.52000 47.16600 45.88000
H  53.20000 46.12500 46.56100
H  53.37200 47.80800 47.02500
H  51.02000 50.27300 43.85300
H  52.69100 49.99400 44.29400
H  52.34100 51.74000 45.78500
H  51.25700 50.73600 46.67200
H  50.61900 51.83000 45.33100
H  46.47400 51.18600 43.69800
H  46.90900 50.60300 45.35400
H  45.21800 50.55200 44.73600
H  44.40300 47.31100 40.70200
H  40.38900 45.70200 42.01400
H  41.14600 44.70000 40.93000
H  40.20700 45.89800 40.25600
Mg -2.01100 35.36500 26.40900
C  -3.11300 33.62100 29.27300
C  -0.53700 37.74100 28.37500
C  -1.11100 37.04300 23.65000
C  -3.68900 32.91800 24.44400
N  -1.91600 35.64500 28.57800
C  -2.38700 34.80500 29.61800
C  -1.85500 35.27700 30.97900
C  -1.18900 36.71100 30.70800
C  -1.17300 36.72500 29.12700
C  -1.94900 37.95500 31.35000
C  -0.98200 34.25900 31.70900
C  -1.36800 33.78600 33.14400
H  -0.29500 33.70000 34.29300
N  -1.06800 37.20800 26.05600
C  -0.56900 38.00900 27.02700
C  0.00700 39.11400 26.43600
C  -0.05100 38.95200 25.02200
C  -0.72500 37.64100 24.81700
C  0.67500 40.24500 27.24700
C  0.38900 39.93000 23.87100
O  0.20900 39.59500 22.72000
C  1.00600 41.27000 24.10000
N  -2.42500 35.11300 24.31300
C  -1.88400 35.88500 23.40300
C  -1.91300 35.25400 22.05000
C  -2.73700 33.91100 22.21500
C  -2.97900 33.94300 23.77200
C  -2.46700 36.04900 20.82400
C  -2.04300 32.73700 21.53300
C  -1.04600 31.93800 22.39000
N  -3.15900 33.61000 26.71200
C  -3.80500 32.76500 25.80800
C  -4.53000 31.79400 26.55100
C  -4.23400 32.08200 27.89200
C  -3.34100 33.10900 27.93700
C  -5.41200 30.77500 25.92100
C  -4.54200 31.65900 29.21300
O  -5.31200 30.81600 29.63600
C  -3.70600 32.54000 30.19000
C  -4.61000 33.00700 31.22200
O  -5.54200 33.76900 31.03100
O  -4.21300 32.45500 32.49500
C  -5.12800 32.77300 33.62900
H  0.02400 38.42700 29.01300
H  -0.86100 37.50200 22.69100
H  -4.26500 32.16900 23.89500
H  -2.72200 35.42700 31.62200
H  -0.17200 36.88800 31.05700
H  -2.61500 37.57800 32.12700
H  -2.57300 38.40500 30.57800
H  -1.33300 38.82500 31.57500
H  -0.02000 34.74900 31.86000
H  -0.88900 33.34600 31.12100
H  -1.61500 32.74300 32.94200
H  -2.26600 34.34300 33.41000
H  1.75100 40.20200 27.07800
H  0.58800 40.25500 28.33300
H  0.38000 41.17500 26.76100
H  1.57100 41.66400 23.25500
H  1.72900 41.24000 24.91600
H  0.15200 41.89600 24.35600
H  -0.85100 35.01200 22.01200
H  -3.66400 34.07100 21.66400
H  -1.84300 36.06300 19.93000
H  -2.47400 37.10900 21.07700
H  -3.49500 35.80300 20.55600
H  -1.64900 33.07800 20.57500
H  -2.85600 32.02000 21.41400
H  -1.38300 30.91300 22.54800
H  -0.94000 32.42300 23.36000
H  -0.09000 31.90000 21.86800
H  -5.28300 30.44300 24.89100
H  -6.38900 31.25700 25.94200
H  -5.42400 29.90900 26.58300
H  -3.02400 31.78000 30.56900
H  -6.05800 33.26400 33.34400
H  -4.57800 33.36200 34.36300
H  -5.40000 31.79900 34.03700

