158

Mg 53.12600 22.98800 44.04700
C  50.67400 25.40500 43.46800
C  50.97200 20.53700 43.03300
C  55.76000 20.94300 44.01300
C  55.24200 25.55700 45.37200
N  51.13900 23.02900 43.09800
C  50.31700 24.11500 43.05600
C  49.06200 23.68400 42.23900
C  49.02700 22.15400 42.50800
C  50.43800 21.86300 42.85500
C  48.12100 21.74400 43.72900
C  49.22000 23.95000 40.73300
C  47.95600 23.92700 39.99600
H  47.82700 23.30500 38.58100
N  53.35700 20.98800 43.59200
C  52.32400 20.13900 43.27400
C  52.86200 18.80300 43.09700
C  54.29500 18.90400 43.32000
C  54.53200 20.34300 43.66400
C  52.03600 17.63400 42.79300
C  55.30200 17.71600 43.28000
O  54.77400 16.57800 43.18000
C  56.76100 17.81100 43.39500
N  55.21600 23.25500 44.48800
C  56.08700 22.24800 44.33600
C  57.51500 22.66500 44.68700
C  57.35700 24.12300 45.23700
C  55.90200 24.35600 45.04200
C  58.29500 21.72100 45.65600
C  58.27400 25.28600 44.75500
C  59.07500 26.01800 45.78600
N  52.97700 25.07700 44.38400
C  53.84400 25.95500 45.04600
C  53.21900 27.20600 45.20100
C  51.95300 27.10900 44.54900
C  51.91900 25.74700 44.06800
C  53.80200 28.40600 45.85700
C  50.71100 27.74900 44.15800
O  50.23600 28.84700 44.32800
C  49.90500 26.71200 43.33300
C  49.70900 27.21700 41.99000
O  50.53500 27.21800 41.05000
O  48.41400 27.54300 41.86800
C  47.96300 27.99100 40.56700
H  50.17900 19.79800 42.89900
H  56.59300 20.25500 43.85300
H  55.89500 26.33600 45.77200
H  48.14900 24.15200 42.61000
H  48.71300 21.66100 41.58700
H  47.94200 22.67600 44.26500
H  48.58900 20.97500 44.34300
H  47.20300 21.28400 43.36200
H  49.91200 23.18300 40.38400
H  49.69300 24.90900 40.52100
H  47.62900 24.95700 39.85500
H  47.16000 23.41800 40.54000
H  52.32700 17.23500 41.82200
H  50.97300 17.87600 42.79800
H  52.27200 16.91800 43.58100
H  57.09300 18.59200 42.71100
H  57.20500 16.91700 42.95600
H  57.08500 17.96700 44.42400
H  57.95300 22.63500 43.69000
H  57.50600 24.12500 46.31700
H  58.66800 22.26500 46.52300
H  59.19800 21.33000 45.18800
H  57.63700 20.90400 45.95200
H  57.59600 26.00800 44.30000
H  58.99100 24.89500 44.03300
H  60.13600 25.77400 45.73400
H  58.61300 25.83000 46.75600
H  59.04100 27.09100 45.59700
H  53.59100 28.34400 46.92500
H  53.26300 29.30900 45.56800
H  54.88700 28.50500 45.82700
H  48.94300 26.66700 43.84500
H  47.81600 29.07100 40.58200
H  47.04300 27.45100 40.34500
H  48.69000 27.77100 39.78600
Mg 6.06700 55.63200 39.35500
C  5.41500 52.23300 39.77900
C  9.47000 55.03500 38.61800
C  6.45200 58.83900 38.06600
C  2.56500 56.31700 39.60400
N  7.15000 53.82800 38.98000
C  6.72900 52.53500 39.38600
C  7.93600 51.57000 39.19600
C  9.18600 52.53400 39.25900
C  8.57200 53.91900 38.94500
C  10.02300 52.49700 40.56600
C  7.86400 50.67000 37.95700
C  7.53400 51.31200 36.57000
H  6.08100 51.02500 36.12300
N  7.73700 56.75700 38.49800
C  9.04100 56.33900 38.33600
C  9.86600 57.43900 37.96700
C  8.98900 58.53700 37.69700
C  7.62400 58.06500 38.03700
C  11.42800 57.32800 37.84800
C  9.43700 59.94500 37.42100
O  10.57800 60.15600 37.05800
C  8.54300 61.13800 37.42500
N  4.67200 57.29900 38.87000
C  5.15100 58.46800 38.43400
C  3.99900 59.57500 38.41200
C  2.78100 58.67700 38.73300
C  3.40700 57.39900 39.24400
C  4.16400 60.69000 39.41300
C  1.89000 58.49300 37.44600
C  1.10700 59.76800 37.08100
N  4.28500 54.57000 39.67200
C  2.95300 54.95800 39.80700
C  2.14700 53.82900 40.23600
C  3.06000 52.75600 40.32300
C  4.31700 53.21000 39.90600
C  0.72100 53.76800 40.45700
C  3.18000 51.30100 40.62400
O  2.49000 50.42200 41.11400
C  4.67900 50.89000 40.20600
C  4.58100 49.90600 39.19300
O  3.75900 50.00600 38.27400
O  5.36000 48.77900 39.50400
C  4.96800 47.64000 38.73400
H  10.47500 54.66300 38.40700
H  6.49800 59.83100 37.61100
H  1.49400 56.51900 39.68300
H  7.91100 50.93500 40.08100
H  9.90000 52.21400 38.50000
H  9.71200 51.85500 41.39000
H  10.15900 53.51900 40.91900
H  10.99800 52.09800 40.28500
H  7.09100 49.93000 38.16200
H  8.78900 50.09900 37.87700
H  8.35900 51.03200 35.91500
H  7.62200 52.39900 36.56700
H  11.60400 57.33300 36.77300
H  11.77800 56.41500 38.32900
H  11.88400 58.17700 38.35800
H  9.08100 62.04300 37.14200
H  7.98100 61.19800 38.35700
H  7.92600 60.87700 36.56500
H  3.88600 60.03400 37.43000
H  2.07700 59.10100 39.44900
H  5.22800 60.90600 39.51200
H  3.91200 60.27200 40.38700
H  3.49100 61.54400 39.35300
H  1.17500 57.67200 37.49400
H  2.54500 58.24700 36.60900
H  0.05200 59.60600 37.30300
H  1.19100 59.90900 36.00300
H  1.49800 60.63900 37.60700
H  0.15600 53.36900 39.61400
H  0.28300 54.65000 40.92500
H  0.45600 52.91500 41.08300
H  5.15300 50.34900 41.02500
H  5.90800 47.22000 38.37600
H  4.22800 47.68000 37.93500
H  4.48300 46.94800 39.42300

