158

Mg 17.13300 -1.70200 27.58500
C  15.86000 0.20100 30.17700
C  19.36500 -3.19500 29.71700
C  18.21300 -3.52300 24.91500
C  15.10800 0.09000 25.41200
N  17.54000 -1.49400 29.72000
C  16.93900 -0.63200 30.59700
C  17.44100 -0.92300 31.97600
C  18.62200 -1.89900 31.76200
C  18.60100 -2.19500 30.30200
C  20.02800 -1.36300 32.07600
C  16.27200 -1.52200 32.90100
C  16.11500 -0.97500 34.37500
H  17.40300 -0.23100 34.88400
N  18.54200 -3.21400 27.36700
C  19.31300 -3.74900 28.41700
C  20.01500 -4.91900 27.87400
C  19.83000 -4.85700 26.45400
C  18.82300 -3.83000 26.17800
C  20.92700 -5.68800 28.79100
C  20.43300 -5.75000 25.39700
O  20.16000 -5.76200 24.17400
C  21.55200 -6.70900 25.76100
N  16.79700 -1.69200 25.41800
C  17.29800 -2.55400 24.52700
C  16.94400 -2.16400 23.08900
C  15.81500 -1.09000 23.29300
C  15.87800 -0.85300 24.79500
C  18.17200 -1.66700 22.28200
C  14.43600 -1.56700 22.75300
C  13.70300 -2.53300 23.70900
N  15.64000 -0.28100 27.74200
C  14.85400 0.32500 26.74200
C  13.99100 1.33600 27.38100
C  14.35500 1.28400 28.73000
C  15.34100 0.34500 28.89000
C  13.07300 2.28400 26.71000
C  14.03900 1.85900 30.03300
O  13.26000 2.70800 30.43700
C  14.92000 1.10300 31.08400
C  15.58800 2.00700 32.06500
O  16.73600 2.39900 32.07400
O  14.61300 2.55500 32.82300
C  15.00900 3.45600 33.93200
H  20.09900 -3.75100 30.30300
H  18.54200 -4.07600 24.03300
H  14.45600 0.53700 24.65900
H  17.86300 -0.02600 32.43000
H  18.46400 -2.85100 32.26900
H  19.95600 -0.32700 32.40900
H  20.60000 -1.39500 31.14900
H  20.41000 -2.04300 32.83800
H  16.33700 -2.60900 32.87600
H  15.34800 -1.34900 32.34900
H  15.85200 -1.74800 35.09700
H  15.28400 -0.27400 34.28900
H  21.93000 -5.27100 28.69400
H  20.91700 -6.75800 28.58500
H  20.70700 -5.52800 29.84700
H  21.03500 -7.64900 25.95100
H  22.18800 -6.50700 26.62300
H  22.21300 -6.71900 24.89400
H  16.51300 -3.05700 22.63500
H  16.05600 -0.18600 22.73500
H  18.08000 -0.66700 21.85700
H  18.41500 -2.46600 21.58100
H  19.05800 -1.59300 22.91200
H  14.53600 -2.12800 21.82400
H  13.78000 -0.72900 22.51600
H  13.21700 -1.92500 24.47200
H  14.40300 -3.22500 24.17800
H  12.90900 -2.93300 23.08000
H  12.44100 2.77100 27.45300
H  12.45600 1.70600 26.02100
H  13.74200 2.97700 26.20100
H  14.25200 0.43600 31.62900
H  14.25300 3.34200 34.70800
H  15.04600 4.49700 33.61100
H  15.98700 3.28200 34.37800
Mg 47.45500 16.84900 28.75900
C  45.32800 16.69400 31.63600
C  49.70700 18.54500 30.43300
C  48.78900 17.66300 25.84500
C  44.65200 15.60700 26.89100
N  47.64300 17.38800 30.86900
C  46.66900 17.34600 31.83000
C  47.13800 17.83400 33.19700
C  48.47500 18.49600 32.77000
C  48.72100 18.07400 31.31500
C  48.39900 20.07900 32.89200
C  47.25200 16.58000 34.12600
C  46.70200 16.70500 35.56500
H  46.38400 18.12400 36.02900
N  49.13700 17.80600 28.26000
C  50.00700 18.37300 29.06600
C  51.20100 18.86800 28.42300
C  50.84000 18.66300 27.02700
C  49.57500 17.98300 27.00300
C  52.43700 19.55400 29.00500
C  51.68500 19.07100 25.81700
O  51.43700 18.58900 24.68100
C  52.91900 19.83200 25.93400
N  46.79800 16.66500 26.57200
C  47.63500 17.01600 25.61800
C  47.03900 16.76900 24.24900
C  45.85700 15.79400 24.61900
C  45.71800 16.02700 26.12900
C  46.39300 17.95600 23.54000
C  46.21200 14.32200 24.26900
C  45.34400 13.75000 23.16900
N  45.43700 16.17500 29.13400
C  44.50800 15.64800 28.28900
C  43.27000 15.33300 29.01400
C  43.59100 15.76700 30.36600
C  44.94500 16.18900 30.37700
C  41.94900 14.82300 28.39000
C  43.14700 15.87300 31.70800
O  42.02700 15.54000 32.18700
C  44.20900 16.47300 32.64100
C  43.62100 17.71200 33.23400
O  43.79800 18.82600 32.72800
O  42.83700 17.42600 34.33700
C  41.94500 18.48400 34.72400
H  50.41100 19.10200 31.05500
H  49.33400 17.88900 24.92600
H  43.97100 15.06000 26.23600
H  46.56500 18.71300 33.49200
H  49.27200 18.20500 33.45300
H  49.08600 20.37800 33.68300
H  47.41700 20.41000 33.22800
H  48.66500 20.50000 31.92200
H  48.29000 16.25100 34.17700
H  46.69500 15.71300 33.77200
H  47.48400 16.30600 36.21100
H  45.69700 16.28900 35.63900
H  53.33000 19.01600 28.68800
H  52.42700 19.47600 30.09200
H  52.48600 20.60200 28.70900
H  53.56300 19.20400 26.54900
H  52.76900 20.80900 26.39400
H  53.36700 20.11200 24.98100
H  47.80900 16.27100 23.66000
H  44.85800 15.96700 24.22100
H  45.46300 17.73100 23.01800
H  47.12000 18.27800 22.79600
H  46.21900 18.72200 24.29600
H  45.96000 13.72300 25.14400
H  47.27900 14.21900 24.06700
H  44.65800 14.45100 22.69300
H  44.78600 12.88800 23.53400
H  46.00100 13.42000 22.36500
H  41.57300 13.96200 28.94200
H  42.19800 14.54500 27.36600
H  41.14400 15.55000 28.50100
H  44.40400 15.70200 33.38500
H  41.60400 19.13200 33.91700
H  42.39900 18.97600 35.58500
H  41.04700 18.07700 35.18900

