158

Mg 49.14400 35.08100 26.99100
C  47.16800 33.70800 29.52900
C  49.38500 38.01500 28.87000
C  50.71200 36.44000 24.42900
C  48.37200 32.30200 25.05800
N  48.28400 35.78700 28.84300
C  47.61000 35.00200 29.75400
C  47.73100 35.65100 31.13800
C  48.11100 37.14500 30.89500
C  48.49400 37.02200 29.38500
C  46.89700 38.06000 31.07200
C  48.92300 34.94200 31.93400
C  48.77600 34.89100 33.44600
H  47.65000 35.74600 34.19800
N  49.97900 36.87400 26.74100
C  50.03300 37.92700 27.64800
C  50.86500 39.02200 27.09000
C  51.23900 38.62600 25.74300
C  50.61300 37.27800 25.59600
C  51.40800 40.13900 27.89200
C  52.11700 39.32600 24.79500
O  52.32200 38.87600 23.68800
C  52.98000 40.57000 25.20100
N  49.26600 34.53200 24.87700
C  50.13700 35.23700 24.12500
C  50.54500 34.45600 22.96300
C  50.08800 33.01900 23.27800
C  49.14200 33.25900 24.41300
C  50.20400 35.05200 21.51100
C  51.21400 32.10300 23.62800
C  51.12600 30.58400 23.16100
N  47.94700 33.29300 27.12600
C  47.69100 32.29800 26.30000
C  46.95400 31.17600 26.92400
C  46.58100 31.76800 28.15900
C  47.27800 33.02200 28.26600
C  46.75800 29.80000 26.41300
C  45.91200 31.54100 29.45800
O  45.19600 30.62900 29.82100
C  46.18000 32.82100 30.36400
C  46.62900 32.31700 31.69800
O  47.74000 31.91600 31.86800
O  45.57800 32.31700 32.54200
C  45.78800 31.89000 33.90500
H  49.54400 38.94900 29.41200
H  51.49700 36.75100 23.73600
H  48.33400 31.32400 24.57400
H  46.77200 35.60100 31.65300
H  48.86300 37.52400 31.58800
H  46.00900 37.57500 31.47800
H  46.55200 38.29500 30.06500
H  47.14200 38.96700 31.62600
H  49.90000 35.37100 31.71400
H  48.96000 33.93900 31.50900
H  49.67300 35.09200 34.03100
H  48.39500 33.88500 33.62400
H  51.08100 41.07900 27.44800
H  52.46700 40.04000 28.12800
H  51.09700 40.16900 28.93600
H  53.53300 40.60100 24.26300
H  53.61300 40.52900 26.08800
H  52.26500 41.39200 25.20200
H  51.63300 34.39600 22.94800
H  49.52800 32.43500 22.54700
H  49.50400 34.39000 21.00100
H  51.07800 35.13500 20.86500
H  49.73900 36.03400 21.60200
H  51.34800 32.18900 24.70600
H  52.20900 32.46400 23.36700
H  50.27900 30.52100 22.47900
H  50.90400 29.92700 24.00300
H  52.04300 30.22000 22.69800
H  47.29400 29.10200 27.05600
H  47.10700 29.77300 25.38100
H  45.69300 29.56700 26.39200
H  45.25400 33.37400 30.52100
H  45.65100 30.80900 33.95400
H  44.96600 32.28900 34.49900
H  46.80000 32.05300 34.27500
Mg -11.58100 17.21000 40.47000
C  -8.52900 15.40900 40.33700
C  -9.84000 20.11700 39.73200
C  -14.48700 18.77400 39.80800
C  -13.19500 14.06300 40.19700
N  -9.43600 17.64900 39.80300
C  -8.44600 16.78200 39.91700
C  -7.10300 17.48900 39.49700
C  -7.55200 19.00100 39.35700
C  -9.03100 18.96600 39.67700
C  -6.63700 19.92300 40.21400
C  -6.46900 16.91800 38.19500
C  -5.02600 16.34900 38.30000
H  -4.68900 15.13000 37.38600
N  -12.06500 19.19200 39.99400
C  -11.19800 20.24000 39.81300
C  -11.94500 21.46400 39.56500
C  -13.35200 21.09200 39.64100
C  -13.35000 19.62400 39.86400
C  -11.39200 22.85200 39.25600
C  -14.49000 22.09100 39.47600
O  -14.31500 23.29900 39.34600
C  -15.96400 21.65700 39.38800
N  -13.52700 16.51300 40.06100
C  -14.55700 17.34900 39.88800
C  -15.86900 16.61100 39.70800
C  -15.43400 15.15800 39.87900
C  -13.95400 15.22000 40.00400
C  -17.16300 17.03700 40.60000
C  -16.02100 14.22000 38.82900
C  -16.43800 12.84300 39.39700
N  -11.04300 15.16000 40.55600
C  -11.81000 13.97500 40.42200
C  -10.96000 12.80700 40.61000
C  -9.65800 13.37200 40.73000
C  -9.79000 14.78200 40.55400
C  -11.34100 11.39800 40.63100
C  -8.21300 13.05200 40.91400
O  -7.63900 12.01700 41.09300
C  -7.44200 14.38700 40.73100
C  -6.75300 14.79600 41.97600
O  -7.03000 15.62800 42.79600
O  -5.61900 13.98900 42.10600
C  -4.79200 14.24600 43.27600
H  -9.23300 21.01200 39.58500
H  -15.47300 19.22100 39.66000
H  -13.64200 13.07000 40.12000
H  -6.44900 17.23000 40.33000
H  -7.47000 19.34700 38.32700
H  -6.64800 19.47800 41.20900
H  -6.91400 20.96600 40.37000
H  -5.65500 19.94200 39.74100
H  -6.41900 17.74600 37.48800
H  -7.07500 16.10100 37.80200
H  -4.94600 15.97000 39.31800
H  -4.35800 17.18500 38.09200
H  -11.87200 23.63700 39.84100
H  -11.52800 22.94300 38.17800
H  -10.32200 22.85600 39.46000
H  -16.02900 21.08500 38.46200
H  -16.61700 22.52800 39.33700
H  -16.30600 21.06200 40.23500
H  -16.26200 16.84700 38.71900
H  -15.78700 14.78600 40.84100
H  -17.32300 18.11400 40.54200
H  -17.03600 16.68900 41.62600
H  -18.06100 16.60900 40.15500
H  -15.34800 14.14200 37.97500
H  -16.97900 14.52700 38.40900
H  -17.50600 12.77600 39.60300
H  -15.76500 12.64200 40.23000
H  -16.13200 12.12800 38.63200
H  -12.17500 11.20100 39.95600
H  -11.63100 11.21000 41.66500
H  -10.48000 10.80200 40.32900
H  -6.68000 14.40300 39.95200
H  -4.16300 15.13600 43.27900
H  -4.25100 13.31800 43.46600
H  -5.41200 14.31800 44.16900

