158

Mg -10.97300 38.54100 40.87200
C  -9.80600 35.20100 40.09400
C  -7.94700 39.71000 39.60000
C  -12.28500 41.62400 40.72100
C  -14.07700 37.20200 41.69800
N  -9.11900 37.47700 39.76800
C  -8.82100 36.16800 39.70400
C  -7.48600 35.95600 39.11900
C  -6.76900 37.36700 39.47300
C  -7.99400 38.24500 39.65200
C  -5.75700 37.40000 40.63700
C  -7.36800 35.47100 37.64200
C  -7.94700 36.50100 36.58400
H  -9.21300 36.21100 35.80300
N  -10.28100 40.34000 40.17900
C  -9.00100 40.69000 39.67300
C  -8.93200 42.12700 39.34000
C  -10.18200 42.65900 39.67600
C  -11.02100 41.53600 40.23200
C  -7.77600 42.78500 38.61200
C  -10.61600 44.10200 39.34600
O  -9.83400 44.86100 38.82200
C  -12.09200 44.58800 39.49100
N  -12.97000 39.32000 40.99500
C  -13.19800 40.59500 41.10100
C  -14.64200 40.95700 41.54600
C  -15.16600 39.46400 41.76900
C  -13.96300 38.59200 41.53900
C  -14.82600 41.87200 42.75300
C  -16.47200 39.10500 40.98900
C  -17.64500 38.61200 41.82800
N  -11.76800 36.67500 40.91000
C  -13.03000 36.27000 41.35200
C  -13.06500 34.84500 41.33900
C  -11.84200 34.36300 40.89200
C  -11.08900 35.53100 40.61700
C  -14.28300 34.06600 41.69100
C  -11.05300 33.18600 40.67500
O  -11.36300 32.01800 40.74900
C  -9.70800 33.66900 40.08800
C  -8.54900 33.00400 40.80600
O  -8.45800 32.76200 42.01700
O  -7.52200 32.74100 39.90500
C  -6.35700 32.29100 40.49600
H  -6.90600 40.03500 39.54300
H  -12.71500 42.61900 40.85100
H  -15.10500 37.00100 42.00900
H  -7.07100 35.11000 39.66700
H  -6.21900 37.77700 38.62600
H  -4.79400 37.76800 40.28400
H  -5.73700 36.41100 41.09600
H  -6.07200 38.08000 41.42800
H  -8.10100 34.66900 37.55600
H  -6.37200 35.23000 37.27300
H  -7.15200 36.67400 35.85900
H  -8.01800 37.52300 36.95600
H  -8.03800 43.41400 37.76200
H  -7.00600 42.06700 38.32900
H  -7.26900 43.49800 39.26200
H  -12.34900 44.83500 40.52100
H  -12.80500 43.83300 39.16100
H  -12.11000 45.56200 39.00200
H  -15.19900 41.31300 40.67900
H  -15.29600 39.39500 42.84900
H  -14.00900 42.58300 42.87700
H  -14.94300 41.33400 43.69400
H  -15.80900 42.33200 42.65700
H  -16.33900 38.27900 40.29000
H  -16.78600 39.93300 40.35300
H  -18.52700 39.25300 41.80900
H  -17.34400 38.53000 42.87200
H  -17.93700 37.61800 41.49000
H  -13.99300 33.11900 42.14600
H  -14.88000 33.74300 40.83800
H  -14.94700 34.48600 42.44600
H  -9.84700 33.24800 39.09300
H  -6.27900 31.24500 40.79500
H  -6.11700 32.80100 41.42900
H  -5.53500 32.43100 39.79400
Mg -12.28700 15.50200 42.14200
C  -9.04700 14.35900 41.49600
C  -11.50600 18.51800 40.44600
C  -15.61600 16.28500 41.93700
C  -13.19300 12.26800 43.11000
N  -10.60900 16.22700 40.96700
C  -9.33100 15.63100 40.97500
C  -8.26500 16.49600 40.27200
C  -9.00100 17.90500 40.32400
C  -10.49300 17.53600 40.58200
C  -8.37100 19.00300 41.29200
C  -7.77700 16.01400 38.86800
C  -6.24400 15.92500 38.73200
H  -5.58100 16.58700 37.55300
N  -13.42500 17.23600 41.36300
C  -12.92800 18.36200 40.71900
C  -13.97600 19.29900 40.44400
C  -15.23500 18.69600 40.92300
C  -14.78600 17.39100 41.48900
C  -13.72900 20.64600 39.82700
C  -16.58000 19.33600 40.86900
O  -16.75300 20.34900 40.15800
C  -17.71100 18.89500 41.66400
N  -14.11900 14.48500 42.63000
C  -15.31600 15.03100 42.39800
C  -16.46500 14.06000 42.68000
C  -15.71500 12.70100 43.14000
C  -14.22100 13.13400 42.94500
C  -17.61200 14.48500 43.67900
C  -16.12500 11.42900 42.42100
C  -16.72800 10.31900 43.26400
N  -11.42300 13.69100 42.27800
C  -11.85700 12.51100 42.86200
C  -10.75100 11.56800 43.01600
C  -9.63900 12.28300 42.42400
C  -10.07000 13.52600 42.01100
C  -10.76600 10.10400 43.55300
C  -8.20000 12.20900 42.12200
O  -7.42700 11.38600 42.50800
C  -7.77100 13.58900 41.47400
C  -6.62400 14.15300 42.22500
O  -6.70700 14.54800 43.36700
O  -5.43700 14.13800 41.51900
C  -4.25500 14.41200 42.36000
H  -11.13300 19.48300 40.09600
H  -16.66300 16.56900 41.81100
H  -13.34700 11.30400 43.60000
H  -7.42500 16.55500 40.96400
H  -8.85500 18.40200 39.36500
H  -8.30300 19.94700 40.75200
H  -7.35300 18.70700 41.54300
H  -8.97000 19.08400 42.19900
H  -8.23100 16.76800 38.22400
H  -8.22300 15.04100 38.65800
H  -6.13200 14.84000 38.72600
H  -5.82300 16.37300 39.63200
H  -12.72100 21.06100 39.85300
H  -14.34700 21.37300 40.35400
H  -14.07800 20.66100 38.79400
H  -18.30400 18.31500 40.95700
H  -18.30000 19.77700 41.91500
H  -17.45200 18.29900 42.54000
H  -17.03300 14.00000 41.75100
H  -15.74900 12.59700 44.22400
H  -17.62900 13.82100 44.54200
H  -18.51900 14.32600 43.09500
H  -17.55600 15.53300 43.97600
H  -15.23200 11.09700 41.89200
H  -16.80200 11.71800 41.61700
H  -16.29500 9.39500 42.88200
H  -17.81400 10.22800 43.24900
H  -16.41400 10.37400 44.30700
H  -9.80300 9.59400 43.58600
H  -11.36200 9.45900 42.90700
H  -11.21500 9.95500 44.53500
H  -7.42300 13.53200 40.44300
H  -4.14500 15.43200 42.72800
H  -3.43900 14.12600 41.69600
H  -4.21200 13.70700 43.19000

