158

Mg 24.41900 -4.41200 45.99200
C  25.63200 -1.60000 44.26300
C  21.28200 -3.63900 44.70400
C  23.35200 -7.57400 46.78500
C  27.63800 -5.08900 46.99500
N  23.64400 -2.83400 44.62300
C  24.27500 -1.79700 44.06100
C  23.30400 -0.99000 43.14700
C  21.94700 -1.25900 43.90700
C  22.31400 -2.67400 44.45400
C  21.47400 -0.18900 44.95400
C  23.32500 -1.46400 41.69100
C  23.74800 -0.54000 40.54800
H  24.95300 -0.93900 39.76800
N  22.66400 -5.47700 45.59500
C  21.48300 -4.93300 45.15700
C  20.46100 -5.92200 45.14600
C  21.07200 -7.15500 45.68100
C  22.38000 -6.72000 46.11000
C  18.98200 -5.61900 44.66700
C  20.37000 -8.56100 45.79200
O  19.20300 -8.65000 45.45200
C  21.00600 -9.80200 46.34900
N  25.37700 -6.09600 46.76500
C  24.66800 -7.26700 47.08900
C  25.68800 -8.36800 47.58900
C  27.02400 -7.54500 47.76100
C  26.66000 -6.15800 47.15000
C  25.26600 -9.25100 48.76700
C  28.32700 -8.23100 47.29200
C  28.59600 -8.18200 45.87000
N  26.28900 -3.46200 45.86100
C  27.51400 -3.89100 46.28200
C  28.43800 -2.84800 45.96200
C  27.80900 -1.98200 45.06600
C  26.48000 -2.36200 45.13000
C  29.87000 -2.98100 46.35000
C  27.95000 -0.83100 44.19900
O  28.94600 -0.28300 43.84800
C  26.53300 -0.47100 43.67400
C  26.16600 0.90700 44.17300
O  25.30200 1.14700 44.98600
O  26.90000 1.91100 43.63500
C  26.76000 3.28600 44.16100
H  20.28500 -3.22100 44.55000
H  23.20000 -8.64200 46.95700
H  28.58900 -5.32700 47.47700
H  23.40700 0.09400 43.09100
H  21.15400 -1.37800 43.16800
H  21.35900 -0.62900 45.94500
H  20.54100 0.25500 44.60700
H  22.29000 0.51900 45.09800
H  22.31900 -1.80900 41.45300
H  24.00300 -2.31400 41.62100
H  23.81600 0.48600 40.90900
H  22.94000 -0.51600 39.81600
H  18.57100 -6.60000 44.42600
H  19.10700 -4.93800 43.82500
H  18.46300 -5.01700 45.41200
H  20.23500 -10.57200 46.34400
H  21.19700 -9.67200 47.41500
H  21.84500 -10.15800 45.75100
H  25.86400 -9.01300 46.72800
H  27.20700 -7.37800 48.82200
H  25.76600 -10.20700 48.60600
H  24.20200 -9.38400 48.57000
H  25.52400 -8.84300 49.74400
H  28.30200 -9.24000 47.70300
H  29.12800 -7.70900 47.81500
H  29.61600 -7.80100 45.82000
H  27.95200 -7.70900 45.12900
H  28.69400 -9.19700 45.48600
H  30.52300 -2.11100 46.28200
H  30.29400 -3.83200 45.81600
H  29.84100 -3.18000 47.42100
H  26.47200 -0.37800 42.58900
H  27.36500 3.51000 45.04000
H  25.76900 3.59800 44.49000
H  27.09300 3.99100 43.39900
Mg 41.99200 41.52800 27.48300
C  41.15000 43.91500 29.89900
C  42.86600 39.32200 29.93900
C  42.87500 39.28500 25.14600
C  41.49600 43.98500 25.11800
N  42.01800 41.67400 29.78600
C  41.57300 42.70200 30.55500
C  41.69100 42.33600 32.07900
C  42.41100 40.91200 32.01900
C  42.49900 40.61200 30.53300
C  43.84600 40.72700 32.74300
C  40.39500 42.39800 32.79300
C  40.19800 43.22000 34.12600
H  39.51100 42.38000 35.21400
N  42.73900 39.59200 27.53900
C  43.00800 38.85300 28.64300
C  43.48500 37.52600 28.27100
C  43.42100 37.47600 26.84900
C  43.02300 38.84200 26.44500
C  44.05700 36.44500 29.27300
C  43.88100 36.37400 25.93700
O  43.91900 36.46900 24.71000
C  44.42900 35.03100 26.60000
N  42.13500 41.57400 25.50000
C  42.46200 40.54700 24.70000
C  42.41000 40.85900 23.20100
C  41.61100 42.22400 23.26100
C  41.78700 42.66400 24.68400
C  43.73400 40.99700 22.57300
C  40.11900 42.07200 22.76400
C  38.98600 41.79400 23.79700
N  41.60800 43.51900 27.46500
C  41.30700 44.35100 26.36800
C  40.72300 45.60800 26.82800
C  40.72000 45.51000 28.19100
C  41.20000 44.20400 28.52800
C  40.54000 46.87800 25.95300
C  40.56900 46.28800 29.45300
O  40.16300 47.45400 29.59800
C  40.86200 45.25500 30.63500
C  41.92900 45.80900 31.51500
O  43.09200 46.01200 31.18000
O  41.35700 46.02600 32.79400
C  42.21600 46.69700 33.84600
H  43.14300 38.53100 30.63800
H  43.11300 38.51100 24.41400
H  41.29000 44.67000 24.29300
H  42.28900 43.11300 32.55500
H  41.73800 40.18100 32.46800
H  44.59200 40.33900 32.05000
H  43.68700 39.90800 33.44400
H  44.24300 41.63600 33.19400
H  40.05400 41.37300 32.93400
H  39.67400 42.77400 32.06600
H  39.47900 44.02800 33.99200
H  41.16000 43.61800 34.44900
H  44.97700 36.02400 28.86700
H  43.37300 35.62300 29.48300
H  44.25200 36.96300 30.21200
H  45.40900 35.12000 27.06800
H  44.53300 34.37800 25.73300
H  43.67500 34.60600 27.26200
H  41.82000 40.11400 22.66800
H  42.08100 42.97500 22.62500
H  44.02600 42.01700 22.32300
H  43.79900 40.61800 21.55300
H  44.53100 40.48300 23.11100
H  40.14700 41.25000 22.05000
H  39.90600 43.07200 22.38600
H  38.06200 42.27900 23.48100
H  39.25100 42.09100 24.81200
H  38.69600 40.74500 23.85300
H  39.49600 47.13600 25.77800
H  41.00100 46.75200 24.97300
H  41.10600 47.69800 26.39500
H  40.03900 45.16100 31.34500
H  43.22200 46.92800 33.49700
H  42.33000 45.97500 34.65500
H  41.75800 47.64100 34.14100

