158

Mg 28.90900 56.89000 40.36900
C  26.99700 54.03200 39.67200
C  31.68000 54.97800 39.75000
C  30.65000 59.63500 40.70900
C  25.91400 58.61900 40.95700
N  29.21000 54.81600 39.48900
C  28.29500 53.82500 39.38900
C  28.96400 52.50400 38.96100
C  30.35700 52.81000 39.33000
C  30.43800 54.32800 39.51100
C  30.80700 52.17300 40.66400
C  28.80600 52.11500 37.52700
C  29.29800 53.18500 36.49200
H  28.25800 53.69000 35.42800
N  30.95300 57.22400 40.27900
C  31.91600 56.31800 40.15100
C  33.24800 56.97300 40.34100
C  32.97100 58.37100 40.61000
C  31.49800 58.47400 40.58300
C  34.51400 56.22000 40.07100
C  34.01000 59.43300 40.93600
O  35.22400 59.14300 40.73000
C  33.62300 60.71900 41.49700
N  28.35500 58.85500 40.42700
C  29.28600 59.81400 40.82300
C  28.68000 61.18900 40.75700
C  27.16400 60.85900 40.94700
C  27.13000 59.28600 40.83600
C  29.35100 62.38000 41.61000
C  26.24900 61.61300 40.00500
C  25.89400 63.00500 40.39500
N  26.76200 56.49200 40.40900
C  25.76500 57.25200 40.70900
C  24.58600 56.47300 40.74000
C  24.97400 55.21400 40.32800
C  26.37800 55.28400 40.17000
C  23.17800 56.87300 41.02700
C  24.53200 53.79700 40.10300
O  23.42500 53.34400 40.33500
C  25.81500 53.00700 39.53800
C  26.01200 51.81500 40.38300
O  26.25600 51.83900 41.58800
O  25.93700 50.68400 39.60600
C  25.87200 49.39900 40.24000
H  32.55000 54.31900 39.80300
H  31.25000 60.54500 40.77900
H  25.00900 59.18800 41.17900
H  28.52400 51.77400 39.64000
H  31.12200 52.50400 38.61700
H  30.38800 51.17700 40.80500
H  30.37500 52.70500 41.51100
H  31.88900 52.03300 40.65900
H  27.79000 51.83800 37.24300
H  29.50200 51.28300 37.42600
H  30.23400 52.92100 36.00000
H  29.66600 54.05000 37.04500
H  35.39300 56.84100 40.24200
H  34.50000 55.79800 39.06600
H  34.47700 55.28700 40.63200
H  33.10700 61.33800 40.76300
H  34.51200 61.25500 41.82900
H  33.04300 60.46600 42.38500
H  28.67600 61.64100 39.76500
H  26.94200 61.03500 42.00000
H  30.29900 62.00600 41.99800
H  28.77400 62.47400 42.53000
H  29.38500 63.30300 41.03100
H  25.33900 61.03000 39.86500
H  26.66800 61.75500 39.00900
H  24.81000 63.09700 40.32400
H  26.44200 63.70000 39.75800
H  26.21200 63.39300 41.36200
H  22.73300 57.28800 40.12200
H  23.29500 57.73800 41.68000
H  22.65500 56.10700 41.59800
H  25.52300 52.86000 38.49800
H  26.87900 48.98500 40.20200
H  25.15000 48.81500 39.66900
H  25.49900 49.39800 41.26400
Mg 2.00700 41.89500 24.97900
C  3.84300 41.86200 27.89700
C  -0.89900 41.32900 26.85800
C  0.31800 41.36900 22.07300
C  4.87800 42.35300 23.20600
N  1.54800 41.77300 27.16400
C  2.46100 41.86800 28.15300
C  1.75400 41.75000 29.52000
C  0.26000 41.52800 29.16800
C  0.28300 41.53800 27.65100
C  -0.24200 40.21000 29.76300
C  2.14300 43.06800 30.31700
C  2.57000 42.93800 31.77100
H  1.58900 43.04600 32.93900
N  -0.04300 41.40100 24.56300
C  -1.01800 41.20500 25.43900
C  -2.22800 40.88700 24.68300
C  -1.92500 40.93100 23.30100
C  -0.48200 41.20000 23.24900
C  -3.48600 40.31900 25.40200
C  -2.88300 40.73400 22.09600
O  -2.51600 40.80000 20.93400
C  -4.33900 40.69700 22.32700
N  2.51500 41.77400 22.96000
C  1.70300 41.58400 21.90900
C  2.45100 41.66300 20.57800
C  3.65100 42.47500 20.99800
C  3.72300 42.22300 22.51800
C  2.90000 40.20500 20.08400
C  3.55300 44.05300 20.90700
C  4.13200 44.64800 19.63300
N  3.95300 41.99700 25.36400
C  5.01800 42.29700 24.56600
C  6.26100 42.27600 25.38900
C  5.77700 42.01600 26.67200
C  4.40900 42.05000 26.64200
C  7.68500 42.35100 24.91700
C  6.25100 41.90300 27.94300
O  7.38400 41.77200 28.38200
C  5.07300 41.87700 28.83700
C  5.14300 40.72600 29.69200
O  4.66600 39.60600 29.56900
O  5.80200 41.08500 30.87200
C  5.71100 40.14100 31.96300
H  -1.83500 41.31600 27.42000
H  -0.20600 41.22700 21.12600
H  5.67600 42.60500 22.50400
H  2.11100 40.87500 30.06400
H  -0.33800 42.36200 29.53400
H  -0.43500 39.51000 28.95000
H  -1.12900 40.47500 30.33900
H  0.45800 39.78100 30.47900
H  1.19100 43.57100 30.48700
H  2.73800 43.74500 29.70400
H  3.24100 43.78400 31.91900
H  3.06600 41.97100 31.84000
H  -3.89200 39.41300 24.95300
H  -4.27600 41.06300 25.30000
H  -3.17300 40.11700 26.42700
H  -4.86000 40.67700 21.37000
H  -4.55600 41.57200 22.94000
H  -4.45600 39.78700 22.91500
H  1.92100 42.21500 19.80200
H  4.55500 42.16400 20.47500
H  2.50000 40.01000 19.08900
H  2.58100 39.49700 20.84800
H  3.98200 40.15800 20.20200
H  4.12700 44.45800 21.74000
H  2.50300 44.28300 21.09300
H  3.57300 45.55700 19.41400
H  4.00300 43.90500 18.84500
H  5.19800 44.81600 19.78700
H  8.17700 43.20900 25.37500
H  7.74300 42.40700 23.83000
H  8.14100 41.41600 25.24200
H  4.99600 42.78400 29.43500
H  5.47300 39.11800 31.67100
H  4.85200 40.34100 32.60400
H  6.55300 40.12800 32.65400

