158

Mg 47.05400 16.67300 28.43600
C  44.84700 16.48800 31.16800
C  49.45500 18.02300 30.48900
C  48.70300 17.46500 25.73600
C  44.13200 15.70800 26.41500
N  47.13100 17.30400 30.57300
C  46.13400 16.89700 31.48600
C  46.60000 17.18600 32.92200
C  47.97400 17.97500 32.65100
C  48.25500 17.72500 31.20400
C  48.01000 19.47900 33.17500
C  46.68800 15.95600 33.80700
C  46.12800 16.15700 35.25700
H  46.19300 17.55700 35.91700
N  48.86200 17.64200 28.12000
C  49.73900 18.09000 29.07200
C  50.94000 18.47400 28.44500
C  50.70200 18.33100 27.06400
C  49.37900 17.82300 26.87200
C  52.22300 18.87400 29.23300
C  51.63700 18.53100 25.89400
O  51.41500 18.45400 24.69900
C  53.10100 18.95500 26.12200
N  46.42200 16.69600 26.39500
C  47.39000 16.90000 25.48100
C  46.78000 16.78900 24.04700
C  45.33600 16.14600 24.31000
C  45.30000 16.17900 25.78100
C  46.67800 18.01800 23.22400
C  45.07800 14.79200 23.54400
C  43.78300 14.54400 22.82300
N  44.97900 16.13000 28.63500
C  43.95100 15.72300 27.78500
C  42.72900 15.52400 28.52000
C  42.98300 15.75500 29.87400
C  44.39400 16.13700 29.90200
C  41.37400 15.03300 28.02700
C  42.39500 15.76100 31.21400
O  41.31400 15.49300 31.67100
C  43.60500 16.26700 32.04000
C  43.24100 17.50900 32.78600
O  43.26500 18.63300 32.28800
O  42.83000 17.21000 34.01500
C  42.08700 18.17300 34.78900
H  50.26900 18.20900 31.19300
H  49.25400 17.53600 24.79500
H  43.35900 15.39100 25.71200
H  45.83700 17.83800 33.34700
H  48.69300 17.43700 33.26900
H  47.06200 19.70900 33.66100
H  48.34100 20.30100 32.54000
H  48.71600 19.42300 34.00300
H  47.70900 15.57900 33.87400
H  46.04100 15.22000 33.33000
H  46.62100 15.41500 35.88400
H  45.07200 16.00200 35.03400
H  52.71400 17.91100 29.09300
H  52.07800 19.00600 30.30500
H  52.71700 19.72800 28.76900
H  53.55200 18.38300 26.93300
H  53.06200 20.01200 26.38300
H  53.71200 18.88000 25.22200
H  47.42300 16.08200 23.52300
H  44.57500 16.84000 23.95400
H  45.70600 18.50000 23.32700
H  47.04800 17.78900 22.22500
H  47.33800 18.74600 23.69600
H  45.33800 13.96600 24.20600
H  45.78500 14.75600 22.71500
H  43.96000 14.51400 21.74800
H  42.98600 15.21900 23.13600
H  43.42200 13.53600 23.03000
H  41.22400 15.29600 26.98000
H  40.47000 15.28100 28.58400
H  41.45900 13.94600 28.04100
H  43.91700 15.51000 32.76000
H  41.01000 18.05200 34.67500
H  42.48800 19.08500 34.34700
H  42.38300 18.11700 35.83600
Mg 1.83000 42.82200 25.35500
C  3.45000 42.86900 28.53300
C  -0.92700 41.81300 26.90200
C  0.63200 42.66200 22.23600
C  5.13400 43.68000 23.91600
N  1.36200 42.29000 27.53200
C  2.09000 42.50500 28.64700
C  1.18300 42.35300 29.88800
C  -0.16300 41.86500 29.27000
C  0.09500 42.02800 27.79700
C  -0.59100 40.40200 29.60100
C  1.05300 43.81400 30.53600
C  1.48800 43.98200 32.03500
H  0.90100 43.18000 33.15800
N  0.12400 42.38300 24.70600
C  -0.94400 41.97100 25.50200
C  -2.05300 41.80500 24.63600
C  -1.65000 42.18800 23.33000
C  -0.24100 42.41400 23.33300
C  -3.39800 41.24700 25.18200
C  -2.49100 42.30000 22.00800
O  -1.97500 42.68300 20.92100
C  -4.00300 42.10800 22.14500
N  2.81600 42.97300 23.38100
C  1.98900 42.99000 22.25500
C  2.80600 43.23900 21.00300
C  4.14300 43.74900 21.55100
C  4.06300 43.43600 23.03200
C  3.03200 41.96800 20.11700
C  4.40200 45.23100 21.30000
C  4.70900 45.65200 19.87600
N  3.83700 43.37300 25.99200
C  5.01600 43.60800 25.32800
C  6.04200 43.82800 26.31900
C  5.50200 43.44900 27.59300
C  4.16200 43.18300 27.32700
C  7.35500 44.32200 26.12800
C  5.84900 43.20500 28.98300
O  6.87300 43.28600 29.54600
C  4.47000 43.02800 29.70100
C  4.52100 41.77300 30.52200
O  4.87300 40.66800 30.19900
O  4.21400 42.10200 31.83100
C  4.51100 41.22800 32.91100
H  -1.88300 41.56600 27.36900
H  0.23000 42.65100 21.22100
H  6.15500 43.86800 23.57800
H  1.59000 41.62100 30.58600
H  -1.01300 42.49800 29.52400
H  -1.67300 40.28900 29.67000
H  -0.25400 40.07700 30.58600
H  -0.29500 39.73100 28.79500
H  0.00400 44.10800 30.51400
H  1.72400 44.41200 29.91900
H  1.26500 45.03000 32.23500
H  2.56900 43.88800 32.14500
H  -4.26000 41.89800 25.04100
H  -3.36400 41.04200 26.25200
H  -3.69400 40.36500 24.61500
H  -4.50800 42.04700 21.18100
H  -4.36200 42.86900 22.83700
H  -4.15200 41.14400 22.63100
H  2.34600 44.06300 20.45800
H  5.08700 43.29100 21.25500
H  4.07000 41.64900 20.02300
H  2.81000 42.18400 19.07200
H  2.59900 41.07200 20.56200
H  5.23400 45.49800 21.95200
H  3.53500 45.86100 21.49900
H  4.97900 44.85700 19.18000
H  5.56600 46.32600 19.89300
H  3.79500 46.14400 19.54300
H  7.82200 44.48600 27.09900
H  7.40200 45.15200 25.42400
H  7.97200 43.48900 25.79100
H  4.29500 43.85800 30.38500
H  5.59700 41.13100 32.90800
H  3.99500 40.27400 32.79700
H  4.11700 41.56100 33.87100

