158

Mg 17.00400 -3.07200 27.45500
C  16.35200 -1.16200 30.47100
C  18.68900 -5.25000 29.37700
C  18.25000 -4.40100 24.63200
C  15.50500 -0.53500 25.65700
N  17.52100 -3.11000 29.71200
C  17.03000 -2.35400 30.72900
C  17.36700 -2.94700 32.09700
C  18.27100 -4.21300 31.72300
C  18.12200 -4.20600 30.16600
C  19.69800 -4.03500 32.19300
C  16.07300 -3.17700 32.98900
C  16.16900 -2.91300 34.46500
H  17.57300 -2.64700 35.05500
N  18.05100 -4.74400 27.02700
C  18.69800 -5.55200 27.96000
C  19.35300 -6.65900 27.21400
C  19.17000 -6.44000 25.78300
C  18.50100 -5.12700 25.80600
C  20.15200 -7.72600 27.96600
C  19.63800 -7.27800 24.64600
O  19.45400 -7.01700 23.47300
C  20.27400 -8.62500 25.04800
N  16.89300 -2.51500 25.48600
C  17.62500 -3.19200 24.49400
C  17.40900 -2.61100 23.07100
C  16.27100 -1.51900 23.38600
C  16.10500 -1.55700 24.95500
C  18.65300 -2.02900 22.37000
C  15.02700 -1.78000 22.52900
C  13.74700 -2.29900 23.18000
N  16.07000 -1.18000 27.95800
C  15.48500 -0.32100 27.05800
C  14.95100 0.82600 27.80100
C  15.29400 0.60600 29.14000
C  15.96000 -0.69200 29.19800
C  14.19100 1.98600 27.13000
C  15.13100 1.07100 30.50700
O  14.52300 2.03700 30.98800
C  15.91000 -0.09000 31.40900
C  16.92800 0.56700 32.31800
O  18.13400 0.44600 32.23600
O  16.11400 1.16300 33.34900
C  17.08500 1.67300 34.30300
H  19.05200 -6.08200 29.98300
H  18.63700 -4.75200 23.67300
H  15.05300 0.23100 25.02300
H  17.97200 -2.16800 32.56200
H  17.86800 -5.16400 32.07000
H  20.32500 -4.02700 31.30200
H  20.13700 -4.72900 32.91000
H  19.79600 -3.08700 32.72400
H  15.93900 -4.25700 32.92600
H  15.18600 -2.63500 32.65800
H  15.65100 -3.69500 35.01900
H  15.63800 -1.99300 34.70900
H  19.60200 -8.61900 28.26300
H  20.47800 -7.29900 28.91400
H  21.08100 -7.94700 27.44000
H  21.28700 -8.53500 25.43900
H  20.49000 -9.03200 24.06100
H  19.56100 -9.29700 25.52700
H  16.90800 -3.39100 22.49800
H  16.59100 -0.52900 23.05900
H  18.87100 -0.96500 22.45000
H  18.54500 -2.08500 21.28600
H  19.56900 -2.52900 22.68600
H  15.27900 -2.52800 21.77800
H  14.70900 -0.87900 22.00400
H  13.73800 -1.89400 24.19200
H  13.73700 -3.38200 23.30700
H  12.76500 -2.07400 22.76400
H  13.11300 1.83200 27.17300
H  14.48200 2.28700 26.12300
H  14.47600 2.83400 27.75300
H  15.12400 -0.40200 32.09600
H  17.64800 2.41200 33.73200
H  17.74800 0.90300 34.69800
H  16.51500 2.22800 35.04800
Mg 41.50200 41.35900 25.88200
C  40.64500 43.84700 28.33900
C  42.32100 39.27900 28.57400
C  42.36400 39.14500 23.66800
C  40.83100 43.68700 23.43700
N  41.45700 41.53600 28.08600
C  40.99700 42.55800 28.85600
C  40.83600 42.27600 30.38900
C  41.64500 40.90000 30.45000
C  41.78100 40.50900 28.95800
C  43.05300 40.90000 31.13700
C  39.35000 42.08800 30.77500
C  38.95000 42.88100 32.01500
H  38.76500 42.20800 33.43400
N  42.20800 39.42400 26.07300
C  42.50400 38.73400 27.26000
C  42.88700 37.38300 26.86300
C  42.92300 37.35900 25.47300
C  42.52300 38.65200 25.05400
C  43.23500 36.39100 27.93300
C  43.38900 36.26100 24.51700
O  43.29600 36.32000 23.30700
C  44.08700 35.04300 25.01100
N  41.75900 41.48800 23.88100
C  42.05100 40.36800 23.11000
C  41.89400 40.60600 21.62700
C  41.04300 41.94200 21.62900
C  41.24900 42.44100 23.04900
C  43.25100 40.68000 20.87300
C  39.58500 41.67500 21.20500
C  38.78700 40.88500 22.27000
N  40.96900 43.37700 25.85900
C  40.73000 44.19000 24.77200
C  40.47400 45.53000 25.16500
C  40.41300 45.45200 26.58900
C  40.66700 44.10100 26.91100
C  40.28700 46.75700 24.31500
C  40.16300 46.20000 27.84800
O  39.79900 47.35100 28.01900
C  40.37400 45.12600 29.00000
C  41.41400 45.60200 29.91400
O  42.63800 45.37700 29.84400
O  40.82500 46.21100 30.98500
C  41.64700 46.63200 32.08400
H  42.29700 38.77000 29.54000
H  42.55300 38.40700 22.88600
H  40.47800 44.41200 22.70100
H  41.28900 43.07400 30.97700
H  41.15200 40.09200 30.99000
H  43.32400 41.90900 31.44800
H  43.84900 40.55900 30.47500
H  43.06100 40.23600 32.00100
H  39.02100 41.05800 30.91400
H  38.79500 42.30600 29.86300
H  37.99300 43.39000 31.90400
H  39.67200 43.67200 32.21800
H  42.99800 36.64500 28.96600
H  44.28800 36.14000 28.06700
H  42.80100 35.40100 27.79200
H  45.05700 35.36500 25.39100
H  44.31200 34.40200 24.15900
H  43.48900 34.40300 25.65900
H  41.29300 39.81000 21.18600
H  41.53100 42.75100 21.08500
H  43.51700 41.72800 20.73400
H  43.16800 40.05700 19.98200
H  44.06100 40.25700 21.46900
H  39.58000 41.21900 20.21500
H  39.04600 42.61600 21.09500
H  38.00600 41.53200 22.66900
H  39.33400 40.48900 23.12700
H  38.29000 40.06600 21.75000
H  40.81400 47.57100 24.81200
H  39.27400 47.15500 24.25400
H  40.77400 46.60400 23.35200
H  39.43300 45.07800 29.54900
H  41.93100 47.68400 32.09000
H  42.57500 46.07700 32.22200
H  41.15400 46.37900 33.02300

