158

Mg 1.69500 8.62000 26.34100
C  1.90300 10.77500 29.07100
C  2.15600 6.02300 28.23400
C  2.33600 6.79900 23.44800
C  1.78700 11.53900 24.28000
N  2.11300 8.47300 28.47600
C  1.89900 9.41200 29.43300
C  1.91400 8.73700 30.86900
C  2.16800 7.32300 30.56500
C  2.22100 7.22700 28.98100
C  3.41500 6.63300 31.29200
C  0.60000 9.11500 31.68400
C  0.47800 9.21500 33.17700
H  1.61100 8.70700 34.08800
N  2.09200 6.65800 25.92700
C  2.13300 5.72000 26.88400
C  2.22200 4.41400 26.25300
C  2.41300 4.65100 24.83700
C  2.27800 6.11100 24.68100
C  2.26900 3.08700 27.05500
C  2.57900 3.61000 23.74400
O  2.49700 3.87000 22.54100
C  2.76300 2.25600 24.08700
N  1.98200 9.09800 24.22300
C  2.05600 8.13400 23.23700
C  2.00000 8.67800 21.78100
C  1.68200 10.19400 22.10600
C  1.80900 10.29700 23.61700
C  3.25600 8.23700 21.01300
C  0.30700 10.74700 21.61900
C  0.21500 11.94700 20.64200
N  1.82300 10.73800 26.57000
C  1.85300 11.74800 25.66200
C  1.83800 13.02500 26.35500
C  1.95200 12.67400 27.74600
C  1.94000 11.29200 27.79000
C  1.98200 14.41900 25.74500
C  2.12600 13.24500 29.10500
O  2.35500 14.33700 29.57900
C  2.23800 11.94700 30.00000
C  3.52900 11.92200 30.69200
O  4.62500 11.83900 30.12800
O  3.46200 12.06100 32.08200
C  4.58700 11.70400 32.82800
H  2.15800 5.14300 28.88100
H  2.32800 6.18200 22.54700
H  1.63200 12.43000 23.66700
H  2.83100 9.15800 31.28000
H  1.25600 6.80200 30.85700
H  2.95900 5.95400 32.01200
H  4.11600 7.28400 31.81400
H  4.07000 6.03600 30.65800
H  -0.24000 8.53800 31.29900
H  0.34100 10.11200 31.32800
H  -0.49200 8.80800 33.46200
H  0.57300 10.27000 33.43300
H  1.85000 3.35500 28.02400
H  3.24900 2.61000 27.03000
H  1.62100 2.36800 26.55300
H  2.99600 1.56600 23.27600
H  1.87700 1.91000 24.62000
H  3.60900 2.22000 24.77400
H  1.13500 8.10400 21.44900
H  2.54900 10.60700 21.58900
H  3.98000 7.62600 21.55100
H  3.80000 9.05100 20.53400
H  2.83200 7.59200 20.24400
H  -0.12200 11.23800 22.49200
H  -0.40900 9.97600 21.33500
H  1.18400 12.02100 20.14900
H  0.19900 12.93800 21.09500
H  -0.51600 11.93400 19.83400
H  1.66700 14.52800 24.70700
H  3.05300 14.62000 25.78600
H  1.45400 15.07000 26.44000
H  1.32400 12.12100 30.56900
H  5.50000 12.29700 32.77600
H  4.92000 10.69700 32.57700
H  4.29900 11.74700 33.87800
Mg 6.32300 57.03800 41.26000
C  5.17400 53.84600 41.35700
C  9.50500 55.81000 40.35400
C  7.49400 60.25100 40.72700
C  3.12300 58.18800 42.10700
N  7.14700 55.11700 40.59300
C  6.40000 53.92200 40.74100
C  7.29900 52.72500 40.35500
C  8.72900 53.42200 40.33600
C  8.51000 54.87500 40.54700
C  9.80400 52.58500 41.18000
C  7.03600 52.23900 38.85600
C  7.55400 50.90400 38.39400
H  7.00200 50.34500 37.09200
N  8.25900 57.89200 40.51300
C  9.41100 57.22900 40.20600
C  10.42800 58.17600 39.81000
C  9.87300 59.47700 40.11800
C  8.46300 59.30900 40.41800
C  11.86600 57.77500 39.45100
C  10.68200 60.69500 40.08000
O  11.87300 60.59300 39.76700
C  10.18800 62.02600 40.33600
N  5.47400 58.85000 41.32400
C  6.19000 60.12100 41.19500
C  5.27400 61.34500 41.55500
C  3.91400 60.62800 41.86800
C  4.19500 59.08900 41.79700
C  5.85300 62.24700 42.59700
C  2.67000 61.07500 40.93100
C  1.37800 61.43700 41.66900
N  4.46600 56.22100 41.83200
C  3.23600 56.81600 42.03300
C  2.27900 55.74300 42.27100
C  2.97700 54.55200 42.13000
C  4.28100 54.90800 41.73000
C  0.77300 55.91600 42.57100
C  2.89200 53.13800 42.07400
O  1.86900 52.44300 42.19500
C  4.37600 52.63900 41.66700
C  4.09900 51.65900 40.55500
O  3.21300 51.64300 39.75900
O  5.03000 50.62100 40.69200
C  4.81900 49.39100 39.86700
H  10.53200 55.44200 40.41600
H  7.75100 61.31200 40.70700
H  2.22000 58.77400 42.29200
H  7.22300 51.80600 40.93800
H  9.12300 53.49500 39.32200
H  10.59700 52.24900 40.51200
H  9.32200 51.68500 41.56400
H  10.28000 53.09600 42.01700
H  7.35000 53.04300 38.19000
H  5.95000 52.25100 38.76500
H  7.51100 50.19700 39.22300
H  8.58900 50.97600 38.05900
H  11.88100 56.70300 39.25100
H  12.47900 57.99300 40.32600
H  12.15300 58.37000 38.58400
H  9.74200 62.12500 41.32600
H  9.46900 62.32800 39.57500
H  11.07600 62.65500 40.39900
H  5.26400 61.76600 40.55000
H  3.64600 60.90500 42.88800
H  6.84900 61.85300 42.79800
H  5.27900 62.27000 43.52300
H  5.99900 63.23900 42.17000
H  2.39100 60.49000 40.05500
H  2.95400 62.00500 40.43800
H  0.50500 61.07000 41.12900
H  1.40600 62.49100 41.94300
H  1.35800 60.87700 42.60400
H  0.83500 56.24400 43.60900
H  0.33200 54.91900 42.56800
H  0.19400 56.61200 41.96400
H  4.83100 52.07000 42.47800
H  4.02500 48.86900 40.40100
H  5.72100 48.78300 39.79800
H  4.60000 49.57400 38.81500

