158

Mg 45.51700 2.30600 47.74600
C  43.38400 5.23800 47.15300
C  42.81300 0.44900 46.83300
C  47.55800 -0.25300 47.62400
C  48.28900 4.57700 47.94100
N  43.19000 2.84200 47.19600
C  42.68200 4.02900 46.92100
C  41.21600 3.82100 46.39600
C  40.93700 2.24800 46.62800
C  42.40700 1.80300 46.96700
C  39.86300 2.04400 47.80600
C  41.02900 4.33100 44.94300
C  39.69600 5.14500 44.69500
H  39.09700 4.92400 43.28800
N  45.21200 0.30700 47.28700
C  44.04900 -0.29400 47.02000
C  44.26000 -1.71400 46.87800
C  45.61700 -1.97800 47.06200
C  46.21600 -0.62900 47.35400
C  43.19400 -2.73900 46.54400
C  46.40700 -3.24000 47.00200
O  45.77900 -4.25200 46.70600
C  47.94100 -3.48500 47.30600
N  47.64300 2.18100 47.58400
C  48.14700 0.97100 47.84500
C  49.66400 1.05800 48.11000
C  49.94500 2.64800 48.16400
C  48.51800 3.20200 47.92800
C  50.10800 0.30900 49.41800
C  51.07800 3.23100 47.29500
C  51.70500 4.45700 48.02700
N  45.84300 4.48500 47.63000
C  47.01800 5.22500 47.72900
C  46.65300 6.64900 47.60600
C  45.31200 6.66900 47.40300
C  44.80200 5.32800 47.39000
C  47.56200 7.78600 47.71400
C  44.08900 7.52600 47.26900
O  43.97300 8.76600 47.22600
C  42.82700 6.59000 47.08800
C  41.80600 6.68700 48.18300
O  41.81900 6.12000 49.26500
O  40.82600 7.58500 47.78900
C  39.75700 7.76400 48.78800
H  41.93500 -0.14600 46.57000
H  48.32500 -1.01700 47.76800
H  49.10800 5.25800 48.18100
H  40.59500 4.49100 46.99000
H  40.64200 1.68300 45.74400
H  39.00400 1.67800 47.24400
H  39.58600 2.96800 48.31300
H  40.23500 1.37600 48.58400
H  41.05300 3.52400 44.21000
H  41.84400 5.01000 44.69300
H  39.88100 6.21600 44.77700
H  39.02700 4.85000 45.50300
H  43.30500 -3.04700 45.50400
H  42.18700 -2.34600 46.68800
H  43.39600 -3.59200 47.19100
H  48.52200 -2.99100 46.52800
H  48.04100 -4.56700 47.22200
H  48.32800 -3.24200 48.29600
H  50.17100 0.54000 47.29600
H  50.18300 2.96000 49.18100
H  49.27100 -0.00600 50.04100
H  50.63300 1.08400 49.97700
H  50.83300 -0.50100 49.33900
H  50.53700 3.62400 46.43300
H  51.85700 2.56900 46.91700
H  52.77000 4.22400 47.99000
H  51.42500 4.58200 49.07300
H  51.48400 5.38800 47.50500
H  47.19400 8.66600 47.18800
H  48.55100 7.62900 47.28400
H  47.68200 7.97300 48.78100
H  42.28000 6.87800 46.19000
H  39.04500 6.96000 48.60500
H  39.26600 8.73400 48.71300
H  40.02900 7.69100 49.84100
Mg 53.07100 23.28700 45.13400
C  50.42700 25.53200 44.10900
C  51.11200 20.68100 43.88800
C  55.91800 21.48700 44.88900
C  54.86500 26.10200 46.30700
N  51.01500 23.23300 44.03100
C  50.13600 24.23700 43.72000
C  48.90400 23.64100 43.01200
C  48.99200 22.14200 43.44400
C  50.43700 21.97000 43.76800
C  48.04100 21.85800 44.62800
C  48.93900 23.67400 41.41100
C  47.61000 23.62800 40.70000
H  47.48100 22.91700 39.30900
N  53.46300 21.34400 44.61300
C  52.53500 20.40400 44.11800
C  53.23400 19.13000 43.93500
C  54.60200 19.28700 44.29500
C  54.72500 20.77100 44.67200
C  52.62300 17.93100 43.28700
C  55.69700 18.25000 44.18000
O  55.46000 17.08100 43.96000
C  57.11200 18.50100 44.63300
N  55.14500 23.75900 45.50500
C  56.08800 22.79100 45.48700
C  57.40000 23.25300 46.12400
C  57.12100 24.71100 46.60700
C  55.68800 24.91900 45.98100
C  57.79800 22.31700 47.29000
C  58.27400 25.74900 46.10600
C  59.13100 26.42100 47.19700
N  52.72600 25.39000 45.31800
C  53.50100 26.35300 45.91200
C  52.76700 27.62100 45.85600
C  51.52700 27.32400 45.17900
C  51.56600 25.97800 44.87200
C  53.23500 29.01600 46.29500
C  50.30800 27.93400 44.75100
O  49.83700 29.05200 44.98600
C  49.47500 26.75600 44.11200
C  48.89000 27.07700 42.76000
O  49.54700 27.36600 41.72500
O  47.55800 27.13200 42.88600
C  46.86300 27.44400 41.64100
H  50.49100 19.85000 43.54700
H  56.84300 20.95200 44.66200
H  55.53700 26.87400 46.68700
H  48.07700 24.23300 43.40300
H  48.71000 21.44000 42.65800
H  47.41300 22.73600 44.77900
H  48.62200 21.72000 45.54000
H  47.41700 21.02000 44.31700
H  49.47500 22.80400 41.03100
H  49.48800 24.56400 41.10400
H  47.34900 24.65200 40.43300
H  46.83600 23.27500 41.38100
H  53.09800 17.61300 42.35900
H  51.63600 18.16100 42.88700
H  52.54900 17.18000 44.07400
H  57.51200 19.03800 43.77300
H  57.58800 17.54300 44.84200
H  57.17300 19.10900 45.53500
H  58.15200 23.09400 45.35100
H  57.08800 24.82500 47.69100
H  58.85600 22.07000 47.20000
H  57.24300 21.38300 47.19900
H  57.61300 22.79400 48.25200
H  57.75500 26.51300 45.52800
H  59.01100 25.24200 45.48300
H  58.95800 25.85400 48.11100
H  58.84100 27.46700 47.29800
H  60.17900 26.37300 46.90300
H  54.10800 28.97600 46.94600
H  52.37900 29.53200 46.73000
H  53.42700 29.69300 45.46300
H  48.66900 26.62200 44.83400
H  46.12300 28.23100 41.78500
H  46.25200 26.62200 41.27000
H  47.45200 27.75500 40.77800

