158

Mg 54.35800 23.99700 44.08300
C  51.37700 25.99300 43.81200
C  52.32200 21.22100 43.80400
C  57.07400 22.03200 44.12800
C  56.10300 26.76000 44.81500
N  52.13200 23.68700 43.78800
C  51.07200 24.60400 43.69400
C  49.73600 23.94900 43.73800
C  50.08600 22.49100 44.15200
C  51.63200 22.43900 43.90200
C  49.75100 22.07700 45.61000
C  48.94100 24.05400 42.38500
C  49.62300 23.77700 41.06700
H  49.49500 24.58200 39.78100
N  54.66500 21.85900 43.73900
C  53.69400 20.88300 43.73400
C  54.32100 19.56500 43.63800
C  55.73600 19.79800 43.87300
C  55.93600 21.24600 43.90800
C  53.58900 18.23600 43.50900
C  56.83000 18.68700 44.10100
O  56.49900 17.52900 44.00900
C  58.26300 19.00900 44.42400
N  56.32300 24.39400 44.16300
C  57.23300 23.41800 44.34400
C  58.62400 23.93500 44.72500
C  58.32500 25.45100 45.01400
C  56.81400 25.54300 44.69800
C  59.44100 23.24500 45.84200
C  59.18900 26.39700 44.10800
C  59.44900 27.77900 44.73400
N  53.94400 26.03800 44.24800
C  54.77400 27.03300 44.49800
C  53.96700 28.25400 44.65400
C  52.68600 27.96600 44.37300
C  52.72400 26.57200 44.08100
C  54.50900 29.55800 45.09300
C  51.36700 28.44200 44.23200
O  50.94900 29.53500 44.46100
C  50.43400 27.23000 43.81900
C  49.95700 27.47300 42.41800
O  50.45700 27.04500 41.39900
O  48.81700 28.21500 42.60700
C  48.07900 28.51300 41.38700
H  51.64100 20.36800 43.78400
H  57.92000 21.34700 44.03100
H  56.54200 27.69400 45.17300
H  49.17200 24.50100 44.49000
H  49.59400 21.76900 43.50000
H  50.63900 22.27500 46.21000
H  49.52000 21.01100 45.61900
H  48.92800 22.64800 46.03900
H  48.47500 25.03900 42.36300
H  48.22000 23.24800 42.52600
H  49.38500 22.72700 40.89700
H  50.67500 23.62600 41.31000
H  52.53300 18.46400 43.36900
H  53.77200 17.67900 44.42800
H  54.03700 17.70900 42.66600
H  58.83400 18.16300 44.80700
H  58.19200 19.79500 45.17500
H  58.73200 19.35700 43.50400
H  59.14000 23.75200 43.78200
H  58.49700 25.70900 46.05900
H  59.23100 23.90600 46.68300
H  60.47400 23.34800 45.51100
H  59.07600 22.21800 45.86700
H  58.50000 26.53100 43.27400
H  60.05300 25.87300 43.70000
H  59.16000 28.57700 44.05100
H  60.48700 27.85700 45.05800
H  58.87400 27.96300 45.64100
H  53.68700 30.17400 45.45800
H  55.01500 30.00100 44.23500
H  55.23000 29.38400 45.89200
H  49.63100 27.12800 44.55000
H  47.16700 29.04100 41.66300
H  47.73500 27.60600 40.89000
H  48.65600 29.22600 40.79900
Mg 42.83900 42.04300 25.82100
C  41.87100 44.15600 28.60800
C  44.75800 40.22700 28.17100
C  44.05800 40.35800 23.32800
C  41.50000 44.39100 23.65300
N  43.17900 42.19500 28.05700
C  42.60300 42.98200 29.00400
C  42.69400 42.39700 30.39900
C  43.60200 41.19500 30.17200
C  43.88200 41.19300 28.71300
C  44.89700 41.20000 31.09200
C  41.36500 42.16100 31.16500
C  41.30700 41.10700 32.31500
H  40.61700 41.54000 33.66200
N  44.06700 40.40500 25.79200
C  44.84300 39.84400 26.82300
C  45.58800 38.71800 26.28800
C  45.30500 38.69800 24.89300
C  44.38800 39.83600 24.59400
C  46.58400 37.90500 27.15400
C  45.79400 37.77300 23.85600
O  45.35400 37.80900 22.72300
C  46.73700 36.70900 24.19800
N  42.63000 42.19700 23.80700
C  43.36700 41.47700 22.97400
C  43.24400 41.98500 21.53800
C  42.12600 43.05500 21.64100
C  42.12500 43.25600 23.13000
C  44.58700 42.55400 20.98400
C  40.75500 42.67700 20.99900
C  39.78800 41.80400 21.90600
N  41.92700 43.91200 25.99600
C  41.37000 44.74400 24.98000
C  40.67100 45.88300 25.54700
C  40.85300 45.67200 26.95200
C  41.57700 44.44400 27.13800
C  40.09300 47.03200 24.80100
C  40.51400 46.24300 28.25800
O  39.88400 47.26600 28.49200
C  41.04200 45.23300 29.38500
C  41.76500 45.90500 30.42500
O  42.87700 46.40000 30.31300
O  41.13500 45.79300 31.59200
C  41.76900 46.27800 32.87200
H  45.31400 39.64400 28.90800
H  44.51200 39.89700 22.44800
H  40.91500 45.12900 23.09900
H  43.27100 43.17600 30.89800
H  43.19600 40.22500 30.45700
H  45.04400 42.19300 31.51700
H  45.83300 41.08800 30.54500
H  45.02300 40.51400 31.93000
H  40.63200 41.90200 30.40000
H  41.18600 43.13500 31.62000
H  42.32000 40.71600 32.40500
H  40.78800 40.20900 31.98000
H  46.40200 36.83100 27.13200
H  46.71900 38.35600 28.13700
H  47.59200 37.92600 26.74100
H  47.51900 37.10700 24.84400
H  47.14200 36.43300 23.22500
H  46.32300 35.85300 24.73000
H  42.96700 41.09600 20.97100
H  42.48900 44.03100 21.31700
H  45.42900 42.19300 21.57500
H  44.54400 43.63900 20.88100
H  44.86200 42.18600 19.99600
H  40.91900 42.16100 20.05300
H  40.32100 43.67600 20.96000
H  40.06100 41.65500 22.95000
H  39.71400 40.79700 21.49600
H  38.79900 42.25100 21.79900
H  40.89000 47.62300 24.35000
H  39.54700 47.60300 25.55200
H  39.44500 46.78600 23.95900
H  40.14900 44.86400 29.88800
H  42.82900 46.53200 32.84600
H  41.67400 45.40800 33.52300
H  41.22500 47.13000 33.27900

