158

Mg 30.87000 58.07400 39.74500
C  27.96500 55.98800 38.96700
C  32.84500 55.40400 39.03100
C  33.44100 60.31200 39.75400
C  28.58000 60.77300 40.22600
N  30.45800 55.92900 39.04900
C  29.21700 55.30900 38.88700
C  29.43100 53.81600 38.44700
C  30.87600 53.58700 38.85300
C  31.49100 55.06400 38.88800
C  31.22500 52.87600 40.19100
C  29.18700 53.71200 36.94500
C  28.16400 52.79500 36.40100
H  27.26000 53.35700 35.33000
N  32.79700 57.87400 39.37300
C  33.46300 56.67800 39.20600
C  34.92000 56.96700 39.08600
C  35.10400 58.37700 39.16600
C  33.76600 58.91700 39.42400
C  35.93300 55.94200 38.96500
C  36.43900 59.19600 39.14000
O  37.52500 58.55400 39.26300
C  36.47100 60.74000 39.10800
N  30.99900 60.22900 39.99200
C  32.19000 60.87000 40.01400
C  32.08100 62.36100 40.46600
C  30.51200 62.44300 40.60900
C  29.94000 61.05900 40.15000
C  32.89500 62.73400 41.80500
C  29.93900 63.56200 39.74600
C  29.98300 63.24400 38.26000
N  28.71000 58.39100 39.73800
C  27.96600 59.52300 39.91200
C  26.49700 59.17600 39.75100
C  26.50300 57.82800 39.34700
C  27.84400 57.37900 39.42700
C  25.34300 60.10000 39.89800
C  25.59800 56.67700 38.92500
O  24.41200 56.62100 38.78100
C  26.56400 55.45600 38.72800
C  26.18300 54.31500 39.56200
O  26.33400 54.24700 40.76700
O  25.50800 53.34200 38.89800
C  24.99700 52.16800 39.71500
H  33.54900 54.57200 39.09800
H  34.18000 61.11600 39.74400
H  27.91300 61.60600 40.45500
H  28.65500 53.20200 38.90500
H  31.41600 53.06600 38.06200
H  32.17700 52.34500 40.18100
H  30.40900 52.23100 40.51600
H  31.29000 53.56900 41.02900
H  30.05900 53.37100 36.38700
H  28.84900 54.66800 36.54500
H  27.42900 52.46500 37.13500
H  28.57800 51.88400 35.96800
H  35.55400 55.13700 38.33500
H  36.28700 55.51400 39.90200
H  36.86700 56.32400 38.55300
H  36.09500 60.98400 40.10200
H  35.89800 61.08200 38.24600
H  37.49100 61.08700 38.94600
H  32.49600 62.89400 39.61100
H  30.11100 62.54400 41.61700
H  33.41800 61.88900 42.25500
H  32.37600 63.18900 42.64900
H  33.70200 63.41000 41.52500
H  30.73400 64.28000 39.94600
H  28.94500 63.87400 40.06400
H  29.00000 62.89400 37.94300
H  30.62600 62.38600 38.06600
H  30.22700 64.17600 37.75000
H  25.54000 60.97400 39.27700
H  25.16000 60.33900 40.94600
H  24.48800 59.59600 39.44900
H  26.53100 55.07500 37.70800
H  24.16100 52.43900 40.36000
H  25.76800 51.76600 40.37200
H  24.49900 51.47700 39.03400
Mg -11.81800 37.91700 42.83100
C  -9.66900 35.32100 41.90200
C  -9.57700 40.15700 41.45200
C  -14.06200 40.42300 43.26600
C  -14.31600 35.52600 43.63300
N  -9.89700 37.76300 41.57500
C  -9.18500 36.57200 41.42300
C  -7.89500 36.86200 40.63900
C  -7.81300 38.41900 40.64100
C  -9.12700 38.82500 41.35600
C  -6.60000 39.11500 41.35300
C  -7.88900 36.17000 39.14000
C  -6.68800 35.31600 38.76300
H  -6.52400 34.81000 37.34700
N  -11.75600 39.95700 42.49900
C  -10.75200 40.69100 41.93500
C  -11.05700 42.00200 41.95100
C  -12.42100 42.15100 42.40000
C  -12.79400 40.78800 42.82400
C  -10.14400 43.12600 41.30500
C  -13.26100 43.42200 42.34300
O  -12.77100 44.42600 41.90300
C  -14.75200 43.52200 42.79800
N  -13.85000 37.88800 43.25000
C  -14.53400 39.11000 43.46900
C  -15.91100 38.86700 44.12700
C  -16.04800 37.32600 44.00700
C  -14.71500 36.88400 43.54100
C  -15.87000 39.41200 45.54700
C  -17.24600 36.82700 43.04100
C  -18.39000 36.09700 43.80800
N  -12.05500 35.89800 42.70200
C  -13.05300 35.07000 43.18100
C  -12.62800 33.68400 43.15400
C  -11.29700 33.78500 42.68700
C  -11.01700 35.10200 42.36900
C  -13.47600 32.45800 43.56800
C  -10.06600 33.00700 42.42000
O  -9.81600 31.79500 42.59900
C  -8.99200 33.95600 41.94500
C  -7.86200 33.89900 42.92900
O  -7.98100 34.20500 44.09600
O  -6.71100 33.52400 42.34600
C  -5.61000 33.25000 43.33600
H  -8.83300 40.89000 41.13300
H  -14.76400 41.17100 43.64100
H  -15.06000 34.80800 43.98500
H  -7.15600 36.47300 41.34000
H  -7.78600 38.72200 39.59400
H  -5.94200 39.28500 40.50000
H  -6.15900 38.32900 41.96700
H  -6.89900 40.00600 41.90300
H  -7.90200 36.99900 38.43300
H  -8.83600 35.66300 38.95500
H  -6.64500 34.39800 39.35000
H  -5.81400 35.80900 39.18700
H  -10.23600 42.90000 40.24300
H  -9.16000 42.96100 41.74400
H  -10.34200 44.18500 41.46600
H  -15.41400 42.73500 42.43600
H  -15.27600 44.34900 42.31900
H  -14.78000 43.51100 43.88700
H  -16.65500 39.33800 43.48400
H  -16.18600 36.95400 45.02300
H  -16.26500 40.42500 45.61900
H  -14.88700 39.15500 45.94400
H  -16.62600 38.85000 46.09500
H  -16.79400 36.06600 42.40600
H  -17.62800 37.64000 42.42300
H  -19.34800 36.60700 43.70400
H  -18.16700 35.96300 44.86600
H  -18.46500 35.10600 43.36000
H  -12.80600 31.61300 43.72300
H  -14.24700 32.12700 42.87200
H  -13.91100 32.70900 44.53500
H  -8.62600 33.84800 40.92400
H  -4.73900 32.89800 42.78400
H  -5.92500 32.49300 44.05500
H  -5.23900 34.07600 43.94300

