158

Mg 50.21800 45.22800 41.49300
C  46.88000 45.85100 40.34800
C  50.14200 42.31300 39.64300
C  53.46900 45.22700 41.65000
C  50.34800 48.74700 42.24700
N  48.79400 44.30800 40.04700
C  47.45900 44.70900 39.84600
C  46.82900 43.77400 38.76200
C  47.71100 42.50600 38.81200
C  48.99400 43.04100 39.52700
C  47.06500 41.24000 39.42600
C  46.77600 44.41600 37.33500
C  45.40700 44.46100 36.58200
H  45.33600 44.37800 34.99700
N  51.56100 43.81000 40.91100
C  51.37900 42.66200 40.20000
C  52.58300 41.85400 40.27200
C  53.57600 42.56500 41.03900
C  52.86800 44.00300 41.20700
C  52.60500 40.47900 39.64900
C  54.94500 42.09300 41.48100
O  55.33400 40.97200 41.14400
C  55.79400 42.94800 42.31400
N  51.68500 46.77700 41.76200
C  52.99100 46.46300 41.86600
C  53.89400 47.61100 42.27300
C  52.83600 48.71300 42.67600
C  51.53200 48.03900 42.19400
C  54.97300 47.34400 43.33700
C  53.08200 50.01300 41.88600
C  52.64800 50.02800 40.38800
N  48.89000 46.90700 41.63700
C  49.06700 48.24900 41.92100
C  47.81400 48.93900 41.83000
C  46.94200 48.01600 41.29900
C  47.59500 46.82000 41.11100
C  47.50300 50.31300 42.21300
C  45.56000 47.84900 40.89000
O  44.63100 48.62000 40.81900
C  45.45000 46.44200 40.22100
C  44.56000 45.52300 40.94900
O  43.96000 44.60500 40.43200
O  44.30800 45.88900 42.25800
C  42.97500 45.47300 42.78200
H  49.98400 41.35700 39.13900
H  54.54100 45.02500 41.60100
H  50.44600 49.74100 42.68700
H  45.88100 43.41900 39.16700
H  48.00500 42.15600 37.82300
H  47.77500 40.62200 39.97600
H  46.70400 40.67400 38.56700
H  46.25000 41.48800 40.10500
H  47.34100 43.80100 36.63500
H  47.17900 45.42800 37.35500
H  44.96100 45.39900 36.91400
H  44.72500 43.68400 36.92800
H  51.57200 40.16000 39.78400
H  53.33200 39.72900 39.96000
H  52.80000 40.60700 38.58400
H  55.19000 43.49900 43.03500
H  56.41100 43.51500 41.61700
H  56.44500 42.28200 42.88000
H  54.44400 47.91200 41.38200
H  52.81200 48.88300 43.75200
H  55.06000 48.12200 44.09600
H  55.89800 47.38400 42.76200
H  54.90500 46.34300 43.76400
H  54.15600 50.19500 41.92200
H  52.58600 50.85200 42.37400
H  53.45200 50.51400 39.83500
H  51.70200 50.55300 40.26200
H  52.56800 48.99500 40.05000
H  47.39800 50.99900 41.37200
H  48.28000 50.62200 42.91100
H  46.51900 50.38800 42.67600
H  45.15100 46.53000 39.17700
H  43.19200 45.06900 43.77100
H  42.32700 44.77300 42.25400
H  42.50100 46.41600 43.05200
Mg -10.27800 17.63500 40.61300
C  -6.71400 17.21800 40.88000
C  -9.82600 20.93800 39.79300
C  -13.38400 17.72700 39.56200
C  -10.47600 14.08100 40.70300
N  -8.45600 18.83600 40.31300
C  -7.13800 18.49900 40.44100
C  -6.22400 19.59600 39.87500
C  -7.20000 20.81800 40.16300
C  -8.61700 20.16200 40.03800
C  -7.12000 21.40700 41.60800
C  -5.89000 19.36200 38.38600
C  -4.48700 18.85300 38.04000
H  -4.30200 17.45500 37.32000
N  -11.50000 19.13300 39.98500
C  -11.10900 20.45800 39.77400
C  -12.27800 21.27000 39.51500
C  -13.32700 20.30900 39.58300
C  -12.80000 18.98700 39.79000
C  -12.04900 22.77200 39.30100
C  -14.75100 20.74500 39.31700
O  -15.09000 21.88400 39.04800
C  -15.80200 19.84200 39.50500
N  -11.64800 16.06200 39.83900
C  -12.88000 16.43200 39.58900
C  -13.77200 15.18700 39.39800
C  -12.76400 14.01500 39.68800
C  -11.52500 14.75000 40.11200
C  -15.06700 15.11800 40.32900
C  -12.59400 13.14400 38.29900
C  -12.70600 11.61800 38.44900
N  -8.96200 15.99400 40.96300
C  -9.22600 14.61600 41.03500
C  -7.96400 13.93100 41.19300
C  -6.96700 14.89200 41.17200
C  -7.60700 16.20900 40.99300
C  -7.67100 12.43700 41.30400
C  -5.52400 15.07500 41.23600
O  -4.60000 14.20100 41.23400
C  -5.27400 16.61900 41.09500
C  -4.60000 17.03700 42.33500
O  -4.77200 16.63400 43.46000
O  -3.82600 18.18900 42.01400
C  -3.31300 19.02700 43.09000
H  -9.58400 21.98600 39.60300
H  -14.41900 17.74700 39.21600
H  -10.47600 12.99300 40.61400
H  -5.31600 19.63400 40.47800
H  -6.97000 21.62800 39.47000
H  -6.45100 22.25700 41.47700
H  -6.52200 20.77000 42.26000
H  -8.10100 21.55000 42.06300
H  -5.98100 20.31800 37.87100
H  -6.68600 18.74300 37.97200
H  -3.93000 18.82900 38.97700
H  -3.98200 19.64300 37.48500
H  -11.22300 22.91500 38.60300
H  -11.68400 23.11000 40.27100
H  -12.95700 23.28700 38.98600
H  -16.79700 20.27400 39.61400
H  -15.52000 19.35000 40.43600
H  -15.65200 19.21000 38.63000
H  -14.15400 15.16600 38.37800
H  -13.18000 13.40500 40.48900
H  -15.89800 14.86300 39.67200
H  -15.45100 16.07500 40.68100
H  -15.06400 14.35000 41.10300
H  -11.59100 13.37900 37.94300
H  -13.36300 13.41500 37.57600
H  -11.75600 11.14200 38.20700
H  -13.48900 11.25300 37.78500
H  -12.82900 11.32300 39.49100
H  -8.11300 11.82900 40.51400
H  -8.35400 12.08800 42.07800
H  -6.64200 12.21500 41.58500
H  -4.72400 16.94100 40.21000
H  -2.86000 19.90500 42.62900
H  -2.44800 18.51400 43.51200
H  -4.13900 19.32700 43.73500

