158

Mg 24.18700 -6.26700 45.15900
C  26.45300 -3.95300 43.80800
C  21.69500 -4.89700 43.23100
C  22.40000 -9.00000 45.87900
C  26.94100 -7.71700 46.98600
N  24.13500 -4.72900 43.63300
C  25.15100 -3.82100 43.28800
C  24.61400 -2.77800 42.29700
C  23.02600 -2.82900 42.49300
C  22.95600 -4.25200 43.08300
C  22.44900 -1.79500 43.52000
C  25.20300 -2.91600 40.84900
C  25.27300 -1.65200 39.93000
H  24.74400 -1.78900 38.49000
N  22.30700 -6.85500 44.63300
C  21.37600 -6.14200 43.91900
C  20.07700 -6.80700 44.01600
C  20.28100 -7.95400 44.73900
C  21.71900 -7.98100 45.10500
C  18.87100 -6.21000 43.34100
C  19.25900 -8.99800 44.97800
O  18.13200 -8.78000 44.55500
C  19.49100 -10.16800 45.80100
N  24.66800 -8.18700 46.13800
C  23.73500 -9.09500 46.37300
C  24.29800 -10.33100 47.30800
C  25.69100 -9.77500 47.69100
C  25.80300 -8.47400 46.89400
C  23.42100 -10.65800 48.45600
C  26.85700 -10.78300 47.26700
C  27.73500 -11.22200 48.46100
N  26.22100 -5.92000 45.42700
C  27.22400 -6.54900 46.23400
C  28.40900 -5.80000 46.11800
C  28.13500 -4.79500 45.18500
C  26.86100 -4.93100 44.77700
C  29.59600 -6.18900 46.96900
C  28.67100 -3.58500 44.58500
O  29.73000 -2.97100 44.83300
C  27.69200 -3.20800 43.45900
C  27.61000 -1.77000 43.41100
O  27.21700 -1.01500 44.28900
O  27.92400 -1.30400 42.09500
C  27.83600 0.11400 41.97100
H  20.81400 -4.39300 42.82900
H  21.85800 -9.81200 46.36700
H  27.75300 -8.05500 47.63300
H  24.87000 -1.78400 42.66300
H  22.36400 -2.76000 41.63000
H  21.77600 -1.10200 43.01500
H  23.24700 -1.17300 43.92400
H  22.02300 -2.17700 44.44800
H  24.48800 -3.55800 40.33400
H  26.16900 -3.40800 40.96800
H  26.30700 -1.31000 39.88400
H  24.71800 -0.85900 40.42900
H  19.24300 -5.87200 42.37400
H  18.57900 -5.32800 43.91100
H  18.00200 -6.84300 43.16100
H  18.54900 -10.57500 46.17000
H  19.91400 -9.87600 46.76200
H  20.13800 -10.89100 45.30400
H  24.43400 -11.10400 46.55200
H  25.67500 -9.48300 48.74100
H  22.64400 -9.89400 48.44200
H  23.90100 -10.85300 49.41500
H  22.97500 -11.59900 48.13400
H  27.55100 -10.35800 46.54200
H  26.52700 -11.75300 46.89400
H  28.21300 -12.18000 48.25400
H  27.21500 -11.20200 49.41900
H  28.60700 -10.57400 48.54400
H  29.34400 -6.79500 47.84000
H  30.14000 -5.28600 47.24800
H  30.31200 -6.74400 46.36400
H  28.21900 -3.50000 42.55000
H  26.76500 0.30600 42.03600
H  28.35900 0.46500 41.08100
H  28.15300 0.57700 42.90600
Mg 50.22700 45.66600 42.74600
C  46.80700 46.39400 41.82800
C  49.73700 42.51000 41.59500
C  53.49500 45.17000 43.27000
C  50.65000 49.12600 43.41400
N  48.48000 44.67100 41.72100
C  47.17300 45.05500 41.57300
C  46.25900 43.97400 40.97700
C  47.21600 42.69100 41.12200
C  48.59900 43.32000 41.50800
C  46.84300 41.64100 42.23800
C  45.96900 44.33200 39.45600
C  44.46400 44.15900 39.03100
H  44.29900 43.16800 37.91200
N  51.38800 44.01700 42.54300
C  51.04000 42.81000 42.03100
C  52.17600 41.92000 41.97500
C  53.26100 42.68500 42.49300
C  52.75200 44.00400 42.73900
C  52.08400 40.49500 41.40900
C  54.69800 42.22200 42.66800
O  54.95200 41.04300 42.53500
C  55.87300 43.05200 43.13600
N  51.90700 47.05300 43.15300
C  53.11300 46.51800 43.46000
C  54.08700 47.60900 43.84400
C  53.20100 48.88800 43.73700
C  51.83100 48.36500 43.40100
C  54.80800 47.39000 45.19500
C  53.53700 50.13400 42.81200
C  55.03200 50.43200 42.65000
N  49.03200 47.37900 42.62400
C  49.35700 48.72700 42.94400
C  48.14800 49.55400 42.83900
C  47.14000 48.65100 42.44500
C  47.69800 47.35000 42.30800
C  48.09500 51.04000 43.13500
C  45.70800 48.56200 42.11500
O  44.75100 49.37100 42.14400
C  45.44300 47.02400 41.68200
C  44.38300 46.45500 42.54400
O  44.59900 46.02200 43.67700
O  43.17800 46.45200 41.86800
C  42.09100 45.84200 42.70400
H  49.60000 41.43500 41.45800
H  54.55300 45.06700 43.52100
H  50.65200 50.19100 43.65500
H  45.33700 43.81200 41.53600
H  47.25700 42.13600 40.18500
H  46.90800 40.74300 41.62300
H  45.83900 41.81300 42.62400
H  47.43500 41.66900 43.15300
H  46.52100 43.65000 38.80900
H  46.27600 45.35100 39.22200
H  43.98600 45.12100 38.84400
H  43.81400 43.70600 39.77900
H  51.31300 40.43200 40.64100
H  51.90400 39.78600 42.21600
H  53.05400 40.17700 41.02700
H  55.77000 43.42400 44.15500
H  56.10100 43.82900 42.40700
H  56.80000 42.49800 42.98700
H  54.85100 47.56700 43.06800
H  53.21500 49.28600 44.75100
H  55.68500 46.75100 45.08600
H  54.28700 46.74400 45.90200
H  55.00300 48.25700 45.82600
H  53.04000 51.02100 43.20500
H  53.17300 50.03500 41.79000
H  55.17800 50.44000 41.57000
H  55.71300 49.81100 43.23200
H  55.16100 51.47300 42.94600
H  48.78800 51.57400 42.48500
H  48.46000 51.02300 44.16200
H  47.08200 51.44300 43.13000
H  45.09900 46.95800 40.65000
H  41.11400 46.25700 42.45400
H  42.24300 45.88000 43.78300
H  42.09300 44.81400 42.34300

