158

Mg 24.45500 -6.77500 47.95500
C  26.87700 -4.30300 47.12200
C  22.43800 -5.55800 45.33900
C  22.41400 -9.30500 48.60100
C  27.05400 -8.47300 49.79300
N  24.73600 -5.21700 46.28600
C  25.75700 -4.29600 46.26900
C  25.45600 -3.32700 45.16600
C  23.93200 -3.59200 44.73200
C  23.70900 -4.91700 45.48000
C  22.97100 -2.48900 45.06300
C  26.48200 -3.50400 44.00500
C  27.20600 -2.24600 43.50000
H  26.86400 -1.71600 42.11300
N  22.65900 -7.33300 47.22700
C  22.00100 -6.70900 46.12200
C  20.71500 -7.34500 46.08400
C  20.61500 -8.43800 46.97700
C  21.88500 -8.38200 47.70800
C  19.65700 -6.88200 45.07400
C  19.39800 -9.39400 47.13300
O  18.38500 -9.18200 46.45700
C  19.46800 -10.66300 47.99000
N  24.84200 -8.81600 48.77800
C  23.69900 -9.48600 49.15000
C  23.98100 -10.57200 50.21400
C  25.50300 -10.49100 50.38800
C  25.85500 -9.19600 49.62500
C  23.18000 -10.24100 51.49600
C  26.27300 -11.67700 49.88200
C  26.96800 -12.60900 50.88600
N  26.50400 -6.45900 48.49800
C  27.40600 -7.24300 49.28600
C  28.65100 -6.49700 49.40400
C  28.46800 -5.34600 48.66000
C  27.13600 -5.35300 48.10900
C  29.88700 -6.77400 50.26600
C  29.05800 -3.97600 48.28200
O  30.06800 -3.35500 48.63600
C  28.04000 -3.35800 47.24700
C  27.59600 -1.98700 47.75900
O  27.32100 -1.77200 48.94300
O  27.51800 -1.03000 46.76400
C  27.08600 0.24500 47.32000
H  21.72700 -5.24900 44.57000
H  21.69900 -10.03700 48.98200
H  27.88300 -8.85700 50.39300
H  25.59900 -2.32200 45.56400
H  23.81300 -3.68000 43.65200
H  23.38300 -1.59300 45.52800
H  22.15100 -2.90300 45.64800
H  22.60200 -2.07100 44.12600
H  25.95700 -3.92600 43.14900
H  27.22900 -4.28300 44.15800
H  28.28600 -2.39500 43.50100
H  27.01200 -1.35800 44.10200
H  19.82000 -5.82500 44.86500
H  18.69600 -7.03200 45.56600
H  19.67600 -7.41200 44.12200
H  20.42400 -11.11500 47.72500
H  18.59800 -11.28500 47.78100
H  19.55500 -10.38200 49.04000
H  23.71100 -11.53100 49.77200
H  25.63600 -10.24800 51.44300
H  22.52100 -9.38800 51.33600
H  23.75500 -10.23100 52.42300
H  22.48400 -11.07700 51.56000
H  27.01800 -11.23000 49.22400
H  25.69000 -12.42400 49.34300
H  26.24000 -13.38600 51.12100
H  27.16300 -12.05900 51.80700
H  27.85900 -13.15500 50.57800
H  30.78200 -6.68000 49.65100
H  29.99300 -7.79300 50.63900
H  30.04800 -6.08800 51.09800
H  28.40400 -3.28700 46.22200
H  26.56500 0.30800 48.27500
H  26.39900 0.62300 46.56300
H  27.90800 0.95400 47.41700
Mg 29.35200 57.84200 38.84100
C  26.34300 56.09900 38.06900
C  31.21300 55.07700 37.89700
C  32.11200 59.68300 38.68200
C  27.36600 60.75500 39.01300
N  28.79800 55.83500 38.09200
C  27.54300 55.34900 37.84800
C  27.63400 53.94300 37.25900
C  29.07500 53.47800 37.75200
C  29.78900 54.89300 37.92000
C  29.00200 52.54300 39.04000
C  27.48700 53.99900 35.73900
C  26.24500 53.47600 34.99000
H  25.51800 54.37900 33.97100
N  31.45000 57.39800 38.36900
C  31.98900 56.24900 37.99200
C  33.43200 56.45900 37.82900
C  33.76600 57.77000 38.20800
C  32.45700 58.36200 38.41300
C  34.45500 55.36800 37.55900
C  35.11500 58.37200 38.55900
O  36.12000 57.62600 38.46300
C  35.34300 59.81900 39.08700
N  29.66600 59.89500 38.86200
C  30.91400 60.37700 38.92400
C  30.90100 61.96000 38.97500
C  29.43100 62.27600 39.22100
C  28.76400 60.89600 39.00500
C  31.86600 62.68300 40.05100
C  28.96300 63.48200 38.36500
C  28.21100 64.64600 39.06800
N  27.25300 58.36600 38.80700
C  26.65700 59.56600 38.92500
C  25.21200 59.35600 38.96800
C  25.00800 57.97200 38.57100
C  26.33200 57.44100 38.48600
C  24.14300 60.42000 39.05200
C  24.07500 56.93700 38.10100
O  22.87100 57.03000 37.82500
C  24.89500 55.67600 37.81500
C  24.42000 54.73100 38.85200
O  24.46900 54.93000 40.06500
O  23.95100 53.62100 38.28900
C  23.38400 52.65900 39.25300
H  31.81800 54.21300 37.61700
H  32.92100 60.41600 38.67400
H  26.84700 61.71600 39.00300
H  26.87200 53.26300 37.64000
H  29.58700 52.87100 37.00600
H  27.99100 52.24900 39.32200
H  29.30200 53.19000 39.86500
H  29.69500 51.70200 39.03300
H  28.24700 53.39400 35.24500
H  27.46900 55.00700 35.32300
H  25.54500 53.22400 35.78600
H  26.57200 52.55700 34.50200
H  34.10500 54.49000 37.01500
H  34.84600 55.08300 38.53500
H  35.24100 55.66500 36.86500
H  36.30700 59.73700 39.58900
H  34.64100 59.87300 39.92000
H  35.26800 60.69400 38.44200
H  31.22500 62.33800 38.00500
H  29.19800 62.57000 40.24400
H  32.23600 61.83700 40.63100
H  31.35800 63.42900 40.66200
H  32.77600 63.05500 39.58000
H  28.30600 63.14900 37.56200
H  29.76500 64.00900 37.85000
H  27.54500 65.22800 38.43100
H  28.88600 65.42600 39.41900
H  27.45900 64.24500 39.74800
H  23.19700 59.88200 38.99000
H  24.11800 61.15600 38.24800
H  24.20800 61.02300 39.95700
H  24.55700 55.26200 36.86500
H  23.60300 51.66800 38.85700
H  22.35800 52.84300 39.57200
H  24.05500 52.49900 40.09700

