158

Mg 24.89600 -6.35700 45.68200
C  27.44700 -4.31300 44.36600
C  22.71000 -4.75700 43.58000
C  22.78500 -8.99800 46.12300
C  27.36100 -8.06900 47.45100
N  25.14200 -4.85200 44.09300
C  26.23700 -4.13600 43.73700
C  26.02900 -3.17700 42.62400
C  24.47000 -3.11600 42.62700
C  24.06700 -4.36300 43.48700
C  23.93400 -1.81100 43.17800
C  26.59400 -3.55200 41.23900
C  26.77700 -2.48900 40.19200
H  25.93300 -2.62100 38.94700
N  22.98000 -6.76100 44.96100
C  22.20100 -5.88800 44.29100
C  20.87500 -6.46000 44.25900
C  20.94100 -7.72200 44.83000
C  22.23400 -7.86600 45.39200
C  19.70600 -5.80400 43.53200
C  19.73700 -8.64100 44.96400
O  18.59700 -8.35000 44.71500
C  19.92500 -10.05000 45.51200
N  25.14500 -8.34400 46.49100
C  24.07400 -9.12600 46.65000
C  24.36400 -10.34000 47.59900
C  25.83400 -10.02900 48.03600
C  26.16700 -8.70100 47.32300
C  23.28000 -10.64100 48.75300
C  26.94700 -11.16300 47.73600
C  27.99700 -11.49900 48.81000
N  27.04700 -6.18400 46.01500
C  27.85000 -6.93900 46.76600
C  29.17800 -6.33700 46.77700
C  29.05500 -5.32100 45.81200
C  27.73700 -5.25900 45.40300
C  30.40200 -6.88900 47.56600
C  29.81400 -4.32400 45.04800
O  30.98800 -4.07800 45.00400
C  28.77800 -3.64200 44.14000
C  28.75800 -2.19400 44.34000
O  29.02200 -1.40300 43.40700
O  28.43100 -1.87800 45.61000
C  28.04900 -0.46800 45.84100
H  22.02000 -4.17800 42.96200
H  22.20700 -9.88800 46.38100
H  28.12300 -8.49400 48.10700
H  26.61500 -2.29800 42.89400
H  24.10100 -3.08800 41.60200
H  23.42400 -2.07600 44.10400
H  23.25400 -1.42500 42.41800
H  24.83100 -1.21100 43.33200
H  26.01600 -4.39500 40.86000
H  27.53100 -4.05100 41.48500
H  27.84200 -2.40100 39.97900
H  26.46600 -1.49700 40.51800
H  19.59000 -6.19400 42.52100
H  19.93500 -4.74200 43.44200
H  18.66100 -5.81400 43.84400
H  20.06700 -9.99100 46.59100
H  20.74800 -10.47600 44.93700
H  19.02900 -10.63200 45.29600
H  24.39700 -11.21200 46.94700
H  25.84200 -9.80200 49.10200
H  22.77400 -11.51700 48.34900
H  22.54900 -9.84400 48.89200
H  23.78000 -10.89900 49.68700
H  27.46400 -11.08000 46.78000
H  26.32800 -12.04300 47.56300
H  28.25700 -12.55700 48.77600
H  27.73400 -11.17700 49.81700
H  28.91800 -11.02800 48.46600
H  30.92200 -7.52700 46.85100
H  30.21700 -7.45700 48.47900
H  31.09600 -6.11700 47.89600
H  29.00600 -3.90300 43.10600
H  26.96700 -0.40900 45.95900
H  28.36600 0.18200 45.02500
H  28.50600 -0.04200 46.73400
Mg 8.59800 47.73800 25.08700
C  6.49200 47.78600 27.88900
C  11.16100 48.82200 27.21000
C  10.68400 47.95500 22.38700
C  5.94000 47.31000 22.98000
N  8.74200 48.31700 27.38500
C  7.76800 48.12400 28.30400
C  8.32500 48.42400 29.75300
C  9.78600 48.88400 29.43700
C  9.93900 48.71900 27.88400
C  10.18600 50.25300 30.06700
C  8.10900 47.24500 30.74900
C  9.10000 47.02500 31.94300
H  8.41100 46.42000 33.22300
N  10.65200 48.30300 24.78900
C  11.53000 48.67500 25.75100
C  12.82600 48.74300 25.15700
C  12.74600 48.43200 23.80600
C  11.28200 48.27500 23.59900
C  14.03700 49.13000 26.03700
C  13.80600 48.48100 22.80900
O  13.62700 48.21700 21.62800
C  15.30800 48.45400 23.19800
N  8.29700 47.77200 22.87600
C  9.36300 47.69400 22.00600
C  8.83400 47.23800 20.61000
C  7.27800 47.00800 20.85000
C  7.11900 47.33000 22.30900
C  9.40300 48.13900 19.43100
C  6.93000 45.61400 20.43400
C  5.50300 45.36300 19.88200
N  6.68900 47.46800 25.34500
C  5.66100 47.43300 24.39900
C  4.34400 47.43700 25.04100
C  4.68500 47.38700 26.37900
C  6.08900 47.43500 26.52100
C  2.94800 47.46600 24.36000
C  4.07800 47.35200 27.71100
O  2.87800 47.27700 27.98600
C  5.23600 47.58400 28.74300
C  5.16100 46.42400 29.72700
O  5.41900 45.25600 29.47200
O  4.65100 46.84800 30.94500
C  4.26400 45.75300 31.84300
H  11.93700 49.15700 27.90100
H  11.38100 47.78300 21.56400
H  5.03400 47.16700 22.38700
H  7.79600 49.29500 30.14000
H  10.48900 48.12500 29.77900
H  9.31100 50.86500 30.28300
H  10.83800 50.75100 29.35000
H  10.81800 49.94500 30.90000
H  8.14100 46.31000 30.19000
H  7.12200 47.45800 31.16000
H  9.53400 48.00300 32.15300
H  9.96400 46.42500 31.65700
H  13.86600 49.33800 27.09300
H  14.37400 50.09700 25.66200
H  14.86300 48.43700 26.19300
H  15.72200 49.29100 23.76200
H  15.91400 48.27100 22.31100
H  15.46400 47.59200 23.84700
H  9.34100 46.29400 20.41000
H  6.73300 47.67600 20.18300
H  8.57900 48.76600 19.08900
H  9.73800 47.50000 18.61400
H  10.32800 48.61400 19.75900
H  6.86000 44.97400 21.31300
H  7.60700 45.26200 19.65600
H  5.51700 44.52300 19.18800
H  4.98400 46.23300 19.48200
H  4.95900 45.04400 20.77200
H  2.43400 46.57300 24.71500
H  3.06500 47.31000 23.28800
H  2.37400 48.38000 24.51500
H  5.13500 48.54700 29.24200
H  3.67300 46.18900 32.64900
H  5.08100 45.25800 32.36700
H  3.56500 45.06700 31.36400

