158

Mg 31.39200 59.14100 40.55400
C  28.63900 57.18300 39.78700
C  33.43400 56.57300 39.49600
C  33.98800 61.12700 40.88900
C  29.23800 61.90700 41.07000
N  31.04500 57.15300 39.72800
C  29.82600 56.50000 39.54700
C  30.01700 55.10400 38.97200
C  31.50500 54.83300 39.25500
C  32.04000 56.24800 39.53100
C  31.73900 53.78400 40.39400
C  29.61600 55.12400 37.44600
C  28.48300 54.16700 36.97800
H  27.52500 54.74800 35.89600
N  33.44800 58.92400 40.29900
C  34.07900 57.80700 39.82600
C  35.43500 58.11100 39.65800
C  35.65000 59.37500 40.16200
C  34.34200 59.89100 40.44500
C  36.30800 57.15700 38.74500
C  37.04600 60.04800 40.22900
O  38.03700 59.35200 39.98200
C  37.38200 61.46900 40.53500
N  31.53300 61.40100 40.77000
C  32.80200 61.77300 41.17200
C  32.69500 63.20700 41.85800
C  31.11600 63.47700 41.72900
C  30.56000 62.17300 41.19000
C  33.27900 63.22800 43.28500
C  30.67500 64.59000 40.65000
C  29.45500 65.41500 40.96600
N  29.35400 59.49900 40.48600
C  28.63900 60.65300 40.73700
C  27.21500 60.31200 40.68200
C  27.11300 58.97800 40.36100
C  28.44800 58.52300 40.21800
C  26.08200 61.20900 40.86100
C  26.20600 57.86600 40.12600
O  24.98500 57.72800 40.20600
C  27.17600 56.58900 39.68400
C  27.09900 55.45600 40.59400
O  27.69200 55.33900 41.62400
O  26.29800 54.46100 40.05000
C  26.23100 53.24000 40.90900
H  34.05700 55.69400 39.31700
H  34.85600 61.70400 41.21600
H  28.59800 62.64400 41.55900
H  29.43500 54.46500 39.63600
H  31.85200 54.40600 38.31400
H  31.21500 54.30800 41.19300
H  32.82500 53.85600 40.46100
H  31.32400 52.78100 40.29600
H  30.55100 55.02200 36.89600
H  29.26800 56.13100 37.21900
H  27.97800 53.87100 37.89800
H  28.88600 53.26000 36.52800
H  35.61800 56.63000 38.08700
H  36.89700 56.49000 39.37600
H  37.01600 57.69100 38.11200
H  37.30500 61.56600 41.61800
H  36.68600 62.11900 40.00600
H  38.34900 61.69700 40.08600
H  33.11200 63.98000 41.21200
H  30.73300 63.83100 42.68600
H  33.81100 62.27700 43.32900
H  32.55700 63.25800 44.10100
H  33.94400 64.08500 43.38600
H  30.19000 63.99100 39.88000
H  31.47800 65.21900 40.26500
H  29.12500 65.27300 41.99600
H  28.55800 65.19000 40.39100
H  29.72700 66.45200 40.77200
H  25.30000 60.82700 40.20400
H  26.28400 62.26200 40.66800
H  25.76100 61.21500 41.90300
H  27.16500 56.24900 38.64900
H  25.20200 52.88300 40.96100
H  26.55600 53.37600 41.94000
H  26.87000 52.54800 40.36000
Mg -2.14000 33.66200 26.13000
C  -3.88600 32.27300 28.93100
C  -0.74400 35.82600 28.34100
C  -1.03000 35.47500 23.40800
C  -4.29600 31.96800 24.00500
N  -2.51800 34.08700 28.37500
C  -3.02200 33.26300 29.38000
C  -2.72500 33.73600 30.82400
C  -1.63400 34.83500 30.53500
C  -1.71800 35.01800 28.99200
C  -1.67900 36.17900 31.22800
C  -2.23400 32.68300 31.80600
C  -2.88800 32.62500 33.25200
H  -2.04500 32.43000 34.54400
N  -0.94600 35.24900 25.94600
C  -0.37300 35.98200 26.98400
C  0.51800 36.97400 26.43300
C  0.37700 36.94500 25.03100
C  -0.54900 35.81300 24.70500
C  1.37900 38.02700 27.22200
C  0.89400 37.84500 23.98200
O  0.60200 37.74600 22.79000
C  1.97800 38.84800 24.24800
N  -2.77900 33.79800 24.01100
C  -2.11600 34.57000 23.04600
C  -2.38700 34.08600 21.61500
C  -3.44700 33.06400 21.90800
C  -3.51100 32.91300 23.42500
C  -2.80300 35.17800 20.60700
C  -3.24100 31.68100 21.14100
C  -2.18800 30.77200 21.74500
N  -3.64200 32.28100 26.30700
C  -4.37500 31.64800 25.38400
C  -5.24900 30.65200 26.07400
C  -5.12000 30.87900 27.43700
C  -4.13800 31.89000 27.55200
C  -6.18600 29.74500 25.32400
C  -5.56700 30.48200 28.74300
O  -6.32500 29.57100 29.15900
C  -4.74700 31.38000 29.79100
C  -5.80800 32.07200 30.57300
O  -6.36200 33.07600 30.08200
O  -6.03500 31.54800 31.84600
C  -6.84900 32.38000 32.72500
H  -0.04500 36.31200 29.02500
H  -0.28700 35.62300 22.62100
H  -4.83900 31.20100 23.44900
H  -3.65000 34.20400 31.16000
H  -0.61300 34.53000 30.76800
H  -0.79400 36.55300 31.74300
H  -2.36500 36.09900 32.07100
H  -2.01800 37.00400 30.60200
H  -1.21800 32.98200 32.06400
H  -2.22200 31.69500 31.34600
H  -3.46600 31.70200 33.20200
H  -3.63800 33.38300 33.47600
H  2.40300 37.99100 26.85000
H  1.38600 37.64100 28.24200
H  0.89200 38.99300 27.09200
H  1.64100 39.44600 25.09400
H  2.07000 39.50100 23.38100
H  2.94200 38.37800 24.44500
H  -1.54800 33.47900 21.27600
H  -4.41700 33.46800 21.62000
H  -3.24300 36.05600 21.07900
H  -3.59600 34.84400 19.93700
H  -1.97800 35.54700 19.99800
H  -2.99400 31.97400 20.12100
H  -4.15500 31.08800 21.14300
H  -1.77100 31.14900 22.67900
H  -1.48600 30.59200 20.93100
H  -2.75700 29.86300 21.93900
H  -7.09200 30.24900 24.99000
H  -6.58800 28.96500 25.97000
H  -5.82500 29.32000 24.38700
H  -4.16100 30.74000 30.45000
H  -7.73000 32.56500 32.11000
H  -6.34600 33.23300 33.18000
H  -7.26000 31.74000 33.50600

