158

Mg 1.35900 8.51300 27.48100
C  2.12500 10.18200 30.34500
C  2.02100 5.50800 29.20500
C  1.28300 6.72600 24.55100
C  1.75800 11.41200 25.60200
N  1.84300 7.96100 29.59100
C  2.04800 8.80600 30.63700
C  2.05400 8.05100 31.98600
C  2.15400 6.50800 31.52900
C  2.09400 6.67100 29.98800
C  3.41000 5.73600 31.95700
C  0.78400 8.46300 32.90300
C  1.05600 9.00700 34.28100
H  2.26000 8.54100 35.09500
N  1.44100 6.47400 26.97800
C  1.72000 5.40600 27.83300
C  1.51100 4.15200 27.10400
C  1.09700 4.47000 25.74800
C  1.29000 5.92900 25.70800
C  1.82800 2.79300 27.72700
C  0.65800 3.57000 24.59800
O  0.20800 4.04800 23.55800
C  0.69600 2.13400 24.87600
N  1.46200 9.01000 25.31700
C  1.45300 8.10000 24.30400
C  1.85700 8.77000 22.94000
C  1.69600 10.31900 23.31500
C  1.61600 10.28800 24.82700
C  3.26800 8.18600 22.53700
C  0.58600 11.12000 22.58500
C  -0.88700 10.73300 23.10800
N  1.78000 10.46200 27.86900
C  1.86600 11.56000 27.02800
C  2.14000 12.74000 27.81700
C  2.22100 12.28000 29.15300
C  2.03800 10.87300 29.11400
C  2.37300 14.10300 27.19700
C  2.51800 12.66100 30.55600
O  2.79300 13.71800 31.12500
C  2.29500 11.35800 31.40000
C  3.48600 11.28400 32.27000
O  4.60500 10.93100 31.93800
O  3.21800 11.80400 33.50200
C  4.44700 12.00200 34.33100
H  2.05300 4.56800 29.76000
H  1.27700 6.14900 23.62400
H  1.76800 12.36200 25.06300
H  2.88300 8.30000 32.64800
H  1.23600 6.01400 31.84800
H  4.28700 6.37300 32.06500
H  3.73500 5.05200 31.17300
H  3.17800 5.00600 32.73300
H  0.09900 7.61700 32.96600
H  0.23500 9.25400 32.39300
H  0.14100 8.92400 34.86600
H  1.24400 10.07800 34.20300
H  0.92400 2.22600 27.94900
H  2.48300 2.83800 28.59700
H  2.37600 2.31800 26.91300
H  0.33900 1.39300 24.16100
H  0.06100 1.79300 25.69400
H  1.74300 1.83400 24.93600
H  1.10700 8.46000 22.21200
H  2.54900 10.95200 23.07000
H  3.27100 7.71500 21.55400
H  3.54700 7.40600 23.24600
H  3.99600 8.99600 22.58200
H  0.64000 10.73700 21.56600
H  0.82800 12.18000 22.66200
H  -1.57700 10.66600 22.26700
H  -1.21900 11.61000 23.66400
H  -0.97500 9.84200 23.72900
H  1.63800 14.22600 26.40100
H  3.40200 14.31200 26.90400
H  2.09300 14.72300 28.04800
H  1.35600 11.58000 31.90600
H  4.71800 13.04500 34.49800
H  5.34000 11.44500 34.04900
H  4.14000 11.66600 35.32200
Mg 0.13800 43.68700 25.52500
C  2.21900 43.44500 28.32500
C  -2.49200 43.13700 27.72300
C  -1.76000 43.17900 22.80300
C  3.09900 43.91200 23.50700
N  -0.15300 43.51300 27.74100
C  0.87700 43.36200 28.63900
C  0.30700 43.48000 30.09700
C  -1.26600 43.31400 29.90000
C  -1.28800 43.19800 28.34300
C  -1.86500 42.03000 30.63600
C  0.73900 44.81100 30.75700
C  0.88400 44.70500 32.27000
H  0.44000 43.45800 33.11500
N  -1.87300 43.29500 25.32200
C  -2.81500 43.17900 26.31700
C  -4.18600 43.10200 25.69900
C  -3.92400 42.83900 24.33300
C  -2.50400 43.18000 24.05800
C  -5.45900 43.07900 26.61000
C  -4.97200 42.56600 23.22600
O  -4.63600 42.20700 22.06000
C  -6.43800 42.63400 23.59100
N  0.60100 43.31500 23.38400
C  -0.37600 43.24100 22.46000
C  0.24300 43.39300 21.06900
C  1.57500 44.19100 21.39500
C  1.81200 43.77700 22.88500
C  0.44700 41.98600 20.33300
C  1.72000 45.73000 21.20400
C  2.54500 46.20500 19.90700
N  2.24700 43.73100 25.86500
C  3.32300 43.84200 24.93300
C  4.55200 43.90500 25.61600
C  4.20100 43.73000 26.96600
C  2.82200 43.62400 27.02000
C  5.86800 44.12600 24.99700
C  4.75600 43.55900 28.28300
O  5.88800 43.47000 28.71000
C  3.49600 43.58000 29.20700
C  3.66100 42.52800 30.22600
O  3.51800 41.30800 30.16400
O  4.13000 43.12200 31.36200
C  4.49900 42.27800 32.43800
H  -3.40100 42.98400 28.31000
H  -2.44200 43.24200 21.95300
H  3.96500 44.12200 22.87600
H  0.66400 42.62900 30.67600
H  -1.85000 44.19900 30.15000
H  -2.56000 41.57200 29.93300
H  -2.45700 42.55000 31.38900
H  -1.10100 41.33200 30.98000
H  0.01700 45.61500 30.61300
H  1.68300 45.11300 30.30400
H  0.37100 45.55800 32.71300
H  1.91900 44.89600 32.55400
H  -6.27100 43.49100 26.01000
H  -5.40400 43.63400 27.54700
H  -5.66800 42.02700 26.80400
H  -7.05800 42.37000 22.73400
H  -6.59100 43.68900 23.81400
H  -6.52300 41.87800 24.37200
H  -0.28200 44.14400 20.47900
H  2.37100 43.72000 20.81700
H  1.46000 41.61200 20.18400
H  -0.01100 42.08200 19.34900
H  -0.18100 41.19600 20.74600
H  2.13100 46.20700 22.09300
H  0.77100 46.26400 21.15200
H  3.33000 46.87900 20.24800
H  1.92100 46.69300 19.15700
H  3.07900 45.44200 19.34200
H  5.79400 43.97900 23.91900
H  6.50400 43.38200 25.47700
H  6.13300 45.16500 25.19200
H  3.62000 44.54200 29.70400
H  4.37900 42.92200 33.30900
H  5.55600 42.01500 32.39600
H  3.83300 41.44200 32.65100

