158

Mg 24.22300 -6.90000 46.77000
C  26.80300 -4.77800 45.83000
C  22.23800 -5.40900 44.46400
C  22.28000 -9.61900 46.90700
C  26.71500 -8.80600 48.65100
N  24.52800 -5.36300 45.38500
C  25.60600 -4.53700 45.22700
C  25.34800 -3.47100 44.14900
C  23.78300 -3.48900 43.89900
C  23.45200 -4.78700 44.66800
C  23.10900 -2.20300 44.50100
C  26.15400 -3.69900 42.84700
C  26.47000 -2.48600 41.91800
H  25.68600 -2.46400 40.51300
N  22.42100 -7.33100 45.88600
C  21.70700 -6.62400 44.97700
C  20.46000 -7.30100 44.73300
C  20.37000 -8.50900 45.46600
C  21.74200 -8.55100 46.17700
C  19.43600 -6.86900 43.82600
C  19.24500 -9.53200 45.49700
O  18.19900 -9.30500 44.92500
C  19.32400 -10.71200 46.44600
N  24.56700 -8.98900 47.39700
C  23.48400 -9.79300 47.59200
C  23.85700 -11.10300 48.37300
C  25.32500 -10.92300 48.76000
C  25.54400 -9.40200 48.27100
C  22.94700 -11.57500 49.51000
C  26.29600 -11.89300 48.06000
C  26.86400 -12.95600 48.87900
N  26.30200 -6.73700 47.38700
C  27.11100 -7.54200 48.19700
C  28.42400 -6.91700 48.26400
C  28.39100 -5.77800 47.35900
C  27.07300 -5.71700 46.83600
C  29.60300 -7.45500 49.08800
C  29.08600 -4.67100 46.78500
O  30.23000 -4.29700 46.91700
C  28.19900 -4.00000 45.72400
C  28.23700 -2.46500 45.97900
O  29.12900 -1.75200 45.54300
O  27.19900 -2.16600 46.74500
C  27.12300 -0.73700 47.09000
H  21.59700 -5.00300 43.67900
H  21.86300 -10.61600 47.06600
H  27.28600 -9.32600 49.42400
H  25.63400 -2.49100 44.53100
H  23.38400 -3.62800 42.89400
H  22.47400 -2.34700 45.37500
H  22.48600 -1.70700 43.75600
H  23.71500 -1.39400 44.91000
H  25.55200 -4.40900 42.28000
H  27.14200 -4.13100 43.00000
H  27.52500 -2.47700 41.64400
H  26.24900 -1.63600 42.56300
H  18.65800 -6.34100 44.37700
H  18.94700 -7.67900 43.28500
H  19.83300 -6.14500 43.11400
H  19.63400 -10.43800 47.45400
H  20.05100 -11.40500 46.02100
H  18.35200 -11.16100 46.64900
H  23.72300 -11.89800 47.64000
H  25.43600 -10.96000 49.84300
H  22.69700 -12.63500 49.46800
H  21.97200 -11.08600 49.48600
H  23.33200 -11.30200 50.49200
H  27.21600 -11.34900 47.84500
H  25.95900 -12.20200 47.07000
H  27.00200 -13.84900 48.26900
H  26.14800 -13.24000 49.65000
H  27.79100 -12.64700 49.36200
H  29.36200 -8.50300 49.26300
H  29.44700 -7.00800 50.07000
H  30.61000 -7.36600 48.68000
H  28.73800 -4.23500 44.80600
H  28.06800 -0.33400 47.45400
H  26.44100 -0.36800 47.85600
H  26.90500 -0.18400 46.17600
Mg 8.89200 48.61000 25.48100
C  7.05100 48.56200 28.49200
C  11.60100 49.88000 27.35900
C  10.67400 48.86700 22.62300
C  6.02000 47.98200 23.76900
N  9.35900 49.04400 27.75600
C  8.41400 48.94300 28.76900
C  8.90100 49.45800 30.07300
C  10.29500 50.10400 29.62300
C  10.50100 49.68400 28.13400
C  10.51700 51.62700 29.90300
C  8.86200 48.61200 31.35800
C  9.87000 48.91400 32.54700
H  9.24800 48.75600 33.97600
N  10.94400 49.15100 25.06800
C  11.91900 49.53700 26.00300
C  13.20100 49.55300 25.25600
C  12.92700 49.26700 23.87000
C  11.44800 49.08600 23.77800
C  14.52800 49.91700 25.90400
C  13.88600 49.33400 22.69000
O  13.49900 49.15100 21.53100
C  15.44000 49.61700 22.75900
N  8.39100 48.50600 23.46700
C  9.31900 48.46000 22.52700
C  8.69700 48.25500 21.14900
C  7.25800 47.75400 21.51700
C  7.16800 48.09900 22.99200
C  8.74800 49.48200 20.18700
C  6.85900 46.20800 21.28600
C  6.60000 45.92100 19.79100
N  7.01400 48.28700 26.00600
C  5.90700 48.04100 25.17300
C  4.71300 47.84300 25.90900
C  5.13200 48.05800 27.24000
C  6.53700 48.30400 27.23600
C  3.26800 47.62600 25.34600
C  4.70700 48.14400 28.60300
O  3.59200 48.08500 29.03600
C  5.93600 48.46100 29.49000
C  6.00400 47.24000 30.31100
O  6.84300 46.32700 30.23300
O  5.02800 47.15600 31.21900
C  5.27200 46.26600 32.40200
H  12.49700 50.18600 27.90300
H  11.19100 48.90600 21.66300
H  5.05300 47.80700 23.29200
H  8.26100 50.29600 30.35000
H  11.13100 49.57300 30.07800
H  11.56200 51.87000 30.09800
H  9.86200 52.04600 30.66700
H  10.43400 52.17600 28.96500
H  9.19000 47.62900 31.02000
H  7.85300 48.44300 31.73300
H  10.05800 49.97800 32.39700
H  10.80500 48.36000 32.46600
H  14.63200 49.67200 26.96100
H  14.88400 50.91100 25.63000
H  15.27500 49.24400 25.48400
H  15.78000 49.99800 21.79600
H  15.97100 48.71700 23.06800
H  15.56500 50.40200 23.50500
H  9.20200 47.40000 20.70000
H  6.57800 48.39100 20.95200
H  9.31300 49.32300 19.26800
H  9.27400 50.29300 20.69100
H  7.74700 49.85200 19.96200
H  5.94600 46.01900 21.85000
H  7.67800 45.52300 21.50300
H  6.62500 46.84600 19.21400
H  5.65300 45.39800 19.66200
H  7.43500 45.30400 19.46000
H  2.59700 47.88000 26.16700
H  3.04500 46.68900 24.83600
H  2.96200 48.43000 24.67700
H  5.70100 49.32600 30.11100
H  4.35300 46.11100 32.96600
H  6.02500 46.69500 33.06300
H  5.65600 45.29100 32.10000

