158

Mg 54.10100 24.08000 44.90600
C  51.43400 26.18800 43.85700
C  52.66200 21.59600 42.81000
C  57.04800 22.46500 44.77600
C  55.60800 26.72400 46.54000
N  52.30800 23.93400 43.42100
C  51.34500 24.89300 43.20500
C  50.05500 24.34400 42.59500
C  50.36300 22.82700 42.58400
C  51.87600 22.74000 42.94500
C  49.44700 21.86600 43.43400
C  49.70300 24.84300 41.18800
C  50.96300 25.07000 40.24400
H  50.68500 25.81200 38.95200
N  54.73200 22.21000 44.02700
C  53.98900 21.33500 43.19300
C  54.82600 20.20400 42.80400
C  56.07100 20.47100 43.36800
C  56.01900 21.72200 44.15400
C  54.28100 19.05300 41.96500
C  57.31700 19.59400 43.05600
O  57.25700 18.68700 42.28400
C  58.58400 19.66200 43.85500
N  56.10400 24.45200 45.61400
C  57.11100 23.65200 45.43500
C  58.37100 24.21300 46.18100
C  57.94700 25.68100 46.47300
C  56.45200 25.66300 46.17200
C  58.95400 23.28700 47.30300
C  58.64400 26.92300 45.74200
C  58.86900 28.17200 46.61700
N  53.60000 25.91900 45.28400
C  54.26600 26.87300 45.98000
C  53.42600 28.10700 46.11300
C  52.34500 27.87100 45.27300
C  52.46900 26.55300 44.74200
C  53.60800 29.35100 46.93900
C  51.07900 28.42100 44.76300
O  50.56700 29.50800 44.97500
C  50.36400 27.34300 43.93500
C  49.94900 27.84000 42.61600
O  50.65500 28.14100 41.69700
O  48.59600 28.01400 42.61600
C  47.96100 28.55100 41.38200
H  52.17200 20.83000 42.20600
H  58.03400 22.00900 44.67100
H  56.08700 27.56000 47.05400
H  49.41000 24.56800 43.44400
H  50.27800 22.39900 41.58500
H  48.84000 22.41400 44.15400
H  50.01600 21.18900 44.07100
H  48.81400 21.22200 42.82300
H  49.14600 25.77700 41.11300
H  49.12000 23.99700 40.82200
H  51.39500 24.08400 40.07200
H  51.67200 25.69700 40.78500
H  53.22800 18.85400 42.16600
H  54.76200 18.10600 42.21100
H  54.53500 19.26800 40.92700
H  59.16700 18.74400 43.77400
H  58.28000 19.83600 44.88700
H  59.13300 20.53200 43.49300
H  59.23400 24.06300 45.53200
H  57.97000 25.98300 47.52000
H  59.98200 23.00600 47.07100
H  58.37600 22.36300 47.31500
H  59.03300 23.77200 48.27500
H  58.00600 27.19100 44.90000
H  59.64800 26.70500 45.37700
H  59.88500 28.55800 46.53400
H  58.59200 27.99200 47.65500
H  58.25000 28.95200 46.17300
H  54.50900 29.26500 47.54700
H  52.74600 29.49400 47.59100
H  53.61200 30.24800 46.32100
H  49.51900 27.08700 44.57400
H  48.19600 27.90900 40.53200
H  48.17900 29.60100 41.18700
H  46.90300 28.45400 41.62600
Mg -11.49200 38.00900 41.98000
C  -9.49900 35.29500 40.89600
C  -9.29300 40.10600 40.37900
C  -13.64700 40.43500 42.48600
C  -14.02800 35.60300 42.87000
N  -9.59400 37.71000 40.83900
C  -8.90300 36.52100 40.56700
C  -7.58800 36.75400 39.78600
C  -7.45300 38.31800 39.86200
C  -8.91300 38.73800 40.36200
C  -6.38800 38.85200 40.83000
C  -7.66100 36.22100 38.34100
C  -6.51500 35.32600 37.84500
H  -5.79100 35.79100 36.57900
N  -11.36600 40.04600 41.52400
C  -10.40400 40.72400 40.86500
C  -10.70900 42.16300 40.80400
C  -11.97700 42.31400 41.50900
C  -12.38400 40.92700 41.88800
C  -9.87300 43.23600 40.08300
C  -12.67200 43.59000 41.77500
O  -12.17200 44.60200 41.31800
C  -13.99100 43.69700 42.42800
N  -13.63700 37.93800 42.34000
C  -14.20900 39.14200 42.62500
C  -15.63700 38.98700 43.19600
C  -15.81000 37.43300 43.31500
C  -14.46600 36.90900 42.74100
C  -15.85100 39.75200 44.56600
C  -17.04700 36.83200 42.59400
C  -18.29100 36.82600 43.57200
N  -11.70000 35.90800 42.04400
C  -12.71200 35.06300 42.49700
C  -12.17400 33.72900 42.53900
C  -10.99600 33.80600 41.80600
C  -10.74700 35.14600 41.55100
C  -12.85800 32.55600 43.15000
C  -9.93500 32.94000 41.26400
O  -9.84800 31.70500 41.49800
C  -8.86400 33.86800 40.68100
C  -7.64700 33.58100 41.41200
O  -7.53200 33.41000 42.59800
O  -6.61900 33.56300 40.56900
C  -5.30100 33.73900 41.11900
H  -8.59200 40.68900 39.77800
H  -14.18800 41.26900 42.93800
H  -14.83200 34.95600 43.22800
H  -6.80300 36.26100 40.36000
H  -7.25000 38.81600 38.91300
H  -5.58600 38.11400 40.82300
H  -6.77700 39.10300 41.81700
H  -6.02400 39.73100 40.30000
H  -7.76500 37.12000 37.73200
H  -8.59700 35.70300 38.13400
H  -6.86500 34.31300 37.64500
H  -5.70600 35.15300 38.55400
H  -8.94300 42.81100 39.70700
H  -9.50800 44.01700 40.75000
H  -10.46100 43.67600 39.27700
H  -14.72600 43.07600 41.91600
H  -14.44600 44.68600 42.46700
H  -13.87900 43.38700 43.46700
H  -16.30600 39.43900 42.46300
H  -15.88800 37.14600 44.36400
H  -16.32200 39.24500 45.40800
H  -16.53500 40.55700 44.29600
H  -14.88600 40.14400 44.88800
H  -16.81500 35.80000 42.33000
H  -17.21200 37.50800 41.75500
H  -18.06900 35.93600 44.16000
H  -19.21900 36.56300 43.06400
H  -18.26200 37.73100 44.17800
H  -12.71900 31.68000 42.51700
H  -13.93000 32.74900 43.12600
H  -12.57100 32.36900 44.18500
H  -8.69800 33.70100 39.61600
H  -5.19300 32.89700 41.80400
H  -5.29200 34.58500 41.80600
H  -4.54900 33.78800 40.33200

