158

Mg 47.57900 24.57000 29.09400
C  48.45400 26.96400 31.53200
C  46.35500 22.60900 31.64100
C  46.77800 22.39800 26.78600
C  48.96000 26.58200 26.71000
N  47.42500 24.84400 31.32300
C  47.74800 25.88400 32.09400
C  47.30900 25.75100 33.59000
C  46.82000 24.20400 33.65500
C  46.89900 23.85000 32.14200
C  47.70100 23.31700 34.62500
C  46.15800 26.73700 33.96700
C  46.66200 27.71300 35.07900
H  47.08000 26.98100 36.41700
N  46.72300 22.69700 29.15200
C  46.25700 22.09700 30.35200
C  45.65100 20.85300 29.93600
C  45.59000 20.90200 28.47600
C  46.34300 22.05500 28.09100
C  45.06900 19.77600 30.91300
C  44.90900 19.89100 27.46300
O  45.10600 19.96000 26.23500
C  43.91600 18.84500 27.88700
N  48.09400 24.38000 27.10800
C  47.62100 23.39300 26.34300
C  48.09500 23.52300 24.87300
C  48.65500 24.98400 24.83500
C  48.57100 25.34600 26.31000
C  49.25800 22.50800 24.63400
C  47.89400 25.93000 23.97500
C  48.79500 27.01500 23.35200
N  48.53500 26.36500 29.03700
C  49.04300 27.11700 27.99600
C  49.48700 28.40700 28.39000
C  49.29800 28.33400 29.76900
C  48.72800 27.08000 30.13400
C  50.23700 29.39800 27.56900
C  49.63500 29.04400 30.97900
O  50.12000 30.15700 31.08700
C  49.04000 28.27700 32.14500
C  50.03000 27.98900 33.19800
O  50.81300 27.08800 33.31700
O  49.86300 28.98900 34.13500
C  50.62200 28.73800 35.42100
H  45.97800 21.92300 32.40200
H  46.39500 21.93600 25.87400
H  49.20600 27.27700 25.90400
H  48.26400 25.89900 34.09400
H  45.75100 24.23900 33.86800
H  48.57700 22.88700 34.13900
H  46.99100 22.58900 35.01700
H  47.98800 23.89500 35.50300
H  45.28000 26.18100 34.29600
H  45.91400 27.34200 33.09300
H  45.89600 28.48300 35.16600
H  47.53900 28.16800 34.61900
H  45.18800 18.77300 30.50200
H  44.01400 19.95600 31.12000
H  45.47200 19.92500 31.91500
H  43.11300 19.28300 28.48000
H  44.50500 18.16900 28.50700
H  43.51600 18.22000 27.08900
H  47.21700 23.20400 24.31100
H  49.72500 25.06600 24.64600
H  50.11000 23.11800 24.33500
H  48.90900 21.87600 23.81700
H  49.41500 21.98600 25.57800
H  47.03900 26.41600 24.44500
H  47.47000 25.36800 23.14300
H  48.37200 28.01900 23.40500
H  48.94700 26.76800 22.30100
H  49.83400 27.05900 23.67600
H  50.34400 30.29000 28.18600
H  49.76100 29.64000 26.61800
H  51.22000 28.99700 27.32300
H  48.11900 28.75000 32.48600
H  50.13100 27.95100 35.99300
H  50.72900 29.58700 36.09600
H  51.65800 28.44600 35.25500
Mg 42.56200 41.30800 26.02400
C  41.90600 43.32600 28.74400
C  44.05700 39.06300 28.36300
C  43.46100 39.15300 23.55100
C  41.81400 43.66100 23.72300
N  43.07100 41.32100 28.33700
C  42.50300 42.17700 29.25600
C  42.74800 41.73200 30.71800
C  43.58700 40.48300 30.45100
C  43.59700 40.23700 28.98100
C  45.09400 40.48300 30.97400
C  41.40300 41.44000 31.38600
C  40.87900 42.48200 32.46400
H  41.79200 42.76000 33.73000
N  43.39500 39.31700 26.02200
C  43.97400 38.66100 27.02300
C  44.37600 37.36600 26.54800
C  44.08100 37.29500 25.17000
C  43.54700 38.62500 24.84600
C  44.91300 36.29800 27.52600
C  44.36800 36.12500 24.20300
O  43.97000 36.13700 23.08800
C  44.92800 34.79100 24.65000
N  42.84400 41.42300 23.92300
C  43.10600 40.44200 23.14200
C  42.92700 40.74600 21.60900
C  42.30800 42.16700 21.69200
C  42.28500 42.45800 23.20500
C  44.08100 40.54000 20.72800
C  40.93800 42.27800 20.94800
C  39.69400 41.51400 21.60500
N  42.09600 43.13000 26.17700
C  41.82600 44.01000 25.07000
C  41.30800 45.22000 25.62200
C  41.37700 45.04000 27.07800
C  41.78200 43.69500 27.33700
C  40.87800 46.50500 24.93000
C  41.10600 45.58800 28.30700
O  40.71200 46.75200 28.49500
C  41.38800 44.59300 29.42600
C  42.51600 45.11900 30.22600
O  43.63300 45.24000 29.83800
O  42.00300 45.54400 31.36800
C  42.97700 46.18500 32.20400
H  44.51400 38.45300 29.14500
H  43.63300 38.37500 22.80400
H  41.32100 44.39000 23.07700
H  43.29000 42.56700 31.16200
H  43.10500 39.62700 30.92300
H  45.19000 39.50400 31.44300
H  45.21800 41.24500 31.74400
H  45.85200 40.54000 30.19300
H  41.45600 40.49600 31.93000
H  40.64900 41.30400 30.61100
H  39.97600 41.92200 32.70900
H  40.55700 43.42000 32.01300
H  45.50700 36.78100 28.30100
H  45.55100 35.58500 27.00400
H  44.18600 35.70200 28.07900
H  44.70400 34.00800 23.92600
H  44.40600 34.49600 25.56100
H  46.00300 34.96900 24.68600
H  42.10100 40.17500 21.18500
H  42.95000 42.84300 21.12700
H  44.89400 41.13100 21.15000
H  43.87000 40.80100 19.69100
H  44.37800 39.49100 20.71700
H  41.08100 41.91900 19.92900
H  40.73400 43.34600 21.02900
H  39.39000 40.65000 21.01300
H  38.84600 42.15600 21.84000
H  40.00400 41.15300 22.58600
H  40.41400 46.48000 23.94400
H  41.79400 47.09400 24.98200
H  40.22400 47.04200 25.61700
H  40.50300 44.51000 30.05600
H  43.63600 46.89700 31.70700
H  43.63800 45.36600 32.48500
H  42.61300 46.57200 33.15600

