158

Mg 44.60300 4.23900 46.41000
C  42.68600 7.18400 46.00800
C  41.60800 2.52600 46.30600
C  46.37500 1.47600 45.99500
C  47.43200 6.18500 46.35900
N  42.46600 4.83300 45.95600
C  41.90000 6.04200 45.94500
C  40.37600 6.01700 45.57900
C  40.05100 4.55000 46.07100
C  41.47400 3.93200 46.11200
C  39.33800 4.51200 47.40500
C  40.06700 6.30000 44.05400
C  39.36000 7.60300 43.71100
H  39.90700 8.52900 42.63300
N  44.05500 2.27600 46.22600
C  42.79300 1.73300 46.28700
C  42.89900 0.32800 46.32600
C  44.28200 -0.01700 46.19000
C  44.98400 1.26400 46.20600
C  41.76100 -0.66600 46.40900
C  44.85300 -1.39200 46.17200
O  44.09800 -2.31800 46.12700
C  46.34700 -1.68500 46.18000
N  46.58000 3.84900 46.29400
C  47.10600 2.62200 46.04000
C  48.63300 2.63700 45.96100
C  48.95800 4.20800 46.05000
C  47.58200 4.77100 46.26800
C  49.44700 1.67700 46.97200
C  49.79200 4.80100 44.81800
C  51.19700 5.43800 45.06500
N  45.03400 6.25700 46.24300
C  46.21600 6.88100 46.31300
C  46.02800 8.29000 46.18900
C  44.63500 8.47200 46.14900
C  44.08200 7.21500 46.13200
C  47.04800 9.33000 46.19700
C  43.57300 9.45700 46.07400
O  43.58200 10.68200 46.05500
C  42.29300 8.61200 45.89900
C  41.37800 9.03600 46.93300
O  41.32900 8.70000 48.11500
O  40.56400 10.03500 46.36700
C  39.52200 10.59000 47.23800
H  40.61800 2.07900 46.42200
H  47.02600 0.60900 45.86900
H  48.32400 6.81300 46.31300
H  39.88600 6.71400 46.25900
H  39.50800 4.00200 45.30200
H  38.99200 5.50400 47.69600
H  39.80300 4.08200 48.29300
H  38.48500 3.85800 47.22600
H  39.44100 5.49400 43.67100
H  40.98400 6.17500 43.47800
H  39.41400 8.20200 44.62000
H  38.31600 7.38000 43.49000
H  40.78500 -0.26500 46.68300
H  41.98800 -1.42500 47.15800
H  41.52600 -1.13500 45.45300
H  46.63500 -1.42100 45.16200
H  46.37500 -2.77300 46.23400
H  46.85300 -1.17500 47.00000
H  48.82800 2.27600 44.95200
H  49.56900 4.37800 46.93600
H  48.86000 1.03200 47.62500
H  50.24800 2.16600 47.52700
H  49.96200 0.99600 46.29500
H  49.18700 5.59100 44.37500
H  49.90700 4.09500 43.99500
H  52.00600 4.74400 44.84000
H  51.30500 5.80600 46.08500
H  51.20300 6.37700 44.51100
H  48.06700 8.95000 46.27500
H  46.85400 9.93900 47.08100
H  46.97600 9.99600 45.33700
H  41.93200 8.93500 44.92300
H  39.23900 11.50900 46.72600
H  39.87300 10.72700 48.26100
H  38.64000 9.95000 47.22600
Mg 36.89100 50.45900 27.24400
C  37.01500 48.31800 29.83300
C  35.22400 52.78600 29.25000
C  36.13200 52.33000 24.51400
C  37.77000 47.72000 25.14900
N  36.30600 50.53400 29.19100
C  36.61500 49.60000 30.14800
C  36.31300 50.00900 31.62000
C  35.33700 51.20700 31.30800
C  35.66300 51.56300 29.80100
C  33.81400 50.98500 31.58100
C  37.63900 50.34700 32.38200
C  37.85200 49.86100 33.76500
H  36.92400 50.27100 34.79800
N  35.88100 52.33500 26.92900
C  35.32700 53.15200 27.91900
C  34.79400 54.38300 27.29800
C  35.17700 54.29900 25.89800
C  35.70100 52.92600 25.73200
C  34.25000 55.66800 28.08700
C  34.82300 55.30200 24.79200
O  35.21300 55.13300 23.60500
C  34.04500 56.64800 25.08400
N  36.87700 50.07700 25.10800
C  36.61400 51.02700 24.19800
C  36.93600 50.49400 22.71800
C  37.47100 49.05800 22.96800
C  37.36100 48.93900 24.52700
C  35.76900 50.70800 21.78900
C  38.94700 48.80500 22.43600
C  39.06900 47.61100 21.43000
N  37.44100 48.47500 27.44600
C  37.73300 47.50800 26.53100
C  38.01000 46.24300 27.18000
C  37.70900 46.50700 28.52500
C  37.30000 47.85500 28.57900
C  38.25500 44.90100 26.54000
C  37.66300 45.88500 29.85900
O  37.92500 44.75200 30.35300
C  37.19600 47.06400 30.76200
C  36.05300 46.61900 31.56300
O  35.03400 46.12700 31.11700
O  36.34200 46.81100 32.90600
C  35.27700 46.33600 33.76800
H  34.77100 53.48700 29.95400
H  36.01300 52.93300 23.61200
H  38.07700 46.90500 24.49000
H  35.82100 49.18400 32.13600
H  35.69600 52.00600 31.95700
H  33.28800 50.99300 30.62700
H  33.46900 51.81400 32.19900
H  33.55000 50.05000 32.07500
H  37.86000 51.41100 32.46300
H  38.33900 49.83900 31.71800
H  38.85600 50.13400 34.09000
H  37.94100 48.77500 33.73400
H  33.17300 55.83500 28.06100
H  34.81500 56.50400 27.67400
H  34.53600 55.64000 29.13800
H  32.96900 56.52900 25.20900
H  34.02800 57.22300 24.15800
H  34.52500 57.35200 25.76400
H  37.76000 51.15700 22.45200
H  36.73200 48.31300 22.67400
H  34.91900 50.78300 22.46800
H  35.67300 49.94300 21.01900
H  35.92800 51.66900 21.30000
H  39.66000 48.67600 23.25000
H  39.26800 49.68200 21.87400
H  39.15900 47.99900 20.41600
H  38.07200 47.17000 21.44000
H  39.86000 46.93800 21.76300
H  37.62000 44.90700 25.65400
H  37.86300 44.15200 27.22800
H  39.31300 44.72900 26.34000
H  38.09000 47.16100 31.37800
H  35.10600 45.26000 33.80300
H  34.33000 46.82600 33.54000
H  35.53200 46.50400 34.81400

