158

Mg 35.30200 2.65900 30.35300
C  32.91800 3.92700 32.50800
C  37.56200 2.72100 32.95900
C  37.79700 2.00200 28.16400
C  33.05900 3.05300 27.75300
N  35.24300 3.37100 32.42200
C  34.16400 3.65200 33.15000
C  34.42300 3.70000 34.64000
C  35.97400 3.55900 34.66500
C  36.32600 3.15000 33.24900
C  36.73500 4.87300 35.02700
C  33.54100 2.57500 35.34300
C  33.71100 2.31200 36.83400
H  34.41400 3.32300 37.73300
N  37.34900 2.42900 30.51500
C  38.07600 2.34500 31.69800
C  39.39600 1.85400 31.38000
C  39.53300 1.81400 29.92200
C  38.14900 2.01600 29.46900
C  40.35800 1.48200 32.46300
C  40.79900 1.51200 29.08900
O  40.86200 1.57700 27.83200
C  42.11600 1.16700 29.74400
N  35.43200 2.74700 28.21600
C  36.58300 2.27500 27.55400
C  36.39200 2.08200 26.05400
C  34.77000 2.16400 25.95700
C  34.32900 2.68500 27.40000
C  37.25800 3.10600 25.17800
C  34.07300 0.87000 25.47400
C  32.84600 1.09500 24.55600
N  33.41900 3.39000 30.09400
C  32.55400 3.35600 29.03500
C  31.26600 3.73000 29.43700
C  31.35600 4.04100 30.81400
C  32.64700 3.78600 31.15300
C  29.97900 3.66700 28.61400
C  30.57300 4.53000 31.90000
O  29.43200 4.93200 31.97500
C  31.52900 4.35600 33.13400
C  31.57200 5.70400 33.80200
O  32.09600 6.72200 33.34200
O  31.14600 5.60500 35.09300
C  31.40200 6.73800 35.91600
H  38.25400 2.63000 33.79800
H  38.44100 1.48900 27.44800
H  32.31500 3.00000 26.95500
H  34.14200 4.67900 35.03000
H  36.28400 2.79100 35.37500
H  36.14900 5.51500 35.68500
H  37.04200 5.46200 34.16400
H  37.63100 4.50600 35.52900
H  33.66300 1.63400 34.80600
H  32.50000 2.88900 35.26300
H  34.14000 1.31900 36.97100
H  32.69200 2.16300 37.18900
H  41.16400 2.20600 32.33400
H  40.96500 0.64600 32.11600
H  39.91100 1.24900 33.42900
H  42.17200 0.19300 30.22900
H  42.32400 1.88200 30.54000
H  42.95100 1.15100 29.04400
H  36.43900 1.00700 25.87800
H  34.54600 2.98800 25.27900
H  38.20300 2.65300 24.87900
H  37.44100 4.01700 25.74800
H  36.83100 3.50200 24.25600
H  33.72600 0.21800 26.27600
H  34.79500 0.30900 24.88100
H  32.19100 0.30200 24.91600
H  33.34100 0.95000 23.59600
H  32.38600 2.08200 24.50200
H  29.11400 3.29400 29.16200
H  30.06400 3.10300 27.68500
H  29.74100 4.69300 28.33200
H  31.17500 3.58600 33.81900
H  32.37100 7.23100 35.83200
H  31.39600 6.33000 36.92700
H  30.64700 7.52100 35.85400
Mg 42.86400 42.61400 26.39800
C  41.96700 44.91800 28.80600
C  44.10300 40.53800 28.91400
C  44.42900 40.63300 24.00100
C  42.21300 45.02800 23.97800
N  43.12400 42.73000 28.64200
C  42.47200 43.71900 29.36100
C  42.57100 43.39800 30.89800
C  43.39000 42.03300 30.88500
C  43.48700 41.63700 29.39300
C  44.75100 42.03400 31.58200
C  41.12400 43.29200 31.46000
C  40.78400 44.22400 32.58200
H  40.13600 43.78200 33.90700
N  44.02800 40.85100 26.44000
C  44.33600 40.08300 27.57300
C  44.80700 38.77300 27.11100
C  44.93900 38.86700 25.69600
C  44.51300 40.20600 25.31200
C  45.14700 37.73900 28.22100
C  45.41700 37.78900 24.72100
O  45.59600 37.92700 23.51200
C  45.56000 36.31700 25.27600
N  43.41200 42.80800 24.35000
C  43.79500 41.79700 23.53700
C  43.61400 42.09400 22.09700
C  42.80300 43.40500 22.17200
C  42.78000 43.75300 23.61900
C  44.84900 42.18900 21.17400
C  41.38400 43.30000 21.50800
C  40.32900 42.55900 22.34100
N  42.13200 44.56100 26.30900
C  42.00900 45.40100 25.31400
C  41.54500 46.65400 25.79800
C  41.48300 46.50700 27.20300
C  41.86700 45.20000 27.46400
C  41.36200 47.96700 24.97300
C  41.23500 47.24500 28.38000
O  40.79900 48.37100 28.56500
C  41.50900 46.21200 29.54100
C  42.51100 46.83300 30.46200
O  43.73300 46.81600 30.33300
O  41.92300 47.33200 31.56700
C  42.81600 47.63400 32.68100
H  44.23600 39.81000 29.71700
H  44.61500 39.88500 23.22700
H  41.96600 45.61600 23.09100
H  43.18300 44.17800 31.35000
H  42.84500 41.18100 31.29100
H  45.55000 41.73400 30.90400
H  44.78700 41.43200 32.48900
H  44.99300 43.04800 31.89900
H  40.87000 42.25300 31.66700
H  40.41800 43.58600 30.68400
H  40.07500 44.93300 32.15500
H  41.63300 44.86000 32.83200
H  45.01100 36.68900 27.96100
H  44.67800 37.84800 29.19900
H  46.21100 37.79500 28.44900
H  46.27700 36.39100 26.09300
H  46.01700 35.65200 24.54200
H  44.53400 36.03400 25.51400
H  42.99400 41.33200 21.62500
H  43.32600 44.16000 21.58600
H  45.45400 41.32400 21.44800
H  45.39500 43.13200 21.18000
H  44.54000 42.13700 20.13000
H  41.53600 42.83500 20.53400
H  40.97900 44.29100 21.30300
H  40.78500 42.12800 23.23200
H  39.75200 41.87000 21.72500
H  39.57800 43.31800 22.56100
H  41.46300 48.94800 25.43700
H  40.35900 47.89300 24.55300
H  42.05000 48.07300 24.13500
H  40.56500 46.19600 30.08700
H  42.13300 47.67200 33.52900
H  43.32900 48.58400 32.52900
H  43.49100 46.79100 32.83100

