158

Mg 36.31400 1.74700 30.15200
C  34.22900 2.85000 32.92100
C  38.90700 1.52600 32.27900
C  38.10700 0.81900 27.54200
C  33.33800 2.08700 28.17600
N  36.42900 1.91300 32.40700
C  35.52800 2.39000 33.32600
C  36.17300 2.46800 34.70100
C  37.75800 2.31700 34.39000
C  37.70000 1.91100 32.91400
C  38.62500 3.52600 34.84800
C  35.52400 1.58300 35.74300
C  35.21200 2.29100 37.12000
H  36.29200 3.15900 37.75500
N  38.25900 1.17300 29.95400
C  39.18900 1.14700 30.93600
C  40.42200 0.62700 30.44100
C  40.24400 0.46000 29.03800
C  38.82600 0.78900 28.78800
C  41.59200 0.32600 31.37900
C  41.28000 0.05400 27.89900
O  41.00500 -0.09200 26.71800
C  42.71000 -0.21100 28.37200
N  35.85700 1.79900 28.11500
C  36.76600 1.20900 27.23000
C  36.10700 0.88500 25.87400
C  34.56100 0.97400 26.18300
C  34.59300 1.73700 27.56500
C  36.59600 1.74000 24.69000
C  33.67000 -0.34800 26.18300
C  32.24400 -0.07900 25.73500
N  34.24400 2.42100 30.39800
C  33.17500 2.53500 29.53500
C  31.98800 2.99600 30.20100
C  32.39000 3.19000 31.50500
C  33.74500 2.77200 31.56500
C  30.71000 3.35100 29.58100
C  31.89900 3.64300 32.74900
O  30.78800 4.03000 33.03500
C  33.06200 3.39000 33.76100
C  33.32400 4.71800 34.45000
O  34.18000 5.50400 34.14900
O  32.38700 4.89300 35.50100
C  32.37500 6.25400 36.02500
H  39.80900 1.56700 32.89300
H  38.63000 0.54400 26.62300
H  32.49000 1.99100 27.49500
H  36.00800 3.50100 35.00800
H  38.12300 1.47000 34.97200
H  39.36500 3.21600 35.58500
H  37.94000 4.28400 35.22700
H  39.23000 3.91500 34.02800
H  36.08100 0.64800 35.68300
H  34.60200 1.19300 35.31200
H  35.04200 1.52600 37.87700
H  34.26200 2.80700 36.98200
H  42.27600 -0.42600 30.98400
H  41.46700 0.11400 32.44100
H  42.14700 1.24900 31.21200
H  42.74200 -0.98600 29.13800
H  43.03500 0.70700 28.86100
H  43.34300 -0.39400 27.50400
H  36.30500 -0.14700 25.58300
H  34.09100 1.59500 25.42000
H  37.28900 2.50100 25.05000
H  35.74300 2.12600 24.13200
H  37.19600 1.07400 24.07100
H  33.47500 -0.82900 27.14200
H  34.25000 -1.03100 25.56200
H  31.90000 0.93200 25.51700
H  31.54100 -0.53300 26.43400
H  32.06100 -0.57800 24.78200
H  30.08100 2.54200 29.20900
H  30.77600 4.11600 28.80700
H  30.03600 3.73200 30.34800
H  32.56000 2.68100 34.42000
H  32.25300 6.98800 35.22700
H  33.34700 6.31200 36.51600
H  31.61400 6.32700 36.80100
Mg 42.59300 40.64600 25.67500
C  41.69500 42.81800 28.18400
C  43.53000 38.37300 28.09200
C  43.80700 38.62100 23.18600
C  42.05600 43.09900 23.32400
N  42.54800 40.68700 27.84600
C  41.98700 41.57800 28.67300
C  41.94600 41.11300 30.21000
C  42.78500 39.78200 30.11800
C  42.94900 39.55500 28.57600
C  44.02200 39.74700 30.93000
C  40.59000 41.11900 30.92500
C  40.43900 40.65300 32.39400
H  39.70900 41.52200 33.46200
N  43.46900 38.75200 25.62600
C  43.75400 37.98300 26.75200
C  44.28400 36.72800 26.27700
C  44.29900 36.67200 24.81400
C  43.85300 38.06500 24.47900
C  44.59400 35.55700 27.21700
C  44.71400 35.60500 23.86100
O  44.83700 35.82300 22.63900
C  45.07000 34.18200 24.36900
N  42.83000 40.82400 23.46600
C  43.27300 39.79900 22.68500
C  43.31800 40.18500 21.20600
C  42.69000 41.62800 21.31100
C  42.51500 41.91200 22.77700
C  44.76600 40.14100 20.50400
C  41.35800 41.89100 20.54100
C  40.18500 40.99600 21.01300
N  42.00200 42.55800 25.67600
C  41.88300 43.48800 24.69000
C  41.62300 44.73800 25.27600
C  41.46600 44.51900 26.63300
C  41.75500 43.19300 26.86200
C  41.46500 46.00900 24.53400
C  41.13100 45.12500 27.88600
O  40.73200 46.23100 28.23000
C  41.17600 44.00700 28.95300
C  42.05900 44.50500 30.01600
O  43.28900 44.51100 29.97100
O  41.28900 44.79300 31.09300
C  41.95600 45.42600 32.23000
H  43.87400 37.65200 28.83700
H  44.29000 38.11700 22.34700
H  41.89900 43.95000 22.65700
H  42.55600 41.86400 30.71300
H  42.15300 38.95800 30.44800
H  44.10300 38.73700 31.33100
H  44.05800 40.56900 31.64600
H  44.81300 39.91700 30.19900
H  39.95500 40.64900 30.17400
H  40.35300 42.18100 30.86000
H  41.46800 40.39100 32.64200
H  39.85100 39.73600 32.35100
H  43.81200 34.82700 27.00700
H  44.61800 35.80200 28.27900
H  45.57700 35.14700 26.98500
H  45.22700 33.57000 23.48100
H  44.21700 33.66300 24.80600
H  45.91200 34.14100 25.05900
H  42.63900 39.47000 20.74100
H  43.34400 42.39000 20.88500
H  45.20700 41.09900 20.23000
H  44.61100 39.84200 19.46700
H  45.37400 39.37100 20.97700
H  41.56800 41.62000 19.50600
H  41.04000 42.93400 20.54200
H  40.03600 40.17800 20.30800
H  39.31400 41.59700 21.27600
H  40.48300 40.44800 21.90700
H  40.53700 45.87800 23.97900
H  42.33200 46.43400 24.02800
H  41.09300 46.66400 25.32200
H  40.16000 43.80100 29.28900
H  42.13400 44.63800 32.96200
H  41.40600 46.28500 32.61500
H  42.94400 45.86400 32.09100

