158

Mg 50.24200 45.63200 42.24400
C  47.04500 46.92900 41.28800
C  49.64900 42.95200 40.15800
C  53.47900 44.60400 42.60200
C  51.02600 48.81000 43.36900
N  48.48300 45.05300 40.81500
C  47.23500 45.63100 40.70900
C  46.32500 44.86400 39.74500
C  47.15800 43.52000 39.59500
C  48.50900 43.82800 40.22000
C  46.48800 42.33800 40.32900
C  46.05200 45.61200 38.36900
C  44.69500 45.39700 37.77900
H  44.56400 44.28500 36.67400
N  51.33000 43.94700 41.60100
C  50.86800 43.01300 40.78600
C  51.82300 41.97000 40.74600
C  53.00300 42.44300 41.29100
C  52.67700 43.70900 41.91900
C  51.64000 40.64800 40.02400
C  54.37200 41.83500 41.16000
O  54.51800 40.85700 40.44300
C  55.61900 42.40700 41.73400
N  52.04100 46.55700 42.87100
C  53.20500 45.95800 43.06400
C  54.24700 46.88400 43.66200
C  53.56600 48.26800 43.58500
C  52.07900 47.82500 43.28400
C  54.77900 46.60900 45.01700
C  54.09900 49.19000 42.46900
C  54.79500 50.48800 42.90700
N  49.21900 47.50000 42.44900
C  49.65000 48.67200 42.98300
C  48.60400 49.67400 42.95400
C  47.57900 48.98600 42.34800
C  48.03100 47.67900 41.99300
C  48.69300 51.09500 43.37000
C  46.24500 49.16600 41.85200
O  45.47800 50.10900 42.04700
C  45.84700 47.78300 41.15800
C  44.46800 47.34900 41.57300
O  44.09000 47.03300 42.67500
O  43.67200 47.34900 40.46400
C  42.24400 47.04600 40.64700
H  49.30900 42.15200 39.49800
H  54.54300 44.40500 42.74000
H  51.26600 49.74900 43.87300
H  45.39300 44.72000 40.29200
H  47.18100 43.01700 38.62900
H  45.51100 42.56600 40.75500
H  47.13000 42.10900 41.18000
H  46.43700 41.46600 39.67700
H  46.70700 45.23500 37.58300
H  46.28100 46.67500 38.43900
H  44.39600 46.38600 37.43100
H  43.99800 45.10900 38.56600
H  51.98200 40.67400 38.98900
H  50.58200 40.38800 39.98600
H  51.96100 39.82400 40.66100
H  55.63400 42.40900 42.82400
H  55.75400 43.43000 41.38500
H  56.51800 41.85300 41.46600
H  55.03400 46.87400 42.90800
H  53.51700 48.81000 44.52900
H  54.55100 45.59800 45.35500
H  54.44400 47.35800 45.73500
H  55.85800 46.66100 44.86800
H  53.21900 49.44500 41.87800
H  54.72800 48.58900 41.81300
H  55.29200 50.40300 43.87300
H  54.22400 51.41500 42.86000
H  55.72600 50.44100 42.34200
H  48.96300 51.70500 42.50800
H  49.36300 51.19900 44.22400
H  47.69000 51.40100 43.66500
H  45.69600 48.00600 40.10200
H  41.90600 46.75700 39.65200
H  41.86400 48.06500 40.72500
H  41.98000 46.37400 41.46400
Mg 5.70700 54.10800 39.54100
C  5.91200 50.49400 39.47800
C  9.07200 54.22000 39.28100
C  5.48300 57.31500 38.52700
C  2.26900 53.68800 39.46800
N  7.23500 52.51100 39.28800
C  7.10400 51.12600 39.24100
C  8.49200 50.49100 39.26400
C  9.32800 51.68900 39.78200
C  8.51400 52.88500 39.44800
C  9.75200 51.69400 41.25600
C  9.03600 49.92400 37.92300
C  8.72800 50.78600 36.61900
H  8.02800 50.10500 35.45700
N  7.13100 55.65100 38.98400
C  8.45600 55.47200 39.03200
C  9.07400 56.72400 38.66300
C  8.05700 57.59300 38.39800
C  6.80000 56.86600 38.67500
C  10.64700 56.98600 38.68400
C  8.21800 59.03700 38.12100
O  9.33400 59.51700 37.82600
C  7.11000 60.05500 38.20300
N  4.06100 55.28300 38.97900
C  4.24300 56.69700 38.81700
C  2.94300 57.35100 38.87500
C  1.90400 56.19400 38.92800
C  2.76500 54.97000 39.23600
C  2.83700 58.41200 40.05100
C  1.09400 55.99600 37.56000
C  -0.32600 55.36700 37.64100
N  4.36600 52.44000 39.70800
C  3.01300 52.44300 39.66200
C  2.48000 51.07900 39.92800
C  3.59400 50.29400 39.93400
C  4.68100 51.14500 39.71300
C  1.04800 50.74200 40.13700
C  4.08000 49.00400 39.86500
O  3.43700 47.96900 39.93200
C  5.59700 49.02300 39.66800
C  5.89000 48.14200 38.46300
O  5.23400 48.15900 37.44100
O  6.84800 47.19800 38.81500
C  6.97400 46.18500 37.75900
H  10.13400 54.41400 39.44400
H  5.28100 58.19600 37.91400
H  1.18800 53.61300 39.60800
H  8.40100 49.68600 39.99400
H  10.17100 51.86900 39.11500
H  9.37300 52.65500 41.60300
H  10.82000 51.50300 41.36500
H  9.13900 50.90100 41.68400
H  8.70400 48.90900 37.70600
H  10.11400 49.86000 38.07400
H  9.67700 51.14300 36.21900
H  8.08800 51.64900 36.80000
H  10.91500 57.53100 37.77900
H  11.27600 56.09600 38.67200
H  10.88800 57.49000 39.62000
H  7.48300 61.07300 38.31200
H  6.53300 59.85100 39.10500
H  6.52600 59.94100 37.29000
H  2.93800 57.81900 37.89100
H  1.25600 56.15600 39.80300
H  3.84200 58.59000 40.43300
H  2.17300 58.05200 40.83700
H  2.37900 59.31400 39.64600
H  1.72500 55.29800 37.01100
H  1.09400 56.94200 37.01900
H  -1.05100 55.84800 36.98500
H  -0.71400 55.66000 38.61700
H  -0.32800 54.28200 37.53700
H  0.80600 50.81700 41.19700
H  0.89900 49.69200 39.88200
H  0.38100 51.40300 39.58400
H  6.11300 48.55800 40.50800
H  7.14700 46.72600 36.82900
H  6.06100 45.60100 37.63900
H  7.87700 45.59000 37.89600

