158

Mg 24.54600 1.61300 29.04200
C  26.84300 1.40000 31.67800
C  22.05300 1.81200 31.27600
C  22.54500 1.45400 26.44300
C  27.31700 1.00400 26.89800
N  24.57100 1.65700 31.16300
C  25.60800 1.65000 32.09100
C  25.08400 1.69700 33.51700
C  23.60400 1.69200 33.38400
C  23.35600 1.76300 31.86400
C  22.74800 0.50500 33.96600
C  25.66600 2.86000 34.33700
C  26.33700 2.62500 35.75900
H  26.28900 3.62300 36.87200
N  22.51600 1.63600 28.86200
C  21.65400 1.70900 29.90100
C  20.37200 1.81500 29.41000
C  20.44800 1.63100 27.97700
C  21.85600 1.51300 27.65700
C  19.21500 2.01600 30.33600
C  19.29900 1.55200 26.98900
O  19.49600 1.41700 25.80700
C  17.90300 1.74600 27.41600
N  24.95800 1.35500 26.97000
C  23.89200 1.43900 26.12500
C  24.37100 1.51900 24.62700
C  25.96500 1.35200 24.76800
C  26.11900 1.25500 26.24200
C  23.83200 0.31000 23.79000
C  26.75600 2.50400 24.16600
C  26.60800 3.86200 24.71100
N  26.67800 1.30600 29.18600
C  27.65200 1.00600 28.27800
C  28.89600 0.81200 28.90900
C  28.65300 0.97800 30.28800
C  27.27300 1.27000 30.38600
C  30.18500 0.59500 28.33900
C  29.31400 1.01100 31.56100
O  30.45800 0.87700 31.84000
C  28.10900 1.33300 32.57100
C  28.16600 0.31800 33.60400
O  27.44900 -0.68700 33.75600
O  29.18700 0.61000 34.50400
C  29.25800 -0.23300 35.68300
H  21.21300 1.96800 31.95600
H  21.85500 1.36800 25.60100
H  28.13700 0.93600 26.18000
H  25.31300 0.76700 34.03700
H  23.14200 2.59200 33.79000
H  22.09200 -0.05800 33.30100
H  22.14700 0.82400 34.81800
H  23.42800 -0.30800 34.22000
H  24.89800 3.57500 34.63200
H  26.24800 3.54600 33.72200
H  27.40600 2.43600 35.66300
H  25.87900 1.72300 36.16500
H  18.46200 2.63800 29.85100
H  19.38200 2.31900 31.36900
H  18.67000 1.07800 30.44600
H  17.54800 1.16900 28.27100
H  17.23500 1.33800 26.65800
H  17.95900 2.82500 27.56200
H  23.97900 2.45800 24.23500
H  26.34900 0.42300 24.34700
H  23.48300 -0.43500 24.50400
H  24.51600 -0.23900 23.14200
H  23.05900 0.66200 23.10700
H  26.49600 2.63200 23.11500
H  27.80700 2.23700 24.27000
H  26.06300 3.93700 25.65100
H  26.30300 4.56200 23.93300
H  27.59600 4.21400 25.01000
H  30.99200 1.06300 28.90400
H  30.23100 1.08900 27.36900
H  30.47200 -0.45700 28.34800
H  28.23800 2.25600 33.13600
H  29.25800 -1.29200 35.42400
H  28.32900 0.06400 36.17000
H  29.98000 0.07700 36.43800
Mg 10.34600 47.37200 26.07400
C  8.32100 47.61200 28.90100
C  13.01900 48.18100 27.88700
C  12.26100 47.56800 23.08100
C  7.44300 47.32000 24.11200
N  10.56100 48.04900 28.24100
C  9.70800 47.79300 29.20000
C  10.39800 47.86800 30.52800
C  11.77000 48.57000 30.12600
C  11.82600 48.20800 28.64500
C  11.76100 50.14400 30.34000
C  10.47200 46.53900 31.35700
C  10.30700 46.62500 32.90300
H  10.47600 45.40900 33.87500
N  12.35700 47.74800 25.63200
C  13.30900 47.99700 26.53000
C  14.64100 47.83800 25.89500
C  14.41900 47.65000 24.54500
C  13.01300 47.69600 24.32700
C  15.99800 47.95200 26.66600
C  15.42500 47.37500 23.44300
O  15.15400 46.90800 22.33400
C  16.89600 47.47200 23.72300
N  9.93800 47.44500 23.88700
C  10.88600 47.57800 22.92800
C  10.24000 47.64200 21.59000
C  8.66500 47.57000 21.90200
C  8.66800 47.44600 23.45000
C  10.70300 48.93400 20.83000
C  7.94800 46.41400 21.15000
C  7.95400 45.03500 21.79300
N  8.33700 47.28500 26.35900
C  7.25200 47.26600 25.49100
C  6.05500 47.11400 26.26400
C  6.43100 47.30600 27.57200
C  7.81900 47.39500 27.62600
C  4.69900 46.95400 25.67900
C  5.80300 47.53400 28.90600
O  4.67800 47.80400 29.23400
C  7.08000 47.47200 29.83800
C  6.99500 46.13100 30.49900
O  6.98200 45.09400 29.87300
O  7.09800 46.31600 31.83200
C  7.13900 45.08400 32.56000
H  13.92200 48.37900 28.46800
H  12.74200 47.48400 22.10400
H  6.53900 47.26600 23.50200
H  9.79600 48.46900 31.20900
H  12.54600 48.20000 30.79700
H  12.67600 50.30600 30.91000
H  10.94200 50.50400 30.96300
H  11.85300 50.64700 29.37800
H  11.28400 45.95100 30.92700
H  9.55000 45.96500 31.26700
H  9.26800 46.93300 33.02100
H  10.92800 47.47500 33.18700
H  15.91800 47.78500 27.74000
H  16.37600 48.93600 26.39000
H  16.64900 47.12100 26.39300
H  17.22200 48.23800 24.42700
H  17.36500 47.50100 22.73900
H  17.27700 46.55500 24.17100
H  10.52100 46.65000 21.23700
H  8.16900 48.50300 21.63300
H  11.61200 49.41600 21.19100
H  9.80700 49.49600 20.56500
H  10.98200 48.50500 19.86700
H  8.37700 46.24700 20.16200
H  6.91400 46.68100 20.93300
H  7.12900 45.02300 22.50500
H  8.91100 44.87200 22.28900
H  7.66300 44.30400 21.03900
H  4.46200 47.77600 25.00300
H  4.05800 47.14400 26.54000
H  4.47900 45.95100 25.31400
H  7.07000 48.20800 30.64100
H  6.23400 44.52700 32.31800
H  6.92300 45.36800 33.59000
H  7.99600 44.41700 32.47300

