158

Mg 29.67600 59.49100 40.86700
C  26.67600 58.00100 39.66700
C  31.35800 56.83000 39.38100
C  32.46800 61.23400 41.17200
C  27.71900 62.30800 41.57000
N  29.07200 57.67100 39.63900
C  27.79800 57.27200 39.32000
C  27.76600 55.99600 38.36600
C  29.27700 55.58500 38.35600
C  29.94600 56.74800 39.16900
C  29.57400 54.21000 38.95600
C  27.24700 56.24600 36.87600
C  25.92600 55.54800 36.37300
H  26.06800 54.78200 35.03900
N  31.67700 59.05200 40.48700
C  32.14800 57.86700 39.94900
C  33.57200 57.89300 39.99400
C  33.96800 59.17400 40.47300
C  32.68100 59.90900 40.70400
C  34.38100 56.70200 39.58700
C  35.39300 59.55300 40.63600
O  36.32000 58.81300 40.32200
C  35.72900 60.84800 41.35100
N  30.04700 61.50900 41.32100
C  31.31800 62.03200 41.42000
C  31.26000 63.51000 41.86400
C  29.74500 63.86500 41.86600
C  29.11700 62.48100 41.64500
C  32.05400 63.89900 43.12900
C  29.53200 64.99400 40.81300
C  29.32200 66.40900 41.33500
N  27.57800 60.00000 40.98700
C  26.97700 61.23200 41.23000
C  25.53000 61.01800 41.17300
C  25.35800 59.80300 40.55600
C  26.64000 59.20700 40.43100
C  24.44900 61.99300 41.51100
C  24.39800 58.82000 39.94700
O  23.19700 58.90300 39.84300
C  25.24000 57.66300 39.34800
C  24.69200 56.44800 39.96200
O  24.89900 56.06900 41.08600
O  24.00600 55.79800 38.96900
C  23.49200 54.46000 39.29500
H  31.77800 55.88600 39.03000
H  33.27900 61.95800 41.27200
H  27.18600 63.20700 41.88700
H  27.21100 55.28000 38.97100
H  29.75600 55.56900 37.37700
H  29.89600 54.39800 39.98100
H  30.41700 53.73800 38.45200
H  28.68800 53.57700 38.93200
H  28.05200 56.13100 36.15100
H  27.06600 57.31800 36.80000
H  25.12300 56.27000 36.22200
H  25.61800 54.75500 37.05400
H  35.25700 56.61700 40.23000
H  34.74900 56.84600 38.57100
H  33.93300 55.72600 39.77300
H  36.77400 60.79300 41.65800
H  35.08200 60.68100 42.21200
H  35.57800 61.71400 40.70800
H  31.82900 63.98000 41.06300
H  29.46400 64.28600 42.83100
H  31.55800 64.66900 43.72100
H  32.99400 64.28800 42.73800
H  32.19800 62.97300 43.68500
H  28.76000 64.71100 40.09800
H  30.43100 65.14900 40.21700
H  29.21000 66.31500 42.41600
H  28.44900 66.89400 40.89800
H  30.19100 67.00100 41.04700
H  24.72100 62.93200 41.02900
H  24.46600 62.02500 42.60000
H  23.46200 61.74800 41.11800
H  25.07700 57.62800 38.27100
H  23.70500 53.83800 38.42600
H  22.43300 54.71200 39.35900
H  23.83300 54.03800 40.24000
Mg -8.92700 18.46300 43.18600
C  -5.39900 18.24800 43.29900
C  -8.48900 21.95100 42.65900
C  -12.01500 18.71600 42.62900
C  -9.04400 14.92200 43.31100
N  -7.09100 19.92400 42.90800
C  -5.80900 19.51800 42.98700
C  -4.85100 20.74800 42.78900
C  -5.87200 21.98100 42.91300
C  -7.27100 21.27600 42.80900
C  -5.63200 22.93400 44.15600
C  -4.00900 20.66600 41.52600
C  -4.46500 19.69600 40.41900
H  -4.93700 20.45900 39.15000
N  -10.10900 20.12300 42.70900
C  -9.80400 21.46500 42.59700
C  -10.99500 22.18200 42.21600
C  -12.05200 21.22100 42.13600
C  -11.38900 19.97100 42.43600
C  -10.93900 23.55400 41.81900
C  -13.38100 21.47300 41.68900
O  -13.87900 22.59300 41.65300
C  -14.14700 20.35100 41.00200
N  -10.32100 16.99000 42.61100
C  -11.57900 17.34800 42.84300
C  -12.53100 16.09200 43.01500
C  -11.55800 14.92200 43.21700
C  -10.22700 15.65800 42.99000
C  -13.76900 16.17900 43.95000
C  -11.84000 13.68000 42.31700
C  -12.76900 12.72200 43.02200
N  -7.50600 16.85800 43.27900
C  -7.75300 15.49700 43.35100
C  -6.47300 14.81200 43.40300
C  -5.56400 15.85500 43.42800
C  -6.26000 17.09700 43.34600
C  -6.32700 13.36300 43.41200
C  -4.14600 16.14700 43.52000
O  -3.16200 15.45600 43.64100
C  -4.00200 17.70200 43.31400
C  -3.28300 18.20500 44.52700
O  -2.10800 18.58300 44.52600
O  -4.01600 18.13700 45.71400
C  -3.39000 18.70800 46.96400
H  -8.31900 23.02500 42.56500
H  -13.10700 18.71400 42.64400
H  -9.17400 13.94200 43.77600
H  -4.26500 20.71900 43.70800
H  -5.79200 22.48800 41.95100
H  -5.44000 23.95800 43.83700
H  -4.78600 22.67100 44.79200
H  -6.50200 22.97200 44.81200
H  -3.00400 20.42600 41.87200
H  -3.97200 21.63100 41.02200
H  -5.25100 19.02800 40.77100
H  -3.73300 18.95300 40.10300
H  -11.38000 24.22500 42.55700
H  -11.57700 23.59600 40.93600
H  -9.90800 23.86900 41.65900
H  -14.96600 19.85400 41.52200
H  -13.50900 19.63700 40.48100
H  -14.79700 20.85000 40.28200
H  -13.10200 15.86800 42.11400
H  -11.44300 14.63100 44.26100
H  -13.58900 15.56700 44.83400
H  -14.67600 15.81900 43.46600
H  -13.99800 17.20800 44.22600
H  -10.99900 13.06800 41.99300
H  -12.33600 14.07100 41.42800
H  -12.52400 11.66000 42.98900
H  -13.69000 12.75200 42.44000
H  -12.84100 13.03200 44.06400
H  -6.39000 12.90500 44.39900
H  -5.36700 12.95700 43.09300
H  -7.03900 12.89000 42.73600
H  -3.44000 17.94400 42.41200
H  -4.21100 18.74900 47.68000
H  -2.93000 19.69300 46.87600
H  -2.72000 17.97700 47.41700

