158

Mg 44.83400 2.31000 46.89400
C  42.69500 5.07200 46.87300
C  42.06300 0.33800 46.66600
C  46.89900 -0.26500 46.60900
C  47.63500 4.60000 46.66900
N  42.53700 2.78100 46.47900
C  41.95500 3.92600 46.74000
C  40.40300 3.72600 46.87000
C  40.27000 2.17200 47.00800
C  41.71500 1.66800 46.65600
C  39.82300 1.65800 48.37800
C  39.46100 4.33200 45.71100
C  39.68300 3.72200 44.33400
H  40.42200 4.74800 43.50000
N  44.48800 0.28400 46.58000
C  43.29100 -0.34900 46.54200
C  43.51800 -1.76100 46.44600
C  44.88300 -1.96100 46.61000
C  45.50000 -0.60300 46.59900
C  42.44200 -2.80800 46.49600
C  45.61100 -3.27200 46.82700
O  45.01200 -4.35800 46.99400
C  47.09100 -3.49000 47.12000
N  46.97500 2.19600 46.72200
C  47.59100 0.96000 46.67900
C  49.09200 1.06300 46.73500
C  49.40500 2.56300 46.41300
C  47.94500 3.22100 46.64400
C  49.60500 0.45800 48.07900
C  49.89000 2.83200 44.99300
C  51.44900 3.16000 44.82600
N  45.18800 4.46400 46.77300
C  46.35600 5.20500 46.78700
C  45.98000 6.61500 46.83900
C  44.62100 6.63700 46.91900
C  44.12500 5.26300 46.88500
C  46.99000 7.78700 47.02700
C  43.39400 7.47300 46.99400
O  43.28900 8.70600 46.99600
C  42.18200 6.51000 46.88800
C  41.33400 6.81900 48.07300
O  41.29300 6.13400 49.08100
O  40.43700 7.82300 47.78100
C  39.68800 8.16500 48.99800
H  41.10600 -0.18700 46.68100
H  47.64300 -1.05500 46.48400
H  48.52600 5.23200 46.65700
H  39.91700 4.05500 47.78900
H  39.63200 1.77500 46.21800
H  40.70000 1.29000 48.91100
H  39.13700 0.81700 48.27800
H  39.40400 2.34000 49.11800
H  39.70800 5.39000 45.61300
H  38.44000 4.29500 46.09100
H  38.74000 3.41000 43.88300
H  40.25700 2.79700 44.38800
H  42.56200 -3.70400 47.10500
H  42.28600 -3.08900 45.45400
H  41.54200 -2.34100 46.89500
H  47.50700 -3.34400 46.12400
H  47.27000 -4.49100 47.51300
H  47.39500 -2.71500 47.82400
H  49.38700 0.42700 45.89900
H  49.99100 3.13600 47.13100
H  50.36900 1.06800 48.56100
H  50.03600 -0.51300 47.83900
H  48.72800 0.26200 48.69500
H  49.28900 3.65300 44.60200
H  49.57500 1.97300 44.40100
H  51.88400 2.67500 43.95200
H  51.87800 2.76400 45.74600
H  51.53300 4.23000 44.63600
H  46.37100 8.68200 46.96000
H  47.74800 7.83700 46.24500
H  47.49500 7.83300 47.99200
H  41.61600 6.72700 45.98200
H  38.75100 7.60700 48.99300
H  39.44800 9.22800 48.98300
H  40.16800 7.94200 49.95000
Mg 41.57900 6.85100 29.62600
C  43.12400 8.42300 32.38100
C  39.12100 5.57700 31.76000
C  39.98100 5.48600 27.01500
C  44.03400 8.03600 27.66600
N  41.17400 6.91900 31.79900
C  41.87500 7.85700 32.66400
C  41.11700 7.86100 33.97100
C  40.07400 6.69200 33.91300
C  40.09400 6.35600 32.40200
C  40.49200 5.42400 34.69000
C  40.49100 9.18700 34.48600
C  40.49800 9.35300 36.00200
H  41.38800 10.40400 36.63600
N  39.87600 5.66100 29.40100
C  38.99100 5.28200 30.39600
C  37.93800 4.58700 29.81900
C  38.04800 4.68200 28.47800
C  39.33900 5.27800 28.20400
C  36.79400 4.12500 30.68900
C  37.02000 4.25400 27.43700
O  37.21000 4.49600 26.27300
C  35.68400 3.53100 27.80800
N  42.21800 6.41300 27.66200
C  41.21300 6.02500 26.71400
C  41.79900 6.21900 25.29200
C  43.00700 7.18600 25.48600
C  43.06300 7.25400 27.07600
C  42.29200 4.88300 24.67800
C  42.90400 8.54800 24.84100
C  41.56700 9.36000 25.12900
N  43.43800 7.83100 29.94700
C  44.29700 8.24900 29.03100
C  45.44700 8.92200 29.67700
C  45.04400 9.05300 31.02400
C  43.77500 8.34200 31.11200
C  46.64600 9.55200 29.03900
C  45.26700 9.71700 32.30400
O  46.07700 10.57300 32.65100
C  44.02200 9.29100 33.26300
C  44.70400 8.60100 34.37600
O  45.40500 7.62300 34.33100
O  44.42300 9.17600 35.55800
C  44.82100 8.63300 36.85700
H  38.33100 5.30700 32.46500
H  39.40400 5.11900 26.16400
H  44.82900 8.40100 27.01300
H  41.87700 7.56100 34.69200
H  39.05100 6.89600 34.23000
H  40.97400 4.73000 34.00100
H  39.57500 4.93100 35.01200
H  41.18400 5.67100 35.49600
H  39.42900 9.22100 34.24000
H  41.01000 9.93400 33.88600
H  40.52500 8.40500 36.53900
H  39.49500 9.68700 36.26400
H  35.79600 4.48600 30.44100
H  36.93900 4.16900 31.76900
H  36.85400 3.05000 30.51700
H  36.05500 2.79900 28.52500
H  35.18900 3.00600 26.99100
H  35.12800 4.19800 28.46800
H  41.09000 6.69200 24.61300
H  43.97500 6.79900 25.16900
H  43.35900 4.66500 24.68600
H  42.04800 4.85200 23.61600
H  41.82500 3.99000 25.09400
H  42.90200 8.47900 23.75300
H  43.74900 9.21600 25.00800
H  41.12900 9.01100 26.06400
H  40.77800 9.19800 24.39500
H  41.88700 10.40200 25.14500
H  46.46000 9.58500 27.96500
H  47.55500 8.98600 29.24500
H  46.77400 10.60400 29.29200
H  43.57600 10.23000 33.59000
H  44.94800 7.56300 36.69300
H  44.06500 8.71800 37.63700
H  45.78900 9.01100 37.18800

