158

Mg 7.86600 2.06400 28.25300
C  9.34400 0.66800 31.06000
C  5.64100 3.80100 30.29600
C  6.45000 3.37600 25.54700
C  9.56500 -0.23600 26.30800
N  7.67200 2.27200 30.40900
C  8.34200 1.58800 31.37800
C  8.14700 2.27500 32.75800
C  6.81400 3.05100 32.53900
C  6.69900 3.09700 30.99600
C  5.54100 2.35200 33.16500
C  9.38900 3.10700 33.26100
C  9.91000 2.90500 34.69300
H  9.09400 2.20400 35.75400
N  6.33900 3.46200 27.95600
C  5.53900 4.02800 28.95100
C  4.50100 4.86100 28.30000
C  4.75100 4.80700 26.88900
C  5.87300 3.87500 26.76600
C  3.40800 5.59600 29.04700
C  4.00200 5.50000 25.80700
O  4.13300 5.24600 24.59100
C  2.91100 6.54000 26.16900
N  7.84400 1.54600 26.19800
C  7.36400 2.36700 25.31100
C  7.88800 2.03600 23.87800
C  8.87100 0.87000 24.16800
C  8.72600 0.66600 25.66100
C  6.65800 1.75400 22.95000
C  10.31300 0.99100 23.62500
C  11.42000 1.70500 24.48900
N  9.16900 0.43400 28.55500
C  9.81900 -0.34000 27.65300
C  10.77700 -1.14600 28.41300
C  10.65100 -0.77000 29.76600
C  9.63900 0.22000 29.80000
C  11.66300 -2.17400 27.83100
C  11.22700 -0.93100 31.09100
O  12.10200 -1.63300 31.50900
C  10.41900 -0.01900 31.98200
C  9.89600 -0.93500 33.05800
O  9.17400 -1.87500 32.82400
O  10.50500 -0.62300 34.23000
C  10.36400 -1.70600 35.17600
H  4.92800 4.27000 30.97800
H  5.98600 3.89100 24.70300
H  10.16100 -0.91700 25.69800
H  7.89900 1.39200 33.34800
H  6.96400 4.02000 33.01500
H  5.23700 2.95300 34.02200
H  5.75000 1.33700 33.50300
H  4.65200 2.28900 32.53700
H  9.23600 4.18400 33.19700
H  10.22200 3.03800 32.56100
H  10.02600 3.88700 35.15300
H  10.91200 2.48000 34.74300
H  3.48500 6.66600 29.23900
H  3.34400 5.10700 30.01800
H  2.43200 5.35100 28.62700
H  2.09300 6.17900 26.79200
H  2.46000 6.74000 25.19700
H  3.19800 7.54300 26.48600
H  8.45400 2.94400 23.67100
H  8.35200 -0.05900 23.93300
H  6.65000 2.57500 22.23400
H  5.67600 1.77500 23.42200
H  6.73300 0.80200 22.42400
H  10.22600 1.54500 22.69100
H  10.79400 0.05000 23.35700
H  11.12000 2.06400 25.47300
H  11.80100 2.50700 23.85600
H  12.25400 1.00800 24.57400
H  11.84200 -2.95300 28.57200
H  12.58300 -1.62400 27.63000
H  11.21700 -2.56900 26.91800
H  11.14400 0.75000 32.24600
H  9.73600 -2.52600 34.82800
H  9.94100 -1.38000 36.12600
H  11.31000 -2.06000 35.58700
Mg 16.99700 53.46200 26.48600
C  19.26600 51.78000 28.66000
C  14.96600 54.00300 29.04900
C  15.19600 55.21800 24.37300
C  19.18100 52.52600 23.77500
N  17.14300 52.92100 28.66500
C  18.18400 52.33700 29.32000
C  17.89400 52.38600 30.80300
C  16.35900 52.92800 30.84600
C  16.09200 53.31900 29.45300
C  15.41200 51.85700 31.38400
C  18.93200 53.33800 31.57400
C  19.36700 53.04300 33.02400
H  18.31900 52.60500 33.97300
N  15.29700 54.46200 26.68200
C  14.55400 54.51500 27.80500
C  13.32400 55.10900 27.49200
C  13.29700 55.51400 26.12700
C  14.64800 55.05200 25.65200
C  12.28600 55.32500 28.54200
C  12.21900 56.12900 25.28000
O  12.27400 56.28600 24.07900
C  10.87200 56.51300 25.93500
N  17.16800 53.85800 24.39300
C  16.29700 54.70100 23.81400
C  16.60900 54.87700 22.31000
C  18.06900 54.30400 22.23500
C  18.21200 53.55900 23.57000
C  15.59400 54.22800 21.32300
C  19.22300 55.30500 21.88600
C  19.71100 55.16100 20.46500
N  18.87300 52.36900 26.24500
C  19.56100 52.00600 25.07100
C  20.75200 51.27100 25.48000
C  20.69800 51.21000 26.87800
C  19.51000 51.78400 27.29900
C  21.71600 50.77700 24.47400
C  21.38400 50.66000 28.05100
O  22.42300 50.08400 28.24100
C  20.45200 51.05100 29.26600
C  20.06300 49.83700 30.03400
O  19.32300 48.91500 29.69200
O  20.58900 49.92500 31.31200
C  19.91600 49.09000 32.30700
H  14.40700 54.23300 29.95900
H  14.52800 55.85200 23.78600
H  19.85100 52.30500 22.94100
H  18.03200 51.42200 31.29100
H  16.38100 53.74000 31.57300
H  14.75000 52.29500 32.13200
H  15.93800 50.97500 31.74900
H  14.71300 51.71500 30.56000
H  18.48800 54.32600 31.45800
H  19.82200 53.48300 30.96100
H  19.89400 53.91500 33.41000
H  20.00800 52.17000 32.90200
H  11.40600 54.75100 28.25400
H  12.05800 56.38800 28.62700
H  12.56700 54.94400 29.52300
H  10.52300 55.80300 26.68500
H  10.15700 56.33100 25.13300
H  10.91800 57.56600 26.21200
H  16.64800 55.93500 22.05400
H  17.96700 53.56100 21.44400
H  16.09100 54.30800 20.35600
H  14.85300 55.02500 21.38600
H  15.32500 53.19200 21.52900
H  19.88800 54.97800 22.68500
H  19.01600 56.36800 22.01000
H  19.09400 54.46800 19.89300
H  20.73900 54.80700 20.38700
H  19.66600 56.10800 19.92800
H  21.15100 50.45100 23.60000
H  22.34000 50.00300 24.92100
H  22.39200 51.57700 24.17000
H  20.96000 51.73300 29.94800
H  18.86000 49.24900 32.52500
H  20.31000 49.19900 33.31800
H  19.91900 48.02200 32.09200

