158

Mg 35.79800 2.45600 29.76900
C  33.48400 3.40700 32.27100
C  38.24500 2.54300 32.18400
C  38.00900 1.73900 27.44900
C  33.26400 2.87000 27.43500
N  35.80900 2.96500 31.95500
C  34.76800 3.12700 32.80200
C  35.19100 3.13600 34.26500
C  36.71100 3.16800 34.14800
C  36.92900 2.75300 32.66600
C  37.31200 4.47300 34.59600
C  34.52700 1.92100 35.00100
C  33.81300 2.26400 36.37600
H  34.40200 3.30100 37.29600
N  37.89400 2.13800 29.84300
C  38.75600 2.21400 30.92600
C  40.07700 1.79400 30.51800
C  40.02600 1.46400 29.11000
C  38.67200 1.81800 28.71500
C  41.28300 1.80200 31.40500
C  41.19700 0.97900 28.22300
O  41.11500 0.81600 27.01900
C  42.58400 0.61000 28.76400
N  35.65800 2.43200 27.75800
C  36.69100 1.96800 26.96300
C  36.23300 1.62400 25.54200
C  34.77100 2.07300 25.48800
C  34.50700 2.46800 27.00800
C  37.12600 2.36700 24.52100
C  33.85000 1.01200 24.95500
C  32.54400 1.49500 24.22400
N  33.75700 3.05200 29.78100
C  32.87600 3.21100 28.71600
C  31.55800 3.67600 29.27300
C  31.73300 3.68900 30.69200
C  33.15200 3.41600 30.90800
C  30.34900 3.95700 28.42600
C  31.10200 3.88000 31.92300
O  29.93100 4.19500 32.14400
C  32.22200 3.70600 33.00900
C  32.30500 4.99300 33.80700
O  33.10300 5.87600 33.70700
O  31.32200 4.99200 34.80800
C  31.11900 6.01700 35.77900
H  38.98600 2.59700 32.98500
H  38.79600 1.47400 26.73900
H  32.48900 3.09100 26.69800
H  34.74500 4.03900 34.68000
H  37.14600 2.37400 34.75500
H  37.69000 4.35300 35.61100
H  36.54000 5.21000 34.37500
H  38.08200 4.73800 33.87300
H  35.30100 1.15400 35.02800
H  33.73500 1.56900 34.34100
H  33.61100 1.32900 36.89900
H  32.79500 2.48600 36.05600
H  42.22600 2.23200 31.06700
H  41.56400 0.75700 31.53700
H  41.01300 2.17800 32.39200
H  43.18000 0.14700 27.97700
H  42.56500 -0.05100 29.63100
H  43.16200 1.47500 29.08900
H  36.42000 0.58200 25.28500
H  34.70800 3.01000 24.93400
H  37.78900 1.64700 24.04200
H  37.79300 3.12500 24.93300
H  36.51400 2.71400 23.68900
H  33.56100 0.30700 25.73500
H  34.39600 0.36300 24.27000
H  32.44600 2.57700 24.31200
H  31.61100 0.94800 24.36600
H  32.74200 1.22600 23.18700
H  30.74100 4.62200 27.65700
H  29.54500 4.47600 28.94800
H  29.96500 3.11000 27.85800
H  31.95900 2.88000 33.67100
H  30.66400 5.62400 36.68800
H  30.45300 6.80400 35.42200
H  32.00100 6.49600 36.20400
Mg 31.11900 58.27300 39.65500
C  28.02400 56.41800 39.09300
C  32.80800 55.35400 38.83200
C  33.80900 60.06000 39.22100
C  29.13400 61.18400 39.80200
N  30.41400 56.15000 38.91400
C  29.15000 55.67500 38.85200
C  29.26300 54.28700 38.27000
C  30.70500 53.79900 38.81300
C  31.40400 55.20700 38.70300
C  30.70300 53.30800 40.33600
C  29.22100 54.44900 36.67100
C  28.11000 53.66200 35.92900
H  27.37200 54.28600 34.73900
N  33.13200 57.76400 39.16600
C  33.63100 56.53700 38.85900
C  34.94400 56.68500 38.44000
C  35.31200 58.04800 38.57900
C  34.05900 58.70300 39.04900
C  35.78700 55.56700 37.92200
C  36.69200 58.70100 38.27100
O  37.70100 58.02800 38.13800
C  36.86300 60.21600 38.13700
N  31.41700 60.28200 39.57700
C  32.67100 60.73800 39.55500
C  32.66000 62.21000 39.78100
C  31.11300 62.61200 40.09800
C  30.53100 61.22600 39.80800
C  33.63600 62.69700 40.83400
C  30.60000 63.77500 39.19800
C  29.73900 64.78800 39.89600
N  29.01800 58.69300 39.52700
C  28.38200 59.92800 39.72400
C  26.92300 59.67300 39.85700
C  26.77100 58.31000 39.59300
C  28.02300 57.83000 39.32800
C  25.84400 60.73800 39.97900
C  25.71700 57.29700 39.53600
O  24.51400 57.40700 39.74800
C  26.46100 56.07200 39.06800
C  26.10100 54.91200 39.93400
O  26.57600 54.69800 41.06900
O  25.20400 54.08700 39.30300
C  24.88600 52.87400 40.06000
H  33.32300 54.40100 38.69700
H  34.67600 60.72000 39.29500
H  28.53200 62.07700 39.98300
H  28.50900 53.61500 38.67900
H  31.13300 53.06700 38.12800
H  31.20000 53.92700 41.08300
H  31.17900 52.32800 40.30000
H  29.63500 53.25500 40.55000
H  30.16900 54.31500 36.15000
H  29.00700 55.50100 36.48700
H  27.33500 53.44100 36.66200
H  28.64300 52.78000 35.57400
H  35.17400 54.67800 37.77800
H  36.49500 55.47100 38.74500
H  36.17700 56.02300 37.01100
H  36.85700 60.53400 39.18000
H  36.11000 60.61500 37.45800
H  37.80800 60.49100 37.66900
H  32.86600 62.62000 38.79200
H  31.11600 62.93500 41.13900
H  34.55800 63.08600 40.40100
H  33.91600 61.84200 41.45000
H  33.20300 63.49400 41.43800
H  30.10500 63.37900 38.31200
H  31.35500 64.41100 38.73600
H  30.31500 65.62400 40.29500
H  29.14800 64.22900 40.62200
H  28.99600 65.23100 39.23300
H  26.13700 61.52600 39.28500
H  25.91000 61.12600 40.99500
H  24.82800 60.41300 39.75700
H  26.11800 55.78300 38.07500
H  24.48600 53.10600 41.04700
H  25.79800 52.27900 40.11800
H  24.26800 52.23500 39.42900

