158

Mg 47.51000 25.81800 28.17500
C  48.41500 28.10000 30.65500
C  46.40000 23.66800 30.51700
C  46.64000 23.73800 25.66900
C  48.79600 28.08600 25.79700
N  47.36200 25.93100 30.38200
C  47.66000 27.04400 31.16800
C  47.13300 26.82600 32.64800
C  46.69800 25.28800 32.60200
C  46.82800 24.88900 31.05600
C  47.43500 24.30800 33.57500
C  45.99500 27.89900 33.11700
C  45.27800 27.48000 34.36900
H  45.18400 28.50000 35.59900
N  46.64500 23.91100 28.12200
C  46.30400 23.12100 29.15100
C  45.79600 21.81300 28.72400
C  45.83600 21.83500 27.25400
C  46.37400 23.17600 26.92800
C  45.27000 20.76800 29.66500
C  45.39200 20.77100 26.18600
O  45.46100 20.88900 24.98900
C  44.79600 19.51500 26.68500
N  47.78700 25.86700 26.09000
C  47.12300 24.97900 25.27300
C  47.10600 25.40600 23.78600
C  47.81100 26.81100 23.82700
C  48.20200 26.91800 25.32100
C  47.78200 24.42400 22.78200
C  46.93600 27.95900 23.26900
C  47.05600 28.27900 21.77200
N  48.67300 27.58500 28.18700
C  49.07400 28.40900 27.17300
C  49.66300 29.60300 27.67400
C  49.50100 29.50600 29.03600
C  48.82000 28.27300 29.31700
C  50.25900 30.74200 26.84000
C  49.75600 30.21500 30.28400
O  50.24100 31.28200 30.49400
C  48.96100 29.37000 31.36800
C  49.78300 29.00800 32.54100
O  50.71100 28.26500 32.50500
O  49.36500 29.71600 33.64500
C  50.14800 29.55500 34.93400
H  46.05400 23.04700 31.34600
H  46.26900 23.02300 24.93100
H  49.11000 28.76000 24.99800
H  47.96700 26.95100 33.33800
H  45.66100 25.23900 32.93300
H  47.57100 23.34900 33.07500
H  46.84700 24.05000 34.45600
H  48.46300 24.59300 33.80200
H  45.25000 28.09500 32.34600
H  46.50300 28.83900 33.33400
H  45.63600 26.55600 34.82400
H  44.28000 27.10500 34.14500
H  44.18700 20.63900 29.65800
H  45.56800 20.87300 30.70800
H  45.68900 19.79800 29.40000
H  44.00900 19.87000 27.35100
H  45.60700 19.03800 27.23500
H  44.36400 18.90000 25.89500
H  46.07600 25.55600 23.46200
H  48.67100 26.76400 23.15900
H  48.27700 23.63100 23.34300
H  48.45300 24.89000 22.06000
H  46.97600 23.84800 22.32700
H  47.09000 28.85800 23.86600
H  45.87900 27.75100 23.43900
H  47.79400 27.63900 21.28600
H  47.40900 29.29700 21.61100
H  46.08800 28.29000 21.27200
H  50.41200 31.59100 27.50700
H  49.54300 31.00800 26.06200
H  51.20000 30.35800 26.44500
H  48.15800 30.00800 31.73700
H  49.40800 29.15100 35.62500
H  50.53000 30.48400 35.35700
H  51.02200 28.94400 34.70800
Mg 36.09700 49.32400 25.07900
C  36.06400 47.48900 27.98100
C  34.84800 52.03800 26.58400
C  35.77900 50.83700 22.00100
C  36.90700 46.32200 23.35700
N  35.62800 49.70400 27.15800
C  35.71800 48.85200 28.18600
C  35.20600 49.59800 29.43700
C  34.66800 51.02500 28.91000
C  35.06300 50.93400 27.44800
C  33.14700 51.28000 29.21500
C  36.23100 49.65800 30.56400
C  35.61400 49.63900 32.01000
H  34.15100 49.92700 32.36500
N  35.50700 51.22000 24.40300
C  35.06000 52.22000 25.19700
C  34.80400 53.45300 24.41400
C  35.18200 53.09100 23.09600
C  35.51200 51.65500 23.07700
C  34.29600 54.64600 25.11600
C  35.22000 53.99200 21.86100
O  35.58200 53.53900 20.77000
C  34.97000 55.47300 21.97000
N  36.26100 48.63200 22.95700
C  35.98800 49.42400 21.92800
C  36.20100 48.77800 20.62700
C  36.73600 47.38700 21.03900
C  36.67000 47.47300 22.52200
C  34.96500 48.77700 19.65900
C  38.15100 47.03400 20.42500
C  39.39800 47.88600 20.92200
N  36.52000 47.29100 25.54600
C  36.77500 46.24300 24.72500
C  36.89400 45.06500 25.56100
C  36.63900 45.51200 26.84200
C  36.43600 46.86100 26.79300
C  37.33700 43.76400 25.05200
C  36.58700 45.10000 28.20800
O  36.71100 43.98900 28.73400
C  36.21200 46.38100 29.03100
C  34.96200 46.12900 29.88600
O  33.82900 45.94500 29.46900
O  35.26600 46.21200 31.22300
C  34.20900 45.92100 32.19000
H  34.67300 52.93000 27.18900
H  35.81700 51.31700 21.02100
H  37.10100 45.41600 22.77900
H  34.40900 49.01600 29.89900
H  35.26000 51.84200 29.32300
H  32.56500 51.08800 28.31400
H  32.97700 52.32200 29.48400
H  32.79000 50.62700 30.01200
H  36.77300 50.59500 30.43300
H  37.02700 48.92000 30.47100
H  36.23900 50.33700 32.56700
H  35.89000 48.64100 32.35100
H  33.77100 55.42700 24.56500
H  35.16400 55.03300 25.65000
H  33.74500 54.37300 26.01700
H  33.88700 55.58000 21.90800
H  35.58800 55.84200 21.15200
H  35.48200 55.76200 22.88800
H  36.99700 49.22400 20.03000
H  36.12700 46.54200 20.71800
H  34.03400 48.47200 20.13600
H  35.17300 48.25500 18.72500
H  34.81700 49.80000 19.31300
H  38.06700 47.23700 19.35700
H  38.38900 45.97800 20.55400
H  39.81300 48.41200 20.06200
H  40.20800 47.21200 21.19900
H  39.16000 48.61000 21.70000
H  38.23000 43.93600 24.45000
H  36.58800 43.21500 24.48200
H  37.51500 43.12500 25.91600
H  37.09300 46.57000 29.64400
H  34.64600 46.07600 33.17600
H  34.03600 44.85800 32.02000
H  33.25100 46.44100 32.15300

