158

Mg 29.51000 59.21600 40.79600
C  26.38100 57.87000 39.90600
C  31.04800 56.56700 39.37000
C  32.39500 60.74800 41.38300
C  27.80600 62.14600 41.86800
N  28.77700 57.51700 39.67800
C  27.48800 57.13200 39.51600
C  27.43000 55.83100 38.68400
C  28.87000 55.28400 38.82900
C  29.62200 56.54600 39.35300
C  29.04900 54.08700 39.75400
C  27.04000 56.20100 37.21800
C  25.93100 55.41100 36.45800
H  26.30700 55.00400 34.96400
N  31.51200 58.78700 40.38800
C  31.93800 57.60600 39.78500
C  33.37900 57.52100 39.81000
C  33.81000 58.77500 40.36100
C  32.57800 59.56500 40.70900
C  34.23300 56.43400 39.30600
C  35.27100 59.15100 40.60600
O  36.16100 58.32900 40.36600
C  35.72900 60.43900 41.23600
N  30.03900 61.17100 41.40600
C  31.27500 61.53500 41.69900
C  31.39800 63.02000 42.16800
C  29.88400 63.52800 42.20200
C  29.22400 62.20200 41.82800
C  32.10400 63.17300 43.58800
C  29.54300 64.59100 41.09200
C  28.38000 65.53600 41.48000
N  27.52100 59.92000 40.92800
C  26.99700 61.07400 41.45800
C  25.52800 60.97600 41.45600
C  25.28500 59.82000 40.76400
C  26.53400 59.12100 40.54600
C  24.55000 62.03600 41.93000
C  24.26000 58.91600 40.31100
O  23.09000 59.00100 40.44800
C  24.86700 57.67200 39.64700
C  24.46400 56.39200 40.28600
O  24.65500 56.10200 41.45700
O  23.80500 55.59600 39.43300
C  23.31000 54.25600 39.83300
H  31.50700 55.61400 39.09700
H  33.35000 61.23100 41.60100
H  27.27300 63.00900 42.27300
H  26.62500 55.20100 39.06400
H  29.29100 55.19500 37.82800
H  29.38900 54.19100 40.78400
H  29.68300 53.36100 39.24500
H  28.09300 53.56400 39.70300
H  27.93500 56.25800 36.60000
H  26.66700 57.22300 37.27900
H  25.11100 56.12400 36.37600
H  25.68000 54.55400 37.08300
H  34.53700 55.82100 40.15500
H  35.03700 56.87600 38.71900
H  33.63500 55.84100 38.61400
H  36.81500 60.45400 41.14800
H  35.40700 60.56300 42.27000
H  35.33100 61.26800 40.65100
H  31.92400 63.60300 41.41100
H  29.46900 63.86400 43.15200
H  33.18300 63.01500 43.59200
H  31.60100 62.43900 44.21700
H  32.02600 64.16900 44.02400
H  29.45500 63.99700 40.18200
H  30.37600 65.22400 40.78500
H  28.02400 65.28500 42.47900
H  27.47100 65.51300 40.87900
H  28.77000 66.55200 41.54100
H  24.68600 62.96900 41.38500
H  24.45800 62.23500 42.99800
H  23.57700 61.61200 41.68400
H  24.60300 57.61800 38.59000
H  22.60800 54.51400 40.62500
H  24.10000 53.56800 40.13300
H  22.72800 53.85900 39.00100
Mg -4.88100 24.99300 25.92800
C  -3.16100 26.66300 28.52800
C  -5.64000 22.57000 28.24300
C  -6.28100 23.31300 23.42000
C  -3.15600 27.06500 23.66000
N  -4.14100 24.48500 28.19100
C  -3.74800 25.50300 29.04100
C  -4.16900 25.18000 30.52800
C  -4.77400 23.76600 30.34100
C  -4.87000 23.58800 28.88300
C  -3.85400 22.63800 30.99400
C  -4.95600 26.27900 31.18100
C  -4.57600 26.75300 32.63600
H  -4.17700 25.66500 33.61100
N  -5.77200 23.20000 25.82200
C  -6.00400 22.37600 26.89900
C  -6.83300 21.24000 26.49100
C  -7.02400 21.39700 25.04100
C  -6.34800 22.72300 24.67800
C  -7.19700 20.07800 27.41600
C  -7.78400 20.54700 24.08400
O  -7.76500 20.74200 22.90400
C  -8.51600 19.42300 24.62700
N  -4.76300 25.20200 23.89400
C  -5.55300 24.43200 23.03600
C  -5.28700 24.84600 21.59500
C  -4.35100 26.08200 21.74200
C  -4.12200 26.18800 23.23100
C  -4.60500 23.70900 20.74600
C  -4.96900 27.40800 21.18400
C  -4.01200 28.09500 20.13200
N  -3.45900 26.53400 26.04900
C  -2.84100 27.23700 25.03600
C  -2.02300 28.32800 25.60700
C  -2.10100 28.13800 26.95600
C  -2.98400 27.00400 27.18900
C  -1.32700 29.35900 24.78500
C  -1.69700 28.62300 28.29900
O  -0.97200 29.54800 28.60300
C  -2.51100 27.70200 29.34900
C  -1.57900 27.13300 30.27600
O  -0.81700 26.25700 30.03300
O  -1.58200 27.91300 31.35600
C  -0.60100 27.63100 32.32600
H  -6.10500 21.89400 28.96300
H  -6.79500 22.80500 22.60100
H  -2.73100 27.72700 22.90200
H  -3.24600 25.01300 31.08200
H  -5.76600 23.54600 30.73600
H  -4.36500 22.07000 31.77200
H  -2.87700 22.91400 31.39100
H  -3.60200 22.01100 30.13900
H  -6.00700 26.03200 31.03600
H  -4.88300 27.23000 30.65200
H  -5.33000 27.42200 33.05200
H  -3.74900 27.46000 32.57900
H  -7.59600 19.13300 27.04700
H  -7.94700 20.39300 28.14200
H  -6.27200 19.74300 27.88400
H  -8.89400 19.74600 25.59700
H  -7.78900 18.61300 24.56500
H  -9.35600 19.12400 24.00000
H  -6.22500 25.11300 21.11000
H  -3.35600 25.97000 21.31300
H  -4.14900 23.06300 21.49600
H  -3.90600 23.92300 19.93800
H  -5.49300 23.14000 20.46900
H  -5.15800 28.08000 22.02100
H  -5.97800 27.16600 20.85200
H  -4.62100 28.41100 19.28500
H  -3.23700 27.37600 19.86800
H  -3.67500 28.98900 20.65800
H  -1.95500 29.77800 23.99900
H  -0.47600 28.87800 24.30300
H  -1.01600 30.24500 25.33900
H  -3.17900 28.34200 29.92400
H  -0.71000 26.61000 32.69200
H  -0.71800 28.35300 33.13300
H  0.38100 27.76800 31.87400

