158

Mg -1.16100 34.78100 26.35200
C  -2.89600 32.97600 28.85900
C  -0.37100 37.14400 28.73200
C  0.16100 36.68900 23.88500
C  -2.68600 32.75600 23.90600
N  -1.68800 35.06600 28.51200
C  -2.27800 34.15300 29.31700
C  -2.17200 34.63400 30.78600
C  -1.73600 36.06200 30.74500
C  -1.20000 36.13900 29.23500
C  -2.81600 37.10400 31.05500
C  -1.28900 33.67400 31.66700
C  -2.01000 33.04100 32.93900
H  -1.07000 32.90600 34.22100
N  -0.18600 36.59200 26.33600
C  0.06200 37.38600 27.42200
C  0.74200 38.59800 26.90900
C  0.96200 38.42200 25.54100
C  0.35800 37.18500 25.21500
C  1.11900 39.75200 27.76200
C  1.75200 39.28400 24.52900
O  1.93500 39.04200 23.34700
C  2.23500 40.53000 24.93500
N  -1.43500 34.85000 24.16800
C  -0.58000 35.63400 23.37700
C  -0.73500 35.30200 21.93600
C  -1.50500 33.88700 22.06200
C  -1.90800 33.84400 23.48700
C  -1.45900 36.41300 21.05300
C  -0.58700 32.68200 21.66400
C  0.54100 32.28400 22.63000
N  -2.48300 33.15300 26.28000
C  -3.01600 32.47400 25.22100
C  -3.80700 31.37400 25.81500
C  -3.83600 31.50300 27.24500
C  -2.94200 32.61300 27.49100
C  -4.45500 30.36400 24.91400
C  -4.28000 31.02100 28.45700
O  -5.02200 30.11400 28.68700
C  -3.69500 31.99300 29.59000
C  -4.81200 32.60900 30.32700
O  -5.28100 33.61400 29.96300
O  -5.22600 31.84000 31.40100
C  -6.18700 32.57000 32.20600
H  -0.15100 37.86200 29.52500
H  0.48900 37.29500 23.03800
H  -2.99500 31.95100 23.23500
H  -3.15300 34.64600 31.26100
H  -0.95100 36.24800 31.47700
H  -2.82200 37.22400 32.13900
H  -3.75800 36.85200 30.57000
H  -2.45100 38.01600 30.58400
H  -0.47000 34.20800 32.15000
H  -0.89100 32.86100 31.06000
H  -2.54200 32.09600 32.82700
H  -2.76000 33.79300 33.18600
H  0.55500 39.86600 28.68700
H  1.02200 40.65200 27.15400
H  2.15900 39.58800 28.04200
H  2.78400 40.50300 25.87600
H  1.32400 41.11300 25.07300
H  2.84800 41.03900 24.19100
H  0.21000 35.02500 21.46900
H  -2.43200 33.81600 21.49200
H  -0.70100 36.73900 20.34100
H  -1.56500 37.33900 21.61800
H  -2.43400 36.10600 20.67300
H  -0.08900 32.95900 20.73400
H  -1.10700 31.73900 21.49900
H  0.50300 31.21700 22.85100
H  0.66400 33.01100 23.43300
H  1.36400 32.49900 21.94900
H  -5.38100 30.85200 24.60800
H  -4.72800 29.39300 25.32800
H  -3.78800 30.32100 24.05300
H  -3.02300 31.37900 30.19000
H  -5.68600 33.45700 32.59300
H  -6.44900 31.90200 33.02700
H  -7.10200 32.77200 31.64900
Mg -4.55600 25.72400 25.76800
C  -3.34700 27.06600 28.62300
C  -6.21500 23.32400 27.85300
C  -6.01300 24.28500 23.07600
C  -2.70700 27.67400 23.87500
N  -4.88800 25.30600 28.10100
C  -4.29900 26.05800 28.98200
C  -4.77000 25.65200 30.33800
C  -5.58900 24.30300 30.12000
C  -5.55600 24.29600 28.62800
C  -5.00300 22.98500 30.77000
C  -5.58700 26.80500 31.02500
C  -5.69400 27.00900 32.57900
H  -5.28600 25.85300 33.56100
N  -5.84000 24.06800 25.47900
C  -6.29100 23.19200 26.42100
C  -7.10700 22.18400 25.79600
C  -7.08700 22.40500 24.35500
C  -6.29000 23.62000 24.22600
C  -7.84600 21.01900 26.58800
C  -7.62900 21.51300 23.28400
O  -7.43000 21.67800 22.06800
C  -8.55700 20.32900 23.62100
N  -4.30400 25.81700 23.71400
C  -5.13200 25.40300 22.84500
C  -5.06700 26.05700 21.47300
C  -3.93300 27.09700 21.66400
C  -3.64300 26.86800 23.19800
C  -4.71000 24.94700 20.29800
C  -4.18100 28.44700 21.20100
C  -4.70500 28.62300 19.78700
N  -3.26200 27.10000 26.09900
C  -2.52600 27.80700 25.24900
C  -1.73300 28.79400 25.99800
C  -1.96600 28.44200 27.32700
C  -2.96100 27.49200 27.32200
C  -0.89000 29.91300 25.40000
C  -1.72100 28.84800 28.63400
O  -1.08800 29.84000 29.04800
C  -2.61200 28.03000 29.53300
C  -1.80500 27.28900 30.43800
O  -1.10200 26.42200 30.08600
O  -2.01800 27.69300 31.70700
C  -1.36700 26.90300 32.77000
H  -6.77400 22.60300 28.45300
H  -6.54500 23.93200 22.19000
H  -2.20900 28.33600 23.16300
H  -3.99200 25.42000 31.06500
H  -6.57200 24.30100 30.59100
H  -4.69300 23.14800 31.80200
H  -4.06400 22.72100 30.28300
H  -5.73900 22.18200 30.75700
H  -6.59100 26.76200 30.60200
H  -5.18000 27.75300 30.67400
H  -6.73400 27.22600 32.82300
H  -5.17500 27.93600 32.81900
H  -7.83900 20.12900 25.95900
H  -8.87100 21.30200 26.82700
H  -7.29200 20.89100 27.51800
H  -7.81900 19.57700 23.90100
H  -9.16000 20.09900 22.74300
H  -9.25600 20.65600 24.39000
H  -6.03700 26.51800 21.28200
H  -3.04900 26.70200 21.16300
H  -4.04000 24.21200 20.74300
H  -4.21800 25.42000 19.44900
H  -5.61800 24.48400 19.91100
H  -3.24400 29.00200 21.25400
H  -4.94100 28.92300 21.82000
H  -4.92200 27.70000 19.25000
H  -3.96800 29.20400 19.23300
H  -5.58800 29.26200 19.75300
H  -1.17500 30.04600 24.35600
H  0.17400 29.68200 25.44000
H  -1.04900 30.83800 25.95500
H  -3.26600 28.73700 30.04400
H  -0.45500 27.39800 33.10500
H  -1.19400 25.87500 32.45100
H  -1.95100 26.76300 33.67900

