158

Mg 1.32500 41.41800 26.14400
C  3.52300 41.73500 29.10400
C  -1.19500 40.81800 28.23000
C  -0.27600 41.01400 23.37400
C  4.25500 42.22500 24.21900
N  1.27100 41.29900 28.40100
C  2.17000 41.55700 29.44400
C  1.46500 41.62800 30.80700
C  0.12800 40.80000 30.47600
C  -0.00400 41.00800 28.95000
C  0.18100 39.36700 31.09400
C  1.29500 43.09300 31.34100
C  1.32900 43.17300 32.88400
H  1.22000 41.84800 33.66600
N  -0.51100 40.96000 25.82500
C  -1.46700 40.75000 26.81700
C  -2.68500 40.30400 26.12900
C  -2.44600 40.36300 24.74200
C  -1.04900 40.80200 24.55900
C  -4.02300 40.21900 26.89400
C  -3.22600 39.81300 23.54500
O  -2.84400 39.76000 22.39100
C  -4.60000 39.31300 23.70400
N  1.83900 41.87700 24.15000
C  1.01000 41.58800 23.16200
C  1.63400 41.70500 21.79200
C  2.95600 42.37500 22.09800
C  3.07800 42.08300 23.51200
C  1.72100 40.43500 20.86300
C  3.01500 43.91400 21.85600
C  2.31700 44.86300 22.79800
N  3.45900 41.83800 26.48900
C  4.47100 42.13700 25.60700
C  5.72000 42.37800 26.33300
C  5.37400 42.19800 27.66100
C  4.01100 41.90100 27.79000
C  7.06000 42.73100 25.78600
C  5.94300 42.13200 28.94500
O  7.14300 42.22300 29.11600
C  4.77500 42.06500 29.94500
C  5.09600 41.06600 30.96700
O  5.20900 39.83500 30.75400
O  5.00900 41.62400 32.17300
C  5.31100 40.74100 33.26800
H  -2.02200 40.58300 28.90300
H  -0.81700 40.73600 22.46800
H  5.13400 42.24800 23.57200
H  2.03500 40.96900 31.46200
H  -0.65800 41.27700 31.06200
H  0.76300 39.40900 32.01500
H  0.70300 38.74100 30.37000
H  -0.82000 39.01900 31.34700
H  0.27100 43.25500 31.00500
H  1.96300 43.86300 30.95300
H  0.64600 43.96800 33.18400
H  2.31300 43.54900 33.16400
H  -4.35100 39.18500 26.99700
H  -4.80300 40.77000 26.36900
H  -3.84100 40.57800 27.90800
H  -4.76700 38.60400 24.51500
H  -4.87500 38.75900 22.80600
H  -5.22000 40.18000 23.93300
H  0.94900 42.39800 21.30400
H  3.71200 41.81900 21.54300
H  2.66600 40.53100 20.32900
H  0.89200 40.53700 20.16200
H  1.60500 39.43000 21.26900
H  2.52000 44.08800 20.90000
H  4.05900 44.20500 21.74000
H  2.59400 45.87500 22.50100
H  2.61800 44.75800 23.84000
H  1.27200 44.55500 22.79000
H  6.90600 43.40500 24.94400
H  7.60100 41.87600 25.37900
H  7.75400 43.25500 26.44200
H  4.55400 42.99300 30.47300
H  5.45100 41.37500 34.14400
H  6.26300 40.38800 32.87200
H  4.59300 39.93600 33.42300
Mg -5.41700 24.57900 25.75400
C  -3.68900 26.20200 28.39200
C  -7.12100 22.70800 28.01200
C  -6.67600 22.98000 23.04600
C  -3.34500 26.41700 23.49700
N  -5.43900 24.44000 27.89000
C  -4.74200 25.34600 28.78300
C  -5.27700 25.18000 30.17800
C  -6.02900 23.76200 30.13400
C  -6.25100 23.62200 28.59400
C  -5.18200 22.55400 30.76200
C  -6.08400 26.44200 30.66500
C  -6.02300 26.82800 32.18400
H  -5.22000 25.84000 33.06100
N  -6.73600 23.04300 25.53900
C  -7.41600 22.42600 26.58100
C  -8.37100 21.51800 25.96900
C  -8.35700 21.66700 24.53200
C  -7.26700 22.64900 24.31000
C  -9.29300 20.86800 26.87900
C  -9.12000 20.80300 23.42200
O  -9.04700 21.04300 22.23400
C  -9.94500 19.75600 23.84500
N  -4.88100 24.51000 23.58000
C  -5.61800 23.81500 22.69400
C  -5.23500 24.09100 21.25300
C  -4.19300 25.29800 21.37900
C  -4.07100 25.40000 22.92500
C  -4.68300 22.74000 20.64700
C  -4.67000 26.58000 20.53300
C  -3.76600 27.27900 19.44800
N  -3.93100 26.03400 25.85400
C  -3.20400 26.72600 24.86400
C  -2.31100 27.67700 25.45500
C  -2.46100 27.49600 26.85100
C  -3.39700 26.44700 27.03800
C  -1.32000 28.67200 24.82800
C  -1.92700 27.91500 28.14500
O  -1.08300 28.78300 28.42400
C  -2.75900 27.03900 29.21700
C  -1.89400 26.27900 30.04200
O  -1.26700 25.28100 29.75500
O  -1.67500 26.89100 31.25900
C  -0.65500 26.34500 32.24600
H  -7.53200 22.06700 28.79400
H  -7.18400 22.47600 22.22100
H  -2.79000 26.94900 22.72200
H  -4.45800 24.96100 30.86300
H  -7.01600 23.73300 30.59500
H  -4.75700 21.87900 30.02000
H  -5.75500 21.83100 31.34300
H  -4.42900 22.91300 31.46400
H  -7.12700 26.36700 30.35700
H  -5.76000 27.33200 30.12600
H  -7.00800 26.99800 32.61900
H  -5.38400 27.70800 32.26100
H  -9.05400 19.80900 26.78600
H  -10.28300 21.00700 26.44400
H  -9.27300 21.10900 27.94200
H  -10.35700 19.04200 23.13200
H  -10.84100 20.12900 24.34300
H  -9.36300 19.30400 24.64800
H  -6.11700 24.45900 20.73000
H  -3.21100 25.06500 20.96800
H  -3.59400 22.75500 20.69200
H  -4.91200 22.73100 19.58100
H  -5.09600 21.93700 21.25700
H  -4.75400 27.43100 21.21000
H  -5.62300 26.37700 20.04500
H  -3.43700 28.23400 19.85800
H  -4.33900 27.40900 18.53000
H  -2.90200 26.63900 19.27300
H  -1.75400 29.27400 24.03000
H  -0.40100 28.26300 24.40900
H  -0.96600 29.36600 25.59000
H  -3.27800 27.72300 29.88900
H  -0.99000 25.43200 32.73800
H  -0.60900 27.13500 32.99500
H  0.26300 26.05300 31.73500

