158

Mg 1.55800 -3.08700 44.03900
C  4.70400 -1.89200 43.44800
C  0.24200 -0.36300 42.06200
C  -1.40300 -4.66700 43.88700
C  3.04200 -5.89700 45.61200
N  2.32900 -1.37300 42.78200
C  3.71200 -1.08300 42.80400
C  4.01600 0.29600 42.11700
C  2.56300 0.93800 41.99200
C  1.60700 -0.26500 42.37300
C  2.27800 2.31000 42.67700
C  4.78900 0.06200 40.74500
C  5.92000 1.09400 40.51300
H  5.61100 1.94800 39.26900
N  -0.28800 -2.72700 42.95000
C  -0.63000 -1.52200 42.33500
C  -2.00400 -1.54300 41.93500
C  -2.59000 -2.73000 42.51200
C  -1.41000 -3.42900 43.12900
C  -2.69500 -0.44600 41.14900
C  -4.03600 -3.13200 42.52800
O  -4.94000 -2.58500 41.90900
C  -4.45000 -4.34000 43.24200
N  1.03400 -5.07900 44.54500
C  -0.30600 -5.39200 44.54300
C  -0.61400 -6.66700 45.35100
C  0.80200 -7.20400 45.59500
C  1.70600 -5.98500 45.25600
C  -1.50400 -6.49100 46.55000
C  1.13300 -8.41200 44.72400
C  0.54300 -9.68200 45.33800
N  3.45600 -3.71500 44.63500
C  3.93900 -4.86000 45.24000
C  5.38800 -4.73800 45.50800
C  5.69700 -3.61200 44.82600
C  4.56300 -3.04700 44.23200
C  6.28100 -5.69900 46.41100
C  6.78100 -2.70100 44.55600
O  7.92600 -2.67900 45.04400
C  6.25600 -1.66100 43.49200
C  6.68800 -0.30200 44.04300
O  6.00500 0.29600 44.81800
O  7.87300 0.13400 43.44300
C  8.15800 1.54900 43.55600
H  -0.21400 0.49000 41.55500
H  -2.29300 -5.29300 43.98000
H  3.37000 -6.74900 46.21200
H  4.62300 0.83100 42.84700
H  2.28600 1.01200 40.94000
H  1.99700 3.10500 41.98700
H  3.19200 2.70000 43.12500
H  1.47400 2.27000 43.41100
H  4.01700 0.11900 39.97800
H  5.18800 -0.95000 40.68600
H  6.93600 0.70900 40.42200
H  5.96700 1.85000 41.29700
H  -2.01300 0.11200 40.50800
H  -3.31400 0.28300 41.67200
H  -3.45400 -0.86100 40.48700
H  -4.08800 -5.22100 42.71000
H  -5.52900 -4.27400 43.37900
H  -3.96100 -4.15400 44.19800
H  -1.04600 -7.32400 44.59500
H  0.95700 -7.42700 46.65100
H  -2.29800 -7.23800 46.52600
H  -2.05100 -5.54900 46.49700
H  -1.11600 -6.65900 47.55500
H  2.21600 -8.53400 44.70300
H  0.84900 -8.30400 43.67700
H  0.30400 -9.46400 46.37900
H  1.26300 -10.49300 45.44500
H  -0.37700 -10.03600 44.87400
H  6.85100 -5.13300 47.14700
H  7.05700 -6.19100 45.82400
H  5.70200 -6.43900 46.96300
H  6.73000 -1.79500 42.52000
H  7.32900 2.23400 43.37300
H  9.04200 1.75500 42.95400
H  8.45600 1.65000 44.60000
Mg -4.54200 25.24500 26.28300
C  -3.21500 26.66600 29.23100
C  -6.50000 23.16200 28.24600
C  -5.56100 23.85300 23.50000
C  -2.30200 27.31400 24.47500
N  -4.68000 24.92500 28.48900
C  -4.18700 25.68800 29.48600
C  -4.72700 25.25600 30.84400
C  -5.62700 23.99900 30.51100
C  -5.69300 24.04400 28.97700
C  -5.28200 22.66200 31.10400
C  -5.47200 26.42800 31.54900
C  -5.48000 26.43700 33.13700
H  -4.89800 25.17200 33.95000
N  -5.78100 23.61400 25.90500
C  -6.48800 22.88800 26.84000
C  -7.33500 21.89600 26.15200
C  -7.08600 22.10200 24.77100
C  -6.12500 23.21800 24.64700
C  -8.29900 20.95100 26.86700
C  -7.71400 21.33700 23.56600
O  -7.24600 21.46000 22.45600
C  -8.79700 20.34700 23.72900
N  -4.01400 25.50500 24.31500
C  -4.52900 24.78000 23.27000
C  -3.92700 25.16400 21.91200
C  -3.00700 26.36900 22.34100
C  -3.15800 26.50900 23.82700
C  -3.16300 24.04000 21.24600
C  -3.26200 27.68200 21.61500
C  -2.21800 28.02300 20.52400
N  -3.10800 26.75500 26.68500
C  -2.27700 27.47200 25.86300
C  -1.49100 28.38900 26.60000
C  -1.80700 28.07300 27.95600
C  -2.84200 27.08600 27.96600
C  -0.38500 29.30000 26.01900
C  -1.48900 28.44200 29.33700
O  -0.68900 29.28200 29.76000
C  -2.39800 27.48700 30.24800
C  -1.47900 26.58300 30.91600
O  -0.69500 25.76400 30.34500
O  -1.69000 26.60500 32.26900
C  -0.68500 25.99300 33.15800
H  -7.12800 22.45900 28.79700
H  -5.92700 23.44200 22.55700
H  -1.66300 27.93800 23.84700
H  -3.96900 25.01600 31.59000
H  -6.65700 24.22000 30.79500
H  -5.20600 21.90100 30.32800
H  -6.02000 22.36100 31.84800
H  -4.39100 22.70900 31.73100
H  -6.52000 26.35500 31.26100
H  -5.17500 27.35900 31.06700
H  -6.49900 26.58500 33.49300
H  -4.87700 27.29400 33.44000
H  -9.25300 20.96300 26.33900
H  -8.50200 21.14300 27.92100
H  -7.82400 19.97200 26.80000
H  -8.77000 19.82100 22.77500
H  -9.72200 20.92200 23.78200
H  -8.66900 19.66000 24.56600
H  -4.79900 25.43000 21.31500
H  -1.97600 26.13600 22.07100
H  -3.54400 23.69100 20.28700
H  -2.91100 23.22300 21.92200
H  -2.20900 24.37600 20.83800
H  -3.18200 28.54000 22.28200
H  -4.24300 27.74300 21.14400
H  -2.32300 27.32900 19.69000
H  -1.18700 27.86700 20.84300
H  -2.26200 29.08900 20.29700
H  -0.59800 29.42500 24.95700
H  0.55900 28.77500 26.16600
H  -0.48700 30.30400 26.42900
H  -3.01200 28.04100 30.95900
H  -1.00100 25.05800 33.62200
H  -0.29300 26.66500 33.92100
H  0.22400 25.68900 32.64000

