158

Mg 16.95100 -1.68900 27.83400
C  16.09200 0.54400 30.56100
C  19.12400 -3.13100 30.04100
C  18.18000 -3.49800 25.15100
C  15.47900 0.48900 25.71000
N  17.44600 -1.35200 30.09600
C  16.92100 -0.49100 30.96900
C  17.33400 -0.77600 32.39000
C  18.30100 -2.00900 32.23500
C  18.28500 -2.17500 30.69700
C  19.72800 -1.72000 32.93700
C  16.17300 -0.99100 33.38500
C  16.19200 0.04900 34.59700
H  17.60400 0.54500 35.14100
N  18.51200 -3.09500 27.66600
C  19.22000 -3.62600 28.65700
C  19.87200 -4.75400 28.20700
C  19.62400 -4.89800 26.80600
C  18.76000 -3.82600 26.45600
C  20.70500 -5.66200 29.12900
C  20.28600 -5.82600 25.80700
O  20.05300 -5.80100 24.59800
C  21.21300 -6.88300 26.37300
N  16.96700 -1.37900 25.74300
C  17.40500 -2.36100 24.87000
C  17.39000 -1.76800 23.41900
C  16.29500 -0.61900 23.58500
C  16.25700 -0.46100 25.10600
C  18.62600 -1.21900 22.71700
C  14.89100 -1.02800 22.98900
C  14.08400 0.00600 22.23200
N  15.92300 0.11300 28.01800
C  15.35200 0.90100 27.08600
C  14.60100 1.94400 27.62700
C  14.89800 1.85600 29.06400
C  15.75400 0.74000 29.17300
C  13.71600 2.81700 26.89200
C  14.67900 2.50600 30.31900
O  13.95500 3.43800 30.54900
C  15.41700 1.68100 31.41700
C  16.33400 2.65200 32.09100
O  17.43000 2.96600 31.75900
O  15.69700 3.13300 33.17000
C  16.30700 4.21300 33.93500
H  19.76800 -3.67400 30.73600
H  18.42700 -4.16200 24.32000
H  14.81700 1.09100 25.08300
H  17.93600 0.09200 32.65800
H  18.00700 -2.89000 32.80600
H  19.61100 -0.78100 33.47900
H  20.47400 -1.52400 32.16600
H  20.00600 -2.54100 33.59700
H  16.29500 -2.00200 33.77200
H  15.23200 -0.90000 32.84300
H  15.78600 -0.55100 35.41300
H  15.41100 0.77500 34.37100
H  20.22100 -6.63600 29.05500
H  20.55300 -5.56500 30.20500
H  21.77700 -5.72400 28.94700
H  21.67000 -7.40000 25.52900
H  20.70200 -7.63900 26.96900
H  22.08800 -6.44500 26.85300
H  16.92900 -2.49800 22.75300
H  16.57100 0.35800 23.18700
H  19.07400 -0.40600 23.28800
H  18.36800 -0.97100 21.68700
H  19.33300 -2.04000 22.60600
H  14.28800 -1.48200 23.77600
H  15.02800 -1.78700 22.21800
H  13.65400 -0.40900 21.32000
H  14.63500 0.92500 22.03200
H  13.34500 0.33400 22.96200
H  12.68500 2.46600 26.93700
H  14.03900 3.01900 25.87100
H  13.81300 3.70400 27.51800
H  14.63400 1.32800 32.08900
H  17.37200 4.10400 34.14200
H  15.81700 4.29300 34.90600
H  16.39800 5.16000 33.40200
Mg 34.98900 3.33000 29.38500
C  33.12800 4.38600 32.14300
C  37.71900 3.04700 31.60500
C  36.96100 2.32300 26.87000
C  32.43500 4.03000 27.39500
N  35.35100 3.66300 31.64200
C  34.46700 4.08500 32.56000
C  34.97500 4.04600 33.98900
C  36.52600 3.79600 33.78500
C  36.52200 3.45000 32.25400
C  37.30400 5.10700 34.20500
C  34.32500 2.92500 34.87300
C  34.14200 3.08900 36.40500
H  34.77500 4.29000 37.06500
N  37.08000 2.83300 29.27900
C  38.06300 2.77900 30.29100
C  39.34600 2.29300 29.72600
C  39.13900 2.02900 28.31000
C  37.70800 2.45800 28.09000
C  40.55500 2.16400 30.63700
C  40.01000 1.45900 27.22100
O  39.54900 1.28400 26.07500
C  41.27600 0.93300 27.63600
N  34.77100 3.31600 27.45700
C  35.62600 2.64600 26.60900
C  35.07900 2.44900 25.17400
C  33.68500 3.05900 25.35700
C  33.56900 3.48700 26.87000
C  35.92500 3.16100 24.02700
C  32.54800 2.04900 24.93400
C  31.73600 2.64900 23.78600
N  33.16300 3.94400 29.65100
C  32.18200 4.17500 28.72200
C  30.83800 4.48800 29.38900
C  31.23300 4.63700 30.75600
C  32.64800 4.32000 30.86500
C  29.49200 4.73700 28.73800
C  30.73800 4.93000 32.05300
O  29.62100 5.20100 32.42500
C  31.92500 4.87700 32.94900
C  31.95300 6.17800 33.54800
O  32.61400 7.12600 33.21800
O  31.22100 6.17300 34.72500
C  31.34700 7.38300 35.58100
H  38.58900 3.07700 32.26500
H  37.35500 1.96500 25.91600
H  31.60100 4.05900 26.69100
H  34.73800 5.04800 34.34700
H  36.95200 2.93200 34.29700
H  38.29500 4.86600 34.58900
H  36.70900 5.54000 35.00900
H  37.46900 5.72900 33.32600
H  34.77900 1.96000 34.64600
H  33.29400 2.90700 34.52100
H  34.55100 2.24700 36.96400
H  33.07500 3.19800 36.59800
H  41.26900 1.42900 30.26700
H  40.18600 1.80100 31.59700
H  41.24600 3.00700 30.64600
H  41.80000 1.81700 27.99800
H  41.70800 0.48500 26.74100
H  41.18700 0.08800 28.31800
H  35.04200 1.37600 24.98900
H  33.69100 3.95900 24.74300
H  36.67100 2.45400 23.66300
H  36.41300 4.09500 24.30700
H  35.25900 3.37300 23.19100
H  31.80400 2.01700 25.73000
H  32.97200 1.06900 24.71600
H  31.28700 1.78700 23.29200
H  32.32800 3.20300 23.05700
H  30.93000 3.22200 24.24500
H  28.92800 3.82100 28.56400
H  29.57100 5.38200 27.86300
H  28.88500 5.27200 29.46900
H  31.82700 4.11100 33.71900
H  30.99800 8.34300 35.20000
H  32.39800 7.41400 35.87000
H  30.89300 7.17500 36.55000

