158

Mg 44.91500 1.89200 47.79700
C  42.88400 4.52800 46.68700
C  42.42700 -0.29700 47.37000
C  47.07300 -0.65200 48.39700
C  47.70200 4.14100 47.45800
N  42.92900 2.11600 47.12300
C  42.28900 3.26700 46.77800
C  40.78500 3.00800 46.51800
C  40.63900 1.59500 47.21900
C  42.11400 1.04600 47.10900
C  40.21500 1.67200 48.72100
C  40.37000 3.02600 45.05400
C  39.38000 4.11700 44.57900
H  39.94800 5.10500 43.43300
N  44.76500 -0.20800 47.89800
C  43.61000 -0.86000 47.61900
C  43.82100 -2.27600 47.68000
C  45.25900 -2.48200 47.97800
C  45.79500 -1.05600 48.08600
C  42.76100 -3.31900 47.43000
C  46.01100 -3.86300 48.15900
O  45.46500 -4.90300 48.03800
C  47.47300 -3.96000 48.48100
N  47.12400 1.68200 47.63700
C  47.69400 0.58700 48.23300
C  49.11600 0.77900 48.53100
C  49.32600 2.25300 47.99700
C  47.93700 2.76400 47.69000
C  49.47600 0.48500 50.01800
C  50.26700 2.30700 46.77700
C  51.79100 2.80500 47.03400
N  45.26900 3.93200 47.21200
C  46.40000 4.79300 47.21200
C  46.00300 6.22400 47.07300
C  44.59100 6.11600 46.91500
C  44.22500 4.75200 46.87200
C  46.83700 7.43200 46.96400
C  43.43000 6.92700 46.68700
O  43.16600 8.12100 46.61300
C  42.28900 5.95600 46.71700
C  41.42400 6.17700 47.88400
O  41.87900 6.05100 49.04500
O  40.11500 6.52100 47.56900
C  39.13500 6.65100 48.65600
H  41.54200 -0.91600 47.20600
H  47.74500 -1.42900 48.76600
H  48.46500 4.90500 47.61900
H  40.20500 3.78200 47.01900
H  40.02700 0.91200 46.63000
H  40.97200 1.26200 49.39100
H  39.31000 1.06400 48.74200
H  39.90800 2.67200 49.02700
H  39.89600 2.08800 44.76600
H  41.29200 3.15500 44.48800
H  39.12900 4.71800 45.45400
H  38.40500 3.79700 44.21100
H  43.10400 -3.91200 46.58200
H  41.80400 -2.86000 47.18200
H  42.62400 -3.84100 48.37700
H  47.58300 -3.72700 49.54100
H  47.92400 -3.27500 47.76300
H  47.84000 -4.98000 48.36800
H  49.69900 0.09400 47.91700
H  49.67300 2.89200 48.80900
H  49.86300 -0.50300 50.26700
H  48.62600 0.78300 50.63200
H  50.29000 1.16200 50.27800
H  49.92700 2.98800 45.99600
H  50.31300 1.39000 46.19000
H  52.47500 1.96300 46.92300
H  51.93600 3.27500 48.00600
H  52.05500 3.58900 46.32500
H  46.51900 7.95400 46.06100
H  47.92200 7.33000 46.97900
H  46.56700 8.03900 47.82800
H  41.72800 6.00600 45.78400
H  39.46100 6.40100 49.66500
H  38.27700 5.98500 48.55800
H  38.82900 7.69700 48.66000
Mg 41.31800 7.77500 30.37100
C  43.08100 9.36800 33.00900
C  39.05400 6.48000 32.63400
C  39.71900 6.03100 27.88400
C  43.59800 8.88400 28.05800
N  41.21900 7.88700 32.55400
C  41.97200 8.57500 33.48000
C  41.54300 8.40400 34.89600
C  40.40300 7.30600 34.66500
C  40.20700 7.18500 33.19100
C  40.50600 5.93800 35.44800
C  41.00400 9.74900 35.33500
C  41.61500 10.41500 36.58500
H  40.69800 10.80800 37.76400
N  39.58900 6.53600 30.21400
C  38.77300 6.14800 31.27700
C  37.63000 5.33600 30.71500
C  37.82500 5.34600 29.32600
C  39.07900 5.96800 29.10100
C  36.50000 4.72500 31.49700
C  36.86400 4.68400 28.31500
O  37.27100 4.54900 27.16300
C  35.41800 4.25400 28.62000
N  41.68300 7.38000 28.28200
C  40.91200 6.60800 27.48300
C  41.45400 6.53300 25.99900
C  42.53700 7.70800 26.04300
C  42.63700 8.02100 27.58300
C  41.90100 5.17700 25.55300
C  42.27300 8.92500 25.09800
C  41.09700 9.82800 25.41200
N  43.02500 8.86200 30.42400
C  43.86500 9.23800 29.40200
C  44.92100 10.09700 29.96100
C  44.60300 10.17100 31.35100
C  43.52200 9.37700 31.59000
C  46.07600 10.70000 29.21100
C  45.10000 10.73100 32.59400
O  46.05800 11.49500 32.79800
C  44.07400 10.29900 33.67600
C  44.98200 9.47200 34.58800
O  45.58400 8.46300 34.26400
O  45.08600 10.00000 35.79100
C  45.99700 9.37500 36.78800
H  38.31000 6.01600 33.28400
H  39.29900 5.42900 27.07500
H  44.20800 9.31800 27.26300
H  42.39700 7.96000 35.40700
H  39.47300 7.82900 34.88900
H  40.33300 5.10800 34.76300
H  39.67700 5.90700 36.15600
H  41.44900 5.78000 35.97100
H  39.94500 9.68400 35.58900
H  41.05400 10.53800 34.58500
H  41.97200 11.40300 36.29200
H  42.55400 9.90300 36.79700
H  35.58600 5.31500 31.42500
H  36.68400 4.83900 32.56500
H  36.55400 3.65500 31.30100
H  35.29600 3.52600 29.42200
H  34.99300 3.89200 27.68400
H  34.89600 5.17400 28.88600
H  40.61200 6.76600 25.34700
H  43.52200 7.31500 25.79300
H  42.80300 4.84200 26.06500
H  42.08100 5.20400 24.47800
H  41.21800 4.33600 25.67400
H  42.11300 8.41100 24.15000
H  43.19600 9.50200 25.03900
H  40.67500 9.59500 26.39000
H  40.31200 9.71000 24.66500
H  41.36700 10.87600 25.54500
H  46.20000 11.75900 29.43900
H  45.93200 10.52100 28.14600
H  47.05500 10.31800 29.50300
H  43.72100 11.18800 34.19900
H  46.05100 8.28700 36.83800
H  45.68000 9.63600 37.79700
H  47.03100 9.66400 36.60000

