158

Mg 24.35100 -4.62500 45.98000
C  26.39800 -2.16200 44.74400
C  21.85600 -3.68700 43.76300
C  22.58400 -7.35000 46.90100
C  26.98200 -5.70000 48.10400
N  24.04700 -2.90700 44.59500
C  25.07300 -2.04700 44.23000
C  24.61000 -1.18500 42.95700
C  23.06200 -1.43300 42.98700
C  22.95200 -2.80500 43.76600
C  22.22400 -0.30500 43.65200
C  25.33300 -1.88900 41.69000
C  25.73800 -0.96800 40.59300
H  25.15300 -1.13100 39.20000
N  22.50400 -5.38800 45.42000
C  21.63100 -4.84700 44.51000
C  20.41300 -5.65400 44.42400
C  20.55000 -6.68100 45.39500
C  21.89900 -6.54400 45.94500
C  19.24400 -5.32700 43.32200
C  19.53900 -7.75700 45.66400
O  18.43500 -7.62100 45.19000
C  19.80300 -9.06200 46.37600
N  24.84000 -6.38600 47.25600
C  23.84800 -7.34900 47.50900
C  24.39300 -8.51900 48.43600
C  25.63600 -7.81200 48.98300
C  25.87200 -6.62800 47.98400
C  23.43300 -8.94100 49.52000
C  26.95600 -8.71700 49.13800
C  27.65500 -8.68600 50.44900
N  26.37600 -4.14400 46.30700
C  27.28400 -4.62000 47.20900
C  28.49400 -3.83000 47.15500
C  28.22700 -2.85800 46.11500
C  26.87500 -3.04500 45.69200
C  29.71900 -3.96500 47.99300
C  28.77100 -1.78100 45.30400
O  29.83700 -1.17100 45.24100
C  27.53800 -1.28700 44.42500
C  27.24400 0.12400 44.71000
O  26.62300 0.72900 45.59100
O  27.68300 0.83300 43.65300
C  27.48400 2.28300 43.54900
H  21.04400 -3.41200 43.08600
H  22.06200 -8.26300 47.19400
H  27.73000 -5.90800 48.87300
H  24.87900 -0.13000 43.01000
H  22.68800 -1.39700 41.96400
H  21.78500 0.36300 42.91100
H  22.93700 0.28100 44.23200
H  21.43000 -0.72000 44.27200
H  24.62800 -2.60100 41.26200
H  26.16900 -2.51200 42.00700
H  26.82500 -1.04200 40.61500
H  25.59800 0.08100 40.85600
H  19.72500 -4.80600 42.49400
H  18.43100 -4.74800 43.76000
H  18.92900 -6.31700 42.99300
H  18.91100 -9.68700 46.41300
H  19.98100 -8.94400 47.44500
H  20.57900 -9.55600 45.79100
H  24.75500 -9.26300 47.72600
H  25.32100 -7.42400 49.95100
H  22.55300 -8.31000 49.64400
H  23.82000 -8.97100 50.53900
H  22.99200 -9.89000 49.21400
H  27.66800 -8.44000 48.36000
H  26.73000 -9.77200 48.98100
H  27.40500 -7.80400 51.04000
H  28.72600 -8.66100 50.25300
H  27.50500 -9.59900 51.02500
H  29.43200 -4.36300 48.96700
H  30.08500 -2.96100 48.20800
H  30.57400 -4.44000 47.51300
H  27.89300 -1.32400 43.39500
H  26.92700 2.48300 42.63300
H  28.41700 2.84500 43.50300
H  26.86700 2.75900 44.31000
Mg 25.83800 1.66900 29.26700
C  27.69500 1.18200 32.20500
C  22.96400 2.00400 31.27700
C  23.91700 1.36300 26.51100
C  28.71400 0.85300 27.26900
N  25.36500 1.54300 31.48500
C  26.30200 1.39500 32.49800
C  25.69100 1.57000 33.92800
C  24.19300 1.83400 33.52700
C  24.10100 1.73700 31.99700
C  23.10700 0.88600 34.18700
C  26.29000 2.75300 34.73600
C  25.46500 3.18200 35.94800
H  26.01200 3.00200 37.34600
N  23.75600 1.67100 28.97400
C  22.71100 1.84500 29.91200
C  21.48300 1.99700 29.13200
C  21.80500 1.86500 27.75900
C  23.22500 1.59800 27.74200
C  20.10200 2.12900 29.77000
C  20.87000 2.03600 26.55300
O  21.22800 2.10700 25.41500
C  19.34900 2.16200 26.76500
N  26.20300 1.09900 27.20800
C  25.25300 1.09500 26.32000
C  25.77800 0.88100 24.85600
C  27.35300 0.86500 25.00400
C  27.48700 0.99100 26.54800
C  25.10200 -0.42200 24.16400
C  28.10100 2.01000 24.18100
C  28.57500 1.60700 22.82600
N  27.85700 1.14500 29.56700
C  28.86700 0.89700 28.69900
C  30.09000 0.81000 29.46900
C  29.68100 0.81900 30.84600
C  28.29700 1.04800 30.85700
C  31.43300 0.63100 28.94600
C  30.10500 0.66000 32.21300
O  31.15300 0.31900 32.71500
C  28.90200 1.02500 33.14500
C  28.73600 -0.06200 34.11500
O  28.50200 -1.22400 33.79000
O  28.66800 0.39600 35.41800
C  28.85300 -0.55700 36.50400
H  22.13900 2.27900 31.93900
H  23.29900 1.17900 25.63000
H  29.62500 0.56400 26.74100
H  25.81400 0.69900 34.57200
H  23.96700 2.85600 33.83100
H  23.50800 0.27300 34.99400
H  22.90300 0.13400 33.42500
H  22.18700 1.42600 34.41200
H  26.43800 3.52300 33.97900
H  27.27400 2.47900 35.11500
H  24.53100 2.62900 35.85300
H  25.10600 4.19300 35.75400
H  19.31000 1.49400 29.37400
H  19.84000 3.14200 29.46400
H  20.10000 2.04700 30.85700
H  19.10000 1.15000 27.08600
H  18.88100 2.41200 25.81300
H  19.03400 2.94200 27.45800
H  25.55700 1.79400 24.30300
H  27.76200 -0.10000 24.70600
H  24.58900 -0.96100 24.96100
H  25.96600 -0.96900 23.78900
H  24.29300 -0.19900 23.46800
H  28.83100 2.51600 24.81300
H  27.28900 2.67400 23.88400
H  28.52600 0.52200 22.73000
H  29.65400 1.73200 22.73500
H  27.97500 2.05300 22.03300
H  31.49600 1.19400 28.01400
H  31.59600 -0.43000 28.75700
H  32.09800 1.05400 29.69800
H  29.12500 1.95600 33.66600
H  29.25100 0.03400 37.32900
H  29.40700 -1.46800 36.27600
H  27.80900 -0.82400 36.66800

