158

Mg 40.97500 10.02700 30.20600
C  43.07000 10.95100 32.69000
C  38.76500 8.69800 32.59200
C  38.92100 8.78800 27.76400
C  43.20200 11.07300 27.79800
N  40.95400 9.80000 32.43300
C  41.89100 10.35000 33.20000
C  41.35600 10.46100 34.65800
C  40.10200 9.53100 34.64300
C  39.87000 9.31400 33.15000
C  40.19500 8.08800 35.42100
C  41.11300 11.95900 35.10200
C  41.77100 12.32400 36.48200
H  40.89000 12.74000 37.68500
N  39.18900 8.81800 30.21700
C  38.50000 8.39200 31.31100
C  37.33700 7.68000 30.88500
C  37.28900 7.71400 29.43300
C  38.50000 8.44300 29.07500
C  36.36000 6.99900 31.87400
C  36.31000 7.06500 28.38400
O  36.49400 7.05600 27.12900
C  35.28600 6.05900 28.86100
N  41.18200 9.76200 27.98500
C  40.01400 9.43000 27.29200
C  40.31900 9.62800 25.79700
C  41.73700 10.29400 25.79800
C  42.00000 10.51100 27.25800
C  40.16700 8.44200 24.88000
C  42.03100 11.48200 24.80300
C  41.21400 12.72400 25.21100
N  42.86000 10.70800 30.24000
C  43.57400 11.15400 29.19200
C  44.79800 11.76600 29.69400
C  44.64500 11.74600 31.06300
C  43.45900 11.01400 31.35600
C  45.85700 12.28000 28.78400
C  45.20700 12.16100 32.25300
O  46.30100 12.73100 32.47600
C  44.18200 11.66800 33.46200
C  44.88700 10.81200 34.45100
O  44.91200 9.58600 34.61000
O  45.50600 11.67600 35.36400
C  46.04600 11.02600 36.60000
H  38.05100 8.40400 33.36400
H  38.31200 8.29200 27.00600
H  43.84300 11.53800 27.04700
H  42.17500 9.94900 35.16400
H  39.32600 10.14400 35.10300
H  40.71300 8.34600 36.34500
H  40.68200 7.27600 34.88100
H  39.19500 7.78200 35.72900
H  40.08000 12.28600 35.22700
H  41.50500 12.59100 34.30500
H  42.49900 13.11200 36.29100
H  42.40600 11.47600 36.73900
H  36.50100 7.15300 32.94300
H  36.19900 5.94600 31.63900
H  35.43100 7.48800 31.58100
H  34.48800 6.60000 29.37100
H  35.77400 5.37800 29.55700
H  34.92300 5.37900 28.09000
H  39.55200 10.33500 25.48100
H  42.42300 9.58200 25.34100
H  40.88700 8.37300 24.06400
H  39.14100 8.38700 24.51500
H  40.33400 7.59000 25.53800
H  41.71300 11.25700 23.78500
H  43.10400 11.66400 24.75800
H  40.62300 12.53900 26.10700
H  40.55100 13.13100 24.44800
H  41.85500 13.53600 25.55500
H  45.49000 13.15800 28.25100
H  46.15800 11.56000 28.02300
H  46.75300 12.40500 29.39200
H  43.80800 12.57300 33.94300
H  46.87900 10.38300 36.31600
H  45.28700 10.45900 37.13800
H  46.65700 11.64900 37.25300
Mg -12.60700 16.65600 41.13600
C  -9.57700 14.72900 40.34300
C  -11.03700 19.29800 39.72300
C  -15.54300 18.34800 41.41700
C  -14.13800 13.68800 41.93400
N  -10.54000 16.88500 39.96800
C  -9.45400 16.04200 39.97300
C  -8.23300 16.75700 39.49100
C  -8.70800 18.27200 39.48300
C  -10.18100 18.18300 39.70700
C  -8.04100 19.03400 40.65300
C  -7.63600 16.23300 38.13400
C  -6.10000 16.26600 38.04300
H  -5.41800 16.86700 36.80200
N  -13.17900 18.58100 40.68500
C  -12.39700 19.52700 40.04300
C  -13.16000 20.74500 39.90700
C  -14.50300 20.48800 40.36500
C  -14.47400 19.11500 40.90200
C  -12.56000 22.02800 39.41100
C  -15.59500 21.45600 40.61800
O  -15.63000 22.62000 40.12600
C  -16.81800 21.14100 41.44500
N  -14.51500 16.12300 41.65700
C  -15.63300 16.96800 41.78800
C  -16.89200 16.23500 42.09800
C  -16.35600 14.82200 42.33300
C  -14.92500 14.86700 41.82300
C  -17.83600 16.80000 43.25000
C  -17.25500 13.72500 41.66900
C  -17.52700 12.43300 42.54100
N  -12.04500 14.56100 41.12500
C  -12.75900 13.48100 41.60000
C  -11.95300 12.36200 41.64300
C  -10.67700 12.71200 41.17200
C  -10.80000 14.14500 40.83700
C  -12.35900 11.02700 42.14700
C  -9.35000 12.30200 40.85300
O  -8.79700 11.22900 41.03100
C  -8.52700 13.57200 40.35500
C  -7.38400 13.81400 41.30800
O  -7.57700 14.30300 42.38400
O  -6.09700 13.58300 40.74500
C  -5.04200 14.02400 41.73800
H  -10.44200 20.19300 39.53200
H  -16.54100 18.78400 41.32800
H  -14.65200 12.85800 42.42400
H  -7.49100 16.55300 40.26200
H  -8.37700 18.87900 38.64000
H  -8.40600 18.72700 41.63300
H  -8.28100 20.09500 40.58400
H  -6.95900 18.90500 40.61500
H  -8.06100 16.76500 37.28200
H  -8.04100 15.25000 37.89400
H  -5.62400 15.29900 38.20500
H  -5.66000 16.78700 38.89300
H  -11.67100 21.88100 38.79600
H  -12.21500 22.58100 40.28500
H  -13.15400 22.73300 38.83000
H  -16.60000 20.66400 42.40100
H  -17.52600 20.50400 40.91600
H  -17.22800 22.11100 41.72500
H  -17.52300 16.18600 41.21000
H  -16.31100 14.62300 43.40400
H  -17.14000 17.48400 43.73600
H  -18.03600 16.00900 43.97300
H  -18.69300 17.30000 42.79900
H  -16.73500 13.48200 40.74200
H  -18.20300 14.21200 41.43800
H  -17.45500 11.41000 42.17400
H  -18.54900 12.59700 42.88400
H  -16.88600 12.47700 43.42200
H  -12.65700 10.49900 41.24100
H  -13.19000 11.16400 42.83900
H  -11.45200 10.67300 42.63700
H  -8.09300 13.41700 39.36700
H  -4.02700 13.79500 41.41300
H  -5.19200 13.53400 42.70000
H  -5.07000 15.09000 41.96600

