158

Mg 2.05900 -1.16300 43.67400
C  5.52100 -0.33600 43.04500
C  1.19700 1.74700 42.13400
C  -1.04200 -2.37000 43.41600
C  3.24300 -4.20500 44.83300
N  3.23000 0.51400 42.77000
C  4.57600 0.64000 42.55800
C  5.02600 1.96300 41.91300
C  3.63700 2.71500 41.93800
C  2.57900 1.55800 42.25600
C  3.52100 3.93100 42.92100
C  5.66500 1.87400 40.46100
C  6.91100 2.68700 40.11900
H  6.93100 3.61000 38.94400
N  0.27900 -0.35100 43.02000
C  0.11300 0.86300 42.40500
C  -1.23200 1.01400 42.05100
C  -1.94000 -0.10200 42.49800
C  -0.92900 -1.06500 43.01600
C  -1.81800 2.17300 41.43600
C  -3.46200 -0.30000 42.44700
O  -4.20400 0.49700 41.91200
C  -4.18200 -1.45100 43.06700
N  1.26200 -3.08000 43.96800
C  -0.04600 -3.29700 43.93800
C  -0.42400 -4.74600 44.43200
C  0.98600 -5.26000 44.96300
C  1.91500 -4.17400 44.48100
C  -1.67200 -4.83500 45.32800
C  1.34300 -6.64400 44.23400
C  2.00900 -7.70400 45.21600
N  4.00300 -2.12100 43.97900
C  4.28700 -3.28300 44.57900
C  5.69400 -3.34100 44.82500
C  6.23100 -2.25500 44.21600
C  5.16600 -1.55300 43.71500
C  6.45300 -4.36500 45.64600
C  7.48700 -1.53900 43.96100
O  8.65200 -1.72200 44.30500
C  7.03800 -0.42700 43.02100
C  7.75200 0.85300 43.34800
O  8.45400 1.42700 42.53500
O  7.48100 1.35100 44.57100
C  7.93000 2.72900 44.82900
H  0.94900 2.75200 41.78700
H  -2.10900 -2.60400 43.40400
H  3.49800 -5.15200 45.31300
H  5.61000 2.42400 42.71000
H  3.22300 3.06100 40.99100
H  4.51200 4.19000 43.29400
H  2.81900 3.71200 43.72600
H  3.18100 4.79700 42.35500
H  4.94500 2.14700 39.69000
H  5.92400 0.82200 40.34600
H  7.69700 1.96700 39.89400
H  7.11300 3.32600 40.97900
H  -2.53000 1.88800 40.66200
H  -1.14600 2.84600 40.90400
H  -2.22100 2.73700 42.27600
H  -5.21900 -1.16700 43.24500
H  -3.79400 -1.71000 44.05200
H  -4.04700 -2.28100 42.37400
H  -0.56700 -5.21900 43.46000
H  1.08700 -5.24400 46.04800
H  -1.38100 -5.43400 46.19100
H  -2.56100 -5.26000 44.86400
H  -1.92200 -3.85000 45.72100
H  2.04100 -6.45100 43.41900
H  0.48700 -7.08000 43.72000
H  1.45800 -8.64400 45.17900
H  2.15400 -7.34300 46.23400
H  2.98400 -7.95900 44.80200
H  5.95100 -5.32200 45.50700
H  6.31100 -3.98900 46.65900
H  7.52500 -4.45700 45.47100
H  7.41600 -0.71900 42.04000
H  7.36400 3.37600 44.16000
H  8.98100 2.87800 44.58000
H  7.65600 3.08400 45.82300
Mg 41.30000 40.42400 26.72100
C  40.11400 42.78100 29.12200
C  41.83600 38.24200 29.37600
C  42.21000 38.04100 24.45900
C  40.86000 42.69600 24.36500
N  41.20800 40.60000 28.92800
C  40.58700 41.57600 29.63800
C  40.44200 41.17200 31.09800
C  41.06100 39.72900 31.19000
C  41.37200 39.49100 29.73000
C  42.12800 39.45500 32.28600
C  39.03900 41.24700 31.78900
C  39.05500 42.10500 33.09200
H  38.32800 41.57600 34.33700
N  41.98300 38.47500 26.88300
C  42.17900 37.78500 28.06700
C  42.83200 36.52000 27.72700
C  42.71500 36.36300 26.31600
C  42.30800 37.66700 25.80500
C  43.41000 35.59000 28.76300
C  42.91900 35.12900 25.41800
O  42.72200 35.10000 24.18100
C  43.50700 33.76700 25.91800
N  41.44100 40.35200 24.65800
C  41.84200 39.28600 23.94500
C  42.07700 39.57900 22.45400
C  41.71100 41.07700 22.41800
C  41.23200 41.44700 23.90700
C  43.46500 39.28900 21.90200
C  40.59200 41.47900 21.42500
C  39.29700 40.60400 21.43800
N  40.72200 42.38000 26.69500
C  40.53000 43.16000 25.59000
C  39.93000 44.46600 26.02700
C  39.72100 44.30700 27.42600
C  40.29300 43.08600 27.79100
C  39.38700 45.53400 25.07400
C  39.16600 44.97500 28.56000
O  38.66200 46.04000 28.57200
C  39.61300 44.03800 29.78100
C  40.54500 44.70800 30.65300
O  41.75100 44.72400 30.45000
O  39.90000 45.35400 31.73000
C  40.93200 45.80000 32.76600
H  42.16500 37.51200 30.11900
H  42.62700 37.36100 23.71400
H  40.69700 43.45200 23.59400
H  41.16000 41.82700 31.59000
H  40.31200 38.99700 31.49200
H  42.97400 38.95300 31.81500
H  41.72700 38.70000 32.96200
H  42.41300 40.38700 32.77400
H  38.68900 40.23600 31.99900
H  38.33600 41.62600 31.04700
H  38.36900 42.90900 32.82700
H  40.00900 42.58800 33.29900
H  42.56900 35.22800 29.35400
H  44.14100 36.09200 29.39600
H  44.03200 34.75000 28.45400
H  44.58500 33.82800 26.06900
H  43.33800 33.05800 25.10700
H  43.05800 33.44600 26.85800
H  41.39000 38.97600 21.86000
H  42.57800 41.73500 22.36300
H  43.86400 40.18600 21.42800
H  43.35900 38.50400 21.15300
H  44.19900 38.89700 22.60600
H  40.96900 41.35600 20.41000
H  40.34400 42.53300 21.55200
H  38.51800 41.26300 21.82300
H  39.45800 39.73300 22.07300
H  39.07900 40.37300 20.39500
H  38.70700 46.19600 25.60900
H  38.75800 45.08500 24.30500
H  40.19600 46.05700 24.56300
H  38.75100 43.82800 30.41500
H  41.97300 45.63100 32.49300
H  40.74400 45.14700 33.61800
H  40.70100 46.84100 32.99400

