158

Mg 41.03200 7.83100 28.92200
C  42.80500 9.44400 31.35700
C  38.85500 6.61800 31.22000
C  39.41500 6.27300 26.38100
C  43.46100 8.85600 26.63300
N  41.02700 7.79000 31.13700
C  41.77000 8.64600 31.84700
C  41.20000 8.62200 33.34200
C  40.02300 7.58300 33.32200
C  39.98900 7.24700 31.81100
C  40.30400 6.27200 34.18000
C  40.80100 10.02000 33.81500
C  40.24200 10.12100 35.19500
H  41.01700 10.69100 36.41100
N  39.40300 6.70100 28.80500
C  38.60400 6.31300 29.81400
C  37.42900 5.65900 29.29200
C  37.53300 5.65500 27.88800
C  38.77400 6.27700 27.61300
C  36.26900 5.11800 30.16900
C  36.59000 5.07100 26.88000
O  36.87200 5.03200 25.66200
C  35.20800 4.64000 27.24200
N  41.50100 7.36600 26.81300
C  40.68400 6.73800 26.05000
C  41.30300 6.61900 24.65500
C  42.27700 7.73700 24.63800
C  42.46900 7.99600 26.15600
C  41.90900 5.19700 24.28500
C  41.79200 9.07300 23.92100
C  40.61000 9.84700 24.67600
N  42.88300 8.86000 28.95200
C  43.71900 9.32700 27.96700
C  44.70600 10.25200 28.52900
C  44.39500 10.30600 29.89700
C  43.27700 9.45600 30.07500
C  45.99700 10.75200 27.83400
C  44.87100 10.77300 31.15300
O  45.91800 11.32000 31.42800
C  43.77200 10.36000 32.15300
C  44.44000 9.59700 33.19100
O  45.13200 8.59500 33.12400
O  44.28700 10.27900 34.44200
C  45.21000 9.81900 35.49200
H  38.02800 6.24800 31.83000
H  39.04200 5.71900 25.51700
H  44.17700 9.23200 25.89900
H  41.97700 8.37300 34.06400
H  39.13500 8.10000 33.68600
H  41.32400 6.30400 34.56400
H  40.15800 5.34700 33.62200
H  39.61100 6.12300 35.00800
H  39.96300 10.41000 33.23700
H  41.62200 10.73500 33.83100
H  40.07300 9.10300 35.54500
H  39.28200 10.63500 35.21900
H  36.40900 5.09300 31.24900
H  35.95200 4.20100 29.67200
H  35.53500 5.90700 30.00300
H  34.72500 5.34100 27.92400
H  35.23300 3.64400 27.68400
H  34.72300 4.59600 26.26700
H  40.49200 6.85400 23.96600
H  43.26400 7.51200 24.23500
H  42.87400 5.30800 23.79100
H  41.35000 4.57100 23.58900
H  42.03300 4.67500 25.23300
H  41.44800 8.79800 22.92400
H  42.67600 9.70000 23.80600
H  40.95100 10.87000 24.83800
H  40.16100 9.30500 25.50800
H  39.77600 10.10600 24.02300
H  46.38600 11.74100 28.07600
H  45.77800 10.73900 26.76600
H  46.81400 10.04400 27.97500
H  43.30900 11.24800 32.58300
H  45.13700 10.45300 36.37600
H  46.25800 9.98300 35.23900
H  44.93100 8.83000 35.85700
Mg -8.98900 19.04800 42.66600
C  -5.62200 18.70900 42.85700
C  -8.60900 22.39800 41.89700
C  -12.40600 19.32200 42.25500
C  -9.28300 15.55500 42.54600
N  -7.30000 20.34800 42.39300
C  -5.99400 20.01900 42.51800
C  -5.06600 21.20600 42.25000
C  -6.09300 22.34700 42.11700
C  -7.45200 21.65800 42.16100
C  -5.95500 23.54400 43.14500
C  -4.21600 20.89100 40.98200
C  -4.78700 20.06200 39.74700
H  -4.33400 20.51700 38.35300
N  -10.38100 20.66600 42.05500
C  -9.97600 21.96600 41.86000
C  -11.16700 22.76500 41.66800
C  -12.33600 21.89400 41.91400
C  -11.72000 20.53400 42.06200
C  -11.17200 24.16600 41.13300
C  -13.72800 22.36800 41.84900
O  -13.96100 23.55100 41.61600
C  -14.99700 21.44400 41.96600
N  -10.59800 17.63100 42.15900
C  -11.88700 18.00800 42.27700
C  -12.84900 16.79500 42.37000
C  -11.87400 15.55500 42.10700
C  -10.47000 16.23700 42.24500
C  -13.54600 16.74000 43.71000
C  -12.10000 14.79800 40.69900
C  -12.19700 13.29200 40.73000
N  -7.76900 17.46700 42.74400
C  -7.95600 16.09300 42.74800
C  -6.81100 15.37300 43.02300
C  -5.80200 16.40400 43.05100
C  -6.46000 17.61500 42.82900
C  -6.70500 13.90800 43.07500
C  -4.40700 16.67800 43.28600
O  -3.45900 15.92600 43.61300
C  -4.22200 18.16200 43.19300
C  -3.70400 18.80800 44.38000
O  -2.68500 19.53600 44.40300
O  -4.48900 18.31000 45.43100
C  -4.01000 18.67500 46.84100
H  -8.53100 23.48600 41.84000
H  -13.49600 19.38500 42.27400
H  -9.34400 14.48000 42.72700
H  -4.43100 21.20800 43.13700
H  -6.04000 22.91500 41.18700
H  -5.85600 24.46900 42.57600
H  -5.06100 23.44000 43.76000
H  -6.82600 23.55100 43.80100
H  -3.26000 20.43700 41.24100
H  -3.85700 21.83600 40.57500
H  -5.87000 20.13600 39.65900
H  -4.62900 18.98500 39.81000
H  -11.76100 24.20600 40.21700
H  -10.11500 24.39400 40.99700
H  -11.59800 24.77100 41.93300
H  -14.98000 20.90800 42.91500
H  -14.96600 20.60400 41.27200
H  -15.85600 22.09500 41.80100
H  -13.61100 16.96100 41.60900
H  -11.90400 14.75300 42.84400
H  -14.56400 16.37700 43.56700
H  -13.59500 17.70700 44.21100
H  -13.01300 16.17300 44.47300
H  -11.25100 15.07800 40.07600
H  -12.98900 15.10300 40.14600
H  -12.98700 12.86200 40.11500
H  -12.14800 12.83800 41.72000
H  -11.39800 12.90100 40.10000
H  -5.72400 13.56800 42.74300
H  -7.33400 13.50100 42.28400
H  -6.97000 13.36900 43.98500
H  -3.54100 18.46800 42.39900
H  -2.96700 18.97300 46.73300
H  -4.04300 17.80500 47.49600
H  -4.48200 19.59600 47.18400

