158

Mg 16.93700 52.34300 26.90200
C  18.95700 50.64700 29.12500
C  14.65000 52.97000 29.28600
C  14.91500 54.03000 24.53000
C  18.90500 51.28100 24.22600
N  16.88300 51.82500 28.88400
C  17.75100 51.17600 29.63800
C  17.41800 51.42800 31.14100
C  15.92200 51.78700 31.13000
C  15.81300 52.22500 29.68300
C  15.04000 50.74600 31.68700
C  18.38200 52.52400 31.79000
C  18.81300 52.10500 33.19800
H  17.83400 51.46100 34.18700
N  15.03100 53.33000 27.00300
C  14.29600 53.44100 28.10200
C  13.18200 54.24300 27.78700
C  13.24900 54.65400 26.42500
C  14.47900 53.99700 25.93000
C  12.04700 54.52600 28.80700
C  12.39100 55.60500 25.64400
O  12.60500 55.88100 24.45800
C  11.07000 56.06800 26.31800
N  16.91200 52.55800 24.64700
C  15.98200 53.28500 23.98300
C  16.10000 53.13900 22.44100
C  17.58700 52.47400 22.34000
C  17.82500 52.07000 23.81700
C  15.08400 52.14000 21.78000
C  18.68600 53.41900 21.88200
C  19.62800 52.87900 20.81900
N  18.61100 51.15800 26.59600
C  19.28300 50.71500 25.48900
C  20.37500 49.81400 25.92700
C  20.29600 49.82700 27.31300
C  19.22300 50.67200 27.67600
C  21.36100 49.14500 24.92800
C  20.94600 49.22400 28.52800
O  21.88400 48.48800 28.80800
C  20.14000 49.91100 29.75100
C  19.68800 48.96600 30.80300
O  18.75400 48.13600 30.71100
O  20.36200 49.18600 31.97000
C  19.93500 48.39600 33.17300
H  14.08100 53.11900 30.20600
H  14.27900 54.55800 23.81600
H  19.43900 50.92500 23.34200
H  17.50500 50.49000 31.68900
H  15.66200 52.72800 31.61500
H  14.65800 51.01600 32.67200
H  15.51500 49.78400 31.87900
H  14.16800 50.65500 31.04000
H  17.95500 53.52000 31.67900
H  19.22100 52.55000 31.09600
H  19.17900 52.98700 33.72400
H  19.68800 51.46100 33.11100
H  11.08100 54.29000 28.36200
H  12.12500 55.55400 29.16200
H  12.24500 53.90300 29.67900
H  10.64900 56.60200 25.46600
H  11.35500 56.80000 27.07300
H  10.47300 55.18600 26.54900
H  15.94300 54.16400 22.10400
H  17.50900 51.58600 21.71200
H  15.58300 51.58100 20.98800
H  14.23600 52.58500 21.25800
H  14.75100 51.42800 22.53500
H  19.23800 53.71100 22.77500
H  18.19500 54.22000 21.33100
H  20.61600 52.65900 21.22400
H  19.82500 53.58100 20.00900
H  19.25800 51.97800 20.33100
H  21.01100 48.87200 23.93300
H  21.47300 48.19700 25.45400
H  22.37200 49.54500 24.99500
H  20.83600 50.61100 30.21300
H  20.14000 49.04400 34.02500
H  20.48700 47.49300 33.43300
H  18.86000 48.21700 33.14900
Mg 0.56000 43.70400 26.40200
C  2.46500 43.08800 29.46800
C  -2.23900 43.36100 28.29400
C  -1.03400 43.24700 23.54500
C  3.64800 43.50100 24.75700
N  0.24600 43.14000 28.62100
C  1.09000 43.10700 29.66700
C  0.30300 42.91300 30.99100
C  -1.17500 42.74800 30.42100
C  -1.03200 43.20300 29.03700
C  -1.65100 41.27300 30.45500
C  0.47300 44.02700 31.98500
C  0.54700 43.79500 33.50000
H  0.24600 42.39200 34.04600
N  -1.40700 43.46000 25.98300
C  -2.42200 43.39200 26.89400
C  -3.72300 43.40900 26.13300
C  -3.40600 43.41500 24.80300
C  -1.87000 43.26600 24.68400
C  -5.05000 43.46900 26.91300
C  -4.34000 43.43700 23.58800
O  -3.85500 43.31700 22.45500
C  -5.78200 43.50700 23.74700
N  1.19800 43.44700 24.45300
C  0.34700 43.26600 23.38500
C  1.13500 43.20900 21.99400
C  2.56000 43.45000 22.42500
C  2.50200 43.48700 23.99200
C  0.83800 41.95500 21.04100
C  3.32800 44.82000 22.04500
C  4.19900 44.77600 20.78800
N  2.62600 43.49400 26.94000
C  3.77000 43.42700 26.12800
C  4.93100 43.33500 26.95100
C  4.43900 43.15000 28.26100
C  3.06400 43.19500 28.18700
C  6.39000 43.27800 26.59200
C  4.86600 42.93800 29.64600
O  5.98500 42.86300 30.06200
C  3.58300 42.98500 30.51400
C  3.58300 41.68700 31.20300
O  3.53600 40.49400 30.81400
O  3.78300 42.01400 32.55700
C  4.21000 40.96100 33.49700
H  -3.14800 43.26700 28.89100
H  -1.59400 43.10700 22.61800
H  4.50400 43.38300 24.08900
H  0.45700 41.95200 31.48100
H  -1.90300 43.31200 31.00400
H  -0.86500 40.64100 30.86800
H  -2.03300 40.89400 29.50700
H  -2.45800 41.04900 31.15300
H  -0.29800 44.78200 31.82900
H  1.42400 44.52300 31.79400
H  -0.02800 44.57300 34.00200
H  1.55300 44.01200 33.85700
H  -5.81500 44.12500 26.49800
H  -4.91200 43.69100 27.97100
H  -5.31800 42.41700 26.81400
H  -6.28400 43.84700 22.84200
H  -5.99400 44.25500 24.51200
H  -6.10000 42.50900 24.04800
H  0.89300 44.06300 21.36200
H  3.22900 42.61400 22.22000
H  0.49600 42.30500 20.06700
H  0.03800 41.32000 21.42100
H  1.73000 41.34700 20.89000
H  3.78000 45.29400 22.91600
H  2.53500 45.55700 21.91200
H  5.14600 45.30200 20.91200
H  3.54200 45.36800 20.15100
H  4.40000 43.79100 20.36700
H  6.54500 43.89100 25.70500
H  6.62400 42.24000 26.35700
H  6.94800 43.75200 27.40000
H  3.53500 43.86500 31.15500
H  3.53000 40.12600 33.33300
H  4.02100 41.32300 34.50800
H  5.26700 40.70000 33.54200

