158

Mg 30.14700 59.12400 40.28200
C  27.38500 57.06100 39.14200
C  32.14400 56.83300 38.72100
C  32.48600 61.31900 40.68600
C  27.65500 61.50700 41.30700
N  29.80900 57.12800 39.18600
C  28.64400 56.47700 38.88700
C  28.91300 55.33000 37.94300
C  30.47700 55.10000 38.10000
C  30.84900 56.45500 38.71100
C  30.81000 53.82100 38.88500
C  28.60700 55.74600 36.44600
C  27.69100 54.70600 35.75000
H  26.73300 55.32800 34.68000
N  32.02200 59.06100 39.85000
C  32.69700 58.03100 39.23100
C  34.08500 58.30500 39.30200
C  34.24200 59.55500 39.92400
C  32.91000 60.10400 40.13000
C  35.14700 57.33000 38.80000
C  35.60800 60.12100 40.44300
O  36.67700 59.58500 40.23800
C  35.65900 61.30200 41.37700
N  29.96500 61.17500 40.77700
C  31.18400 61.87600 40.86700
C  30.84800 63.28400 41.24700
C  29.34900 63.28100 41.67100
C  28.99500 61.93000 41.19600
C  31.75200 63.91700 42.24800
C  28.45700 64.35700 41.08400
C  27.42900 64.95100 42.08000
N  27.94500 59.18300 40.39200
C  27.15700 60.29800 40.73900
C  25.75200 59.84900 40.61400
C  25.75500 58.61600 39.96500
C  27.15900 58.26300 39.82200
C  24.56800 60.65600 40.96900
C  25.01400 57.46700 39.40000
O  23.82300 57.27400 39.47600
C  26.07300 56.42500 38.81100
C  25.83700 54.97700 39.35900
O  26.41300 54.52400 40.32500
O  24.89200 54.27000 38.59000
C  24.24100 53.18600 39.27200
H  32.84600 56.19700 38.17700
H  33.31700 61.99500 40.89800
H  27.01400 62.28600 41.72500
H  28.33000 54.45900 38.24200
H  30.93100 54.94500 37.12200
H  29.88400 53.44000 39.31500
H  31.37200 54.12500 39.76800
H  31.49800 53.09800 38.44500
H  29.49900 55.91300 35.84200
H  28.15300 56.72900 36.32000
H  27.11100 54.07800 36.42600
H  28.23800 53.93800 35.20200
H  35.14700 57.15000 37.72500
H  35.09700 56.31100 39.18400
H  36.15400 57.63200 39.08800
H  35.01900 61.02100 42.21400
H  35.47500 62.23800 40.85100
H  36.68900 61.45900 41.69900
H  30.83000 63.79300 40.28400
H  29.24800 63.35800 42.75400
H  32.54400 63.24700 42.58100
H  31.28400 64.35600 43.12900
H  32.30100 64.74600 41.80300
H  27.91700 63.93800 40.23500
H  28.88300 65.31100 40.77300
H  26.45000 64.65900 41.69800
H  27.43800 66.03800 41.99900
H  27.54000 64.54200 43.08400
H  23.77300 60.01200 41.34600
H  24.28400 61.18800 40.06100
H  24.89100 61.50800 41.56700
H  25.97300 56.45800 37.72600
H  24.82000 52.68400 40.04700
H  23.92300 52.39100 38.59600
H  23.35300 53.50100 39.82100
Mg -1.58500 34.51100 26.70800
C  -3.28900 32.54300 28.99800
C  -0.85100 36.66500 29.24600
C  -0.14600 36.69400 24.45600
C  -2.76700 32.56500 24.23200
N  -2.18300 34.63400 28.90600
C  -2.76100 33.66200 29.63900
C  -2.59800 33.89700 31.14100
C  -1.84900 35.27600 31.22900
C  -1.59700 35.56300 29.69200
C  -2.60100 36.49100 31.93600
C  -1.68900 32.75300 31.80800
C  -2.16900 32.30200 33.23200
H  -1.13000 32.44500 34.38600
N  -0.47400 36.37400 26.88900
C  -0.31800 37.08400 28.00900
C  0.50000 38.25900 27.67600
C  0.75000 38.26900 26.30100
C  0.08000 37.07200 25.83300
C  1.03400 39.23800 28.74400
C  1.40300 39.42700 25.37900
O  1.25500 39.43700 24.14200
C  2.05100 40.60600 26.04400
N  -1.49300 34.73500 24.62600
C  -0.77100 35.60200 23.90300
C  -0.92600 35.34900 22.44600
C  -1.58300 33.94600 22.36300
C  -2.02800 33.73700 23.82400
C  -1.81900 36.48200 21.75400
C  -0.61400 32.81400 21.85800
C  0.61800 32.32300 22.69800
N  -2.86800 32.89300 26.58000
C  -3.27700 32.20000 25.49900
C  -4.10200 31.09000 25.76400
C  -4.08300 31.11600 27.18600
C  -3.35600 32.24100 27.62300
C  -4.70300 30.25300 24.79300
C  -4.56600 30.44500 28.37400
O  -5.23700 29.45800 28.58500
C  -4.05400 31.29200 29.59600
C  -5.15700 31.56800 30.63400
O  -6.11500 32.26500 30.39500
O  -4.83800 31.07700 31.86100
C  -5.86900 31.38000 32.83600
H  -0.57000 37.29500 30.09300
H  0.35200 37.28200 23.68200
H  -2.99600 31.73700 23.55800
H  -3.55700 33.95300 31.65600
H  -0.92100 35.19200 31.79500
H  -3.25000 36.83400 31.13000
H  -1.93400 37.23200 32.37700
H  -3.11700 36.10800 32.81600
H  -0.67100 33.13300 31.90100
H  -1.63500 31.88400 31.15200
H  -2.48800 31.28700 32.99400
H  -3.08800 32.80800 33.52800
H  0.67000 40.22500 28.46000
H  2.12200 39.19500 28.80500
H  0.61900 39.02000 29.72800
H  1.15800 41.13800 26.36900
H  2.51800 41.15100 25.22400
H  2.67500 40.22500 26.85200
H  0.01800 35.38100 21.90200
H  -2.52500 33.81200 21.83000
H  -1.27100 37.17800 21.11900
H  -2.28700 37.18900 22.44000
H  -2.58100 35.98100 21.15700
H  -0.37800 33.16900 20.85500
H  -1.24900 31.98200 21.55500
H  0.34400 31.35300 23.11400
H  0.88600 32.87000 23.60200
H  1.46600 32.22800 22.02000
H  -5.59200 29.79300 25.22300
H  -3.90600 29.55500 24.53700
H  -4.85000 30.88100 23.91400
H  -3.29400 30.72000 30.12900
H  -6.53400 30.52800 32.70000
H  -6.39700 32.32600 32.71900
H  -5.41200 31.35400 33.82600

