158

Mg 8.67500 3.46400 27.79800
C  9.86000 1.85100 30.71700
C  6.74700 5.49200 29.89600
C  7.33300 4.88900 25.09000
C  10.02500 0.90700 25.86300
N  8.14800 3.46000 30.08400
C  8.99900 2.92400 31.00300
C  8.59700 3.41900 32.43700
C  7.34800 4.31800 32.14600
C  7.46800 4.47000 30.63800
C  5.91500 3.73700 32.51200
C  9.83200 4.00500 33.16700
C  10.15300 3.46700 34.53700
H  10.71400 4.23700 35.64500
N  7.31700 5.07500 27.53500
C  6.70000 5.81500 28.52800
C  5.89400 6.86300 27.90900
C  6.11100 6.65500 26.49300
C  6.98000 5.54300 26.32600
C  4.97500 7.94300 28.62600
C  5.30000 7.24100 25.32300
O  5.37000 6.82100 24.18800
C  4.29100 8.39300 25.56100
N  8.52800 2.90800 25.80700
C  7.95600 3.70800 24.82400
C  8.30400 3.27800 23.41300
C  9.32800 2.12700 23.67200
C  9.30400 1.97300 25.22800
C  7.07600 2.81800 22.65300
C  10.72500 2.31000 23.12000
C  11.85100 2.85200 24.10800
N  9.71100 1.62500 28.14200
C  10.24000 0.69000 27.26900
C  11.13500 -0.18000 28.04400
C  11.06600 0.27700 29.35800
C  10.12600 1.29200 29.37000
C  11.83500 -1.32100 27.36900
C  11.56700 0.07200 30.70100
O  12.41000 -0.72100 31.13700
C  10.76700 1.05300 31.65300
C  10.02500 0.22500 32.66500
O  8.91500 -0.23100 32.49100
O  10.70700 0.11200 33.80200
C  9.98300 -0.42300 34.97600
H  6.21900 6.14000 30.59900
H  7.12200 5.39000 24.14300
H  10.62900 0.32000 25.16800
H  8.20700 2.62000 33.06700
H  7.34600 5.20900 32.77400
H  5.92200 2.66900 32.73100
H  5.13200 3.83800 31.76100
H  5.59500 4.28600 33.39800
H  9.70400 5.08300 33.25900
H  10.73100 4.09800 32.55600
H  10.92100 2.72600 34.31500
H  9.27100 3.00400 34.98100
H  5.08600 8.89000 28.09700
H  5.28000 8.00400 29.67100
H  3.95200 7.61800 28.43900
H  3.51200 8.07600 26.25400
H  3.77400 8.52400 24.61000
H  4.82700 9.30900 25.81100
H  8.88900 4.00800 22.85300
H  9.02700 1.18500 23.21300
H  6.25700 2.65000 23.35200
H  7.17100 1.87800 22.11000
H  6.88100 3.56700 21.88500
H  10.79600 3.03700 22.31100
H  11.11900 1.40500 22.65600
H  11.68300 2.75000 25.18000
H  11.89600 3.91100 23.85300
H  12.79300 2.38300 23.82400
H  11.32300 -1.53400 26.43100
H  11.76500 -2.21200 27.99400
H  12.87300 -1.04800 27.18200
H  11.44000 1.75900 32.13900
H  10.73600 -0.86400 35.62900
H  9.25300 -1.21000 34.78100
H  9.46400 0.37700 35.50500
Mg 0.91000 43.77300 25.96100
C  2.81200 43.75900 28.87300
C  -1.76000 42.95400 27.87300
C  -0.71500 43.02600 23.11400
C  3.92000 44.22200 24.19900
N  0.56100 43.40100 28.23900
C  1.44200 43.69700 29.19400
C  0.70700 43.62300 30.57700
C  -0.78000 43.34600 30.19900
C  -0.68800 43.33600 28.66300
C  -1.40000 42.06800 30.89000
C  0.87500 44.95700 31.40400
C  0.74900 44.72300 32.95700
H  0.33800 43.31300 33.52100
N  -0.97200 43.08000 25.52000
C  -1.87400 42.80700 26.48500
C  -3.12500 42.37300 25.75000
C  -2.89900 42.39800 24.37600
C  -1.46300 42.84600 24.29000
C  -4.41500 41.98300 26.41500
C  -3.65500 41.84100 23.20200
O  -3.09800 41.79300 22.09200
C  -5.00800 41.35500 23.35300
N  1.47000 43.77600 23.94200
C  0.62500 43.39200 22.98300
C  1.31800 43.40700 21.58600
C  2.73100 44.02200 21.95300
C  2.74500 44.01800 23.41400
C  1.22500 42.07800 20.73400
C  2.91500 45.45100 21.48500
C  2.94500 45.71600 20.01400
N  2.95700 43.97400 26.42300
C  4.04800 44.18100 25.61100
C  5.23900 44.04500 26.40000
C  4.83400 43.95800 27.69000
C  3.39300 43.89800 27.66300
C  6.66100 44.26400 25.96500
C  5.29700 43.89100 29.03600
O  6.44200 43.77200 29.45500
C  3.98100 43.75300 29.83600
C  4.12800 42.51600 30.65600
O  4.41400 41.39600 30.23100
O  4.07300 42.79500 31.99400
C  4.34400 41.69000 32.87800
H  -2.69800 42.81900 28.41400
H  -1.18000 42.84900 22.14200
H  4.80200 44.29200 23.55900
H  1.10200 42.81500 31.19200
H  -1.36200 44.21100 30.51600
H  -0.65600 41.49900 31.44700
H  -1.84400 41.44000 30.11700
H  -2.18300 42.39300 31.57500
H  0.09400 45.65000 31.09100
H  1.85800 45.41100 31.28000
H  0.02700 45.42300 33.37800
H  1.74900 44.88000 33.36100
H  -5.29900 42.52200 26.07400
H  -4.44700 42.18500 27.48600
H  -4.68000 40.92600 26.39000
H  -5.30700 40.90700 22.40500
H  -5.65400 42.18800 23.63000
H  -5.04700 40.51600 24.04800
H  0.73300 44.13300 21.02100
H  3.59500 43.44400 21.62400
H  0.86200 41.38900 21.49600
H  2.22400 41.76500 20.43000
H  0.54100 42.19000 19.89300
H  3.78000 45.81700 22.03900
H  2.07400 45.96400 21.95300
H  2.07200 46.26000 19.65200
H  2.85600 44.79600 19.43700
H  3.88200 46.14200 19.65700
H  7.04700 45.26200 26.17600
H  6.95000 43.98600 24.95200
H  7.24600 43.57000 26.56800
H  3.78600 44.46400 30.63900
H  3.49000 41.03300 33.04200
H  4.62600 41.99900 33.88500
H  5.20300 41.13200 32.50400

