158

Mg 35.91200 2.50900 30.52600
C  33.72200 3.60100 32.90200
C  38.40000 2.47400 32.96700
C  38.19300 1.65200 28.05100
C  33.49700 2.78100 28.05000
N  36.03500 3.08600 32.67800
C  34.99500 3.35000 33.44400
C  35.37100 3.42800 34.95800
C  36.86600 3.21400 34.92700
C  37.13400 2.89200 33.45500
C  37.72200 4.32400 35.50100
C  34.60400 2.30500 35.69100
C  34.07700 2.79700 37.08900
H  34.97400 3.65500 38.00700
N  37.94500 2.17900 30.50400
C  38.77400 2.18200 31.61400
C  40.10500 1.72000 31.12600
C  40.03500 1.29700 29.79500
C  38.68600 1.69100 29.39000
C  41.34800 1.48200 32.06700
C  41.13000 0.61300 28.82100
O  40.90600 0.07300 27.75700
C  42.50600 0.49700 29.30700
N  35.82500 2.14800 28.40200
C  36.86100 1.91500 27.60100
C  36.63300 1.83000 26.09600
C  35.01000 2.09200 26.11900
C  34.72400 2.28300 27.65800
C  37.40100 2.97900 25.41700
C  34.20300 0.86300 25.59800
C  33.00600 1.25700 24.64900
N  34.00600 3.00300 30.43300
C  33.13100 3.14600 29.38500
C  31.85600 3.64700 29.87700
C  32.05100 3.85000 31.23000
C  33.34400 3.47200 31.50700
C  30.74100 4.13700 28.98600
C  31.40100 4.24200 32.45200
O  30.21600 4.59900 32.59600
C  32.47400 4.16900 33.57600
C  32.64500 5.60900 34.07000
O  33.27800 6.51400 33.51600
O  32.01500 5.77500 35.27700
C  32.17700 7.11900 35.90400
H  39.09000 2.35500 33.80600
H  38.85800 1.24000 27.28900
H  32.76000 2.93700 27.25900
H  35.09100 4.42000 35.31300
H  37.13400 2.25700 35.37500
H  38.26900 3.82700 36.30300
H  37.16800 5.13800 35.96800
H  38.50000 4.58300 34.78400
H  35.20200 1.40000 35.80000
H  33.69900 2.04400 35.14200
H  33.67000 1.98300 37.68800
H  33.22900 3.45800 36.90900
H  41.47700 0.40300 32.15100
H  41.10800 1.69800 33.10800
H  42.08600 2.18400 31.68100
H  43.11500 0.25200 28.43700
H  42.41000 -0.26700 30.07800
H  42.85500 1.40400 29.80000
H  36.87200 0.84600 25.69200
H  34.81200 2.99100 25.53500
H  37.29700 2.85100 24.33900
H  38.43500 2.92400 25.75700
H  36.92700 3.93900 25.62000
H  33.88700 0.28300 26.46500
H  34.91600 0.28500 25.01100
H  33.25900 0.92100 23.64400
H  33.07000 2.34200 24.56900
H  32.03800 0.95500 25.04800
H  30.74900 3.51700 28.08900
H  31.00100 5.17000 28.75700
H  29.72300 4.01100 29.35300
H  31.97300 3.54400 34.31500
H  32.80200 7.02500 36.79200
H  31.22000 7.54100 36.21400
H  32.66700 7.91000 35.33600
Mg -6.12500 24.70900 26.94100
C  -4.94500 26.68300 29.74000
C  -8.01000 22.97800 29.01000
C  -6.96700 22.99100 24.20000
C  -3.95400 26.85700 24.90200
N  -6.24300 24.74800 29.15900
C  -5.78200 25.60500 30.06700
C  -6.39200 25.33100 31.46700
C  -7.27200 24.08800 31.18000
C  -7.22200 23.91100 29.72300
C  -6.76700 22.83300 31.97100
C  -7.15000 26.51600 32.19200
C  -7.12600 26.73000 33.76200
H  -6.66600 25.51100 34.54500
N  -7.37600 23.19200 26.62400
C  -8.03800 22.58200 27.64600
C  -8.96500 21.64500 27.01700
C  -8.67000 21.57400 25.57500
C  -7.65800 22.60900 25.40900
C  -9.96600 20.98000 27.83600
C  -9.29700 20.73700 24.51200
O  -9.12100 20.95200 23.31900
C  -10.18200 19.53200 24.80600
N  -5.48400 24.91300 24.85300
C  -5.93200 23.95300 24.01100
C  -5.30300 24.15600 22.60500
C  -4.39800 25.39300 22.76300
C  -4.54700 25.70000 24.26000
C  -4.50900 22.87700 22.08000
C  -4.74400 26.58900 21.82400
C  -6.16200 27.18300 21.97900
N  -4.79000 26.46300 27.14600
C  -4.03200 27.19000 26.28000
C  -3.44300 28.37500 26.94800
C  -3.68300 28.13700 28.28800
C  -4.48800 26.97900 28.38200
C  -2.66200 29.42200 26.22900
C  -3.52700 28.68500 29.59100
O  -2.90500 29.64500 29.94900
C  -4.24400 27.75500 30.51600
C  -3.44300 27.27500 31.63200
O  -2.52900 26.50900 31.54800
O  -3.82200 27.92500 32.80800
C  -3.03300 27.59100 34.01800
H  -8.72800 22.40400 29.59900
H  -7.10000 22.30500 23.36100
H  -3.31300 27.48200 24.27600
H  -5.52400 25.12100 32.09100
H  -8.27100 24.39100 31.49200
H  -7.05000 21.90400 31.47500
H  -7.39800 22.78600 32.85900
H  -5.77300 22.87400 32.41600
H  -8.18200 26.53900 31.84300
H  -6.69300 27.45100 31.86700
H  -8.08900 27.12800 34.08200
H  -6.46900 27.57200 33.97800
H  -10.47100 20.17100 27.30900
H  -10.79700 21.60700 28.15900
H  -9.57300 20.37000 28.65000
H  -9.85000 18.91200 25.63900
H  -10.29600 18.91500 23.91500
H  -11.12100 19.91400 25.20700
H  -6.05400 24.30000 21.82800
H  -3.35500 25.11900 22.60500
H  -3.53800 23.12600 21.65200
H  -5.21300 22.28900 21.49200
H  -4.32300 22.17100 22.88900
H  -4.72000 26.28200 20.77800
H  -3.99000 27.33400 22.07800
H  -6.69200 26.71800 22.81100
H  -6.62100 26.99300 21.00900
H  -5.98600 28.25400 22.07300
H  -3.34100 29.96000 25.56800
H  -1.76800 29.00500 25.76600
H  -2.27800 30.04800 27.03500
H  -5.07500 28.32300 30.93500
H  -3.04500 26.51400 34.18500
H  -3.58000 28.05500 34.83900
H  -2.00500 27.94400 33.94300

