158

Mg 45.01300 4.77500 48.41200
C  42.76100 7.40100 47.77400
C  42.39500 2.52200 47.77800
C  47.24400 2.27600 48.06400
C  47.53700 7.16000 48.31800
N  42.75200 4.99800 47.80100
C  42.13000 6.16900 47.58000
C  40.69300 5.89600 47.16300
C  40.53700 4.34100 47.36300
C  41.98100 3.89900 47.60200
C  39.65100 3.94600 48.55300
C  40.48900 6.31100 45.64100
C  39.32700 7.13300 45.32700
H  38.82200 7.02800 43.89100
N  44.86400 2.69200 48.19600
C  43.70700 1.97900 48.03700
C  44.01100 0.61400 47.94000
C  45.46800 0.44900 48.00700
C  45.91500 1.85200 48.12100
C  43.00500 -0.45700 47.75300
C  46.21700 -0.88000 47.93800
O  45.65400 -2.00200 47.77800
C  47.71700 -0.83000 48.14400
N  47.08000 4.75100 48.38100
C  47.76800 3.55500 48.08100
C  49.31000 3.87200 47.91700
C  49.41400 5.30200 48.35700
C  47.91900 5.80600 48.37300
C  50.15400 2.83700 48.72800
C  50.43300 6.21200 47.52500
C  51.20300 7.27200 48.31400
N  45.21300 6.82200 48.10600
C  46.20700 7.67100 48.21300
C  45.76200 9.03700 48.07300
C  44.43500 8.94800 47.93200
C  44.09600 7.61800 47.93600
C  46.63600 10.21600 48.13500
C  43.24300 9.79600 47.75700
O  43.12400 10.99200 47.81100
C  42.13900 8.83500 47.54600
C  41.13600 9.09400 48.63200
O  41.23000 8.65400 49.77000
O  40.17800 9.97300 48.20000
C  39.22700 10.37700 49.20900
H  41.62800 1.76500 47.60000
H  48.02700 1.59700 47.72100
H  48.22800 7.97500 48.54500
H  40.00800 6.34400 47.88300
H  40.15000 3.78200 46.51100
H  38.88800 4.71400 48.68000
H  40.26300 3.91800 49.45400
H  39.01900 3.08500 48.33400
H  40.49900 5.43000 44.99900
H  41.30400 7.00100 45.42100
H  39.70400 8.14800 45.45700
H  38.45900 6.99300 45.97100
H  43.39100 -1.30000 48.32600
H  42.91700 -0.71100 46.69600
H  42.02400 -0.22800 48.16700
H  47.95500 -1.88900 48.23700
H  48.08300 -0.28200 49.01300
H  48.16300 -0.53500 47.19400
H  49.60500 3.78300 46.87200
H  49.76000 5.26500 49.39000
H  50.92300 2.37100 48.11100
H  49.54700 2.08000 49.22300
H  50.63300 3.32400 49.57800
H  49.80600 6.73100 46.80100
H  51.05600 5.50600 46.97400
H  50.97000 8.27000 47.94200
H  52.28200 7.15100 48.21200
H  51.13900 7.24800 49.40200
H  46.36200 10.59900 49.11800
H  46.47800 10.89200 47.29500
H  47.69800 9.98900 48.22300
H  41.66500 8.99400 46.57700
H  39.34600 11.40600 49.54800
H  39.18900 9.74500 50.09700
H  38.25200 10.36300 48.72100
Mg 50.48900 46.37200 41.53400
C  47.42500 47.62400 40.75700
C  49.58400 43.20300 40.54400
C  53.91000 45.30200 41.71000
C  51.70900 49.69300 42.32300
N  48.61800 45.55700 40.90100
C  47.48900 46.20900 40.52000
C  46.44600 45.21900 39.95600
C  47.10300 43.77600 40.34700
C  48.52300 44.15700 40.68400
C  46.38400 43.03200 41.47800
C  45.91300 45.36400 38.42000
C  44.49100 45.01200 38.02500
H  44.42200 43.98900 36.85200
N  51.59900 44.55200 40.94100
C  50.99100 43.38300 40.58100
C  52.00300 42.40400 40.34700
C  53.24000 43.00900 40.67600
C  52.98000 44.38400 41.13900
C  51.65900 40.95700 39.96500
C  54.55200 42.34000 40.43400
O  54.53900 41.17000 40.07500
C  55.85200 42.91300 40.68900
N  52.63100 47.46500 41.70500
C  53.72100 46.71600 41.95900
C  54.89900 47.52600 42.50900
C  54.15400 48.80800 42.89100
C  52.74000 48.68900 42.27600
C  55.65600 46.88900 43.74100
C  54.90900 50.11900 42.40700
C  55.78000 50.86300 43.41900
N  49.69100 48.24000 41.76500
C  50.29300 49.47200 42.09000
C  49.24100 50.45600 42.01100
C  48.11800 49.72600 41.50900
C  48.43000 48.45700 41.31500
C  49.34700 51.88900 42.34100
C  46.68300 49.88300 41.17400
O  45.83500 50.75700 41.37600
C  46.26900 48.51400 40.52300
C  44.99100 47.93300 41.18500
O  45.03300 47.33800 42.20700
O  43.85800 48.06400 40.43500
C  42.61500 47.68300 41.12300
H  49.20900 42.20800 40.29400
H  54.87600 44.93600 42.06500
H  51.96800 50.67500 42.72200
H  45.55400 45.17800 40.58200
H  47.16400 43.09400 39.49900
H  47.11500 42.72700 42.22600
H  45.97200 42.11200 41.06200
H  45.64600 43.60800 42.03700
H  46.49800 44.70800 37.77500
H  46.09100 46.37500 38.05400
H  44.03700 45.95400 37.71500
H  43.92500 44.53400 38.82400
H  51.87100 40.23800 40.75600
H  52.27400 40.64700 39.12000
H  50.61800 40.98100 39.64300
H  56.02100 42.84600 41.76300
H  55.77600 43.95500 40.38000
H  56.61400 42.52300 40.01400
H  55.66400 47.65300 41.74300
H  53.96500 48.86500 43.96300
H  55.77700 47.66700 44.49400
H  56.60900 46.44600 43.45200
H  55.06500 46.08800 44.18600
H  54.10800 50.73600 42.00200
H  55.55000 50.05600 41.52700
H  55.35100 51.80900 43.74700
H  56.73700 51.02000 42.92000
H  55.90000 50.22400 44.29400
H  49.90500 52.49600 41.62800
H  49.83100 52.09000 43.29700
H  48.34400 52.29300 42.48000
H  46.13400 48.71300 39.46000
H  41.81000 47.73600 40.39000
H  42.35300 48.45200 41.85000
H  42.63200 46.69200 41.57700

