158

Mg 7.74900 2.73400 27.44300
C  9.07600 0.90100 30.16400
C  5.86900 4.57700 29.47800
C  6.24100 3.96400 24.73700
C  9.11800 0.26800 25.31300
N  7.53600 2.75800 29.53300
C  8.28100 2.06500 30.48900
C  8.11100 2.73500 31.87700
C  6.94600 3.74400 31.66200
C  6.69100 3.67900 30.12700
C  5.81700 3.65700 32.62900
C  9.39500 3.40800 32.42400
C  9.18600 3.95100 33.82300
H  10.10600 3.51500 34.95700
N  6.21500 4.15400 27.10200
C  5.54500 4.81500 28.12900
C  4.67600 5.81900 27.56400
C  4.78400 5.67900 26.17700
C  5.80300 4.55600 25.95100
C  3.70200 6.62400 28.37600
C  4.00200 6.41500 25.07800
O  4.06200 6.11600 23.88800
C  2.96100 7.45400 25.45000
N  7.55100 2.01600 25.30400
C  6.92100 2.84800 24.44300
C  7.02200 2.29600 23.02500
C  8.01500 1.10100 23.22000
C  8.21700 1.07100 24.71900
C  5.69100 1.70800 22.47000
C  9.32200 1.37900 22.47100
C  9.98000 0.05400 22.13800
N  8.93500 1.07000 27.65600
C  9.41400 0.12300 26.68100
C  10.24800 -0.88600 27.30300
C  10.26600 -0.53200 28.66600
C  9.28100 0.54100 28.85000
C  11.00000 -1.99800 26.63200
C  10.80000 -0.85500 30.00200
O  11.59300 -1.68600 30.44000
C  10.03300 0.15200 31.03400
C  9.33200 -0.67400 32.08100
O  8.44600 -1.44500 31.86100
O  9.84400 -0.34400 33.28900
C  9.49900 -1.19500 34.50000
H  5.34800 5.28700 30.12400
H  5.91600 4.54000 23.86800
H  9.67700 -0.46900 24.73200
H  7.78400 2.01900 32.63100
H  7.41300 4.72100 31.77900
H  4.98200 3.15600 32.14100
H  5.46800 4.68100 32.76400
H  6.10300 3.12100 33.53300
H  9.73500 4.15600 31.70800
H  10.17500 2.64700 32.45600
H  8.15600 3.64000 33.99700
H  9.26100 5.03600 33.74700
H  3.90800 7.69400 28.34500
H  3.75600 6.41600 29.44500
H  2.64500 6.51100 28.13400
H  2.15300 6.93100 25.96200
H  2.58700 8.11600 24.66900
H  3.40000 8.16100 26.15300
H  7.38800 3.08600 22.37000
H  7.53200 0.20000 22.84000
H  4.93400 1.93700 23.22000
H  5.60800 0.64400 22.24900
H  5.39700 2.25800 21.57600
H  9.98000 1.95900 23.11800
H  9.13200 1.94400 21.55800
H  9.34000 -0.79500 22.37900
H  10.95200 0.03500 22.63100
H  10.03100 -0.04400 21.05400
H  11.44500 -1.75600 25.66700
H  10.54700 -2.97700 26.47400
H  11.84900 -2.06000 27.31300
H  10.75500 0.73400 31.60600
H  9.25500 -0.49800 35.30100
H  10.40200 -1.68800 34.85900
H  8.64800 -1.81700 34.22200
Mg -4.54200 25.24500 26.28300
C  -3.21500 26.66600 29.23100
C  -6.50000 23.16200 28.24600
C  -5.56100 23.85300 23.50000
C  -2.30200 27.31400 24.47500
N  -4.68000 24.92500 28.48900
C  -4.18700 25.68800 29.48600
C  -4.72700 25.25600 30.84400
C  -5.62700 23.99900 30.51100
C  -5.69300 24.04400 28.97700
C  -5.28200 22.66200 31.10400
C  -5.47200 26.42800 31.54900
C  -5.48000 26.43700 33.13700
H  -4.89800 25.17200 33.95000
N  -5.78100 23.61400 25.90500
C  -6.48800 22.88800 26.84000
C  -7.33500 21.89600 26.15200
C  -7.08600 22.10200 24.77100
C  -6.12500 23.21800 24.64700
C  -8.29900 20.95100 26.86700
C  -7.71400 21.33700 23.56600
O  -7.24600 21.46000 22.45600
C  -8.79700 20.34700 23.72900
N  -4.01400 25.50500 24.31500
C  -4.52900 24.78000 23.27000
C  -3.92700 25.16400 21.91200
C  -3.00700 26.36900 22.34100
C  -3.15800 26.50900 23.82700
C  -3.16300 24.04000 21.24600
C  -3.26200 27.68200 21.61500
C  -2.21800 28.02300 20.52400
N  -3.10800 26.75500 26.68500
C  -2.27700 27.47200 25.86300
C  -1.49100 28.38900 26.60000
C  -1.80700 28.07300 27.95600
C  -2.84200 27.08600 27.96600
C  -0.38500 29.30000 26.01900
C  -1.48900 28.44200 29.33700
O  -0.68900 29.28200 29.76000
C  -2.39800 27.48700 30.24800
C  -1.47900 26.58300 30.91600
O  -0.69500 25.76400 30.34500
O  -1.69000 26.60500 32.26900
C  -0.68500 25.99300 33.15800
H  -7.12800 22.45900 28.79700
H  -5.92700 23.44200 22.55700
H  -1.66300 27.93800 23.84700
H  -3.96900 25.01600 31.59000
H  -6.65700 24.22000 30.79500
H  -5.20600 21.90100 30.32800
H  -6.02000 22.36100 31.84800
H  -4.39100 22.70900 31.73100
H  -6.52000 26.35500 31.26100
H  -5.17500 27.35900 31.06700
H  -6.49900 26.58500 33.49300
H  -4.87700 27.29400 33.44000
H  -9.25300 20.96300 26.33900
H  -8.50200 21.14300 27.92100
H  -7.82400 19.97200 26.80000
H  -8.77000 19.82100 22.77500
H  -9.72200 20.92200 23.78200
H  -8.66900 19.66000 24.56600
H  -4.79900 25.43000 21.31500
H  -1.97600 26.13600 22.07100
H  -3.54400 23.69100 20.28700
H  -2.91100 23.22300 21.92200
H  -2.20900 24.37600 20.83800
H  -3.18200 28.54000 22.28200
H  -4.24300 27.74300 21.14400
H  -2.32300 27.32900 19.69000
H  -1.18700 27.86700 20.84300
H  -2.26200 29.08900 20.29700
H  -0.59800 29.42500 24.95700
H  0.55900 28.77500 26.16600
H  -0.48700 30.30400 26.42900
H  -3.01200 28.04100 30.95900
H  -1.00100 25.05800 33.62200
H  -0.29300 26.66500 33.92100
H  0.22400 25.68900 32.64000

