158

Mg 8.84500 3.35900 27.13200
C  9.93600 1.97600 30.11800
C  6.69300 5.27800 28.97100
C  7.92600 4.63400 24.37100
C  10.32400 0.59500 25.37300
N  8.27000 3.37600 29.28800
C  8.96700 2.88900 30.33500
C  8.35500 3.36900 31.65600
C  7.01500 4.04800 31.23300
C  7.38600 4.30500 29.74800
C  5.70900 3.25400 31.51800
C  9.40500 4.33000 32.32900
C  9.25900 4.56600 33.82600
H  10.45700 4.27500 34.85200
N  7.60100 4.83100 26.76500
C  6.88200 5.59800 27.58600
C  6.16500 6.63800 26.93100
C  6.48400 6.46600 25.55600
C  7.44500 5.30800 25.48700
C  5.17600 7.73200 27.57500
C  6.13200 7.50200 24.40700
O  6.59500 7.29300 23.29100
C  5.25000 8.63400 24.68800
N  8.92400 2.60100 25.16500
C  8.51700 3.40900 24.12900
C  8.83300 2.92700 22.73700
C  9.65900 1.62600 23.11300
C  9.58800 1.53300 24.62500
C  7.62600 2.70400 21.88400
C  11.12000 1.66300 22.65600
C  12.03900 2.71200 23.29300
N  10.00700 1.63500 27.63600
C  10.59500 0.68200 26.83800
C  11.46100 -0.11000 27.69300
C  11.28600 0.35700 28.98000
C  10.37000 1.39800 28.87900
C  12.38400 -1.28800 27.32000
C  11.66100 0.25500 30.35800
O  12.48100 -0.46100 30.88900
C  10.86100 1.28700 31.16300
C  10.12600 0.56400 32.22000
O  9.01000 0.00700 32.00900
O  10.76100 0.64100 33.44400
C  9.84600 0.09000 34.45500
H  6.09000 5.93700 29.60000
H  7.57000 5.12600 23.46300
H  10.87800 -0.20000 24.86900
H  8.24200 2.50400 32.31100
H  6.97500 5.02500 31.71300
H  5.34200 2.95200 30.53700
H  5.06900 3.90800 32.11000
H  5.90000 2.28300 31.97500
H  9.23100 5.25900 31.78600
H  10.41000 3.93600 32.17700
H  8.47200 3.84000 34.03100
H  8.97900 5.60400 34.00300
H  5.71600 8.67900 27.56100
H  4.97100 7.50500 28.62100
H  4.22900 7.81100 27.04100
H  4.23000 8.38400 24.97900
H  5.11600 9.19300 23.76200
H  5.65800 9.43200 25.30800
H  9.41100 3.75800 22.33300
H  9.21000 0.70400 22.74300
H  6.75100 3.04400 22.43800
H  7.47100 1.64400 21.68600
H  7.67900 3.19500 20.91200
H  11.10100 1.74200 21.56900
H  11.49600 0.64900 22.78700
H  12.62000 3.13800 22.47600
H  12.70900 2.21400 23.99400
H  11.43500 3.40100 23.88400
H  12.83000 -1.09900 26.34400
H  11.70700 -2.12400 27.14600
H  12.99300 -1.55600 28.18300
H  11.54800 2.00600 31.61000
H  9.03200 0.79800 34.61700
H  10.33500 0.05400 35.42800
H  9.41100 -0.87100 34.17900
Mg 41.35200 40.99400 26.89000
C  40.71300 43.28700 29.57100
C  42.30500 38.79700 29.39200
C  42.08100 38.92700 24.56000
C  40.85900 43.67300 24.60000
N  41.45100 41.02800 29.20800
C  41.11400 42.01500 30.05700
C  41.04200 41.55000 31.51100
C  41.91900 40.29400 31.43400
C  41.93800 40.00400 29.89500
C  43.44000 40.56600 32.00400
C  39.63300 41.38400 32.13700
C  39.25600 42.36500 33.30700
H  38.48800 41.77900 34.51200
N  41.95700 39.09000 27.00600
C  42.26700 38.40200 28.14000
C  42.67800 37.03200 27.76300
C  42.68900 37.03800 26.31300
C  42.15100 38.36900 25.87300
C  42.97200 35.89200 28.70300
C  43.07500 35.92900 25.36700
O  42.91300 35.96800 24.17000
C  43.60300 34.64600 25.89600
N  41.64700 41.31500 24.84200
C  41.77400 40.17700 24.10700
C  41.73500 40.52500 22.60700
C  41.22700 41.96600 22.67600
C  41.26600 42.34700 24.10800
C  43.07300 40.30800 21.96500
C  39.90200 42.31400 21.98700
C  38.63400 41.74200 22.63100
N  40.75900 42.99700 26.96900
C  40.70600 43.99300 26.01200
C  40.33300 45.26300 26.58700
C  40.31500 44.98000 27.99500
C  40.61600 43.59600 28.14500
C  40.02400 46.56800 25.85200
C  40.07400 45.69700 29.25600
O  39.92000 46.92000 29.41500
C  40.30400 44.57400 30.34400
C  41.36600 45.09900 31.31600
O  42.56100 44.93700 31.19000
O  40.82000 45.75500 32.38800
C  41.69600 46.41300 33.43400
H  42.66800 38.09300 30.14400
H  42.29800 38.18800 23.78600
H  40.65700 44.43500 23.84500
H  41.63000 42.30100 32.04000
H  41.42400 39.42800 31.87300
H  44.14300 40.62200 31.17300
H  43.64500 39.89400 32.83700
H  43.52600 41.54400 32.47700
H  39.50500 40.37500 32.53000
H  38.88600 41.62500 31.38100
H  38.69000 43.19300 32.87800
H  40.15600 42.80300 33.73700
H  42.28400 35.05500 28.58200
H  42.91100 36.24300 29.73300
H  43.95900 35.50300 28.45300
H  42.79300 34.23000 26.49500
H  44.51500 34.76100 26.48200
H  43.66700 34.02400 25.00300
H  41.05000 39.83100 22.12000
H  41.92600 42.63800 22.17700
H  43.13600 39.36200 21.42600
H  43.83000 40.26700 22.74800
H  43.31500 41.05400 21.20800
H  39.92900 41.80700 21.02200
H  39.80200 43.39500 21.88300
H  38.87500 41.10000 23.47900
H  37.97600 41.24300 21.91900
H  38.13500 42.62200 23.03700
H  39.62400 47.29700 26.55700
H  39.23700 46.40600 25.11600
H  40.88900 47.02800 25.37300
H  39.36400 44.47500 30.88600
H  42.76300 46.30800 33.23300
H  41.55500 45.86200 34.36400
H  41.42100 47.44500 33.65100

