158

Mg 24.84800 -6.95200 48.06500
C  27.47300 -4.90400 46.80500
C  22.79200 -5.65900 45.48700
C  22.53800 -9.30700 48.83100
C  27.20200 -8.60300 49.78400
N  25.14900 -5.53100 46.27000
C  26.29900 -4.85300 45.98300
C  26.07800 -3.98300 44.77300
C  24.55000 -4.11600 44.41500
C  24.11000 -5.11600 45.46400
C  23.74600 -2.76100 44.33000
C  27.11500 -4.40700 43.59100
C  27.88700 -3.31000 42.92700
H  27.70100 -2.99100 41.45600
N  22.92700 -7.32100 47.40500
C  22.20400 -6.65600 46.39800
C  20.90200 -7.21100 46.28300
C  20.80400 -8.33900 47.18400
C  22.09300 -8.34500 47.92000
C  19.89600 -6.66100 45.35000
C  19.69400 -9.31600 47.30900
O  18.81800 -9.31200 46.49100
C  19.55100 -10.33000 48.38300
N  24.91500 -8.71000 49.10000
C  23.76400 -9.46700 49.38300
C  24.08700 -10.61500 50.28500
C  25.56400 -10.43700 50.68900
C  25.96100 -9.19400 49.82800
C  23.07900 -10.84000 51.45400
C  26.35400 -11.72200 50.27000
C  27.23200 -12.33900 51.35800
N  26.88400 -6.72600 48.47600
C  27.70300 -7.49500 49.17800
C  28.96900 -6.87000 49.30300
C  28.92600 -5.82600 48.41800
C  27.65300 -5.90600 47.74600
C  30.21900 -7.34100 50.03200
C  29.60400 -4.68400 47.88200
O  30.67900 -4.28800 48.28000
C  28.79300 -4.03900 46.70200
C  28.54500 -2.63400 46.91100
O  28.10000 -2.15100 47.96900
O  28.93600 -1.91500 45.81800
C  28.94200 -0.47200 45.90100
H  22.22800 -5.33000 44.61200
H  21.79900 -10.06800 49.09300
H  27.81500 -9.21500 50.44800
H  26.24700 -2.99100 45.19200
H  24.51900 -4.61900 43.44900
H  24.40100 -1.89200 44.39100
H  22.99400 -2.79900 45.11900
H  23.30500 -2.70700 43.33500
H  26.47200 -4.87000 42.84300
H  27.77300 -5.19300 43.96100
H  28.92600 -3.61400 43.05600
H  27.78900 -2.36400 43.46000
H  19.95300 -7.07900 44.34500
H  20.03400 -5.58000 45.36500
H  18.86200 -6.77300 45.67400
H  20.19000 -11.16900 48.11000
H  18.59800 -10.80300 48.14800
H  19.68800 -9.94800 49.39500
H  23.88300 -11.54700 49.75800
H  25.63000 -10.29600 51.76800
H  22.36700 -11.65800 51.34400
H  22.42000 -9.98100 51.58700
H  23.60900 -10.95500 52.39900
H  27.01500 -11.60200 49.41100
H  25.64100 -12.50700 50.01900
H  28.17800 -12.60900 50.88800
H  26.75900 -13.14300 51.92100
H  27.51000 -11.54100 52.04700
H  30.93600 -7.77800 49.33800
H  30.23000 -8.12600 50.78800
H  30.69900 -6.41300 50.34200
H  29.31900 -4.26500 45.77400
H  29.46800 0.04000 45.09600
H  29.25700 -0.14800 46.89200
H  27.90200 -0.15300 45.83100
Mg -1.30900 34.53600 26.71100
C  -3.02000 32.75700 29.31600
C  -0.29400 36.73200 28.95800
C  -0.26800 36.39200 24.24700
C  -2.94900 32.32400 24.45900
N  -1.75300 34.71100 28.91200
C  -2.31100 33.82400 29.80600
C  -2.09400 34.19900 31.31600
C  -1.27300 35.58700 31.05100
C  -1.00400 35.68700 29.56200
C  -1.93600 36.91300 31.54200
C  -1.33300 33.11900 32.12000
C  -2.17200 32.49300 33.28700
H  -1.43700 32.24200 34.63600
N  -0.30500 36.28500 26.58800
C  0.05700 37.05200 27.64400
C  0.88800 38.12800 27.21400
C  0.99000 38.03600 25.78700
C  0.12200 36.88200 25.46100
C  1.53800 39.20800 28.10600
C  1.70300 38.86500 24.81500
O  1.72200 38.73000 23.59600
C  2.62400 39.95700 25.21500
N  -1.61800 34.33400 24.65000
C  -0.98400 35.21000 23.85700
C  -1.12600 34.80200 22.34300
C  -1.80900 33.38100 22.42300
C  -2.15900 33.33100 23.90900
C  -1.89300 35.85400 21.39800
C  -1.01100 32.14900 21.87100
C  0.36600 32.02300 22.50100
N  -2.68100 32.79500 26.84200
C  -3.25600 32.08600 25.85000
C  -4.20600 31.08100 26.42100
C  -4.06100 31.27700 27.82400
C  -3.11900 32.28700 28.02200
C  -5.04600 29.98500 25.77200
C  -4.48600 30.80900 29.09200
O  -5.28100 29.91700 29.46900
C  -3.93200 31.76000 30.14600
C  -4.98000 32.36700 30.95400
O  -5.62400 33.40400 30.62600
O  -5.12900 31.70600 32.17800
C  -5.69100 32.47900 33.24400
H  0.14900 37.45400 29.64600
H  0.12100 36.94300 23.38900
H  -3.19200 31.43700 23.87100
H  -3.05900 34.41700 31.77400
H  -0.29600 35.51400 31.53000
H  -1.35400 37.41500 32.31500
H  -2.87900 36.53700 31.93700
H  -2.15800 37.59200 30.71900
H  -0.47700 33.61700 32.57600
H  -0.83500 32.41800 31.45000
H  -2.55800 31.51600 32.99500
H  -2.99700 33.14600 33.57300
H  1.07000 40.13900 27.78700
H  2.61100 39.24400 27.91900
H  1.37800 39.00200 29.16500
H  3.09700 40.23800 24.27400
H  3.36500 39.52500 25.88800
H  2.14200 40.70200 25.84800
H  -0.11800 34.64700 21.95900
H  -2.74500 33.16300 21.90900
H  -1.18000 36.26500 20.68300
H  -2.26900 36.73600 21.91600
H  -2.79800 35.46700 20.92800
H  -0.99000 32.19200 20.78200
H  -1.50300 31.18300 21.98300
H  1.17000 32.56000 21.99700
H  0.71200 30.99400 22.59000
H  0.21900 32.36000 23.52700
H  -5.98200 30.08400 26.32200
H  -4.67000 28.97600 25.94200
H  -5.15300 30.16200 24.70200
H  -3.29000 31.23600 30.85400
H  -6.21000 31.79300 33.91300
H  -6.46100 33.19100 32.94700
H  -5.01100 33.06800 33.86100

