158

Mg 24.28400 -6.43300 47.47100
C  26.96700 -4.37900 46.55400
C  22.26200 -4.90700 45.14100
C  22.03200 -8.73900 48.06700
C  26.67500 -8.34100 49.38100
N  24.66600 -4.89100 46.02500
C  25.80600 -4.12500 45.83300
C  25.54500 -3.15900 44.59700
C  23.97400 -3.13400 44.51200
C  23.53100 -4.42000 45.29000
C  23.37500 -1.90800 45.15000
C  26.33300 -3.73100 43.34800
C  26.76500 -2.60100 42.47700
H  25.99600 -2.36100 41.20300
N  22.33000 -6.71300 46.76300
C  21.65300 -5.98300 45.85200
C  20.27800 -6.38100 45.80100
C  20.12800 -7.59400 46.70800
C  21.50900 -7.77400 47.18500
C  19.14900 -5.63300 45.06500
C  18.92200 -8.44700 46.86600
O  17.94200 -8.18600 46.21900
C  18.88500 -9.53200 47.79700
N  24.34400 -8.32000 48.43500
C  23.25800 -8.96700 48.67800
C  23.47000 -10.26100 49.61700
C  24.96400 -10.02600 50.18400
C  25.37300 -8.84900 49.24400
C  22.34500 -10.54500 50.65400
C  25.79700 -11.28700 50.36100
C  26.60500 -11.73500 49.14600
N  26.33500 -6.36700 48.04000
C  27.15400 -7.19900 48.77900
C  28.53500 -6.69900 48.72900
C  28.45200 -5.52300 47.97600
C  27.13900 -5.45500 47.47700
C  29.65900 -7.29800 49.49100
C  29.23300 -4.44100 47.50900
O  30.42800 -4.17900 47.71300
C  28.28300 -3.59200 46.50700
C  28.08800 -2.22000 46.93600
O  27.37400 -1.81100 47.86100
O  28.68300 -1.42500 45.98100
C  28.03100 -0.14300 45.91000
H  21.74200 -4.20400 44.48800
H  21.36900 -9.54400 48.39000
H  27.36200 -8.87400 50.04100
H  25.99800 -2.20400 44.86300
H  23.65400 -3.27400 43.48000
H  24.00700 -1.51700 45.94800
H  22.36300 -1.93700 45.55300
H  23.32000 -1.20500 44.31800
H  25.67600 -4.40800 42.80200
H  27.24000 -4.25800 43.64300
H  27.74900 -2.92900 42.14300
H  26.99000 -1.68900 43.02900
H  18.60500 -6.25700 44.35600
H  19.45900 -4.72200 44.55400
H  18.36300 -5.28300 45.73500
H  19.22700 -9.24900 48.79300
H  19.48200 -10.40800 47.54700
H  17.83800 -9.82400 47.87800
H  23.35900 -11.10100 48.93100
H  24.81800 -9.69800 51.21300
H  22.70900 -10.71300 51.66700
H  21.85000 -11.50900 50.53900
H  21.59800 -9.75100 50.68600
H  25.14600 -12.12500 50.60900
H  26.34600 -11.08600 51.28100
H  26.25200 -11.19600 48.26700
H  26.36600 -12.76100 48.86600
H  27.66600 -11.49800 49.22400
H  30.62200 -6.85400 49.23900
H  29.70500 -8.38200 49.39100
H  29.34600 -7.10900 50.51800
H  28.67200 -3.59300 45.48900
H  28.39800 0.42500 46.76400
H  26.95000 -0.21100 45.78800
H  28.32600 0.30900 44.96300
Mg -11.07400 40.51800 40.92600
C  -10.11700 37.14600 40.13500
C  -8.02800 41.46800 39.95400
C  -12.35000 43.59400 40.93900
C  -14.35700 39.16500 41.42300
N  -9.35100 39.35100 40.07200
C  -9.14700 38.03700 39.84500
C  -7.76400 37.74200 39.26500
C  -7.03200 39.11900 39.48400
C  -8.15400 40.03800 39.95200
C  -5.80600 39.17100 40.47800
C  -7.70700 37.26300 37.81800
C  -7.15200 35.87200 37.55800
H  -6.31500 35.78900 36.24600
N  -10.24100 42.38000 40.59900
C  -8.97500 42.51900 40.15900
C  -8.66400 43.96400 40.17000
C  -9.98600 44.59900 40.33600
C  -10.97100 43.50200 40.66400
C  -7.28000 44.59400 39.83200
C  -10.23400 46.11100 40.18000
O  -9.27500 46.71300 39.78100
C  -11.54300 46.76300 40.23200
N  -12.97900 41.22200 41.21100
C  -13.22500 42.59800 41.34800
C  -14.70800 42.91300 41.65400
C  -15.29000 41.45900 41.83800
C  -14.16900 40.54800 41.36800
C  -14.82000 43.83300 42.92000
C  -16.67700 41.27600 41.04500
C  -17.86600 40.74300 41.87900
N  -12.01400 38.56800 41.00000
C  -13.34500 38.17700 41.22400
C  -13.47600 36.74000 41.21600
C  -12.19300 36.30200 40.79700
C  -11.38100 37.41300 40.67400
C  -14.80900 35.92700 41.48500
C  -11.42400 35.15800 40.49000
O  -11.71200 33.95300 40.53000
C  -10.10600 35.68500 40.00700
C  -9.11400 34.86400 40.96000
O  -8.85700 35.03400 42.14400
O  -8.59400 33.82600 40.19200
C  -7.84600 32.86300 40.95600
H  -6.97400 41.72200 39.82200
H  -12.92200 44.52400 40.92900
H  -15.38300 38.87500 41.65800
H  -7.36100 37.02900 39.98400
H  -6.77100 39.40200 38.46400
H  -5.96000 39.89200 41.28000
H  -4.87300 39.46900 40.00000
H  -5.61700 38.19100 40.91800
H  -7.16200 37.97400 37.19700
H  -8.75000 37.26200 37.50200
H  -7.88300 35.07300 37.43800
H  -6.44000 35.65500 38.35400
H  -7.27700 44.93100 38.79600
H  -6.47800 43.89500 40.06500
H  -7.29300 45.53000 40.39100
H  -12.02500 46.48400 41.17000
H  -12.17300 46.74100 39.34300
H  -11.26200 47.79200 40.45800
H  -14.97400 43.39400 40.71200
H  -15.40000 41.07900 42.85300
H  -15.11200 43.36000 43.85700
H  -15.42900 44.72100 42.75100
H  -13.83100 44.26900 43.06400
H  -16.50500 40.61900 40.19300
H  -16.93900 42.20100 40.53100
H  -17.61200 40.17100 42.77100
H  -18.47700 40.19500 41.16100
H  -18.55000 41.54600 42.15200
H  -14.59600 34.91200 41.81900
H  -15.26800 35.65200 40.53600
H  -15.53800 36.40500 42.13900
H  -10.00500 35.36800 38.96900
H  -8.41900 32.57200 41.83600
H  -6.87800 33.25400 41.27000
H  -7.64500 32.00800 40.31000

