158

Mg 17.15700 -1.77900 27.69800
C  16.33600 0.18500 30.42600
C  19.04200 -3.79500 29.84700
C  18.35900 -3.46500 25.07300
C  15.81900 0.68600 25.56400
N  17.66500 -1.77000 29.89400
C  17.07900 -0.94400 30.82500
C  17.57900 -1.34200 32.20400
C  18.56000 -2.52200 31.97300
C  18.39600 -2.72800 30.46000
C  20.07400 -2.17400 32.27000
C  16.42500 -1.65100 33.19200
C  16.42100 -0.77600 34.49000
H  17.78000 -0.48000 35.18700
N  18.34300 -3.46800 27.52700
C  18.97300 -4.23800 28.49000
C  19.50700 -5.47500 27.86000
C  19.37800 -5.28400 26.44400
C  18.62400 -4.05600 26.34700
C  19.85300 -6.67100 28.67700
C  19.88800 -6.16400 25.33100
O  19.60500 -6.01500 24.12600
C  20.71700 -7.32900 25.68200
N  16.97000 -1.51300 25.60000
C  17.71900 -2.25600 24.82500
C  17.66700 -1.64000 23.40900
C  16.52600 -0.51700 23.51400
C  16.37700 -0.44300 24.98900
C  19.11600 -1.04100 22.87400
C  15.16100 -1.00100 22.93200
C  14.21100 -0.05900 22.25000
N  16.16800 0.03100 27.89700
C  15.66000 0.91700 26.97700
C  14.93800 1.98800 27.68100
C  15.24400 1.76800 29.02800
C  16.00500 0.54600 29.12600
C  14.22900 3.10300 27.11300
C  15.05200 2.23000 30.34600
O  14.41100 3.17900 30.75900
C  15.87300 1.29000 31.33800
C  16.90100 2.10600 32.05500
O  17.99500 2.39200 31.68400
O  16.42300 2.62100 33.25500
C  17.24500 3.49700 34.09700
H  19.56800 -4.38500 30.60100
H  18.95400 -3.73800 24.19900
H  15.40000 1.42400 24.87700
H  18.06800 -0.49300 32.68200
H  18.32600 -3.44200 32.50900
H  20.35000 -1.23700 32.75500
H  20.76800 -2.20900 31.43000
H  20.39300 -2.95900 32.95600
H  16.41700 -2.72700 33.36500
H  15.50500 -1.48200 32.63200
H  15.94700 -1.27200 35.33700
H  15.76100 0.08700 34.40100
H  19.39300 -6.71600 29.66500
H  20.93300 -6.53200 28.64700
H  19.72300 -7.66300 28.24400
H  21.54900 -7.07800 26.34100
H  21.05000 -7.77200 24.74400
H  20.10800 -8.11800 26.12500
H  17.35800 -2.44600 22.74300
H  16.78400 0.42100 23.02200
H  19.77000 -1.04900 23.74600
H  19.08200 -0.02400 22.48400
H  19.71900 -1.61700 22.17200
H  14.47400 -1.52000 23.60100
H  15.45000 -1.66000 22.11400
H  13.23200 -0.15700 22.71900
H  14.13200 -0.22400 21.17600
H  14.55400 0.95600 22.44900
H  13.49600 2.65600 26.44300
H  14.82000 3.83800 26.56600
H  13.71200 3.62300 27.91900
H  15.17500 0.76200 31.98800
H  17.74900 2.93800 34.88500
H  16.41900 4.12300 34.43300
H  17.91100 4.05900 33.44100
Mg -9.14400 18.72700 43.00900
C  -5.58300 18.04400 43.22000
C  -8.35600 21.85400 42.10700
C  -12.39100 19.11000 42.15900
C  -9.69800 15.22400 43.29100
N  -7.16400 19.77500 42.89100
C  -5.83200 19.39500 42.96500
C  -4.79900 20.45000 42.60300
C  -5.72000 21.71100 42.44000
C  -7.20500 21.09500 42.57700
C  -5.55900 22.89200 43.49500
C  -3.85100 20.07800 41.36900
C  -4.47700 19.35700 40.10900
H  -3.96700 19.89800 38.70500
N  -10.28400 20.36600 42.28600
C  -9.74500 21.57500 41.95100
C  -10.85300 22.43300 41.45200
C  -12.06700 21.72900 41.68200
C  -11.64100 20.31900 42.04100
C  -10.63700 23.81500 40.97500
C  -13.42700 22.25200 41.39000
O  -13.56700 23.41100 41.07800
C  -14.60400 21.39500 41.46500
N  -10.78200 17.34100 42.79300
C  -12.04800 17.78300 42.39700
C  -13.06500 16.64600 42.39800
C  -12.17100 15.41500 42.74000
C  -10.84400 16.03700 43.05800
C  -14.35900 16.86800 43.16100
C  -11.97800 14.42300 41.53400
C  -12.60700 13.05200 41.77200
N  -7.92200 16.92400 43.10000
C  -8.31600 15.63800 43.23600
C  -7.15400 14.80100 43.39400
C  -6.09800 15.69800 43.42000
C  -6.58200 16.98700 43.25300
C  -7.16700 13.26200 43.53000
C  -4.73200 15.74300 43.64600
O  -3.89000 14.85600 43.96400
C  -4.19100 17.23800 43.49400
C  -3.35500 17.75100 44.63700
O  -2.15300 17.84400 44.52100
O  -4.07200 17.90400 45.78900
C  -3.29100 18.30300 46.83100
H  -8.13400 22.90900 41.93600
H  -13.46100 19.17700 41.95400
H  -9.85800 14.14400 43.25600
H  -4.07500 20.53800 43.41300
H  -5.53400 22.20600 41.48700
H  -6.44400 22.91600 44.12900
H  -5.52000 23.83400 42.94900
H  -4.60100 22.87700 44.01600
H  -2.97000 19.50400 41.65600
H  -3.55700 21.07300 41.03700
H  -5.56300 19.27100 40.09000
H  -4.24000 18.29700 40.02100
H  -11.00500 24.05300 39.97700
H  -9.57100 23.99100 41.11800
H  -11.12700 24.57400 41.58500
H  -14.54800 20.75800 42.34800
H  -14.65300 20.66600 40.65600
H  -15.57700 21.88500 41.48800
H  -13.44100 16.60400 41.37500
H  -12.40300 14.82300 43.62500
H  -14.49700 15.99600 43.80000
H  -15.16100 16.92500 42.42500
H  -14.57500 17.77900 43.71900
H  -10.92100 14.26400 41.32100
H  -12.39500 14.83400 40.61500
H  -13.50300 12.90100 41.17000
H  -12.93800 13.02200 42.81000
H  -11.98300 12.17500 41.59900
H  -6.42600 13.07800 44.30800
H  -6.87000 12.70800 42.64000
H  -8.15000 12.86900 43.79000
H  -3.43000 17.29100 42.71600
H  -2.46800 18.96800 46.56900
H  -2.80600 17.44200 47.29300
H  -3.78500 18.67100 47.73000

