158

Mg 0.41000 7.88200 26.02000
C  0.90700 9.82500 28.99400
C  0.30000 5.10400 27.98900
C  0.14700 6.27100 23.24200
C  0.29700 11.00500 24.26800
N  0.51000 7.53800 28.30300
C  0.76700 8.46400 29.30300
C  0.76400 7.75100 30.65400
C  0.66600 6.24600 30.28500
C  0.48400 6.28200 28.77300
C  1.76500 5.30700 30.85000
C  -0.34400 8.24300 31.68200
C  0.16800 8.65600 33.13500
H  -0.55600 8.09200 34.42500
N  0.42900 6.01800 25.67700
C  0.30400 4.96800 26.57500
C  0.20600 3.69200 25.90200
C  0.11000 4.06700 24.48400
C  0.23700 5.49000 24.40300
C  0.10100 2.39100 26.60600
C  0.08200 3.08500 23.24000
O  0.24600 3.42000 22.09800
C  0.12400 1.60300 23.55200
N  0.50400 8.66600 23.96300
C  0.19500 7.68900 23.01400
C  0.04300 8.30200 21.58800
C  -0.21200 9.82600 21.95900
C  0.18200 9.85800 23.50300
C  1.34200 8.03000 20.78800
C  -1.66800 10.32400 21.75600
C  -1.77200 11.57600 20.87000
N  0.60800 9.94800 26.46600
C  0.58700 11.12300 25.65800
C  0.84000 12.32400 26.42300
C  1.01400 11.82100 27.68100
C  0.83400 10.41300 27.68900
C  0.90500 13.63100 25.85200
C  1.31300 12.19100 29.04500
O  1.56800 13.28000 29.55500
C  1.16000 10.94800 29.86100
C  2.27900 10.76600 30.74400
O  3.35300 10.17900 30.54000
O  1.92600 11.34000 31.97300
C  2.84800 10.97600 33.06800
H  0.16400 4.25200 28.65800
H  -0.08700 5.65000 22.37400
H  0.11100 11.90200 23.67300
H  1.75300 7.84700 31.10100
H  -0.16700 5.71500 30.74500
H  2.34000 5.81300 31.62600
H  2.51600 5.27400 30.06100
H  1.46400 4.30700 31.16300
H  -1.05600 7.42200 31.76300
H  -1.02200 8.96900 31.23400
H  0.04800 9.71900 32.92600
H  1.23200 8.46500 33.27900
H  -0.92500 2.06200 26.43500
H  0.37100 2.44800 27.66000
H  0.71800 1.65400 26.09200
H  0.22600 1.09900 22.59200
H  -0.72800 1.32700 24.17400
H  1.12000 1.45900 23.97300
H  -0.81200 7.85300 21.08300
H  0.50800 10.53500 21.55000
H  1.80800 8.96800 20.48700
H  0.96300 7.43000 19.96100
H  2.07400 7.55700 21.44400
H  -2.26600 10.51500 22.64600
H  -2.29700 9.58300 21.26200
H  -0.89000 11.62900 20.23200
H  -1.78700 12.45300 21.51700
H  -2.63300 11.39600 20.22600
H  0.58200 13.68100 24.81200
H  1.93200 13.98800 25.93700
H  0.17500 14.29300 26.31700
H  0.25700 11.17200 30.42900
H  2.23400 10.82500 33.95500
H  3.67300 11.68600 33.13600
H  3.26800 9.97400 32.98200
Mg 24.50200 -4.99800 46.10700
C  26.41900 -2.74900 44.23600
C  21.96100 -4.37000 43.99200
C  23.05500 -7.75100 47.38600
C  27.48900 -5.74200 47.97000
N  24.27200 -3.79900 44.23800
C  25.12400 -2.85400 43.73100
C  24.59900 -2.11900 42.56200
C  23.04400 -2.41600 42.67800
C  23.02200 -3.57400 43.73700
C  22.09900 -1.24400 43.05400
C  25.34200 -2.59000 41.22000
C  25.98800 -1.50700 40.29600
H  25.81200 -1.56600 38.71400
N  22.68000 -5.93600 45.74900
C  21.74300 -5.40900 44.93000
C  20.51500 -6.13900 45.06200
C  20.83500 -7.24900 45.99200
C  22.28300 -7.01100 46.45400
C  19.25500 -5.81900 44.26500
C  19.93400 -8.38700 46.41500
O  18.86800 -8.48400 45.76500
C  20.24000 -9.50100 47.30900
N  25.17900 -6.58100 47.39100
C  24.37500 -7.52800 47.88100
C  25.04000 -8.25700 49.05800
C  26.34100 -7.53000 49.21800
C  26.37200 -6.57400 48.08300
C  24.28800 -8.57200 50.33400
C  27.59200 -8.43100 49.28100
C  27.50300 -9.64700 50.22200
N  26.49400 -4.43700 46.20000
C  27.56100 -4.71500 46.97700
C  28.72300 -3.86900 46.78800
C  28.27800 -3.09900 45.70400
C  26.94700 -3.47300 45.39600
C  29.98300 -3.82100 47.63600
C  28.67500 -2.00700 44.75900
O  29.73800 -1.46700 44.48500
C  27.56900 -1.77700 43.80100
C  27.07100 -0.36700 44.03100
O  26.24600 -0.03900 44.84000
O  27.50900 0.36200 43.01700
C  26.76200 1.67200 42.81400
H  21.13100 -4.11100 43.33200
H  22.59700 -8.58000 47.93000
H  28.41600 -5.89200 48.52700
H  24.77400 -1.09300 42.88500
H  22.73300 -2.76600 41.69400
H  22.61000 -0.28400 43.13000
H  21.79700 -1.45300 44.08100
H  21.35700 -1.19400 42.25800
H  24.58100 -3.08300 40.61500
H  26.18000 -3.22400 41.50900
H  27.07300 -1.57900 40.37000
H  25.78200 -0.53800 40.75100
H  18.47400 -6.57800 44.30500
H  19.40800 -6.02300 43.20600
H  18.91500 -4.78500 44.32100
H  21.13900 -10.03500 47.00100
H  19.43800 -10.23900 47.30800
H  20.37000 -9.08500 48.30800
H  25.35700 -9.20600 48.62600
H  26.39100 -6.88900 50.09800
H  24.66700 -8.27300 51.31100
H  24.13100 -9.62700 50.55400
H  23.31000 -8.11400 50.18800
H  28.42900 -7.81900 49.61700
H  27.79600 -8.76300 48.26300
H  28.05500 -9.52500 51.15400
H  27.89100 -10.46000 49.60800
H  26.50000 -9.94700 50.52500
H  30.64000 -4.65400 47.38300
H  29.66500 -3.97300 48.66700
H  30.42300 -2.84700 47.42600
H  27.90300 -1.88200 42.76900
H  25.70900 1.48200 43.02000
H  26.92300 1.99200 41.78500
H  26.93500 2.47900 43.52600

