158

Mg 48.00700 25.39400 28.15700
C  48.62600 27.73700 30.66000
C  47.12300 23.12500 30.41800
C  47.48100 23.35900 25.53500
C  49.58400 27.66300 25.98200
N  47.81100 25.46800 30.33400
C  48.00100 26.53400 31.18100
C  47.71800 26.06000 32.61400
C  47.43000 24.51700 32.50900
C  47.53700 24.29600 30.98100
C  48.39800 23.55400 33.37300
C  46.64700 26.91600 33.39300
C  47.12500 27.28000 34.83200
H  45.99800 27.60500 35.77300
N  47.32500 23.49400 28.03000
C  46.98000 22.69900 29.07900
C  46.47900 21.45800 28.55500
C  46.49600 21.52300 27.11600
C  47.15100 22.79400 26.78100
C  46.02300 20.33900 29.38200
C  45.99800 20.48600 26.04500
O  46.23900 20.58700 24.84300
C  45.03800 19.29000 26.40800
N  48.50700 25.43000 26.11000
C  48.18300 24.48700 25.20800
C  48.41300 24.89400 23.70800
C  48.99500 26.34900 23.88500
C  48.95800 26.53500 25.37300
C  49.34100 23.93000 22.88500
C  48.26700 27.44900 23.07100
C  49.11900 28.67600 22.67100
N  49.00000 27.30000 28.24000
C  49.73400 28.07200 27.29800
C  50.11900 29.34500 27.88900
C  49.76400 29.27800 29.19700
C  49.10000 28.05600 29.35200
C  50.83900 30.45500 27.14000
C  49.83600 29.99100 30.48500
O  50.27400 31.03500 30.88700
C  49.04100 29.00700 31.48400
C  50.07600 28.50300 32.47300
O  50.89500 27.64600 32.26000
O  50.11100 29.31900 33.63000
C  50.91300 28.71600 34.69600
H  47.03000 22.22500 31.02900
H  47.19700 22.86000 24.60600
H  50.09200 28.28300 25.24000
H  48.65900 26.16600 33.15500
H  46.39600 24.28400 32.76500
H  48.71700 23.97000 34.32900
H  49.29600 23.39400 32.77600
H  47.84000 22.62500 33.49000
H  45.66400 26.44800 33.33300
H  46.48500 27.86200 32.87700
H  47.67900 28.21700 34.79300
H  47.69600 26.51000 35.35200
H  46.40300 20.34900 30.40300
H  46.40100 19.41200 28.95100
H  44.93300 20.36500 29.39000
H  44.37600 19.65100 27.19500
H  45.70500 18.49500 26.74400
H  44.51000 18.93900 25.52100
H  47.45400 24.90600 23.18900
H  50.03700 26.38500 23.56700
H  49.71000 23.09200 23.47400
H  50.13200 24.46800 22.36200
H  48.72000 23.49800 22.10000
H  47.30100 27.77700 23.45500
H  47.90000 26.98600 22.15500
H  49.03700 28.77800 21.58900
H  50.17200 28.59800 22.94200
H  48.74200 29.51900 23.25100
H  51.41700 30.08600 26.29300
H  51.56100 30.86700 27.84500
H  50.20600 31.24800 26.74300
H  48.23600 29.61400 31.89700
H  50.38700 27.87000 35.13900
H  51.21700 29.45100 35.44100
H  51.86800 28.31800 34.35400
Mg -0.85500 33.66500 27.25800
C  -2.76200 32.14600 29.86800
C  0.60500 35.65700 29.64200
C  0.63600 35.42300 24.69700
C  -2.86700 31.97300 24.99600
N  -1.29700 33.99400 29.53800
C  -1.89300 33.16300 30.38900
C  -1.53100 33.54400 31.86100
C  -0.76400 34.87400 31.71500
C  -0.42800 34.91600 30.19000
C  -1.47200 36.19600 32.11300
C  -0.82800 32.41700 32.62800
C  -0.38400 32.69700 34.08800
H  -1.25100 31.97100 35.21100
N  0.49800 35.24300 27.22400
C  1.06100 35.89100 28.31400
C  2.07400 36.88900 27.86900
C  1.98400 36.87100 26.43400
C  1.01600 35.79400 26.02100
C  2.89300 37.75500 28.74100
C  2.61100 37.81200 25.43300
O  2.37700 37.72100 24.21700
C  3.52200 38.96800 25.88100
N  -1.15900 33.70800 25.15500
C  -0.34900 34.49700 24.29500
C  -0.71700 34.17100 22.82100
C  -1.74400 33.00100 22.98400
C  -2.01000 32.94500 24.48100
C  -1.22400 35.39400 22.07900
C  -1.23000 31.68400 22.41500
C  -0.00300 31.00600 22.90100
N  -2.38200 32.23300 27.35700
C  -3.20400 31.75000 26.36300
C  -4.13700 30.84300 26.88000
C  -3.95300 30.93400 28.28900
C  -2.95100 31.87500 28.53000
C  -5.16700 30.04700 26.09000
C  -4.31200 30.34500 29.58200
O  -5.07400 29.41300 29.79900
C  -3.59800 31.15200 30.69000
C  -4.66200 31.74500 31.54400
O  -5.56100 32.41200 31.10600
O  -4.42100 31.53300 32.88600
C  -5.37800 32.14700 33.78900
H  1.17100 36.25100 30.36300
H  1.15400 35.85100 23.83600
H  -3.56300 31.51500 24.29100
H  -2.46800 33.77400 32.36900
H  0.16000 34.81600 32.29000
H  -1.91500 36.64100 31.22200
H  -0.75100 36.91000 32.51300
H  -2.24400 36.00200 32.85800
H  0.11900 32.17100 32.14700
H  -1.45700 31.53100 32.54600
H  -0.49200 33.75800 34.31700
H  0.62700 32.38700 34.35500
H  3.92600 37.83300 28.40500
H  2.89100 37.38300 29.76600
H  2.49900 38.76800 28.66300
H  3.66700 39.65900 25.05100
H  4.47300 38.61700 26.28200
H  3.12600 39.53400 26.72400
H  0.11300 33.66900 22.32500
H  -2.71100 33.16800 22.51100
H  -0.92200 36.35800 22.48900
H  -2.30800 35.49200 22.14100
H  -0.86900 35.38600 21.04800
H  -1.02800 31.90500 21.36700
H  -2.09100 31.01700 22.45100
H  0.18200 31.47500 23.86700
H  0.87800 30.95200 22.26200
H  -0.48700 30.07600 23.19600
H  -4.63800 29.33500 25.45700
H  -5.59900 30.92200 25.60600
H  -5.80800 29.63100 26.86700
H  -3.02100 30.38400 31.20600
H  -4.85500 32.88900 34.39200
H  -5.71300 31.52800 34.62100
H  -6.26400 32.63100 33.37700

