158

Mg 9.41900 47.85500 26.41600
C  7.62200 48.00200 29.39300
C  12.16800 49.00400 28.09000
C  11.22300 47.68200 23.59400
C  6.45800 47.33900 24.74800
N  9.79600 48.36300 28.52000
C  8.88500 48.45900 29.54200
C  9.54600 49.00400 30.83300
C  10.86000 49.62400 30.24600
C  10.96700 48.92800 28.88600
C  10.81800 51.15700 30.14100
C  9.87000 47.74100 31.74400
C  9.48300 47.86200 33.18600
H  9.29300 46.54300 34.01000
N  11.43900 48.16700 25.92700
C  12.38000 48.56600 26.77800
C  13.64400 48.57800 26.14900
C  13.40500 48.25900 24.82400
C  12.01300 48.02100 24.69100
C  14.93600 48.94100 26.88800
C  14.35500 48.05600 23.69000
O  13.97800 47.86900 22.52900
C  15.87400 48.30500 23.86200
N  8.95100 47.80100 24.43000
C  9.83100 47.58100 23.40100
C  9.23500 47.32300 22.04800
C  7.71800 47.18700 22.41700
C  7.67600 47.35200 24.01000
C  9.62900 48.48100 21.04700
C  7.06100 45.95400 21.88000
C  5.72100 46.22000 21.27300
N  7.43300 47.75500 26.91300
C  6.34600 47.63300 26.10500
C  5.13400 47.56700 26.90900
C  5.59800 47.77900 28.22500
C  7.00100 47.78500 28.16800
C  3.74600 47.27800 26.44200
C  5.22300 47.87000 29.68400
O  4.08700 47.84900 30.17100
C  6.52100 47.89100 30.52100
C  6.60900 46.57500 31.24900
O  7.06100 45.57400 30.86500
O  6.01500 46.76300 32.52600
C  5.64600 45.56100 33.33800
H  12.95000 49.44500 28.71200
H  11.66700 47.45300 22.62300
H  5.56500 47.11900 24.15800
H  8.81100 49.66200 31.29700
H  11.73700 49.39000 30.84900
H  10.77200 51.48600 29.10300
H  11.67000 51.62000 30.63800
H  10.01100 51.53400 30.76900
H  10.95900 47.70800 31.71200
H  9.49800 46.83400 31.26700
H  8.61700 48.48700 33.40300
H  10.26600 48.48100 33.62400
H  14.85300 48.92000 27.97500
H  15.21700 49.92900 26.52300
H  15.85500 48.37200 26.74400
H  16.01400 49.30500 24.27300
H  16.31100 48.20200 22.86900
H  16.31200 47.54300 24.50600
H  9.56900 46.40000 21.57200
H  7.17500 48.03600 22.00100
H  8.88400 49.23600 20.79500
H  10.08500 48.05600 20.15300
H  10.53200 48.94100 21.44600
H  6.75400 45.24800 22.65200
H  7.70700 45.54900 21.10100
H  5.75600 46.46000 20.21000
H  5.33000 47.11200 21.76200
H  5.00300 45.42700 21.48300
H  3.07900 48.11600 26.64300
H  3.45600 46.46200 27.10400
H  3.69600 47.15000 25.36100
H  6.39900 48.78500 31.13200
H  4.57600 45.63400 33.53300
H  6.28300 45.39400 34.20600
H  5.65200 44.62700 32.77600
Mg -3.35400 34.74800 26.88600
C  -4.88400 33.02500 29.49800
C  -1.86500 36.78400 29.28300
C  -2.45200 36.97800 24.45400
C  -5.61500 33.20600 24.61000
N  -3.50000 34.98700 29.18000
C  -3.97600 33.96900 29.97300
C  -3.63400 34.26200 31.43500
C  -2.77600 35.54800 31.42000
C  -2.69200 35.87600 29.87900
C  -3.22400 36.68300 32.32000
C  -2.96500 33.00900 32.13400
C  -3.53900 32.68800 33.49000
H  -2.58500 33.12000 34.59700
N  -2.25800 36.47000 26.83800
C  -1.67400 37.11900 27.95500
C  -0.80900 38.21500 27.46600
C  -0.92800 38.20900 26.05100
C  -1.95300 37.22100 25.70300
C  0.00200 39.05700 28.41700
C  -0.15100 39.14800 25.03600
O  -0.21200 39.04200 23.81900
C  0.86100 40.03400 25.49400
N  -3.90200 35.01200 24.85200
C  -3.39500 35.99700 24.01700
C  -4.12900 36.02400 22.62500
C  -5.00300 34.69900 22.67100
C  -4.84100 34.25600 24.12100
C  -4.91700 37.39200 22.60300
C  -4.47000 33.63000 21.66300
C  -3.20700 32.69100 22.03500
N  -4.79100 33.19500 26.91300
C  -5.68800 32.70200 25.95000
C  -6.40700 31.63900 26.56100
C  -6.08900 31.72400 27.89300
C  -5.18700 32.74300 28.11700
C  -7.38300 30.73600 25.83500
C  -6.36600 31.09400 29.16800
O  -7.00600 30.13700 29.34700
C  -5.63700 31.91000 30.30100
C  -6.71900 32.51600 31.11300
O  -7.72800 33.09000 30.75700
O  -6.46200 32.24400 32.37300
C  -7.50200 32.48600 33.43700
H  -1.19200 37.30500 29.96700
H  -2.18600 37.73500 23.71300
H  -6.39300 32.82100 23.94800
H  -4.55700 34.45700 31.98100
H  -1.74100 35.30200 31.66000
H  -4.10100 36.33300 32.86400
H  -3.41700 37.63600 31.82900
H  -2.35900 36.80900 32.97200
H  -1.95000 33.35900 32.32300
H  -2.81900 32.08900 31.56700
H  -3.64200 31.60400 33.53900
H  -4.49100 33.21000 33.59000
H  1.06300 39.08500 28.17100
H  -0.00200 38.86200 29.49000
H  -0.28900 40.08500 28.20100
H  1.42200 40.39500 24.63100
H  1.63200 39.47800 26.02700
H  0.33700 40.73600 26.14300
H  -3.32600 36.05700 21.88900
H  -6.04700 34.98400 22.53800
H  -5.95000 37.19700 22.31700
H  -4.45800 38.07000 21.88300
H  -5.08800 37.88400 23.56100
H  -4.25800 34.21600 20.76900
H  -5.41100 33.11400 21.47500
H  -2.71600 33.07000 22.93200
H  -2.45700 32.67000 21.24500
H  -3.61500 31.71900 22.31300
H  -8.16300 30.41900 26.52700
H  -6.91900 29.82100 25.46700
H  -7.80400 31.27100 24.98400
H  -4.97400 31.35400 30.96300
H  -6.89200 32.57300 34.33600
H  -8.18000 31.64900 33.59900
H  -8.12900 33.35800 33.25000

