158

Mg 53.60100 24.41200 45.05700
C  51.08400 26.67700 44.28400
C  51.60100 21.85700 43.86800
C  56.30500 22.35800 45.20800
C  55.54300 27.01400 46.19400
N  51.60500 24.27600 44.10400
C  50.73600 25.36600 43.88700
C  49.47000 24.85500 43.26700
C  49.47300 23.32300 43.36800
C  50.95600 23.10100 43.82100
C  48.51900 22.78100 44.52100
C  49.22800 25.30400 41.82200
C  50.59200 25.42500 40.91600
H  51.45500 24.17800 40.60600
N  53.89400 22.32700 44.64600
C  52.93500 21.49000 44.28000
C  53.50600 20.18000 44.25500
C  54.84100 20.31500 44.72400
C  55.08600 21.70700 44.88500
C  52.73700 18.98300 43.81600
C  55.83400 19.11400 44.96400
O  55.49900 17.95500 44.83000
C  57.29300 19.43800 45.42400
N  55.72100 24.71500 45.45200
C  56.63100 23.68500 45.44900
C  58.02500 24.19700 45.73100
C  57.79300 25.72500 45.95700
C  56.24500 25.82000 45.88400
C  58.76800 23.37500 46.82000
C  58.37900 26.69200 44.90200
C  59.53200 27.50900 45.42000
N  53.41800 26.41200 45.27900
C  54.20500 27.32800 45.86400
C  53.53000 28.60200 45.99000
C  52.29400 28.41900 45.39100
C  52.29900 27.04000 44.94400
C  53.96400 29.94600 46.64800
C  51.03700 29.07300 45.04000
O  50.60800 30.18300 45.12300
C  50.27800 27.96500 44.25000
C  50.06700 28.47200 42.85700
O  50.92000 28.47200 42.01100
O  48.76700 28.84000 42.67200
C  48.27000 29.07200 41.30800
H  51.03300 20.93900 43.70200
H  57.21600 21.75900 45.14800
H  56.19500 27.77700 46.62300
H  48.81500 25.43800 43.91500
H  49.26300 22.88200 42.39400
H  48.80700 21.75600 44.75700
H  47.47400 22.71600 44.22000
H  48.64300 23.46900 45.35700
H  48.75300 26.28200 41.75000
H  48.58900 24.55600 41.35100
H  51.34500 26.17100 41.17300
H  50.22500 25.73200 39.93600
H  52.04500 19.34800 43.05700
H  52.21200 18.52600 44.65400
H  53.23400 18.20400 43.23800
H  57.74300 18.45500 45.56600
H  57.27900 20.03800 46.33400
H  57.85200 19.97000 44.65400
H  58.54300 24.00100 44.79200
H  58.12000 25.95500 46.97100
H  58.95500 23.98500 47.70400
H  59.62900 22.83600 46.42300
H  58.19800 22.50400 47.14300
H  57.64100 27.32100 44.40400
H  58.88200 26.16900 44.08800
H  59.34400 27.52100 46.49400
H  59.58100 28.50400 44.97800
H  60.45300 26.96900 45.20000
H  53.71800 30.72700 45.92800
H  54.96300 29.94800 47.08400
H  53.22800 30.09100 47.43900
H  49.36400 27.64800 44.75200
H  49.06300 29.53300 40.71800
H  47.46100 29.76800 41.53100
H  47.83500 28.17600 40.86700
Mg 47.00600 17.30800 28.95800
C  45.02800 16.99700 31.78500
C  49.34200 19.18300 30.90800
C  48.72900 18.21200 26.14200
C  44.51700 15.88000 27.02000
N  47.09600 18.10900 31.05300
C  46.26700 17.66600 32.03100
C  46.75300 18.19500 33.44300
C  47.98500 19.11300 33.08100
C  48.19100 18.80600 31.57900
C  47.92900 20.68900 33.38900
C  46.97800 16.98800 34.37900
C  46.78500 17.25200 35.88700
H  46.42300 18.67600 36.37900
N  48.85000 18.56900 28.58200
C  49.62000 19.17100 29.49700
C  50.63600 19.94900 28.78600
C  50.46300 19.68800 27.35900
C  49.33600 18.77800 27.29900
C  51.59400 20.84100 29.49800
C  51.24700 20.18100 26.13500
O  50.99100 19.87900 25.00500
C  52.22900 21.36000 26.33900
N  46.74500 17.05900 26.93900
C  47.62300 17.31800 25.98000
C  47.25300 16.75900 24.60200
C  46.02000 15.85200 24.96600
C  45.72800 16.26700 26.44300
C  46.98300 17.88600 23.57200
C  46.30300 14.25100 24.81300
C  45.64000 13.56900 23.64800
N  45.19300 16.39200 29.32900
C  44.24900 15.88400 28.47300
C  43.10500 15.47000 29.22900
C  43.38600 15.85500 30.53900
C  44.63000 16.45900 30.55900
C  41.90300 14.87500 28.71800
C  42.97300 15.84200 31.96000
O  41.93200 15.43500 32.49400
C  43.90400 16.79400 32.78200
C  43.09100 18.04800 33.05400
O  42.95400 18.96200 32.28500
O  42.65500 17.97600 34.33400
C  41.97500 19.22700 34.80000
H  50.14300 19.54600 31.55600
H  49.28200 18.48300 25.23900
H  43.78000 15.31300 26.44900
H  45.96800 18.80800 33.88500
H  48.82000 18.76700 33.69100
H  47.78700 21.20100 32.43800
H  48.87300 20.98200 33.85000
H  47.06900 21.00100 33.98100
H  47.96700 16.56200 34.20700
H  46.20300 16.24200 34.20200
H  47.76000 17.00000 36.30400
H  46.07100 16.61200 36.40600
H  51.26600 21.84300 29.22300
H  52.61300 20.76800 29.11800
H  51.59200 20.77900 30.58600
H  52.86700 21.02000 27.15600
H  51.69200 22.24600 26.67800
H  52.80100 21.50600 25.42300
H  48.11300 16.22100 24.20200
H  45.10000 16.02300 24.40800
H  47.00200 18.86300 24.05600
H  45.92600 17.88200 23.30700
H  47.70500 17.74300 22.76700
H  45.95600 13.68900 25.68000
H  47.36100 14.08800 24.60900
H  46.32200 13.36500 22.82200
H  44.71900 14.11600 23.44700
H  45.26800 12.60200 23.98800
H  41.57600 15.42600 27.83600
H  41.17600 14.93500 29.52800
H  41.96900 13.82400 28.43700
H  44.09700 16.04900 33.55500
H  41.19800 19.69900 34.19900
H  42.71800 20.00000 34.99400
H  41.52300 19.04200 35.77500

