158

Mg 35.23200 1.39600 29.38500
C  32.97600 2.26200 31.88600
C  37.85400 1.80800 31.52300
C  37.31800 0.99800 26.71500
C  32.56800 1.99500 27.09300
N  35.34500 2.05100 31.38300
C  34.29600 2.18300 32.27300
C  34.79700 2.31800 33.73100
C  36.34000 2.48900 33.46600
C  36.51100 2.03600 32.00200
C  36.91200 3.91500 33.82000
C  34.42500 1.07600 34.56400
C  34.06100 1.32000 36.06700
H  34.50500 2.62700 36.84300
N  37.28400 1.33000 29.17600
C  38.20100 1.49100 30.18000
C  39.55400 1.45300 29.66500
C  39.38100 1.34100 28.28300
C  37.94800 1.23800 27.99000
C  40.76100 1.80300 30.56500
C  40.53800 1.27400 27.22600
O  40.31800 1.16000 26.05800
C  41.99300 1.36900 27.63100
N  34.93400 1.36900 27.22200
C  36.00100 1.20700 26.31900
C  35.48100 1.29000 24.87300
C  33.98900 1.70400 25.00500
C  33.80800 1.72200 26.51000
C  36.28300 2.32900 23.95600
C  33.01400 0.75800 24.31800
C  32.98400 -0.65900 24.92700
N  33.16100 1.81200 29.43300
C  32.23100 2.02900 28.44100
C  30.93100 2.39800 29.03900
C  31.15900 2.40400 30.42400
C  32.53400 2.13800 30.59000
C  29.68300 2.90200 28.35700
C  30.57800 2.77200 31.65300
O  29.45600 3.21500 31.93200
C  31.70000 2.50100 32.71700
C  31.73700 3.83000 33.45900
O  32.07800 4.90500 32.98500
O  31.24300 3.67500 34.68800
C  31.27800 4.94200 35.44000
H  38.66800 1.99900 32.22500
H  38.08000 0.77700 25.96500
H  31.73900 2.40700 26.51400
H  34.37300 3.20200 34.20700
H  36.84000 1.74400 34.08600
H  36.05700 4.59100 33.78400
H  37.64500 4.30500 33.11400
H  37.35500 3.79600 34.80900
H  35.22600 0.33800 34.60500
H  33.49700 0.68500 34.14600
H  34.51000 0.42500 36.49800
H  32.98000 1.19900 36.13800
H  41.40800 2.28900 29.83500
H  41.26400 0.84900 30.72400
H  40.53900 2.19800 31.55600
H  42.24600 0.65300 28.41300
H  42.42100 2.34700 27.85500
H  42.56200 1.00700 26.77500
H  35.71900 0.31400 24.45100
H  33.94400 2.75000 24.70200
H  36.98100 2.00300 23.18500
H  36.94200 2.92400 24.58800
H  35.56900 2.94200 23.40700
H  33.33800 0.52600 23.30300
H  32.01500 1.19400 24.34800
H  32.85900 -1.37100 24.11100
H  31.99800 -0.81400 25.36600
H  33.79600 -0.96800 25.58500
H  29.88200 3.80200 27.77600
H  28.83800 3.16500 28.99300
H  29.42400 2.14200 27.62000
H  31.42100 1.71800 33.42200
H  30.50200 5.58000 35.01600
H  32.27000 5.39300 35.47500
H  31.04600 4.55800 36.43300
Mg 9.77700 47.00200 25.42000
C  7.48600 46.87500 27.97200
C  12.28600 47.70200 27.55900
C  11.83200 47.70100 22.70000
C  7.07600 46.75300 23.10500
N  9.81400 47.39500 27.56400
C  8.78000 47.16600 28.45000
C  9.36200 47.35100 29.89700
C  10.80100 47.82100 29.68500
C  10.99900 47.59500 28.16300
C  11.15300 49.22200 30.20900
C  9.13500 46.17400 30.93400
C  10.07800 46.16400 32.16800
H  9.33700 45.74200 33.42300
N  11.84500 47.56100 25.16000
C  12.70600 47.75200 26.16300
C  14.06900 47.86700 25.59300
C  13.95300 47.71600 24.18600
C  12.47000 47.70600 23.95000
C  15.31100 48.02100 26.41400
C  15.01100 47.61300 23.10500
O  14.66800 47.56300 21.91700
C  16.52900 47.41500 23.40700
N  9.50000 47.23700 23.13700
C  10.51900 47.44800 22.31800
C  10.08000 47.35600 20.88500
C  8.55400 46.99000 20.99500
C  8.34300 46.91700 22.53400
C  10.44800 48.58100 19.96000
C  8.02400 45.70600 20.26900
C  6.85400 45.83200 19.28000
N  7.68600 46.78800 25.48800
C  6.69600 46.74500 24.49700
C  5.36800 46.56800 25.06800
C  5.68100 46.63700 26.39800
C  7.07700 46.72100 26.64500
C  4.08900 46.29000 24.32300
C  5.11900 46.51500 27.74500
O  3.96100 46.28700 28.07700
C  6.24500 46.62300 28.73500
C  6.26400 45.43300 29.55400
O  7.10700 44.54900 29.46600
O  5.36300 45.52900 30.57500
C  5.45000 44.50300 31.69000
H  13.14600 47.74400 28.23100
H  12.57400 47.75500 21.90100
H  6.33600 46.42000 22.37500
H  8.80900 48.20700 30.28300
H  11.47600 47.08700 30.12600
H  11.84900 49.16300 31.04700
H  10.32200 49.70300 30.72300
H  11.55200 49.85100 29.41300
H  9.36600 45.31300 30.30700
H  8.12700 46.14100 31.34700
H  10.59800 47.12000 32.22400
H  10.82000 45.37800 32.03000
H  15.14500 47.90800 27.48600
H  15.72300 49.00900 26.20700
H  15.99000 47.20500 26.16600
H  16.42000 46.52300 24.02400
H  16.94800 48.29000 23.90400
H  16.95700 47.20300 22.42700
H  10.53800 46.51400 20.36500
H  7.95500 47.84500 20.67900
H  10.97400 48.22400 19.07500
H  10.99800 49.43500 20.35400
H  9.66000 49.05900 19.37800
H  7.86200 44.93200 21.01900
H  8.85000 45.30000 19.68500
H  6.72700 44.94900 18.65500
H  6.93500 46.72000 18.65200
H  5.93500 45.89600 19.86300
H  4.13400 46.38300 23.23800
H  3.35600 47.02700 24.65100
H  3.68100 45.31800 24.60200
H  6.15700 47.48500 29.39600
H  4.62000 44.53900 32.39600
H  6.44600 44.53000 32.13100
H  5.41400 43.51400 31.23300

