158

Mg 43.58500 4.33000 46.69600
C  41.73900 7.41000 46.65000
C  40.58800 2.65600 46.60300
C  45.22500 1.62800 45.83200
C  46.61200 6.23700 46.36300
N  41.49500 5.01500 46.62200
C  40.95200 6.27100 46.64300
C  39.39500 6.27500 46.68200
C  39.11300 4.72600 46.78200
C  40.48100 4.05000 46.71900
C  38.20100 4.15600 47.93900
C  38.69400 6.94100 45.44000
C  39.20700 6.55100 44.08500
H  40.00500 7.56100 43.24200
N  42.99800 2.32700 46.57400
C  41.71300 1.81700 46.47100
C  41.73400 0.41100 46.22000
C  43.06900 0.00500 46.13300
C  43.84900 1.31000 46.13100
C  40.49900 -0.45400 46.18900
C  43.57500 -1.38600 45.96700
O  42.76700 -2.36000 45.88200
C  45.05800 -1.61100 46.16400
N  45.60100 4.03200 46.23700
C  46.05000 2.75200 46.03600
C  47.49900 2.66100 45.78700
C  48.03600 3.97900 46.29400
C  46.73100 4.81600 46.32300
C  48.24500 1.40800 46.32500
C  49.16800 4.65100 45.41300
C  50.18800 5.40300 46.23400
N  44.16300 6.39600 46.48800
C  45.41300 7.00000 46.43800
C  45.20400 8.46700 46.39500
C  43.80100 8.64600 46.58400
C  43.19300 7.35100 46.57700
C  46.27500 9.51700 46.35800
C  42.79000 9.62700 46.86000
O  42.90300 10.85200 47.06200
C  41.42600 8.87800 46.85300
C  40.65800 9.07100 48.14900
O  41.01500 8.77400 49.25300
O  39.47500 9.71700 47.96100
C  38.53300 9.74600 49.07200
H  39.61100 2.17500 46.52900
H  45.82200 0.80400 45.43600
H  47.50300 6.84200 46.54400
H  39.16600 6.81900 47.59800
H  38.63900 4.35200 45.87400
H  38.68900 3.49800 48.65900
H  37.43000 3.54800 47.46600
H  37.71700 4.92600 48.53900
H  38.77500 8.02400 45.53100
H  37.63900 6.66800 45.47000
H  38.32000 6.36800 43.47900
H  39.77200 5.62600 44.20200
H  40.82400 -1.47600 46.38300
H  40.17300 -0.49400 45.14900
H  39.74000 -0.25800 46.94600
H  45.46800 -0.85000 46.82900
H  45.59000 -1.66800 45.21400
H  45.10900 -2.54800 46.71800
H  47.68900 2.68000 44.71300
H  48.29100 3.77800 47.33500
H  47.75800 0.97600 47.20000
H  49.21700 1.73300 46.69500
H  48.45300 0.64400 45.57500
H  48.70200 5.38200 44.75200
H  49.75000 3.94200 44.82400
H  51.15100 4.89200 46.25000
H  49.85900 5.46700 47.27200
H  50.40600 6.41800 45.90300
H  45.87900 10.43300 45.92000
H  47.11700 9.21400 45.73600
H  46.61100 9.72700 47.37300
H  40.74800 9.31700 46.12100
H  38.64600 10.66300 49.65000
H  38.48600 8.89700 49.75500
H  37.53700 9.80500 48.63200
Mg 49.33400 45.62600 43.32400
C  45.77900 45.68300 42.40200
C  49.36100 42.38300 42.57100
C  52.60300 45.92900 43.32200
C  49.00400 49.16100 43.64200
N  47.75300 44.24600 42.42900
C  46.35300 44.43400 42.27700
C  45.70300 43.11100 41.98800
C  46.81700 42.07100 42.25200
C  48.08900 42.89300 42.36200
C  46.46900 41.31600 43.59300
C  45.12200 43.00500 40.55100
C  46.01300 43.56800 39.37000
H  45.87400 42.86000 38.04000
N  50.84100 44.30200 43.04300
C  50.61600 42.98900 42.73900
C  51.86500 42.28500 42.79800
C  52.86000 43.25100 43.10000
C  52.14100 44.54800 43.20900
C  52.04300 40.72000 42.71800
C  54.36100 42.99800 43.27300
O  54.85600 41.86400 43.19300
C  55.31500 44.09400 43.56900
N  50.59900 47.34200 43.32400
C  51.91800 47.18400 43.38200
C  52.68000 48.49100 43.56600
C  51.52700 49.49500 43.67800
C  50.31700 48.63200 43.56700
C  53.47600 48.48600 44.87100
C  51.52700 50.63000 42.60900
C  52.17300 52.04200 42.84700
N  47.72800 47.12000 43.24300
C  47.76800 48.51500 43.37600
C  46.46100 49.10700 43.37900
C  45.70500 48.00900 42.91600
C  46.46800 46.85900 42.84900
C  45.93700 50.34900 43.69700
C  44.29800 47.60000 42.49500
O  43.28000 48.24200 42.46400
C  44.40500 46.11100 41.88300
C  43.26700 45.30700 42.46300
O  42.45300 44.71200 41.83300
O  43.22200 45.38100 43.84100
C  42.14300 44.58100 44.48700
H  49.37800 41.29300 42.51500
H  53.68500 45.91600 43.17500
H  48.93100 50.24300 43.77400
H  44.83700 42.99700 42.64000
H  46.97400 41.36900 41.43400
H  45.56600 41.66600 44.09400
H  47.27300 41.35500 44.32700
H  46.24400 40.30000 43.26800
H  44.13200 43.45500 40.47500
H  45.00600 41.96800 40.23600
H  47.06800 43.43300 39.60800
H  45.92200 44.65100 39.28500
H  51.22200 40.32600 42.11800
H  51.90100 40.32800 43.72500
H  53.07000 40.42400 42.50800
H  54.97600 44.66800 44.43200
H  55.41900 44.80700 42.75200
H  56.29700 43.70300 43.83600
H  53.31900 48.60900 42.69000
H  51.46700 49.86100 44.70200
H  54.51300 48.61100 44.56000
H  53.31400 47.52400 45.35800
H  53.10900 49.20300 45.60500
H  50.52800 50.98600 42.35700
H  51.92200 50.11500 41.73300
H  53.03300 52.33700 42.24500
H  52.66100 51.91500 43.81300
H  51.48000 52.88100 42.91200
H  45.30000 50.76500 42.91600
H  46.74200 51.07400 43.81700
H  45.36600 50.26300 44.62100
H  44.21000 46.17200 40.81200
H  42.28900 43.52000 44.28500
H  41.22200 45.02900 44.11400
H  42.24100 44.74400 45.56000

