158

Mg 35.30300 49.01000 25.93800
C  35.72100 47.02600 28.78200
C  34.03900 51.55000 28.00400
C  34.50300 50.77500 23.26000
C  36.48400 46.40900 24.05100
N  34.89200 49.23400 28.16100
C  35.27500 48.31200 29.10100
C  35.09900 48.89100 30.47700
C  34.35400 50.24600 30.21600
C  34.39300 50.41100 28.68000
C  32.92300 50.37100 30.89500
C  36.41700 49.11500 31.27300
C  36.34200 48.94800 32.80200
H  34.99400 48.92800 33.48100
N  34.45300 50.88300 25.62500
C  34.05900 51.80300 26.58600
C  33.83300 53.11000 26.03300
C  33.87800 52.92100 24.59800
C  34.30700 51.49100 24.43900
C  33.60700 54.41000 26.84400
C  33.70900 53.97600 23.53700
O  33.85900 53.70000 22.36800
C  33.31900 55.43500 23.93600
N  35.44700 48.68700 23.91700
C  34.93500 49.46400 23.00200
C  34.96500 48.83800 21.62700
C  35.74000 47.50500 21.87800
C  35.97100 47.57200 23.38100
C  33.63700 48.66700 20.85500
C  37.03000 47.26000 21.05900
C  38.32100 47.81300 21.68600
N  35.89600 47.03800 26.31600
C  36.39500 46.12000 25.44700
C  36.75400 44.94300 26.08600
C  36.55700 45.15300 27.46900
C  36.07600 46.49500 27.53000
C  37.28600 43.65400 25.38300
C  36.52900 44.67600 28.84000
O  36.79100 43.57500 29.37600
C  36.03000 45.93800 29.74800
C  34.85700 45.49200 30.53900
O  33.71400 45.40000 30.08800
O  35.25300 45.27900 31.86200
C  34.14700 44.84600 32.67800
H  33.84900 52.37000 28.69900
H  34.19300 51.33100 22.37300
H  36.99800 45.66500 23.44000
H  34.50800 48.12600 30.98300
H  34.92800 50.98200 30.77900
H  32.14000 50.63800 30.18500
H  32.90600 51.23600 31.55800
H  32.66600 49.45100 31.41900
H  36.75700 50.12400 31.03600
H  37.18800 48.46600 30.85600
H  37.06900 49.59000 33.29900
H  36.77300 47.94800 32.85500
H  32.73400 54.98100 26.52800
H  34.46300 55.08200 26.77200
H  33.45100 54.14900 27.89100
H  34.00100 55.74300 24.72900
H  32.30900 55.41500 24.34400
H  33.44700 56.12100 23.09900
H  35.51200 49.49000 20.94600
H  35.06800 46.65200 21.78800
H  33.54500 47.63000 20.53000
H  33.44800 49.36000 20.03500
H  32.81000 48.78400 21.55500
H  36.90700 47.85700 20.15600
H  37.04700 46.18600 20.87200
H  39.06800 47.31200 21.07100
H  38.42200 47.59300 22.74900
H  38.48500 48.87000 21.47600
H  37.37200 42.88500 26.15000
H  38.16200 43.91500 24.78900
H  36.43400 43.33700 24.78200
H  36.83300 46.23800 30.42100
H  33.31400 45.54600 32.74300
H  34.46900 44.73800 33.71400
H  33.72500 43.85300 32.52500
Mg -12.63100 15.65600 42.75400
C  -9.26900 14.75500 42.13400
C  -12.14800 18.40400 40.64700
C  -15.96600 16.09700 42.57100
C  -13.15400 12.40100 43.97200
N  -10.90600 16.40800 41.24700
C  -9.58400 15.96200 41.41600
C  -8.63900 16.85000 40.62800
C  -9.62200 18.00300 40.14400
C  -11.01000 17.58800 40.63800
C  -9.24300 19.52400 40.49700
C  -7.80400 16.22000 39.49400
C  -6.32200 16.61700 39.48800
H  -5.91300 17.32200 38.21700
N  -13.84100 17.12000 41.84200
C  -13.42200 18.19600 41.14800
C  -14.60900 19.00900 40.81400
C  -15.74200 18.36900 41.41300
C  -15.19400 17.12100 41.94400
C  -14.49900 20.36800 40.29200
C  -17.16300 18.93200 41.58300
O  -17.40900 20.05000 41.16000
C  -18.26900 18.18800 42.23200
N  -14.27200 14.43000 43.25500
C  -15.51800 14.89000 43.20400
C  -16.53300 13.98800 43.87700
C  -15.67200 12.72600 44.05600
C  -14.22500 13.21500 43.77200
C  -17.16700 14.66700 45.16000
C  -16.15200 11.50300 43.09100
C  -16.88900 10.42900 43.84700
N  -11.52700 13.94000 43.08000
C  -11.84300 12.70700 43.56100
C  -10.64400 11.87800 43.65700
C  -9.61800 12.65500 43.20100
C  -10.19200 13.93200 42.79400
C  -10.53400 10.49500 44.27100
C  -8.15800 12.63400 42.97300
O  -7.35400 11.76500 43.19900
C  -7.90200 13.99400 42.24500
C  -6.88200 14.79600 42.95700
O  -7.04100 15.44900 43.96400
O  -5.63400 14.68800 42.26100
C  -4.60600 15.66600 42.84600
H  -11.91400 19.34200 40.14000
H  -17.04500 16.14600 42.73200
H  -13.45400 11.44900 44.41600
H  -7.94700 17.29200 41.34500
H  -9.72200 17.92200 39.06200
H  -8.16000 19.51100 40.61600
H  -9.73900 19.81800 41.42200
H  -9.38700 20.33200 39.77900
H  -8.25300 16.36900 38.51200
H  -7.92500 15.14800 39.65400
H  -5.80100 15.69000 39.72800
H  -6.10700 17.32700 40.28700
H  -15.29400 21.04300 40.61000
H  -14.52800 20.36600 39.20300
H  -13.62900 20.80100 40.78600
H  -18.50000 17.21400 41.80000
H  -19.17500 18.79400 42.23100
H  -17.99800 17.97100 43.26500
H  -17.32300 13.71300 43.17800
H  -15.64800 12.26000 45.04100
H  -16.65000 15.62300 45.23800
H  -16.88000 14.13800 46.06900
H  -18.25500 14.63900 45.10500
H  -15.25500 11.04700 42.67400
H  -16.75400 11.87600 42.26200
H  -17.04900 10.62200 44.90800
H  -16.31600 9.50200 43.81100
H  -17.83800 10.33500 43.32000
H  -11.47800 9.98300 44.08100
H  -10.40100 10.61400 45.34600
H  -9.67600 9.97800 43.84000
H  -7.45700 13.84400 41.26200
H  -3.64400 15.15800 42.77000
H  -4.75700 15.82700 43.91300
H  -4.61800 16.59600 42.27600

