158

Mg 39.49300 9.38400 29.32800
C  41.31200 10.59100 31.90300
C  37.62100 7.50600 31.60600
C  37.94400 7.94100 26.74000
C  41.97800 10.51800 27.03300
N  39.34800 9.16200 31.43900
C  40.21700 9.86400 32.31100
C  39.79300 9.73000 33.71900
C  38.75400 8.50400 33.70400
C  38.54500 8.34100 32.17200
C  39.28700 7.16200 34.31900
C  39.19300 11.07600 34.22900
C  39.15000 11.10800 35.70900
H  39.60100 12.41100 36.35700
N  37.88400 8.04000 29.21000
C  37.18000 7.37400 30.22400
C  36.10000 6.59100 29.61500
C  36.15900 6.78200 28.19900
C  37.37100 7.61700 28.00000
C  35.16000 5.86900 30.61800
C  35.27000 6.13200 27.07300
O  35.49700 6.41400 25.87500
C  34.22000 5.16000 27.46200
N  39.98400 9.22600 27.18900
C  39.09400 8.61700 26.38700
C  39.44600 8.85400 24.94400
C  40.74900 9.71400 25.00800
C  41.00100 9.81200 26.49300
C  39.67900 7.63300 24.05300
C  40.61300 11.09600 24.27900
C  39.63300 12.11700 24.80900
N  41.29100 10.31500 29.44200
C  42.15600 10.68900 28.42200
C  43.26000 11.33200 29.10000
C  43.01300 11.30200 30.45900
C  41.75800 10.66900 30.60400
C  44.48000 11.91200 28.35400
C  43.46500 11.75500 31.75300
O  44.52000 12.33000 31.99100
C  42.40700 11.40200 32.78000
C  43.07800 10.45500 33.77500
O  43.82300 9.53800 33.56500
O  42.79100 10.85400 35.03300
C  43.09100 10.04500 36.23200
H  37.04900 6.92100 32.33000
H  37.46800 7.50100 25.86100
H  42.68300 10.99500 26.34800
H  40.67100 9.60500 34.35200
H  37.78600 8.75100 34.14000
H  40.27100 7.37100 34.73900
H  39.42500 6.43200 33.52200
H  38.64500 6.77700 35.11100
H  38.21300 11.07600 33.75200
H  39.57500 11.98200 33.75600
H  39.67100 10.25900 36.15200
H  38.09900 11.11400 36.00000
H  35.38700 5.92500 31.68200
H  35.07900 4.81900 30.33400
H  34.16800 6.30700 30.51000
H  33.67500 5.55500 28.31900
H  34.77400 4.25200 27.70400
H  33.60400 5.04000 26.57100
H  38.58200 9.37900 24.53500
H  41.54500 9.20800 24.46100
H  38.88700 7.44600 23.32800
H  39.71200 6.72900 24.66100
H  40.59500 7.60300 23.46300
H  40.28400 10.93100 23.25300
H  41.53700 11.67000 24.20700
H  39.24200 11.92800 25.80900
H  38.75000 12.02000 24.17700
H  40.03200 13.12900 24.88600
H  44.21100 12.15200 27.32600
H  45.33800 11.25700 28.50100
H  44.74800 12.78500 28.95000
H  41.98200 12.30700 33.21400
H  42.94300 9.00300 35.95000
H  42.51400 10.26600 37.13000
H  44.16900 10.12600 36.36800
Mg 29.99900 58.32100 39.39300
C  27.10300 56.43200 38.70100
C  31.83700 55.57600 38.67600
C  32.66500 60.29800 39.40400
C  27.86200 61.05000 40.07000
N  29.52600 56.24400 38.73700
C  28.26700 55.71700 38.56100
C  28.38800 54.17200 38.24200
C  29.85200 53.84600 38.57800
C  30.45600 55.26100 38.72700
C  30.17900 52.98500 39.81400
C  27.97800 53.66100 36.86000
C  28.69300 54.17900 35.63300
H  27.79500 54.63400 34.52600
N  32.05900 58.01300 39.09300
C  32.64300 56.76400 38.81500
C  34.08600 56.91200 38.66300
C  34.29600 58.34200 38.66800
C  32.99100 58.95700 39.04100
C  34.99100 55.78600 38.36000
C  35.55000 59.07900 38.35600
O  36.57500 58.46700 38.14800
C  35.50800 60.55600 38.31100
N  30.18000 60.37900 39.67600
C  31.43900 60.90600 39.66300
C  31.36900 62.45600 40.06800
C  29.87300 62.65100 40.42700
C  29.23100 61.31000 40.05600
C  32.44900 62.94400 41.09900
C  29.20100 63.86200 39.80200
C  28.22900 64.69300 40.67700
N  27.89200 58.66800 39.45500
C  27.16600 59.84900 39.69000
C  25.78700 59.62700 39.60400
C  25.62700 58.24200 39.22300
C  26.98800 57.72300 39.16200
C  24.71900 60.51200 39.95200
C  24.70400 57.12200 38.88300
O  23.49400 56.97700 38.79300
C  25.72100 55.87800 38.62100
C  25.54700 54.91000 39.76800
O  25.83400 55.04400 40.88700
O  24.98900 53.67100 39.29200
C  24.74500 52.68600 40.31700
H  32.46100 54.68400 38.59700
H  33.50800 60.99200 39.39700
H  27.22000 61.84300 40.45900
H  27.80200 53.70900 39.03700
H  30.36200 53.29000 37.79200
H  30.84300 53.45400 40.54000
H  30.70800 52.11500 39.42400
H  29.25200 52.54400 40.18000
H  26.89600 53.74300 36.76200
H  28.23900 52.60300 36.82200
H  29.26900 53.40300 35.12900
H  29.47000 54.92200 35.80900
H  35.99600 56.18500 38.50200
H  34.84700 55.47900 37.32500
H  34.93900 54.89800 38.99000
H  35.45500 61.10700 39.25000
H  34.71800 60.67500 37.56900
H  36.44800 60.76600 37.80100
H  31.47800 63.00700 39.13400
H  29.80800 62.83800 41.49900
H  33.16000 62.14200 41.30100
H  31.91200 63.11800 42.03100
H  32.74600 63.90200 40.67100
H  28.62200 63.57100 38.92500
H  29.98700 64.56200 39.51800
H  27.38800 64.96900 40.04100
H  28.77000 65.60400 40.93400
H  27.88000 64.10800 41.52800
H  23.86000 60.16500 39.37900
H  25.02100 61.52800 39.70000
H  24.34300 60.54500 40.97500
H  25.45100 55.44400 37.65800
H  23.75100 52.31000 40.07500
H  24.91800 52.95000 41.36000
H  25.42100 51.83200 40.28000

