158

Mg 0.21400 7.97200 26.27800
C  0.98100 9.73300 29.22100
C  0.20500 5.05300 28.19300
C  -0.20000 6.31500 23.48300
C  0.58900 10.94000 24.49700
N  0.46800 7.49100 28.33800
C  0.69400 8.37900 29.41800
C  0.57800 7.73700 30.77700
C  0.51000 6.20700 30.40400
C  0.47500 6.24000 28.87400
C  1.65900 5.36000 31.01400
C  -0.69600 8.28500 31.53000
C  -0.51900 8.42700 33.06600
H  0.71000 7.87200 33.87100
N  0.05800 6.00800 25.86000
C  0.01800 4.94600 26.81500
C  -0.33000 3.69800 26.11300
C  -0.31300 4.03800 24.72100
C  -0.15700 5.53600 24.64000
C  -0.51500 2.34000 26.85800
C  -0.60500 3.13200 23.51500
O  -0.56500 3.50500 22.36200
C  -1.06400 1.83800 23.78900
N  0.38400 8.53100 24.29100
C  -0.01400 7.66500 23.30500
C  -0.20300 8.27900 21.92500
C  -0.03700 9.81000 22.28100
C  0.30500 9.78200 23.77000
C  0.86600 7.75100 20.83500
C  -1.22900 10.69700 21.85000
C  -2.52200 10.61600 22.64000
N  0.80000 9.91700 26.70700
C  0.94600 10.98300 25.83800
C  1.36300 12.13800 26.57900
C  1.36500 11.70900 27.93700
C  1.04500 10.33600 27.95900
C  1.68400 13.50400 25.99100
C  1.55000 12.14000 29.27500
O  1.94700 13.18900 29.70000
C  1.26000 10.92600 30.14000
C  2.32400 10.76300 31.07300
O  3.24200 9.93600 30.99700
O  2.21200 11.70100 32.05900
C  3.19100 11.59600 33.15000
H  0.09900 4.14800 28.79400
H  -0.51600 5.77200 22.59000
H  0.82800 11.84900 23.94100
H  1.42200 8.06200 31.38500
H  -0.44600 5.75400 30.66900
H  1.28700 4.55500 31.64700
H  2.20600 5.89400 31.79100
H  2.39900 4.95400 30.32300
H  -1.34900 7.42900 31.35900
H  -1.08500 9.19700 31.07900
H  -1.38800 7.95000 33.51800
H  -0.56000 9.49400 33.28800
H  -1.26700 1.69900 26.39800
H  -0.84600 2.51600 27.88100
H  0.43800 1.82100 26.74900
H  -1.44000 1.32700 22.90200
H  -1.95400 2.10200 24.35900
H  -0.40400 1.19400 24.37100
H  -1.17900 7.99100 21.53500
H  0.83500 10.23900 21.78800
H  1.58500 7.03000 21.22600
H  1.52300 8.48000 20.36100
H  0.27400 7.13600 20.15700
H  -1.36400 10.54800 20.77900
H  -0.92100 11.73400 21.98200
H  -2.44700 9.80200 23.36000
H  -3.38100 10.44600 21.99100
H  -2.76300 11.52800 23.18700
H  0.67000 13.81800 25.74200
H  2.31200 13.36200 25.11100
H  2.04200 14.20500 26.74500
H  0.36200 11.06800 30.74200
H  4.05000 12.26500 33.09500
H  3.50200 10.57500 33.37300
H  2.59500 11.91600 34.00400
Mg 49.00300 45.90000 43.59900
C  45.93500 46.49900 42.00800
C  49.23900 43.06300 41.57900
C  52.52000 45.78400 44.09600
C  49.01200 49.23400 44.68100
N  47.62700 44.81400 42.03700
C  46.40800 45.24800 41.59100
C  45.98500 44.26600 40.46500
C  46.87200 43.05000 40.70800
C  48.03900 43.64900 41.41500
C  46.24600 41.87900 41.53300
C  46.19300 44.89600 39.04600
C  44.96900 44.90200 38.14000
H  44.95600 44.24000 36.74800
N  50.58200 44.55300 43.01600
C  50.45500 43.45700 42.28200
C  51.70100 42.80200 42.11000
C  52.69100 43.54200 42.74500
C  51.97900 44.67200 43.38700
C  51.83800 41.43800 41.46100
C  54.15900 43.24500 42.73000
O  54.52900 42.21000 42.11100
C  55.16500 44.14300 43.35500
N  50.57400 47.27600 44.25300
C  51.81800 46.94200 44.53400
C  52.58700 48.11000 45.14200
C  51.42800 49.15200 45.40500
C  50.21800 48.55400 44.66400
C  53.52600 47.85200 46.32900
C  51.83000 50.60800 44.87400
C  51.13900 51.80900 45.54800
N  47.74100 47.41000 43.53100
C  47.82900 48.68800 44.13200
C  46.58100 49.40600 43.89200
C  45.82300 48.59700 42.99600
C  46.57600 47.36400 42.84900
C  46.25200 50.79900 44.41700
C  44.60600 48.49300 42.21800
O  43.70400 49.25400 42.12100
C  44.75600 47.19900 41.43300
C  43.46900 46.37200 41.70600
O  43.23400 45.75700 42.74000
O  42.58400 46.38200 40.58500
C  41.39200 45.45500 40.74500
H  49.38900 42.10300 41.08000
H  53.59200 45.78900 44.30300
H  49.05900 50.21400 45.16100
H  44.91800 44.09600 40.60900
H  47.11700 42.63500 39.73000
H  45.22200 42.07900 41.84800
H  46.79900 41.78300 42.46700
H  46.07400 40.94800 40.99400
H  46.89200 44.27400 38.48600
H  46.51100 45.92200 39.23100
H  44.81600 45.96600 37.96100
H  44.06000 44.59700 38.65900
H  51.91700 41.65800 40.39600
H  50.94700 40.81200 41.50300
H  52.69100 40.89000 41.86000
H  55.07300 44.14100 44.44100
H  54.91500 45.14500 43.00400
H  56.18400 43.78500 43.21100
H  53.17500 48.42200 44.27900
H  51.30700 49.35300 46.46900
H  53.19200 48.36600 47.23100
H  54.55800 48.16000 46.16000
H  53.48100 46.78000 46.52000
H  51.63200 50.62800 43.80200
H  52.90500 50.72000 45.01100
H  50.63200 52.31100 44.72400
H  51.85200 52.35900 46.16200
H  50.36400 51.42600 46.21100
H  46.18200 51.53000 43.61100
H  47.03500 51.26300 45.01500
H  45.20400 50.81300 44.71700
H  44.82700 47.45700 40.37600
H  40.82700 45.92800 41.54800
H  41.67900 44.44300 41.03000
H  40.90400 45.53100 39.77300

