158

Mg 9.33300 4.07500 28.04000
C  10.25700 2.18100 30.94900
C  7.02100 5.75800 29.96900
C  8.19200 5.53100 25.22900
C  10.85700 1.59500 26.09900
N  8.60300 3.84100 30.18600
C  9.40100 3.26400 31.18200
C  8.87800 3.61600 32.56600
C  7.82100 4.75600 32.26200
C  7.84500 4.79600 30.71900
C  6.44500 4.59800 32.81300
C  9.97000 3.78000 33.62300
C  9.77300 4.84800 34.69500
H  10.00700 4.49300 36.15000
N  7.92100 5.52400 27.67100
C  7.05000 6.06000 28.56800
C  6.27800 7.10900 27.95700
C  6.70500 7.22600 26.54300
C  7.62600 6.04800 26.40300
C  5.29300 7.98500 28.70600
C  6.30300 8.14300 25.48300
O  6.67200 8.11100 24.31800
C  5.31200 9.32800 25.76200
N  9.61000 3.74300 25.92800
C  9.04200 4.50100 25.01900
C  9.49000 4.05300 23.63100
C  10.35600 2.79100 23.89300
C  10.24200 2.67100 25.40100
C  8.37400 3.94300 22.51400
C  11.77400 2.91400 23.31500
C  12.35800 1.80600 22.35100
N  10.45300 2.31400 28.36900
C  10.97900 1.37900 27.49100
C  11.55900 0.31400 28.23100
C  11.45700 0.66300 29.53800
C  10.67100 1.83200 29.61900
C  12.23900 -0.87300 27.58200
C  11.78100 0.25100 30.86300
O  12.50200 -0.64600 31.28800
C  11.04700 1.23000 31.86000
C  10.15500 0.43300 32.68600
O  8.98500 0.05700 32.47100
O  10.65700 0.27400 33.95700
C  9.66000 -0.23100 34.95600
H  6.35200 6.37200 30.57500
H  7.81200 5.91500 24.28000
H  11.33600 0.96400 25.34700
H  8.35300 2.74000 32.94900
H  8.24800 5.72400 32.52500
H  5.61500 5.01300 32.24000
H  6.53100 5.04500 33.80400
H  6.17500 3.54500 32.88600
H  10.89000 3.90800 33.05200
H  10.13200 2.85900 34.18400
H  8.70300 5.05000 34.74300
H  10.37600 5.72300 34.45500
H  4.94200 7.61200 29.66900
H  4.43800 7.99400 28.03000
H  5.63200 9.01300 28.83200
H  5.63200 10.12500 25.09100
H  5.46800 9.70300 26.77400
H  4.25800 9.08500 25.62700
H  10.20400 4.74900 23.19200
H  9.90600 1.90100 23.45400
H  7.42500 4.34800 22.86400
H  8.26200 2.89100 22.25000
H  8.76300 4.51200 21.67000
H  12.51700 3.04400 24.10300
H  11.83300 3.81900 22.71000
H  12.12300 2.18000 21.35500
H  11.87800 0.83200 22.44300
H  13.44300 1.84500 22.44700
H  13.16200 -0.45000 27.18500
H  11.57400 -1.37800 26.88100
H  12.41200 -1.71100 28.25700
H  11.69200 1.69300 32.60600
H  9.00900 0.61500 35.17900
H  10.18400 -0.53700 35.86100
H  9.02500 -1.07800 34.69500
Mg -4.85300 25.54600 26.57800
C  -3.75300 26.96200 29.57400
C  -6.64700 23.20600 28.45300
C  -5.26600 23.74100 23.84700
C  -2.72600 27.72900 24.78800
N  -4.99500 24.98600 28.73200
C  -4.55900 25.82800 29.84200
C  -5.13200 25.32000 31.13800
C  -5.72800 23.92900 30.76600
C  -5.83200 24.03000 29.22600
C  -4.89400 22.80800 31.30100
C  -6.16400 26.34200 31.80800
C  -6.50000 26.15500 33.31300
H  -5.96900 25.04400 34.29100
N  -5.97000 23.87800 26.17000
C  -6.66200 23.11300 27.07100
C  -7.53100 22.23200 26.32600
C  -7.11800 22.24700 24.96200
C  -6.06800 23.28500 24.94100
C  -8.69400 21.51500 26.89500
C  -7.70400 21.56900 23.75200
O  -7.11800 21.58200 22.67900
C  -9.01700 20.85600 23.80800
N  -4.24000 25.76900 24.55900
C  -4.49000 24.83500 23.60800
C  -3.84400 25.17800 22.25000
C  -3.22600 26.56100 22.59200
C  -3.47900 26.74700 24.07100
C  -2.86500 24.04800 21.86300
C  -3.68400 27.71700 21.69100
C  -3.04000 28.07400 20.35400
N  -3.49000 27.07400 27.01200
C  -2.62500 27.81400 26.17800
C  -1.91700 28.69300 27.04000
C  -2.32800 28.42600 28.36400
C  -3.30400 27.38500 28.28800
C  -0.81200 29.65100 26.57300
C  -2.19900 28.77800 29.78300
O  -1.55900 29.66300 30.30700
C  -3.11900 27.91900 30.60900
C  -2.37000 27.17400 31.64400
O  -1.63100 26.22700 31.44100
O  -2.74700 27.52500 32.86700
C  -2.27100 26.77600 33.98000
H  -7.18000 22.48000 29.07000
H  -5.46400 23.25400 22.89000
H  -2.03700 28.33800 24.20000
H  -4.33800 25.19000 31.87300
H  -6.71800 23.89900 31.22000
H  -4.05200 23.20800 31.86500
H  -4.46000 22.18800 30.51700
H  -5.48200 22.20300 31.99200
H  -7.08900 26.48600 31.25100
H  -5.65700 27.30100 31.70300
H  -7.58600 26.09800 33.38800
H  -6.23100 27.10800 33.76700
H  -9.46000 21.71600 26.14600
H  -8.98600 21.98600 27.83300
H  -8.58000 20.44100 27.04300
H  -9.78700 21.59200 24.04000
H  -8.91300 20.00200 24.47600
H  -9.35900 20.43900 22.86100
H  -4.54500 25.34300 21.43100
H  -2.14400 26.43900 22.54200
H  -3.00700 23.95100 20.78700
H  -3.12100 23.09700 22.32900
H  -1.80800 24.29500 21.96500
H  -3.52300 28.65000 22.23200
H  -4.75700 27.66200 21.50900
H  -2.26100 27.35200 20.10900
H  -2.85500 29.14300 20.24900
H  -3.72200 27.89100 19.52400
H  -0.65500 29.51400 25.50300
H  0.01800 29.39800 27.23300
H  -1.23800 30.62100 26.82800
H  -3.88600 28.57700 31.01600
H  -1.89100 27.41300 34.77900
H  -1.48200 26.10800 33.63300
H  -3.10500 26.21800 34.40500

