158

Mg 47.18100 17.12600 28.28000
C  45.33000 16.81500 31.26500
C  49.27100 19.50300 29.86300
C  48.28700 18.11100 25.32900
C  44.51500 15.47000 26.70000
N  47.18400 18.10600 30.26600
C  46.49400 17.63300 31.33300
C  47.08200 18.17900 32.62300
C  48.22400 19.15600 32.16400
C  48.27200 18.92800 30.64900
C  48.08100 20.66600 32.61300
C  47.48600 16.98400 33.53900
C  46.97900 17.01900 34.94400
H  46.73100 18.43800 35.66000
N  48.89600 18.34100 27.70900
C  49.53400 19.26800 28.44500
C  50.47800 19.82200 27.61000
C  50.36300 19.34000 26.29500
C  49.13700 18.55500 26.38200
C  51.35800 20.87500 27.98000
C  51.22200 19.55400 25.09700
O  50.91500 19.17200 23.94100
C  52.47000 20.43200 25.20600
N  46.53300 16.79300 26.32700
C  47.14400 17.38300 25.24500
C  46.41700 16.99600 23.98100
C  45.16400 16.22000 24.42700
C  45.40800 16.18900 25.93000
C  46.17200 18.27900 23.14800
C  44.92400 14.85100 23.79500
C  44.51500 14.82600 22.33600
N  45.40200 16.21100 28.82600
C  44.46200 15.55900 28.11000
C  43.40900 15.07700 28.99100
C  43.76200 15.47600 30.27500
C  44.96600 16.24400 30.15400
C  42.21500 14.12800 28.54900
C  43.38100 15.40600 31.67400
O  42.45600 14.83500 32.23100
C  44.38100 16.30700 32.36900
C  43.62800 17.53000 33.01800
O  43.27300 18.53400 32.46500
O  43.36500 17.26300 34.30400
C  42.67300 18.27800 35.08000
H  49.97200 20.13100 30.41700
H  48.72900 18.36300 24.36300
H  43.69300 15.02700 26.13400
H  46.31500 18.74500 33.15200
H  49.18900 18.86200 32.57400
H  48.07800 21.46300 31.87000
H  48.90800 20.88000 33.29000
H  47.15700 20.78800 33.17700
H  48.56800 16.93500 33.41700
H  47.14200 16.03000 33.13800
H  47.67400 16.47900 35.58600
H  46.01300 16.51400 34.92700
H  52.36700 20.48200 27.85500
H  51.47300 21.07900 29.04500
H  50.97500 21.76100 27.47300
H  53.27900 19.84400 25.63800
H  52.28400 21.33100 25.79500
H  52.65900 20.72600 24.17400
H  47.15200 16.40500 23.43300
H  44.26500 16.78300 24.17400
H  45.11900 18.39800 22.89400
H  46.64300 18.32100 22.16600
H  46.47700 19.19900 23.64700
H  43.94400 14.52600 24.14400
H  45.62100 14.09700 24.15700
H  44.48800 15.84100 21.94100
H  43.52700 14.36700 22.30400
H  45.21400 14.23000 21.74800
H  42.39800 13.20600 27.99700
H  41.46200 14.64700 27.95600
H  41.72000 13.83500 29.47600
H  44.75700 15.81700 33.26700
H  42.55500 18.03300 36.13600
H  41.66100 18.40100 34.69400
H  43.26100 19.19000 34.98300
Mg 43.10400 42.14200 26.97900
C  41.77900 44.37500 29.26100
C  44.41200 40.25900 29.39200
C  44.16100 40.03900 24.50000
C  42.11900 44.42300 24.32900
N  43.15300 42.36900 29.07900
C  42.34700 43.22500 29.82500
C  42.46800 42.90300 31.31800
C  43.59200 41.82700 31.33500
C  43.72000 41.39600 29.83500
C  44.89000 42.30000 32.01500
C  41.10500 42.47400 31.91400
C  40.70000 42.84500 33.37600
H  41.74000 43.33000 34.32900
N  44.11400 40.39100 26.95700
C  44.61700 39.74600 28.08000
C  45.22400 38.53900 27.65500
C  44.92500 38.33300 26.30100
C  44.45400 39.63600 25.82800
C  45.83400 37.56800 28.61800
C  45.17400 37.11800 25.37700
O  44.99400 37.15900 24.14300
C  45.57400 35.86900 26.00400
N  43.18000 42.24500 24.70400
C  43.59200 41.20000 24.00300
C  43.47600 41.38300 22.48400
C  42.80500 42.83000 22.42900
C  42.68600 43.20800 23.91600
C  44.78900 41.26300 21.66400
C  41.38400 42.74000 21.72400
C  40.33500 41.77100 22.21800
N  42.16400 43.94500 26.77000
C  41.89800 44.84500 25.69600
C  41.24600 46.05600 26.16300
C  41.19100 45.84500 27.56600
C  41.74400 44.57200 27.86500
C  40.75800 47.20600 25.30400
C  40.75600 46.49800 28.78900
O  40.27500 47.59600 28.91100
C  41.03100 45.54900 29.90200
C  41.80500 46.24000 30.92900
O  42.92700 46.71000 30.80300
O  40.95500 46.45200 31.93800
C  41.44800 47.24600 33.03800
H  44.80800 39.68300 30.23100
H  44.32400 39.32700 23.68900
H  41.78900 45.05400 23.50100
H  42.78100 43.78600 31.87500
H  43.27700 40.94200 31.88700
H  45.09000 41.72300 32.91900
H  44.81900 43.36700 32.22500
H  45.67400 42.13500 31.27700
H  41.01400 41.38900 31.87500
H  40.37300 42.80000 31.17500
H  40.31900 41.92900 33.82700
H  39.96300 43.64300 33.28800
H  45.73200 37.92000 29.64400
H  46.88300 37.44000 28.34800
H  45.36700 36.58700 28.53100
H  45.64900 35.04100 25.29900
H  44.82000 35.60200 26.74400
H  46.60600 35.87300 26.35600
H  42.77300 40.70800 21.99400
H  43.49400 43.49600 21.91000
H  44.82000 41.97900 20.84300
H  44.87900 40.23300 21.31600
H  45.73600 41.39000 22.18800
H  41.64200 42.56900 20.67900
H  40.89200 43.71000 21.65200
H  40.80500 41.28800 23.07500
H  40.10000 41.11300 21.38200
H  39.44800 42.32500 22.52500
H  40.22200 46.97400 24.38300
H  41.61700 47.84500 25.10100
H  40.12900 47.75200 26.00800
H  40.09600 45.11900 30.26100
H  41.94300 46.67000 33.81900
H  40.63900 47.85500 33.44200
H  42.12100 48.04700 32.73000

