158

Mg 17.09800 -1.71300 27.74800
C  16.27700 0.49600 30.36200
C  19.22800 -3.38100 29.92900
C  18.39600 -3.40900 25.04700
C  15.65400 0.55700 25.52200
N  17.64100 -1.47300 29.92100
C  17.04900 -0.54700 30.80000
C  17.47100 -0.88100 32.21700
C  18.43400 -2.20000 32.11600
C  18.49600 -2.33800 30.59100
C  19.82500 -2.03100 32.80800
C  16.17700 -1.12500 33.06600
C  16.00600 -0.29400 34.39100
H  17.27200 -0.06300 35.24600
N  18.47000 -3.28800 27.47200
C  19.25600 -3.78000 28.50600
C  19.99800 -4.96500 28.03900
C  19.88400 -4.87300 26.59600
C  18.90200 -3.85600 26.29900
C  20.86400 -5.81600 28.92300
C  20.66300 -5.72900 25.54700
O  20.53400 -5.58000 24.32900
C  21.75000 -6.77000 26.05800
N  17.05400 -1.38300 25.49300
C  17.59100 -2.34200 24.66100
C  17.36600 -1.88900 23.20200
C  16.26100 -0.79700 23.39300
C  16.31000 -0.53600 24.89700
C  18.73000 -1.23900 22.54300
C  14.87200 -1.25900 22.99800
C  14.18400 -2.28600 23.92300
N  16.24300 0.16700 27.82700
C  15.66900 0.94200 26.82800
C  15.07800 2.17000 27.45700
C  15.35200 2.04100 28.84700
C  15.94800 0.75900 29.00900
C  14.46500 3.24900 26.70500
C  15.28500 2.64500 30.12100
O  14.87100 3.76000 30.42400
C  15.91400 1.71600 31.14800
C  17.04000 2.43600 31.87100
O  18.20400 2.67200 31.46000
O  16.49600 3.04800 32.99000
C  17.30400 3.92800 33.90700
H  19.94000 -3.94300 30.53700
H  18.80400 -3.98400 24.21300
H  15.27500 1.29800 24.81600
H  18.11500 -0.10300 32.62600
H  17.93300 -3.10400 32.46300
H  19.82500 -1.24200 33.56100
H  20.66700 -1.88400 32.13200
H  20.02800 -3.00100 33.26200
H  16.07500 -2.18800 33.28600
H  15.26600 -0.90900 32.50800
H  15.14300 -0.67300 34.93900
H  15.90100 0.77100 34.18200
H  20.37700 -5.79100 29.89800
H  21.87600 -5.41300 28.94400
H  20.74600 -6.88100 28.72600
H  21.13400 -7.58600 26.43700
H  22.35000 -6.37600 26.87900
H  22.36500 -7.04800 25.20300
H  16.98500 -2.71200 22.59700
H  16.61600 0.10400 22.89300
H  19.66800 -1.29300 23.09500
H  18.63600 -0.18000 22.30400
H  18.82800 -1.68100 21.55100
H  14.83700 -1.68500 21.99500
H  14.24800 -0.36900 23.08500
H  13.54400 -1.78000 24.64500
H  14.87000 -2.97600 24.41400
H  13.57100 -3.00000 23.37400
H  13.65200 2.91000 26.06300
H  15.20700 3.73000 26.06700
H  13.99600 3.94200 27.40400
H  15.21400 1.55200 31.96800
H  16.90600 3.69000 34.89400
H  17.15000 5.00300 33.82600
H  18.36300 3.69200 33.79800
Mg 43.11500 4.39100 47.07500
C  40.70400 7.09700 47.04700
C  40.34200 2.29800 47.09600
C  45.17600 1.87500 46.29900
C  45.60300 6.65500 46.55700
N  40.75300 4.64500 47.26800
C  40.03100 5.86400 47.17500
C  38.52500 5.58800 47.20600
C  38.45900 4.02900 47.44500
C  39.89400 3.57800 47.29900
C  37.79600 3.55500 48.75300
C  37.74100 6.13400 46.01000
C  38.45100 6.09400 44.61500
H  37.58000 6.12500 43.32200
N  42.79900 2.36400 46.80600
C  41.59200 1.65200 46.76000
C  41.82000 0.22800 46.70400
C  43.18600 0.12900 46.37900
C  43.83000 1.48400 46.46600
C  40.67700 -0.83100 46.70800
C  43.86400 -1.12700 45.92800
O  43.29000 -2.19700 45.90000
C  45.25500 -1.08600 45.40300
N  45.11600 4.27400 46.48200
C  45.81600 3.09900 46.33400
C  47.37100 3.30800 46.21100
C  47.43200 4.81500 46.60700
C  45.97200 5.27200 46.59700
C  48.39600 2.23100 46.80500
C  48.30300 5.67000 45.50800
C  49.14700 6.64800 46.20000
N  43.17600 6.43400 46.83400
C  44.24400 7.21600 46.65900
C  43.78300 8.59500 46.61400
C  42.45800 8.57700 46.77900
C  42.12600 7.25900 46.89000
C  44.71400 9.66300 46.24900
C  41.27700 9.41500 46.83800
O  41.16500 10.59800 46.70600
C  40.08300 8.44200 47.12400
C  39.68800 8.84100 48.39700
O  39.90900 8.30800 49.46800
O  38.77800 9.84700 48.21500
C  37.81600 10.05900 49.38100
H  39.53500 1.56300 47.07000
H  45.93800 1.09500 46.24700
H  46.44600 7.34600 46.50100
H  38.19200 6.11600 48.09900
H  37.89800 3.52000 46.66100
H  38.59200 3.19800 49.40600
H  37.06400 2.77400 48.54700
H  37.35900 4.42900 49.23700
H  37.47800 7.17700 46.18400
H  36.81000 5.56900 46.04300
H  38.95500 5.12900 44.54900
H  39.22600 6.83900 44.43500
H  39.90600 -0.48500 47.39700
H  41.01300 -1.81000 47.04900
H  40.21800 -1.01400 45.73600
H  45.94700 -0.99100 46.23900
H  45.12700 -0.15200 44.85500
H  45.55100 -1.97000 44.83700
H  47.50800 3.41800 45.13500
H  47.72000 4.89800 47.65500
H  47.81800 1.57000 47.45200
H  49.13500 2.81900 47.34900
H  48.78900 1.69000 45.94500
H  47.53900 6.18900 44.92900
H  48.91800 5.07700 44.83100
H  48.87400 7.64500 45.85300
H  50.21500 6.57700 45.99500
H  49.16600 6.63100 47.29000
H  44.21200 10.63000 46.25100
H  44.99500 9.58100 45.19900
H  45.63500 9.59400 46.82900
H  39.39000 8.63400 46.30400
H  36.83000 9.61800 49.23400
H  37.74800 11.14300 49.46200
H  38.14900 9.57800 50.30100

