158

Mg 41.16500 8.90100 28.94300
C  42.80200 10.27700 31.67800
C  38.88800 7.63800 31.10600
C  39.58000 7.64800 26.22300
C  43.92900 9.78800 26.88200
N  40.93800 8.94100 31.19000
C  41.58900 9.78500 32.05200
C  41.00200 9.83300 33.44500
C  39.78100 8.79900 33.24700
C  39.85000 8.40900 31.71400
C  39.86500 7.52500 34.08500
C  40.58000 11.23400 33.96900
C  39.96000 11.35100 35.39800
H  40.79600 11.89900 36.59500
N  39.50300 7.78600 28.65900
C  38.68800 7.39500 29.73800
C  37.61600 6.59100 29.19100
C  37.82900 6.43600 27.76500
C  38.97700 7.36300 27.50100
C  36.49000 6.05700 30.13900
C  37.03600 5.71500 26.70400
O  37.41400 5.76300 25.54300
C  35.82300 5.01800 27.18000
N  41.64700 8.70700 26.78600
C  40.81300 8.23000 25.85500
C  41.30500 8.40700 24.41700
C  42.72500 9.04300 24.67500
C  42.84200 9.20400 26.23200
C  41.29700 7.13300 23.61400
C  42.91700 10.34300 23.90600
C  42.54000 11.67100 24.55600
N  43.04700 9.64800 29.13400
C  44.02600 10.05200 28.26500
C  45.00900 10.95200 28.92300
C  44.55600 10.92000 30.27800
C  43.40900 10.17600 30.41200
C  46.18400 11.67000 28.33000
C  44.89000 11.43900 31.54100
O  45.75500 12.21500 31.87500
C  43.74400 11.12700 32.58300
C  44.35000 10.36600 33.64100
O  45.14200 9.42000 33.46200
O  43.98600 10.82300 34.87600
C  44.70000 10.31600 36.08900
H  38.16800 7.21700 31.81100
H  39.05800 7.51600 25.27200
H  44.85300 10.08100 26.37800
H  41.72300 9.49300 34.18800
H  38.86500 9.30300 33.55600
H  40.66800 7.66600 34.81000
H  40.02700 6.67600 33.42200
H  39.00200 7.40900 34.74100
H  39.84500 11.68400 33.30200
H  41.48100 11.84600 33.95500
H  39.65800 10.37300 35.77200
H  39.01700 11.89500 35.33800
H  35.61700 6.04700 29.48700
H  36.28600 6.72000 30.98000
H  36.80500 5.12500 30.60800
H  36.09100 4.18900 27.83500
H  35.45700 4.48900 26.30000
H  35.07000 5.66200 27.63400
H  40.68900 9.13000 23.88400
H  43.44500 8.26600 24.41400
H  41.09100 6.37100 24.36500
H  42.16400 6.85900 23.01200
H  40.43900 7.17900 22.94300
H  42.29400 10.31800 23.01200
H  43.93000 10.30700 23.50500
H  43.31100 12.07700 25.21100
H  41.60800 11.43700 25.07000
H  42.28400 12.49500 23.88900
H  47.14000 11.16400 28.46800
H  46.31000 12.62100 28.84700
H  46.01900 11.83500 27.26500
H  43.27500 12.03200 32.96900
H  43.91700 10.63800 36.77500
H  45.70800 10.72900 36.11300
H  44.62200 9.22900 36.12000
Mg 30.35100 57.59300 41.16400
C  27.34200 55.89800 40.21200
C  32.07200 54.81900 40.16800
C  32.95500 59.53100 41.42600
C  28.23500 60.50700 41.64100
N  29.74200 55.57800 40.27800
C  28.48500 55.16200 39.92500
C  28.58800 53.95100 39.15200
C  30.01600 53.35500 39.46900
C  30.68100 54.61000 40.08200
C  30.07500 52.21200 40.53200
C  28.26300 54.18700 37.61700
C  27.00800 53.50200 36.96400
H  26.47700 54.22200 35.65700
N  32.29000 57.24500 40.84200
C  32.83700 56.02300 40.45900
C  34.24400 56.16400 40.60900
C  34.52400 57.49700 41.14600
C  33.25600 58.13800 41.20100
C  35.33200 55.18500 40.06100
C  35.89700 58.04900 41.51000
O  36.87400 57.37800 41.30900
C  36.16100 59.40400 42.09400
N  30.53000 59.77000 41.54500
C  31.79500 60.27200 41.57300
C  31.76700 61.87300 41.60500
C  30.20500 62.16500 41.80600
C  29.62800 60.75000 41.66400
C  32.78100 62.58300 42.61500
C  29.50800 63.23000 40.87000
C  28.81600 64.43600 41.56100
N  28.24600 58.09300 41.15500
C  27.57000 59.26300 41.42200
C  26.12600 59.06700 41.48700
C  26.00200 57.72300 40.99000
C  27.33300 57.23700 40.78300
C  25.07200 60.09400 41.90000
C  25.04200 56.62400 40.60200
O  23.82900 56.55400 40.65400
C  25.82500 55.49500 39.98000
C  25.49100 54.16000 40.54600
O  25.96400 53.78400 41.64900
O  24.43800 53.49300 39.91300
C  24.21000 52.15800 40.44900
H  32.72500 53.96100 39.99200
H  33.79900 60.22200 41.47500
H  27.70700 61.43400 41.87500
H  27.90700 53.15000 39.43900
H  30.66500 53.00600 38.66600
H  30.94300 51.56600 40.40500
H  29.21200 51.55200 40.43700
H  30.16600 52.61100 41.54200
H  29.12900 53.71900 37.14700
H  28.31100 55.27400 37.56300
H  26.24900 53.50900 37.74600
H  27.28900 52.46600 36.77700
H  34.88500 54.45000 39.39300
H  35.95900 54.64300 40.76900
H  36.05300 55.71800 39.44100
H  35.41000 59.63000 42.85100
H  36.10100 60.18000 41.33100
H  37.17200 59.52700 42.48000
H  32.07100 62.13800 40.59300
H  29.99700 62.42100 42.84500
H  32.57000 62.36000 43.66100
H  32.65900 63.66600 42.59300
H  33.78100 62.23400 42.35700
H  28.77900 62.69000 40.26500
H  30.32100 63.61600 40.25600
H  27.74700 64.23000 41.50400
H  28.95500 65.39400 41.06000
H  29.12700 64.53200 42.60200
H  24.53000 60.51700 41.05400
H  25.55900 60.99200 42.28000
H  24.37200 59.63700 42.60000
H  25.67100 55.34800 38.91100
H  23.14000 52.11800 40.24600
H  24.23000 52.02000 41.53000
H  24.71900 51.40600 39.84700

