158

Mg 16.88700 -1.64600 28.54900
C  15.75100 0.66200 31.09900
C  18.95200 -3.08900 30.90000
C  18.42100 -3.22400 26.04900
C  15.10200 0.36700 26.24300
N  17.45900 -1.08800 30.73400
C  16.66200 -0.32300 31.56900
C  17.20000 -0.45200 33.06600
C  18.34300 -1.58300 32.95700
C  18.24400 -1.98000 31.43700
C  19.80500 -1.14600 33.34400
C  16.00700 -0.82700 33.94300
C  15.86900 -0.02200 35.35100
H  17.10800 0.52300 36.06200
N  18.44200 -3.00800 28.47200
C  19.13800 -3.54300 29.55200
C  19.90500 -4.73700 29.06800
C  19.63800 -4.83700 27.67300
C  18.78000 -3.72000 27.31200
C  20.67600 -5.53800 30.03000
C  20.29200 -5.74300 26.70600
O  20.20700 -5.72400 25.49500
C  21.12500 -6.91300 27.17400
N  16.79600 -1.39400 26.45100
C  17.58400 -2.10800 25.62700
C  17.22400 -1.90300 24.17400
C  15.95200 -0.88200 24.21500
C  15.86100 -0.65200 25.75100
C  18.42600 -1.22200 23.36300
C  14.68600 -1.55700 23.60600
C  13.68300 -0.68400 22.87200
N  15.62200 0.03200 28.64300
C  14.92500 0.69500 27.62400
C  14.18200 1.83300 28.19500
C  14.39100 1.75600 29.55500
C  15.33100 0.72300 29.73600
C  13.21900 2.74600 27.37600
C  14.01100 2.34900 30.82900
O  13.18600 3.25000 31.07500
C  14.93700 1.69600 31.85600
C  15.80200 2.76400 32.35600
O  16.41000 3.42900 31.58300
O  15.89500 2.84900 33.68800
C  16.76100 3.94600 34.16600
H  19.47500 -3.70200 31.63800
H  18.88600 -3.79700 25.24400
H  14.40500 0.85600 25.55800
H  17.63800 0.51900 33.30000
H  18.22300 -2.51000 33.51700
H  19.76400 -0.17900 33.84600
H  20.18000 -0.91400 32.34700
H  20.32600 -1.87400 33.96700
H  16.07000 -1.88900 34.17800
H  15.06700 -0.54100 33.47100
H  15.49900 -0.81500 36.00000
H  15.13800 0.78300 35.27000
H  20.50000 -5.25500 31.06800
H  21.76000 -5.47000 29.93900
H  20.37400 -6.58200 29.94300
H  21.87200 -6.52500 27.86600
H  21.65000 -7.40600 26.35500
H  20.44500 -7.56400 27.72400
H  17.02400 -2.88900 23.75700
H  16.20500 0.08300 23.77500
H  18.19000 -0.18500 23.12300
H  18.60800 -1.78200 22.44600
H  19.33900 -1.09700 23.94500
H  14.20200 -2.10400 24.41500
H  15.01300 -2.33800 22.91900
H  14.13600 0.30300 22.78300
H  12.80800 -0.58700 23.51500
H  13.25000 -0.87200 21.89000
H  13.11500 3.73000 27.83400
H  12.18000 2.41900 27.33900
H  13.60500 2.78400 26.35700
H  14.36500 1.32900 32.70800
H  16.63600 4.11100 35.23600
H  16.55700 4.90800 33.69500
H  17.81700 3.82100 33.92600
Mg 17.40700 51.85900 26.00900
C  19.32800 50.25000 28.45700
C  15.03200 52.57100 28.21300
C  15.67900 53.21800 23.39500
C  19.64200 50.45800 23.62200
N  17.20600 51.40200 28.02000
C  18.18300 50.88800 28.92800
C  17.83000 51.20400 30.35600
C  16.38200 51.71800 30.25300
C  16.24000 52.01900 28.75100
C  15.18500 50.87000 30.69700
C  18.75500 52.24100 31.04700
C  18.76200 52.27000 32.58800
H  17.72800 51.38600 33.35300
N  15.48700 52.61200 25.85800
C  14.67700 52.90500 26.87300
C  13.42900 53.43500 26.44300
C  13.66900 53.64600 24.99800
C  14.99400 53.20500 24.67100
C  12.21500 53.72000 27.26000
C  12.70300 54.32100 24.00400
O  13.01100 54.57300 22.87600
C  11.29300 54.91300 24.43400
N  17.85500 52.08100 23.81800
C  16.84600 52.53000 22.98300
C  17.11900 52.21500 21.50700
C  18.61900 51.64400 21.51400
C  18.79600 51.41800 23.03300
C  16.08400 51.48500 20.80800
C  19.64800 52.41900 20.67100
C  20.90400 53.12400 21.38600
N  19.14400 50.70100 26.01100
C  19.93000 50.23700 25.02500
C  21.02500 49.38700 25.55200
C  20.77400 49.36400 26.89800
C  19.66400 50.21100 27.12100
C  22.01100 48.56200 24.87800
C  21.47600 48.94200 28.08200
O  22.59100 48.50300 28.27700
C  20.50800 49.57900 29.20500
C  19.94700 48.59500 30.11900
O  19.00900 47.86300 29.94900
O  20.58400 48.74400 31.33300
C  20.20700 47.82800 32.39900
H  14.31800 52.90500 28.96900
H  15.11800 53.48400 22.49600
H  20.31600 49.86700 22.99900
H  17.83300 50.32500 31.00100
H  16.24800 52.70100 30.70400
H  14.74900 50.22800 29.93100
H  14.31600 51.39700 31.09000
H  15.54300 50.27600 31.53800
H  18.37600 53.23100 30.79200
H  19.79400 52.11800 30.74300
H  18.69600 53.33700 32.80400
H  19.77000 52.13700 32.98000
H  11.35000 53.29900 26.74800
H  12.22700 54.79200 27.45600
H  12.27000 53.18300 28.20700
H  10.73900 54.01800 24.71500
H  10.79100 55.49900 23.66400
H  11.43600 55.53600 25.31600
H  17.19600 53.20700 21.06300
H  18.58600 50.63700 21.09800
H  15.02800 51.57500 21.06600
H  16.19200 50.40000 20.80700
H  16.06900 51.77100 19.75600
H  19.14400 53.27600 20.22500
H  19.95100 51.79900 19.82700
H  21.79700 52.58700 21.06500
H  20.83100 53.11600 22.47400
H  21.06500 54.13700 21.01700
H  22.95300 49.10200 24.79400
H  21.56600 48.23300 23.93900
H  22.11400 47.75700 25.60600
H  21.05700 50.29600 29.81400
H  20.41200 46.80900 32.07200
H  19.14800 47.96600 32.62000
H  20.83200 48.08300 33.25500

