158

Mg 34.67900 3.21600 30.35300
C  32.33300 4.19900 32.58300
C  36.98500 2.85700 32.67700
C  36.93600 2.52700 27.86400
C  32.11300 3.54900 27.85000
N  34.71000 3.75400 32.33000
C  33.67100 4.08100 33.03000
C  34.02000 3.93600 34.54700
C  35.55000 3.94800 34.56900
C  35.79200 3.45100 33.10700
C  36.28600 5.23900 34.91300
C  33.35000 2.62200 35.27500
C  32.93200 2.83400 36.74600
H  33.61900 3.94300 37.59600
N  36.70200 2.88600 30.26300
C  37.41200 2.61500 31.37400
C  38.76200 2.29600 31.04700
C  38.83900 2.23500 29.59500
C  37.40800 2.53800 29.18100
C  39.77500 2.11600 32.09500
C  39.97900 2.05800 28.67800
O  39.85300 2.04200 27.42900
C  41.28100 1.63600 29.27300
N  34.56700 3.09400 28.15500
C  35.59800 2.68600 27.40600
C  35.21800 2.48100 25.94700
C  33.67000 2.77100 26.01300
C  33.40900 3.12100 27.41900
C  36.04500 3.38300 24.94800
C  32.89500 1.65300 25.42900
C  32.70400 0.43600 26.24300
N  32.63900 3.70400 30.19100
C  31.73000 3.93500 29.15900
C  30.43900 4.33200 29.65300
C  30.60400 4.48800 31.03000
C  31.94400 4.12800 31.28900
C  29.14800 4.58600 28.93000
C  30.02500 4.88200 32.29400
O  28.86600 5.20000 32.51300
C  31.09200 4.68000 33.33900
C  31.27300 5.99000 34.07100
O  31.50600 7.01500 33.55700
O  30.98500 5.75000 35.39400
C  30.85600 7.03000 36.21700
H  37.63700 2.60500 33.51600
H  37.60300 2.14500 27.08800
H  31.43200 3.56900 26.99600
H  33.75200 4.87100 35.03800
H  35.81000 3.20300 35.32000
H  35.70100 6.10300 34.59800
H  37.16200 5.33900 34.27300
H  36.75500 5.23700 35.89700
H  33.97000 1.72800 35.21000
H  32.37300 2.47400 34.81500
H  33.06900 1.91700 37.31900
H  31.85900 3.02400 36.79000
H  39.61700 1.16000 32.59400
H  39.63800 2.82200 32.91300
H  40.82100 2.30000 31.84800
H  41.37300 0.62800 29.67800
H  41.69200 2.44100 29.88100
H  42.02700 1.49800 28.49000
H  35.44400 1.41600 25.89100
H  33.42400 3.57000 25.31300
H  36.93600 3.82500 25.39400
H  35.50100 4.24600 24.56600
H  36.43600 2.83300 24.09200
H  33.47400 1.22900 24.60800
H  32.03800 2.13700 24.96000
H  33.19700 -0.46000 25.86800
H  31.71200 0.01600 26.07800
H  32.95700 0.58200 27.29300
H  28.85400 5.60900 29.16800
H  28.43900 3.80800 29.21300
H  29.22900 4.56600 27.84300
H  30.71900 3.90700 34.01100
H  30.24900 7.75200 35.67100
H  31.79900 7.50800 36.48100
H  30.21900 6.78200 37.06600
Mg 43.78600 41.76600 26.48400
C  42.73700 44.18000 28.83000
C  44.73900 39.79200 29.06900
C  44.77800 39.59500 24.22800
C  43.17900 44.24200 23.99000
N  43.89100 42.12200 28.71700
C  43.25200 43.07700 29.45200
C  43.15200 42.64500 30.96100
C  44.11400 41.43600 31.00700
C  44.37400 41.13400 29.50100
C  45.44800 41.66700 31.83700
C  41.63300 42.56900 31.37400
C  41.27700 41.70300 32.56900
H  40.61600 42.32400 33.84700
N  44.67700 39.97300 26.64900
C  44.95800 39.26400 27.79400
C  45.40300 37.90800 27.43900
C  45.52500 37.89000 26.05200
C  45.02100 39.15200 25.55500
C  45.74200 36.73400 28.48700
C  45.98000 36.73200 25.14500
O  45.88600 36.70100 23.91000
C  46.55400 35.46600 25.79100
N  43.92900 41.91200 24.34700
C  44.38600 40.87300 23.64800
C  44.33500 41.13700 22.12700
C  43.79400 42.64400 22.09600
C  43.60600 42.99200 23.52200
C  45.75300 41.02300 21.38000
C  42.52300 42.89300 21.20300
C  42.66100 43.98900 20.28000
N  43.08000 43.69900 26.33700
C  42.90000 44.58800 25.29100
C  42.32700 45.83300 25.76100
C  42.24900 45.67900 27.14700
C  42.77100 44.43100 27.46900
C  42.01100 46.93400 24.92800
C  41.90600 46.46700 28.40400
O  41.48000 47.56400 28.56400
C  42.11700 45.37500 29.55500
C  42.96500 45.99100 30.55500
O  44.11200 46.40900 30.41900
O  42.15500 46.25700 31.72400
C  42.82400 46.89500 32.87900
H  45.05100 39.04900 29.80600
H  45.02400 38.89300 23.42800
H  43.08800 45.05600 23.26800
H  43.54800 43.52500 31.46800
H  43.67300 40.55300 31.47100
H  46.34100 41.33300 31.30900
H  45.32500 40.99900 32.69000
H  45.52500 42.68900 32.21000
H  41.04100 42.14300 30.56400
H  41.37400 43.61600 31.53000
H  42.07500 41.04800 32.92000
H  40.55800 40.94600 32.25400
H  44.96600 35.98400 28.64000
H  45.85500 37.32300 29.39700
H  46.76000 36.35900 28.37700
H  46.93400 34.86500 24.96500
H  45.79000 34.95400 26.37500
H  47.40500 35.62800 26.45300
H  43.59100 40.49300 21.65900
H  44.61300 43.28900 21.77800
H  46.52800 41.38700 22.05500
H  45.77300 41.59100 20.45000
H  45.79600 39.96900 21.10800
H  41.76400 43.23100 21.90800
H  42.18200 41.99500 20.68800
H  43.64200 44.06600 19.81100
H  42.29100 44.90700 20.73600
H  42.02200 43.73900 19.43300
H  42.97800 47.43100 24.84400
H  41.39100 47.62200 25.50200
H  41.58400 46.65100 23.96600
H  41.12700 45.17800 29.96500
H  42.73900 46.29000 33.78200
H  42.55100 47.92600 33.10400
H  43.89100 46.93900 32.65900

