158

Mg 46.82400 45.88000 43.39000
C  43.48800 44.79500 42.83500
C  47.90600 42.87900 42.32800
C  49.99300 47.28900 42.78100
C  45.50800 49.27000 43.48100
N  45.83300 44.11500 42.38400
C  44.47400 43.82100 42.54300
C  44.13300 42.43300 42.01000
C  45.51000 41.73900 42.18300
C  46.48900 42.98300 42.30000
C  45.60500 40.64800 43.28200
C  43.61000 42.52000 40.54000
C  42.30300 41.79000 40.16000
H  42.36500 41.04900 38.83200
N  48.69900 45.06600 42.86100
C  48.89300 43.77700 42.53800
C  50.31200 43.55700 42.60000
C  50.92900 44.81300 42.76700
C  49.85400 45.81600 42.81800
C  50.95200 42.20800 42.56800
C  52.49400 45.08100 42.91400
O  53.29600 44.16400 42.73500
C  53.03100 46.43200 43.23700
N  47.56800 47.91700 43.08100
C  48.92600 48.22400 42.73900
C  49.17300 49.70600 42.60100
C  47.80300 50.34800 42.86400
C  46.88500 49.11300 43.17600
C  50.44400 50.24000 43.43700
C  47.19700 51.27700 41.76700
C  47.32300 52.83600 42.08300
N  44.95700 46.85300 43.47400
C  44.59800 48.17900 43.52800
C  43.11200 48.23400 43.70800
C  42.65500 46.93000 43.44300
C  43.79800 46.11300 43.23400
C  42.32700 49.45800 44.25100
C  41.45100 46.10900 43.33400
O  40.27600 46.41600 43.34300
C  41.95200 44.69900 42.80900
C  41.40700 43.71100 43.81400
O  40.62000 42.80100 43.52700
O  41.92400 43.86300 45.03100
C  41.46100 42.96500 46.09300
H  48.11500 41.83400 42.09200
H  50.93500 47.80100 42.57400
H  45.05700 50.26200 43.41400
H  43.35400 41.90800 42.56300
H  45.85100 41.25100 41.27000
H  46.51700 40.73700 43.87200
H  45.56200 39.65100 42.84300
H  44.77100 40.75500 43.97700
H  44.45900 42.39300 39.86700
H  43.40800 43.58900 40.46600
H  41.49200 42.51800 40.14100
H  42.09000 41.10100 40.97700
H  51.84900 42.20700 43.18800
H  51.37000 41.97700 41.58900
H  50.21300 41.44000 42.79800
H  52.64300 46.70000 44.21900
H  52.97400 47.16900 42.43600
H  54.10100 46.40400 43.44300
H  49.39600 49.73200 41.53400
H  47.85000 51.02100 43.72000
H  50.68200 49.50700 44.20700
H  50.35200 51.28200 43.74500
H  51.28500 50.19300 42.74500
H  46.12600 51.09700 41.67700
H  47.67100 51.06800 40.80700
H  46.59000 53.24700 42.77800
H  47.06000 53.35300 41.16000
H  48.35300 53.01500 42.39400
H  42.65100 49.73100 45.25500
H  41.26500 49.22300 44.32700
H  42.39700 50.38400 43.68100
H  41.64400 44.41500 41.80300
H  40.60000 43.51400 46.47400
H  42.23500 42.85500 46.85300
H  41.10300 41.95700 45.88400
Mg -0.68500 43.30600 24.84100
C  1.52400 43.18100 27.69100
C  -3.15800 42.20900 26.92400
C  -2.61400 43.41000 22.13700
C  2.04700 44.30900 22.87500
N  -0.76600 42.82900 27.03300
C  0.18400 42.89500 27.99500
C  -0.36800 42.64400 29.36600
C  -1.80600 42.18100 29.05900
C  -1.94800 42.37700 27.58100
C  -2.23700 40.79700 29.57000
C  -0.13900 43.93100 30.24400
C  0.46600 43.85700 31.68100
H  0.05700 42.67700 32.58600
N  -2.66400 42.74100 24.53300
C  -3.46400 42.29000 25.53700
C  -4.79500 41.96600 24.88800
C  -4.64700 42.30200 23.47800
C  -3.23400 42.84200 23.29100
C  -5.90700 41.31300 25.62500
C  -5.68600 42.18700 22.24600
O  -5.36000 42.48200 21.09400
C  -7.05000 41.70200 22.52500
N  -0.29900 43.56000 22.74100
C  -1.33200 43.73400 21.82100
C  -0.88200 44.45300 20.49700
C  0.56000 44.96600 20.91500
C  0.75200 44.25700 22.24200
C  -0.92100 43.42800 19.27900
C  0.56000 46.55300 21.14800
C  0.72300 47.38100 19.90100
N  1.31600 43.64200 25.19800
C  2.32200 43.90000 24.21100
C  3.62000 43.83400 24.90700
C  3.33800 43.54300 26.25900
C  1.99400 43.47800 26.40100
C  4.96500 44.26700 24.37300
C  3.99600 43.26600 27.52900
O  5.20100 43.19900 27.80400
C  2.74000 43.02900 28.54700
C  2.96700 41.79200 29.29500
O  2.95200 40.65400 28.82600
O  3.31800 42.12500 30.63500
C  3.52500 40.96500 31.55900
H  -3.99800 42.08200 27.61000
H  -3.21600 43.64100 21.25600
H  2.79300 44.83800 22.27900
H  0.12900 41.80000 29.84500
H  -2.55500 42.85500 29.47500
H  -3.19900 40.88700 30.07300
H  -1.56100 40.35700 30.30300
H  -2.42600 40.08100 28.77000
H  -1.03400 44.55300 30.27900
H  0.63700 44.56900 29.82000
H  0.18600 44.84900 32.03600
H  1.55300 43.88200 31.60300
H  -5.91200 41.35800 26.71400
H  -5.93600 40.27100 25.30600
H  -6.87500 41.73100 25.34800
H  -7.15100 40.68800 22.91200
H  -7.43100 41.70600 21.50400
H  -7.57200 42.41800 23.16000
H  -1.47500 45.34900 20.31600
H  1.26600 44.66400 20.14200
H  -1.58200 42.58600 19.48300
H  0.12700 43.13700 19.20900
H  -1.18700 43.91100 18.33900
H  1.38300 46.84400 21.80100
H  -0.41800 46.77600 21.57500
H  1.00000 46.74900 19.05700
H  1.49100 48.07900 20.23300
H  -0.21400 47.90000 19.69600
H  4.76700 45.02100 23.61200
H  5.53100 43.45500 23.91400
H  5.56000 44.55500 25.24000
H  2.89100 43.85700 29.24000
H  3.09000 40.04800 31.16300
H  3.07000 41.32800 32.48100
H  4.56400 40.79800 31.84300

