158

Mg -11.80600 39.10500 42.70100
C  -10.00700 36.46000 41.50600
C  -9.28900 41.23600 41.53600
C  -14.00400 41.72400 43.08600
C  -14.48300 36.97200 43.57800
N  -9.92000 38.94900 41.51000
C  -9.39500 37.64400 41.19200
C  -8.08700 37.86000 40.43100
C  -7.78700 39.39800 40.48700
C  -9.01200 39.90300 41.31000
C  -6.36700 39.78000 41.09200
C  -8.02800 37.23200 38.92600
C  -6.80900 36.27000 38.69600
H  -5.86700 36.79200 37.64100
N  -11.67800 41.14600 42.37500
C  -10.55500 41.84700 41.87600
C  -10.82100 43.27000 41.86400
C  -12.16700 43.44000 42.31600
C  -12.70900 42.11700 42.63100
C  -9.82600 44.41400 41.43000
C  -12.82800 44.82900 42.41700
O  -12.29600 45.82800 42.01200
C  -14.21500 44.96800 43.02900
N  -13.98900 39.36200 43.19100
C  -14.65700 40.50300 43.42200
C  -16.04300 40.33100 44.01900
C  -16.18600 38.71900 43.85500
C  -14.78100 38.30900 43.54700
C  -16.16100 40.93800 45.47000
C  -17.17800 38.20900 42.73900
C  -18.23600 37.11500 43.26000
N  -12.15700 37.09600 42.78100
C  -13.22700 36.39100 43.11100
C  -12.86700 34.98400 42.94600
C  -11.59900 35.00800 42.31300
C  -11.29500 36.32000 42.10400
C  -13.66400 33.73800 43.36800
C  -10.55900 34.13100 41.75700
O  -10.51400 32.90700 41.70300
C  -9.48900 35.01900 41.26400
C  -8.33700 34.66000 42.14700
O  -8.37500 34.43200 43.37400
O  -7.24300 34.54400 41.36900
C  -5.98400 34.23900 42.01000
H  -8.51100 41.94500 41.24400
H  -14.62400 42.60000 43.29000
H  -15.18200 36.20600 43.92000
H  -7.39700 37.36200 41.11200
H  -7.65500 39.80200 39.48300
H  -6.00700 38.98700 41.74700
H  -6.60400 40.61100 41.75600
H  -5.62900 40.08000 40.34800
H  -8.02600 38.00700 38.16000
H  -8.90100 36.64700 38.63600
H  -7.21900 35.26800 38.57500
H  -6.18300 36.24700 39.58800
H  -10.24800 44.97100 40.59300
H  -8.83000 43.98300 41.32800
H  -9.75900 45.22800 42.15200
H  -14.85200 44.45600 42.30700
H  -14.50400 46.01700 43.08700
H  -14.25600 44.60600 44.05600
H  -16.74200 40.84900 43.36300
H  -16.39000 38.22900 44.80700
H  -15.23700 41.41900 45.79200
H  -16.36000 40.17300 46.22100
H  -16.96400 41.67500 45.49300
H  -16.63300 37.80200 41.88800
H  -17.84800 39.01000 42.42800
H  -19.16500 37.39300 42.76200
H  -18.37000 37.14500 44.34100
H  -17.92200 36.18200 42.79200
H  -14.13400 33.89200 44.33900
H  -12.96500 32.90200 43.34900
H  -14.43200 33.55700 42.61700
H  -9.28800 34.84900 40.20600
H  -5.95600 33.15100 41.95700
H  -5.89500 34.73500 42.97700
H  -5.35100 34.73600 41.27500
Mg -2.64700 34.95400 26.95000
C  -4.08700 32.94400 29.36700
C  -1.12900 36.83300 29.43800
C  -1.20900 36.89200 24.57900
C  -4.27900 33.16800 24.51500
N  -2.69300 34.86600 29.15400
C  -3.27400 33.93100 29.96100
C  -2.84600 34.21100 31.47200
C  -2.00200 35.47600 31.42200
C  -1.98100 35.78300 29.94700
C  -2.52500 36.65200 32.28800
C  -2.10200 32.91400 32.14400
C  -2.96000 32.25000 33.25900
H  -2.33600 32.10500 34.64300
N  -1.41600 36.70600 27.00200
C  -0.87400 37.31600 28.12000
C  0.01200 38.38700 27.71900
C  -0.07100 38.46400 26.30200
C  -0.93100 37.32800 25.88300
C  0.75700 39.20500 28.71400
C  0.47500 39.51400 25.32700
O  0.06500 39.54700 24.17300
C  1.36000 40.51900 25.81200
N  -2.81400 35.07900 24.90600
C  -2.10700 35.95200 24.13500
C  -2.40000 35.72500 22.62200
C  -3.45000 34.56400 22.67600
C  -3.53600 34.20900 24.09700
C  -2.94800 36.86100 21.76400
C  -3.30000 33.49600 21.64800
C  -2.17500 32.47100 21.97900
N  -3.87000 33.40300 26.92400
C  -4.53100 32.85600 25.86600
C  -5.30200 31.70900 26.33500
C  -5.16200 31.73200 27.70800
C  -4.28200 32.79100 28.01500
C  -6.00000 30.66100 25.52800
C  -5.51800 31.10100 28.97400
O  -6.21800 30.13600 29.24900
C  -4.91600 31.96300 30.12900
C  -5.96900 32.51800 31.01300
O  -6.78600 33.43100 30.80300
O  -5.94300 31.83600 32.22500
C  -6.72600 32.42300 33.28800
H  -0.78600 37.51800 30.21600
H  -0.65000 37.47000 23.84000
H  -4.91500 32.63900 23.80100
H  -3.81300 34.31200 31.96500
H  -1.00000 35.19700 31.74600
H  -2.87000 37.50100 31.69900
H  -1.73500 36.96600 32.97000
H  -3.41400 36.47800 32.89400
H  -1.20200 33.20100 32.68900
H  -2.05400 32.17800 31.34200
H  -3.12300 31.20200 33.00800
H  -3.88300 32.79400 33.45900
H  1.78700 39.43300 28.44300
H  0.79100 38.72200 29.69100
H  0.12300 40.09200 28.71600
H  0.80800 41.20500 26.45400
H  1.76600 41.21300 25.07700
H  2.14800 39.99400 26.35300
H  -1.45900 35.44200 22.15100
H  -4.42100 35.01000 22.46300
H  -2.35500 37.76400 21.61300
H  -3.90800 37.10900 22.21600
H  -3.21000 36.51000 20.76600
H  -3.25200 33.90800 20.64000
H  -4.19400 32.88100 21.54900
H  -2.57400 31.49400 21.70700
H  -1.97300 32.35500 23.04400
H  -1.23400 32.66000 21.46400
H  -5.75400 30.69500 24.46700
H  -7.05900 30.91500 25.47800
H  -5.83300 29.68600 25.98600
H  -4.23300 31.39300 30.75900
H  -7.76900 32.54700 32.99700
H  -6.31500 33.40400 33.52400
H  -6.71100 31.77700 34.16600

