158

Mg 17.49500 -1.04300 26.89500
C  16.57200 0.82000 29.77000
C  19.69900 -2.91700 29.04400
C  18.92300 -2.44100 24.20500
C  15.52100 0.86400 24.99400
N  18.13000 -0.97600 29.16100
C  17.54500 -0.17600 30.11500
C  17.91900 -0.61600 31.53700
C  19.04300 -1.75100 31.22800
C  18.95000 -1.92400 29.71500
C  20.42500 -1.32100 31.79400
C  16.70000 -1.12800 32.32800
C  16.30900 -0.42300 33.69200
H  17.39100 0.22700 34.50700
N  19.10000 -2.41200 26.62600
C  19.81900 -3.05900 27.63900
C  20.73200 -3.99400 26.98300
C  20.39400 -4.04100 25.59700
C  19.46400 -2.89500 25.38000
C  21.66900 -4.91000 27.63000
C  20.85700 -5.04800 24.46000
O  20.22000 -5.09000 23.41400
C  22.07400 -6.01600 24.62500
N  17.20000 -0.97500 24.93700
C  17.87500 -1.60600 23.99100
C  17.30600 -1.33500 22.59600
C  16.16600 -0.32700 22.90700
C  16.25100 -0.12900 24.39200
C  18.34900 -0.97900 21.42900
C  14.72400 -0.81100 22.45300
C  13.83000 -1.64100 23.35000
N  16.35800 0.57700 27.22500
C  15.58600 1.28100 26.31500
C  14.85500 2.32900 26.98100
C  15.23400 2.14100 28.36700
C  16.13700 1.06800 28.41700
C  14.00700 3.47900 26.31400
C  14.97100 2.61800 29.66200
O  14.25700 3.53400 30.06600
C  15.86300 1.82400 30.71100
C  16.69800 2.87300 31.40500
O  17.87000 3.19800 31.21000
O  15.87900 3.35400 32.44900
C  16.44700 4.37600 33.35500
H  20.33800 -3.55100 29.66300
H  19.25500 -2.98900 23.32100
H  14.86400 1.25200 24.21200
H  18.40700 0.24400 31.99700
H  18.81100 -2.75200 31.59000
H  20.53500 -2.01700 32.62600
H  20.46100 -0.27000 32.08300
H  21.14500 -1.52300 31.00200
H  16.79100 -2.19100 32.55300
H  15.81500 -0.94400 31.71900
H  15.73500 -1.09300 34.33300
H  15.60600 0.39800 33.55200
H  21.39600 -5.86600 27.18300
H  21.61000 -4.95100 28.71700
H  22.69600 -4.69000 27.34000
H  22.49000 -6.17200 23.63000
H  21.85200 -6.93500 25.16700
H  22.83600 -5.45700 25.16900
H  16.81700 -2.25200 22.26800
H  16.24700 0.65600 22.44400
H  19.35800 -0.80500 21.80100
H  17.93400 -0.21700 20.77000
H  18.52000 -1.81800 20.75500
H  14.94300 -1.45400 21.60000
H  14.30500 0.13500 22.11000
H  12.99300 -0.97700 23.56600
H  14.31200 -1.96100 24.27400
H  13.34900 -2.48100 22.85000
H  14.53800 3.91700 25.46900
H  13.82700 4.17000 27.13700
H  13.05300 3.00400 26.08200
H  15.36000 1.27700 31.50900
H  16.42100 4.24600 34.43700
H  15.72400 5.17400 33.18500
H  17.42200 4.73300 33.02300
Mg 47.08200 15.46800 28.40500
C  44.99800 14.83800 31.09900
C  49.23800 17.00700 30.44600
C  48.74900 16.57700 25.66700
C  44.60500 14.16000 26.22700
N  47.02200 15.95700 30.55200
C  46.13900 15.52100 31.49300
C  46.62900 15.84900 32.94300
C  47.83600 16.71900 32.61400
C  48.10700 16.49200 31.11600
C  47.82600 18.19300 33.13300
C  46.82000 14.66400 33.91900
C  46.31900 14.81500 35.35000
H  46.15900 16.14700 35.98100
N  48.88700 16.48200 28.11800
C  49.65700 17.00900 29.10400
C  50.90700 17.53000 28.50100
C  50.73200 17.49400 27.10800
C  49.47900 16.86400 26.92300
C  52.11600 18.02500 29.34200
C  51.69300 17.91900 26.03400
O  51.43900 17.72700 24.84700
C  53.02100 18.56800 26.43700
N  46.74100 15.29900 26.30700
C  47.56700 15.89800 25.42500
C  47.12300 15.68100 23.96400
C  46.01200 14.64400 24.15300
C  45.69100 14.75900 25.67000
C  46.68200 17.04700 23.37000
C  46.47500 13.23200 23.67800
C  45.67500 12.76100 22.44100
N  45.12400 14.69100 28.58500
C  44.24700 14.17900 27.63400
C  43.18200 13.50300 28.36600
C  43.51600 13.71200 29.72900
C  44.59800 14.54500 29.79000
C  42.10300 12.72900 27.62700
C  42.95600 13.44200 31.03400
O  42.00200 12.79200 31.40600
C  43.85600 14.35700 32.06100
C  43.03900 15.35800 32.74500
O  42.42200 16.26100 32.16400
O  42.90400 15.11900 34.06700
C  42.10500 16.17700 34.79800
H  49.96500 17.46200 31.12200
H  49.23400 16.99400 24.78100
H  43.87300 13.79100 25.50500
H  45.86000 16.48000 33.38900
H  48.77700 16.34600 33.01800
H  47.68600 18.88000 32.29900
H  48.70700 18.40500 33.73800
H  46.97700 18.18000 33.81600
H  47.90600 14.63700 34.01200
H  46.37600 13.75500 33.51300
H  47.09700 14.32800 35.93900
H  45.38500 14.25600 35.40500
H  52.93300 17.34200 29.57700
H  51.67900 18.24300 30.31600
H  52.55500 18.95800 28.98800
H  53.64400 17.97100 27.10200
H  52.77400 19.52900 26.89000
H  53.60400 18.71400 25.52800
H  47.95200 15.34900 23.33800
H  45.09500 14.92100 23.63300
H  45.69300 17.02000 22.91300
H  47.34400 17.48600 22.62400
H  46.49100 17.80600 24.12900
H  46.09300 12.61600 24.49100
H  47.56300 13.16200 23.69600
H  46.41400 12.43400 21.71000
H  45.12600 13.55100 21.92800
H  45.06200 11.89800 22.69900
H  42.48800 12.25800 26.72200
H  41.32200 13.43100 27.33700
H  41.54100 11.98900 28.19700
H  44.14300 13.72000 32.89700
H  41.08400 16.28700 34.43400
H  42.77500 17.03200 34.88900
H  41.99200 15.84000 35.82800

