158

Mg 43.31900 3.56200 47.32100
C  41.44400 6.57400 47.26300
C  40.44100 1.81000 47.27000
C  45.25200 0.94500 46.57800
C  46.26200 5.69000 46.88700
N  41.16700 4.19300 47.17200
C  40.63300 5.42600 47.25500
C  39.11000 5.26900 47.38600
C  38.87500 3.73700 47.60200
C  40.23900 3.20600 47.30500
C  38.29400 3.31700 48.98200
C  38.23500 5.97200 46.27600
C  38.93400 5.93200 44.90700
H  37.99300 6.38500 43.72800
N  42.90200 1.67500 46.92700
C  41.66800 1.07900 47.05400
C  41.82300 -0.36100 46.94700
C  43.18400 -0.65400 46.56700
C  43.84800 0.69200 46.67600
C  40.61000 -1.27700 47.09000
C  43.83100 -2.00200 46.24200
O  43.11700 -3.01500 46.28700
C  45.32700 -2.18900 45.85500
N  45.47700 3.43900 46.53200
C  45.99100 2.10100 46.65300
C  47.55000 2.20200 46.62500
C  47.85100 3.66900 46.49300
C  46.46800 4.32600 46.64400
C  48.17400 1.60900 47.95000
C  48.64600 3.98100 45.24000
C  49.92400 4.73300 45.40200
N  43.81600 5.62000 47.23900
C  45.03000 6.30800 47.12900
C  44.79300 7.76000 47.36600
C  43.38000 7.89200 47.32600
C  42.83900 6.59800 47.21200
C  45.79100 8.89100 47.51900
C  42.31900 8.86400 47.37900
O  42.31500 10.03000 47.66700
C  41.01000 8.03800 47.29400
C  40.13500 8.34400 48.51300
O  40.27300 7.95000 49.65000
O  39.21100 9.23800 48.04100
C  38.14100 9.43300 49.05600
H  39.47100 1.33800 47.43700
H  45.90500 0.07500 46.68500
H  47.13300 6.34400 46.81500
H  38.76000 5.80600 48.26800
H  38.20500 3.33800 46.84100
H  39.05800 2.99100 49.68900
H  37.52200 2.58600 48.74400
H  37.82900 4.23700 49.33700
H  38.23400 7.04200 46.48400
H  37.25500 5.51000 46.16100
H  39.20200 4.90800 44.64800
H  39.73000 6.67200 44.98600
H  40.28900 -1.63300 46.11100
H  39.75000 -0.77500 47.53400
H  40.72800 -2.14200 47.74200
H  45.90700 -2.09900 46.77400
H  45.61300 -1.52000 45.04400
H  45.46400 -3.19500 45.45800
H  47.89200 1.62800 45.76400
H  48.48400 4.00000 47.31600
H  48.53000 0.59200 47.78700
H  47.49700 1.73300 48.79600
H  49.03100 2.19800 48.27800
H  47.93300 4.56500 44.65800
H  48.99300 3.10800 44.68700
H  50.74300 4.17700 44.94700
H  50.21700 4.89500 46.43900
H  50.10900 5.67300 44.88200
H  45.27100 9.80100 47.81900
H  46.20300 8.92500 46.51100
H  46.55700 8.64900 48.25500
H  40.42500 8.34200 46.42600
H  38.44000 9.75000 50.05500
H  37.52300 8.54900 49.21300
H  37.38000 10.11000 48.66900
Mg -11.82500 37.74600 42.43100
C  -9.62500 35.29400 41.23600
C  -9.97600 40.08200 40.75500
C  -14.25100 40.04200 43.13000
C  -14.11500 35.20600 43.25500
N  -10.11100 37.66200 41.01600
C  -9.24500 36.57500 40.84100
C  -7.93900 37.02700 40.11000
C  -8.05500 38.56400 40.08400
C  -9.48000 38.79300 40.58800
C  -6.91500 39.38800 40.77800
C  -7.75800 36.37200 38.65700
C  -6.37400 35.92000 38.28300
H  -5.72100 36.42200 37.08400
N  -11.95600 39.75500 42.20700
C  -11.07200 40.57500 41.51100
C  -11.44100 41.90600 41.68400
C  -12.63200 41.92800 42.41900
C  -13.02900 40.52300 42.63000
C  -10.68300 43.08700 41.14800
C  -13.33500 43.16800 42.98500
O  -12.84300 44.26700 42.80100
C  -14.62200 43.11700 43.86200
N  -13.92600 37.61500 43.11500
C  -14.65000 38.75000 43.21400
C  -16.04900 38.39800 43.69600
C  -16.06300 36.85200 43.76700
C  -14.68300 36.48600 43.28000
C  -16.52400 39.01800 45.02700
C  -17.29100 36.20500 42.94500
C  -18.37700 35.65200 43.94800
N  -11.90400 35.71400 42.36100
C  -12.80200 34.77400 42.90600
C  -12.18300 33.47800 43.00400
C  -10.88500 33.71200 42.39200
C  -10.82600 35.01200 41.98000
C  -12.76100 32.13800 43.58600
C  -9.61600 33.04100 42.04200
O  -9.29700 31.85700 42.21400
C  -8.75500 34.06200 41.26500
C  -7.47800 34.18100 41.97700
O  -7.32700 34.30900 43.16800
O  -6.46300 33.78500 41.18300
C  -5.17000 33.44500 41.78100
H  -9.30600 40.84100 40.34500
H  -15.09200 40.70400 43.34500
H  -14.84200 34.45600 43.57300
H  -7.07300 36.80700 40.73500
H  -8.07600 38.89700 39.04600
H  -6.06300 38.71200 40.85200
H  -7.20100 39.73700 41.77000
H  -6.68200 40.23100 40.12700
H  -8.09000 37.01000 37.83700
H  -8.32400 35.44100 38.62800
H  -6.26700 34.83900 38.36500
H  -5.64500 36.34800 38.97100
H  -11.16100 43.52800 40.27300
H  -9.69700 42.72100 40.86000
H  -10.61200 43.78700 41.98000
H  -15.49000 42.96500 43.22100
H  -14.87300 44.07100 44.32500
H  -14.67400 42.34400 44.62800
H  -16.70000 38.82600 42.93400
H  -16.08600 36.51100 44.80200
H  -16.70700 38.24300 45.77100
H  -17.44300 39.54100 44.76400
H  -15.86700 39.79500 45.41700
H  -16.90300 35.37000 42.36100
H  -17.78200 36.89000 42.25500
H  -18.51800 34.59500 43.72600
H  -19.39800 36.01400 43.82600
H  -18.09600 35.80500 44.99000
H  -13.82000 32.20200 43.83800
H  -12.21800 31.81100 44.47200
H  -12.80400 31.46000 42.73400
H  -8.52200 33.84100 40.22300
H  -4.92000 34.10400 42.61200
H  -4.51700 33.55100 40.91500
H  -5.27700 32.46300 42.24200

