158

Mg -2.62600 17.65100 26.75300
C  -3.19300 15.55400 29.53200
C  -2.86300 20.32600 28.72600
C  -2.78300 19.63000 23.89500
C  -2.91000 14.85900 24.65400
N  -2.99400 17.84500 28.84800
C  -3.02900 16.85700 29.86500
C  -3.05900 17.46500 31.26400
C  -3.20100 18.99400 30.90500
C  -3.07900 19.09900 29.39200
C  -4.46600 19.72100 31.35900
C  -1.92900 16.98900 32.25000
C  -1.65900 17.94500 33.34700
H  -1.40700 17.32100 34.65100
N  -2.48100 19.72700 26.41100
C  -2.56400 20.66600 27.37400
C  -2.31000 22.00500 26.75500
C  -2.30400 21.76300 25.37400
C  -2.59000 20.35400 25.14400
C  -2.36300 23.25100 27.55600
C  -2.04700 22.74400 24.26600
O  -2.04200 22.41400 23.08600
C  -1.60100 24.09300 24.56200
N  -2.89200 17.39800 24.55300
C  -2.89700 18.27400 23.61100
C  -2.69100 17.67800 22.24400
C  -2.61500 16.14500 22.43800
C  -2.75200 16.13100 24.00700
C  -3.67300 18.01700 21.12000
C  -1.16900 15.57900 21.91600
C  0.15700 16.03200 22.52400
N  -2.98700 15.66500 26.98600
C  -2.96300 14.64700 26.03900
C  -3.14400 13.35400 26.72700
C  -3.21400 13.67500 28.06400
C  -3.14400 15.07900 28.19700
C  -3.42400 12.00100 26.17100
C  -3.38500 13.13100 29.43300
O  -3.59600 11.99600 29.85100
C  -3.30000 14.37700 30.43200
C  -2.02400 14.12400 31.20200
O  -0.92800 14.45500 30.80500
O  -2.30500 13.44700 32.36100
C  -1.15200 13.23100 33.21000
H  -2.98700 21.13800 29.44600
H  -2.90000 20.19100 22.96600
H  -2.95800 13.99200 23.99100
H  -4.06800 17.16800 31.55100
H  -2.38500 19.57800 31.33200
H  -5.10500 19.31000 32.14100
H  -5.11600 19.91900 30.50700
H  -4.05800 20.63900 31.78100
H  -1.01400 16.95400 31.65900
H  -2.20600 16.03600 32.70000
H  -2.54000 18.58300 33.42000
H  -0.74500 18.49500 33.12200
H  -2.55900 23.11200 28.62000
H  -3.12100 23.91400 27.13900
H  -1.41200 23.73600 27.33500
H  -2.37000 24.64700 25.10100
H  -1.33600 24.57000 23.61900
H  -0.72200 24.01500 25.20200
H  -1.66000 17.93200 21.99900
H  -3.46500 15.65200 21.96500
H  -3.59500 19.09800 21.00500
H  -4.71000 17.72800 21.28900
H  -3.25400 17.52200 20.24400
H  -0.99400 15.85700 20.87700
H  -1.27500 14.49400 21.93200
H  0.64000 15.23700 23.09300
H  0.00200 16.86900 23.20500
H  0.80700 16.48500 21.77600
H  -3.17100 11.26000 26.93000
H  -2.71500 11.85300 25.35600
H  -4.47000 11.92900 25.87500
H  -4.16700 14.46000 31.08800
H  -1.02300 12.19800 33.53100
H  -1.23900 13.73900 34.17000
H  -0.13000 13.44600 32.89700
Mg 49.40000 35.98200 27.44400
C  47.06700 34.90700 29.82800
C  49.99500 38.82400 29.07100
C  51.33300 37.08000 24.75700
C  48.38500 33.27400 25.36200
N  48.58200 36.73100 29.19300
C  47.64800 36.19800 30.07500
C  47.49300 37.09800 31.26900
C  48.31200 38.37800 30.88100
C  48.97600 37.94000 29.61400
C  47.42000 39.71100 30.78700
C  47.79500 36.52500 32.81800
C  46.85000 36.57100 33.93500
H  46.89800 37.86000 34.79000
N  50.61500 37.64800 27.02200
C  50.73600 38.73200 27.87800
C  51.76600 39.63100 27.37400
C  52.24800 39.09400 26.13200
C  51.36700 37.88900 25.91100
C  52.22500 40.84200 28.09500
C  53.24400 39.64100 25.13500
O  53.51000 39.13100 24.03400
C  54.18500 40.75300 25.58000
N  49.81600 35.28900 25.32600
C  50.63400 35.91900 24.49400
C  50.76900 35.17400 23.19300
C  49.87000 33.92400 23.41800
C  49.30200 34.15200 24.78700
C  50.47800 35.92200 21.99600
C  50.45300 32.48600 23.26600
C  50.71600 32.12900 21.86500
N  48.16600 34.28600 27.55300
C  47.79500 33.32000 26.68600
C  46.82400 32.43200 27.21700
C  46.48600 33.00500 28.44500
C  47.32000 34.13500 28.61500
C  46.28100 31.26800 26.46600
C  45.57300 32.92800 29.61000
O  44.70000 32.18400 29.99800
C  46.07700 34.03000 30.60700
C  46.73500 33.29100 31.78400
O  47.83700 32.86600 31.94000
O  45.80000 33.22000 32.81800
C  46.23100 32.53200 34.10300
H  50.21000 39.74600 29.61500
H  51.98800 37.33200 23.92000
H  47.99300 32.52600 24.67000
H  46.42200 37.29400 31.20700
H  49.04400 38.50000 31.67900
H  46.63900 39.63100 31.54400
H  47.09300 39.83000 29.75400
H  48.10200 40.52500 31.03000
H  48.70300 37.05400 33.10700
H  48.05000 35.48100 32.63500
H  46.99900 35.70400 34.57900
H  45.85200 36.50000 33.50300
H  51.59200 41.70000 27.86600
H  53.26600 41.04600 27.84500
H  52.23100 40.77600 29.18300
H  53.71600 41.71700 25.77600
H  54.90400 40.98200 24.79300
H  54.75000 40.39200 26.43900
H  51.84100 35.01300 23.08300
H  49.15800 33.93100 22.59200
H  50.18300 36.93600 22.26400
H  49.70800 35.45400 21.38200
H  51.45400 36.02400 21.52300
H  49.66100 31.81100 23.59100
H  51.31000 32.35800 23.92700
H  51.58000 31.46800 21.78000
H  50.99500 32.95600 21.21300
H  49.87000 31.56600 21.47200
H  45.76600 31.50000 25.53400
H  45.57900 30.85300 27.18900
H  47.10600 30.62300 26.16400
H  45.19000 34.50000 31.03000
H  45.59400 32.99600 34.85600
H  47.24900 32.75100 34.42400
H  46.02500 31.46200 34.12100

