158

Mg 45.20100 3.38200 47.18600
C  42.83400 5.73300 46.60700
C  42.66300 0.93900 47.07100
C  47.54600 0.95100 47.02100
C  47.67500 5.86500 46.81300
N  43.02600 3.29700 46.63800
C  42.29900 4.44500 46.61700
C  40.79200 4.10000 46.37900
C  40.69400 2.65800 47.10100
C  42.19700 2.28400 47.03200
C  39.97000 2.69800 48.55400
C  40.44200 4.13600 44.83800
C  39.24800 4.92000 44.39700
H  39.43100 5.79300 43.18400
N  45.10900 1.25500 47.20800
C  44.00000 0.53200 47.10500
C  44.34600 -0.91800 47.13100
C  45.76400 -0.98300 47.14200
C  46.21100 0.43400 47.11600
C  43.27800 -1.99100 47.14300
C  46.66400 -2.30400 47.13600
O  46.06500 -3.37000 47.14700
C  48.08500 -2.14200 47.02500
N  47.21200 3.39000 46.77300
C  48.00300 2.26000 46.91600
C  49.55400 2.57800 46.90300
C  49.53200 4.11600 47.01400
C  48.08000 4.47900 46.75500
C  50.38800 1.80600 48.02000
C  50.55600 4.80700 46.04900
C  51.43800 5.87100 46.76100
N  45.28400 5.40900 46.76100
C  46.36500 6.31800 46.73300
C  45.76100 7.67100 46.61600
C  44.36300 7.45300 46.58400
C  44.16200 6.04600 46.63800
C  46.45000 9.01600 46.54600
C  43.13800 8.12400 46.43800
O  42.90800 9.32800 46.42500
C  42.08200 6.99200 46.56400
C  41.33100 7.13600 47.87700
O  41.77500 6.77900 48.98100
O  40.01100 7.38600 47.62200
C  39.07400 7.49900 48.71200
H  41.83000 0.23300 47.08300
H  48.40000 0.27100 47.03700
H  48.40500 6.67000 46.92100
H  40.20000 4.81600 46.94900
H  39.96400 2.12600 46.49100
H  39.21600 1.91800 48.66100
H  39.51700 3.66900 48.75100
H  40.77100 2.46000 49.25400
H  40.37900 3.09200 44.53100
H  41.26800 4.50800 44.23100
H  38.71600 5.32200 45.25900
H  38.42200 4.31700 44.01900
H  43.02400 -2.16100 46.09700
H  42.44300 -1.66000 47.75900
H  43.68400 -2.88600 47.61600
H  48.25700 -1.45600 46.19500
H  48.69000 -3.02900 46.83700
H  48.44400 -1.73300 47.96900
H  49.87900 2.27600 45.90700
H  49.76800 4.31600 48.06000
H  50.94100 0.99800 47.54100
H  49.80300 1.50300 48.88800
H  51.10400 2.55100 48.36800
H  49.99100 5.26800 45.23900
H  51.36600 4.18400 45.66900
H  51.39700 5.87700 47.85100
H  51.28600 6.91600 46.49100
H  52.47000 5.68100 46.46800
H  47.05500 9.10300 45.64300
H  47.09600 9.06800 47.42200
H  45.70900 9.81400 46.48500
H  41.32700 7.01400 45.77900
H  38.22800 8.14200 48.46700
H  39.52200 7.79800 49.66000
H  38.66000 6.49100 48.71200
Mg 48.15100 16.03300 28.09100
C  46.50100 15.54800 31.11300
C  50.23200 18.27800 29.72400
C  49.86000 16.26400 25.27700
C  45.71200 14.02200 26.57000
N  48.29000 16.94800 30.20800
C  47.58900 16.46900 31.24100
C  48.22800 17.01400 32.55800
C  49.22700 18.11600 32.12500
C  49.21200 17.81900 30.58700
C  49.04600 19.62200 32.52900
C  48.84600 15.97500 33.56900
C  48.33400 16.08200 34.98800
H  47.91000 17.41400 35.62200
N  49.84200 17.01400 27.59000
C  50.51700 17.97800 28.35400
C  51.62600 18.52600 27.51000
C  51.62600 17.83500 26.30800
C  50.38900 16.99700 26.31100
C  52.53000 19.58800 27.97900
C  52.52100 17.85300 25.12300
O  52.38200 17.12600 24.17000
C  53.67200 18.81500 25.11300
N  47.85400 15.24400 26.18600
C  48.75300 15.45600 25.17700
C  48.29000 14.93300 23.81700
C  46.88800 14.29600 24.22100
C  46.82400 14.48800 25.74700
C  48.21700 15.96600 22.71100
C  46.77000 12.84000 23.85900
C  45.58900 12.46800 23.00600
N  46.34200 15.09100 28.64100
C  45.45200 14.30800 27.93400
C  44.47200 13.75200 28.83600
C  44.82400 14.17300 30.07800
C  45.95700 15.04000 29.87000
C  43.39900 12.73600 28.43600
C  44.53200 14.06500 31.49800
O  43.65600 13.42600 32.05400
C  45.54800 15.06200 32.19200
C  44.73300 16.19700 32.83100
O  44.07000 17.01700 32.23100
O  44.61100 15.95000 34.16400
C  43.46500 16.64100 34.78700
H  50.81500 19.03700 30.25100
H  50.24900 16.52800 24.29200
H  45.12500 13.26800 26.04100
H  47.37500 17.54300 32.98400
H  50.23600 17.91600 32.48700
H  49.10300 20.34600 31.71600
H  49.69600 19.81600 33.38200
H  48.09700 19.80900 33.03000
H  49.92800 16.06700 33.65700
H  48.64400 14.94800 33.26400
H  49.15200 15.64600 35.56300
H  47.54400 15.33300 35.05100
H  53.57600 19.32100 28.13100
H  52.24400 19.87400 28.99100
H  52.56000 20.51600 27.40900
H  53.85300 18.93300 24.04500
H  54.49600 18.49100 25.74900
H  53.44800 19.84100 25.40500
H  48.96500 14.18300 23.40300
H  46.03200 14.79400 23.76500
H  48.43500 16.99900 22.98100
H  47.26300 15.87300 22.19200
H  49.01300 15.62100 22.05100
H  46.73200 12.18200 24.72800
H  47.63200 12.47800 23.29800
H  44.65600 12.86000 23.41300
H  45.51700 11.38500 22.91400
H  45.61500 12.93200 22.02000
H  43.16400 11.93500 29.13700
H  43.76600 12.21000 27.55400
H  42.47400 13.29200 28.28900
H  46.04800 14.58000 33.03200
H  43.33100 17.68300 34.49700
H  43.47600 16.57300 35.87500
H  42.67000 15.99300 34.41600

