158

Mg 8.63000 4.39700 27.40500
C  9.88000 2.97800 30.33300
C  6.71800 6.51700 29.46200
C  7.14200 5.76400 24.65700
C  10.40900 2.26200 25.41100
N  8.25000 4.64300 29.66300
C  8.99700 4.02700 30.62400
C  8.61800 4.63000 31.98200
C  7.62000 5.80200 31.70100
C  7.43700 5.63500 30.15600
C  6.39900 5.77200 32.57900
C  9.82300 4.97700 32.84800
C  9.56300 5.81100 34.10100
H  10.22500 5.22300 35.37700
N  7.12000 5.83000 27.11800
C  6.49300 6.61100 28.05900
C  5.64400 7.58900 27.42700
C  5.70100 7.43200 26.05300
C  6.67700 6.32200 25.84800
C  4.86300 8.62400 28.19400
C  5.06400 8.11400 24.93200
O  5.08100 7.76600 23.78500
C  4.27500 9.32200 25.10300
N  8.64700 3.97200 25.33400
C  7.97900 4.67400 24.38300
C  8.32000 4.25400 22.98800
C  9.41200 3.10900 23.25100
C  9.58200 3.11400 24.76500
C  7.09900 3.85400 22.22600
C  10.78200 3.41700 22.49800
C  11.46900 2.18500 21.86900
N  9.86500 2.89000 27.70200
C  10.55300 2.10700 26.79900
C  11.26100 1.10800 27.54500
C  11.00300 1.35700 28.94100
C  10.22700 2.49400 28.99700
C  12.15800 0.02600 27.13300
C  11.32900 0.99300 30.30300
O  12.05800 0.08500 30.67700
C  10.50000 2.00700 31.31300
C  9.59100 1.20300 32.25200
O  8.91000 0.21700 31.98800
O  9.94100 1.63500 33.53400
C  9.49000 0.64000 34.61700
H  6.24500 7.34700 29.99100
H  6.85400 6.30500 23.75300
H  10.91300 1.49000 24.82600
H  8.02200 3.84000 32.44000
H  8.12600 6.75700 31.84300
H  5.64000 5.27500 31.97500
H  6.06800 6.80000 32.72600
H  6.46800 5.39500 33.59900
H  10.24100 5.66700 32.11500
H  10.47800 4.14500 33.10800
H  8.50800 5.75300 34.37000
H  9.88200 6.82900 33.87400
H  5.31100 9.58800 27.95400
H  4.73300 8.54300 29.27300
H  3.86700 8.71900 27.76300
H  3.20400 9.19500 25.25800
H  4.43400 9.77700 24.12500
H  4.67600 10.01900 25.83800
H  8.93900 5.06800 22.61100
H  9.08000 2.09700 23.01700
H  7.07100 2.81100 21.91000
H  6.91600 4.56400 21.42000
H  6.20600 3.96400 22.84200
H  11.47200 3.91000 23.18300
H  10.54700 4.09900 21.68100
H  11.73000 2.43800 20.84200
H  10.84400 1.29200 21.89800
H  12.49700 2.08900 22.21900
H  11.49500 -0.80700 26.90100
H  12.90600 -0.22000 27.88700
H  12.63100 0.39400 26.22300
H  11.27700 2.43900 31.94500
H  8.48800 0.22900 34.50000
H  9.39900 1.19400 35.55100
H  10.18000 -0.19100 34.76700
Mg 17.06400 51.19200 25.96900
C  18.86800 49.96500 28.69700
C  14.76400 52.43600 28.16700
C  15.21500 52.23600 23.38200
C  19.50000 49.93700 23.91100
N  16.89100 51.18700 28.18200
C  17.71800 50.66400 29.09500
C  17.21100 50.94600 30.58700
C  15.73700 51.48600 30.32800
C  15.82800 51.78500 28.82700
C  14.63400 50.59400 30.79100
C  18.22900 51.92300 31.27100
C  17.90700 52.52100 32.63600
H  16.92200 51.74400 33.51600
N  15.33800 52.32600 25.80700
C  14.54100 52.75700 26.82300
C  13.40300 53.43300 26.31700
C  13.49500 53.45900 24.87900
C  14.75000 52.65000 24.59000
C  12.42900 54.01700 27.17100
C  12.71900 54.23700 23.83800
O  13.00100 54.11300 22.66200
C  11.36700 54.92900 24.16900
N  17.30400 51.07500 23.99400
C  16.35200 51.52500 23.10600
C  16.97900 51.37200 21.66700
C  18.48400 51.04900 21.83500
C  18.45600 50.69900 23.35300
C  16.10200 50.46700 20.73600
C  19.59400 52.16000 21.52600
C  20.78600 51.59300 20.72100
N  18.83200 50.12000 26.17200
C  19.66400 49.62500 25.25700
C  20.79300 48.88000 25.93000
C  20.48400 48.99900 27.31700
C  19.35500 49.78300 27.40400
C  21.98900 48.35200 25.39500
C  20.90700 48.61900 28.62800
O  21.77500 47.87400 28.96800
C  19.87700 49.32700 29.64600
C  19.29000 48.27800 30.50000
O  18.58800 47.29500 30.13800
O  19.54300 48.57300 31.80500
C  18.92200 47.76600 32.88200
H  13.95800 52.79900 28.80800
H  14.68400 52.66400 22.53000
H  20.16800 49.55500 23.13600
H  17.23800 49.98800 31.10500
H  15.53900 52.43200 30.83200
H  14.24700 50.07700 29.91300
H  13.88500 51.22100 31.27500
H  15.04500 49.73900 31.32700
H  18.75700 52.50300 30.51400
H  19.06500 51.27700 31.53900
H  17.38200 53.47100 32.53700
H  18.74700 52.55200 33.33000
H  11.48700 53.47600 27.27000
H  12.23200 55.01700 26.78400
H  12.77900 54.29700 28.16400
H  11.66600 55.80500 24.74600
H  10.81500 54.33200 24.89400
H  10.83900 55.15300 23.24200
H  17.06900 52.31700 21.13100
H  18.70000 50.17300 21.22400
H  15.70500 51.04400 19.90100
H  15.24500 50.09700 21.29900
H  16.69700 49.66100 20.30800
H  19.96100 52.64600 22.43000
H  19.06200 52.91400 20.94700
H  20.73000 51.81200 19.65400
H  20.95100 50.51700 20.67900
H  21.68800 52.10200 21.05800
H  22.84700 49.00400 25.55600
H  21.83000 48.04500 24.36100
H  22.19700 47.39800 25.87900
H  20.32400 50.12200 30.24400
H  19.53400 46.98200 33.32700
H  18.04000 47.28800 32.45400
H  18.52600 48.40900 33.66700

