158

Mg -3.22600 16.69500 27.03400
C  -3.63000 14.79700 30.03100
C  -4.23300 19.46000 29.01100
C  -3.49700 18.60900 24.30600
C  -3.50300 13.82400 25.23900
N  -3.62400 17.09700 29.37100
C  -3.66100 16.12300 30.38700
C  -3.73000 16.78000 31.74400
C  -4.11600 18.23000 31.35500
C  -4.04800 18.30000 29.81300
C  -5.41300 18.69300 31.94600
C  -2.39500 16.53900 32.45700
C  -1.89200 17.51900 33.54100
H  -1.40300 16.91300 34.98800
N  -3.41100 18.70100 26.74700
C  -3.76500 19.74100 27.66400
C  -3.66700 21.02300 26.98500
C  -3.32700 20.76200 25.64100
C  -3.46000 19.28300 25.49100
C  -4.03300 22.30600 27.71200
C  -2.93300 21.68500 24.48300
O  -2.73000 21.31500 23.27400
C  -2.59200 23.05900 24.83400
N  -3.65600 16.23200 24.98900
C  -3.64300 17.23500 24.05000
C  -3.73100 16.64800 22.63500
C  -3.63600 15.07400 22.92800
C  -3.59200 15.01200 24.46000
C  -4.96900 17.15100 21.74500
C  -2.46600 14.40400 22.19100
C  -1.05400 14.31700 22.85300
N  -3.44000 14.69500 27.47500
C  -3.43200 13.62800 26.61300
C  -3.48200 12.42100 27.37900
C  -3.51200 12.82600 28.70300
C  -3.53900 14.27900 28.73900
C  -3.52600 10.98300 26.83600
C  -3.55400 12.33200 30.08000
O  -3.56200 11.22700 30.52500
C  -3.58200 13.63800 30.99400
C  -2.29900 13.53800 31.61300
O  -1.20200 13.82600 31.17800
O  -2.49700 13.01200 32.90400
C  -1.49400 13.08700 33.93300
H  -4.54700 20.31900 29.60800
H  -3.52000 19.23300 23.41000
H  -3.58400 12.83700 24.77900
H  -4.50600 16.32200 32.35700
H  -3.40700 18.86800 31.88300
H  -6.18600 18.39300 31.23900
H  -5.32300 19.73400 32.25500
H  -5.36200 18.23300 32.93300
H  -1.68200 16.51200 31.63300
H  -2.48200 15.53300 32.86800
H  -2.60000 18.28600 33.85600
H  -1.07000 18.01300 33.02400
H  -3.09900 22.85800 27.82100
H  -4.54100 22.19800 28.67100
H  -4.65300 22.86500 27.01100
H  -3.33500 23.67300 25.34300
H  -2.40500 23.61300 23.91400
H  -1.68500 22.99700 25.43500
H  -2.81800 17.03100 22.18100
H  -4.51400 14.59800 22.49100
H  -4.63500 17.61800 20.81800
H  -5.59800 17.82600 22.32600
H  -5.62700 16.31200 21.52100
H  -2.36200 14.98000 21.27100
H  -2.79500 13.42900 21.83100
H  -0.38400 14.98000 22.30500
H  -0.78500 13.27200 22.69500
H  -1.02800 14.61100 23.90200
H  -4.52300 10.60100 26.61300
H  -3.11400 10.27500 27.55600
H  -3.00100 11.10500 25.88900
H  -4.35700 13.63100 31.76000
H  -1.70900 13.84000 34.69100
H  -0.52400 13.36500 33.52100
H  -1.50400 12.06400 34.30900
Mg 34.30700 3.34900 29.72500
C  32.18000 4.00100 32.45700
C  36.86000 3.35300 32.00600
C  36.38000 2.85200 27.20900
C  31.61200 3.62900 27.55600
N  34.42100 3.46400 31.97100
C  33.44200 3.71100 32.87300
C  33.94500 3.53200 34.33700
C  35.47400 3.47900 34.11500
C  35.59000 3.40600 32.59600
C  36.31600 4.70300 34.78200
C  33.29200 2.29500 35.06600
C  32.74700 2.54200 36.52900
H  33.60900 3.48300 37.48700
N  36.28400 3.09100 29.63400
C  37.20600 3.20600 30.62000
C  38.64700 3.00700 30.19300
C  38.51800 2.80100 28.74600
C  37.01700 2.85500 28.46900
C  39.81700 3.15200 31.10600
C  39.55100 2.60700 27.66100
O  39.31600 2.38300 26.48600
C  40.97800 2.72300 28.07400
N  34.06600 3.48400 27.64700
C  35.06000 3.08400 26.82300
C  34.57900 2.80800 25.43300
C  33.00900 2.90400 25.59500
C  32.85200 3.28600 27.01700
C  35.17500 3.88600 24.44900
C  32.35500 1.58100 25.14500
C  31.06400 1.74200 24.44000
N  32.30100 3.79600 29.87100
C  31.27500 3.87700 28.91900
C  30.02300 4.18900 29.55000
C  30.37500 4.29800 30.94700
C  31.70800 3.97900 31.06500
C  28.69600 4.40300 28.97300
C  29.86600 4.64100 32.29400
O  28.87500 5.20900 32.63300
C  31.01500 4.36400 33.26700
C  31.23700 5.62100 34.00500
O  31.51800 6.68700 33.48200
O  31.09700 5.48200 35.32700
C  31.49100 6.61200 36.17100
H  37.77400 3.36100 32.60400
H  37.01200 2.41800 26.43200
H  30.78200 3.57700 26.84800
H  33.75700 4.44300 34.90500
H  35.86300 2.55300 34.53900
H  37.07900 4.17600 35.35400
H  35.71800 5.32400 35.44900
H  36.87700 5.26800 34.03600
H  34.07100 1.54200 35.18200
H  32.47400 1.95100 34.43300
H  32.69500 1.62700 37.11900
H  31.67700 2.74300 36.47400
H  40.10600 4.19000 31.27600
H  40.76000 2.69300 30.80800
H  39.72300 2.56900 32.02200
H  41.55800 2.68500 27.15200
H  41.30900 1.88200 28.68300
H  41.10900 3.69100 28.55800
H  34.99600 1.82100 25.23300
H  32.52000 3.67900 25.00500
H  36.01000 4.44900 24.86600
H  34.37900 4.62100 24.33300
H  35.39100 3.38500 23.50600
H  32.14000 0.88200 25.95300
H  33.00600 1.02900 24.46700
H  30.40900 1.01100 24.91500
H  31.17700 1.57100 23.36900
H  30.59200 2.71000 24.60700
H  28.41000 5.42000 29.24200
H  27.97400 3.64900 29.28900
H  28.68600 4.20900 27.90000
H  30.65000 3.57300 33.92100
H  31.16000 6.37700 37.18300
H  31.16000 7.59900 35.84800
H  32.57700 6.51300 36.16700

