158

Mg 48.64700 35.85200 27.85800
C  46.92400 34.14600 30.41400
C  49.03900 38.47000 29.98900
C  49.89700 37.66000 25.27800
C  47.65900 33.29300 25.66800
N  48.10800 36.15200 29.95800
C  47.60700 35.31800 30.88100
C  47.77400 35.89800 32.31400
C  48.03700 37.44000 32.06000
C  48.38700 37.35600 30.54700
C  46.90200 38.41100 32.43100
C  48.95200 35.22700 33.12500
C  48.68000 34.85200 34.54200
H  49.29100 35.94900 35.48400
N  49.40400 37.84000 27.72500
C  49.55400 38.75100 28.69100
C  50.31200 39.92900 28.27900
C  50.47900 39.71600 26.89600
C  49.86000 38.38600 26.51700
C  50.75900 41.06700 29.16100
C  51.29600 40.51500 25.81300
O  51.46700 40.10900 24.64800
C  51.87600 41.75700 26.22500
N  48.84000 35.38000 25.71500
C  49.46000 36.32600 24.88900
C  49.47700 35.69300 23.48000
C  48.95000 34.23100 23.65000
C  48.48100 34.30600 25.06000
C  48.63300 36.54000 22.39500
C  50.02100 33.10900 23.40500
C  49.46400 31.92500 22.57600
N  47.59500 34.05300 28.00400
C  47.25400 33.09100 27.00100
C  46.48400 32.06000 27.54100
C  46.46300 32.36200 28.92200
C  47.05500 33.60700 29.13100
C  45.84400 30.97500 26.80400
C  45.95000 31.89100 30.27700
O  45.40400 30.82600 30.64400
C  46.13500 33.16400 31.20400
C  46.62100 32.87100 32.60700
O  47.62500 32.32400 32.95200
O  45.60700 33.04300 33.41200
C  45.54700 32.30100 34.66900
H  49.43900 39.13000 30.76100
H  50.46800 38.07200 24.44300
H  47.22800 32.48400 25.07500
H  46.83600 35.80000 32.86000
H  48.98200 37.62400 32.57200
H  47.16400 39.18800 33.14800
H  46.00300 37.93900 32.82700
H  46.51900 38.87100 31.52000
H  49.76100 35.94900 33.01400
H  49.32000 34.30300 32.67800
H  49.15100 33.90600 34.80900
H  47.61200 34.93100 34.74500
H  50.43900 42.04500 28.80200
H  51.83500 41.05900 29.33800
H  50.33600 40.87200 30.14600
H  51.00300 42.35200 26.49200
H  52.38300 42.31400 25.43800
H  52.53800 41.56600 27.07000
H  50.52200 35.68000 23.16800
H  48.03700 34.04100 23.08600
H  48.05100 35.77400 21.88300
H  49.26500 37.02500 21.65100
H  48.07100 37.31100 22.92100
H  50.42900 32.66500 24.31200
H  50.85400 33.61900 22.92100
H  48.73500 32.25800 21.83700
H  48.86900 31.29500 23.23900
H  50.20700 31.26200 22.13400
H  46.53100 30.15200 26.60600
H  45.47900 31.43400 25.88500
H  44.88300 30.68300 27.22900
H  45.13900 33.57700 31.36400
H  46.08000 32.64500 35.55500
H  45.87200 31.27600 34.49000
H  44.48300 32.35900 34.89900
Mg 27.10800 50.81700 26.61700
C  25.09300 51.76700 29.34700
C  29.46700 49.90300 28.83000
C  29.10600 50.13500 23.99400
C  24.75000 52.19700 24.52300
N  27.25900 50.78800 28.85500
C  26.27400 51.16900 29.77200
C  26.76500 50.92400 31.27200
C  28.30600 50.60400 31.09700
C  28.36800 50.40100 29.52100
C  29.15000 51.77500 31.72700
C  26.01000 49.74300 31.92400
C  25.27100 50.09000 33.27300
H  26.16300 50.46300 34.44500
N  28.99100 50.15600 26.45100
C  29.79500 49.73100 27.48300
C  31.08900 49.14000 26.96200
C  30.99600 49.31600 25.56300
C  29.67700 49.86400 25.30400
C  32.14400 48.60000 27.86700
C  32.06800 48.96400 24.53400
O  31.86600 49.09300 23.33000
C  33.44900 48.52400 24.98000
N  27.14000 51.38000 24.56000
C  27.93600 50.76500 23.66900
C  27.47600 50.96700 22.22900
C  26.01100 51.53000 22.38700
C  25.94600 51.69700 23.94100
C  28.42000 51.96900 21.45500
C  24.83100 50.80800 21.79400
C  23.82000 51.57400 20.85300
N  25.22400 51.81900 26.82600
C  24.38800 52.30900 25.90700
C  23.30900 52.97500 26.52300
C  23.46500 52.75900 27.91000
C  24.69100 52.03100 28.04300
C  22.31900 53.71000 25.73800
C  22.88400 52.92000 29.21900
O  21.85500 53.35000 29.58700
C  23.95900 52.28800 30.21900
C  24.41500 53.42200 31.07300
O  25.24300 54.26900 30.79900
O  23.70300 53.51100 32.22200
C  23.87200 54.74800 33.05600
H  30.22300 49.54700 29.53300
H  29.72100 49.98600 23.10400
H  24.18800 52.75900 23.77400
H  26.61700 51.88900 31.75600
H  28.37300 49.62300 31.56600
H  28.71200 52.67100 32.16600
H  29.91500 52.15100 31.04800
H  29.65900 51.20000 32.50100
H  26.53900 48.85000 32.25700
H  25.28600 49.42100 31.17600
H  24.60200 49.24300 33.42600
H  24.49500 50.82000 33.04000
H  33.06500 49.15900 27.70400
H  32.30900 47.57100 27.54900
H  31.86700 48.69800 28.91700
H  34.24400 48.49900 24.23500
H  33.33300 47.47600 25.25700
H  33.81600 49.16900 25.77800
H  27.48400 49.98600 21.75400
H  26.03800 52.55700 22.02300
H  29.13700 52.43200 22.13300
H  27.92400 52.77900 20.91900
H  28.91700 51.35200 20.70700
H  24.17500 50.62200 22.64400
H  25.16800 49.91400 21.27000
H  24.21600 52.56500 20.63100
H  22.89500 51.77700 21.39200
H  23.64500 51.03700 19.92100
H  22.70200 54.57200 25.19200
H  21.57100 54.05800 26.45000
H  21.82800 52.99100 25.08300
H  23.44700 51.49200 30.76000
H  24.64700 54.37200 33.72400
H  22.99800 54.87600 33.69500
H  24.12900 55.67000 32.53500

