158

Mg 1.63100 -1.84300 44.36900
C  5.06700 -1.41300 43.72700
C  0.92300 0.63700 41.99400
C  -1.60800 -2.75700 44.30800
C  2.50000 -4.91800 45.91900
N  2.88000 -0.57500 43.02700
C  4.24100 -0.54400 43.00300
C  4.73100 0.57900 42.00200
C  3.48600 1.39800 41.82000
C  2.33000 0.44400 42.33800
C  3.35700 2.81700 42.49900
C  5.43000 -0.12700 40.71800
C  6.53600 0.69700 40.00900
H  6.61000 0.73400 38.46200
N  -0.13700 -1.15000 43.28100
C  -0.24200 -0.09600 42.40100
C  -1.62000 0.16200 42.04900
C  -2.43500 -0.75700 42.84000
C  -1.44100 -1.59900 43.51900
C  -2.10300 1.13300 40.97900
C  -3.90100 -0.81300 42.83600
O  -4.58900 -0.02000 42.20900
C  -4.57500 -2.03600 43.48500
N  0.64500 -3.63100 45.09600
C  -0.72600 -3.62900 44.96700
C  -1.25700 -5.00700 45.55700
C  0.04100 -5.73300 46.04200
C  1.13600 -4.70700 45.71500
C  -2.32100 -4.93600 46.69900
C  0.22900 -7.19300 45.53200
C  0.84500 -8.13500 46.52900
N  3.42700 -2.83200 45.02800
C  3.65100 -4.05600 45.62500
C  5.05100 -4.25800 45.84300
C  5.66000 -3.21500 45.14200
C  4.60900 -2.36800 44.65000
C  5.68400 -5.42500 46.55800
C  6.98000 -2.67200 44.70000
O  8.12300 -3.00500 44.88600
C  6.66500 -1.44300 43.75400
C  7.35500 -0.26700 44.25300
O  8.25500 0.34300 43.77200
O  6.70800 0.18800 45.39200
C  7.12700 1.57700 45.73000
H  0.69100 1.47500 41.33400
H  -2.60200 -3.20200 44.38000
H  2.72400 -5.77200 46.56100
H  5.57000 1.02000 42.54100
H  3.45500 1.44200 40.73100
H  4.01400 3.05600 43.33500
H  2.41400 2.92000 43.03600
H  3.25800 3.57800 41.72500
H  4.61800 -0.11600 39.99100
H  5.49900 -1.19500 40.92500
H  7.46500 0.28800 40.40700
H  6.57400 1.74200 40.31600
H  -3.02800 0.84200 40.48000
H  -1.44100 1.22300 40.11800
H  -2.14800 2.14600 41.38000
H  -4.52900 -2.06100 44.57400
H  -4.27400 -2.97000 43.01000
H  -5.62600 -1.94100 43.21500
H  -1.76000 -5.59100 44.78700
H  -0.10400 -5.84200 47.11700
H  -2.40900 -5.85300 47.28000
H  -3.30300 -4.62600 46.34000
H  -1.85500 -4.13300 47.27100
H  0.85400 -7.18400 44.63900
H  -0.70800 -7.61700 45.17100
H  0.29600 -9.07700 46.50900
H  0.75800 -7.83800 47.57500
H  1.89900 -8.30000 46.30700
H  6.74100 -5.17400 46.65100
H  5.55600 -6.38300 46.05200
H  5.22100 -5.44500 47.54400
H  7.06500 -1.63400 42.75800
H  6.71200 1.88600 46.68900
H  6.75500 2.29100 44.99600
H  8.20200 1.75200 45.70000
Mg 39.89600 10.51700 30.00000
C  41.72300 11.53100 32.64400
C  37.70700 8.86300 32.21400
C  38.30400 9.09400 27.31200
C  42.56700 11.31700 27.83600
N  39.90100 10.01200 32.29000
C  40.60700 10.81900 33.08600
C  40.11300 10.73200 34.53800
C  38.81000 9.82800 34.39700
C  38.79700 9.43600 32.88400
C  38.63800 8.65000 35.37500
C  39.81100 12.17600 35.24400
C  40.57200 12.36900 36.58100
H  39.66300 13.06400 37.58400
N  38.10800 9.38400 29.82800
C  37.39800 8.75100 30.83900
C  36.24500 8.10700 30.26600
C  36.38400 8.24700 28.83900
C  37.67300 8.94800 28.56100
C  35.20000 7.42300 31.11300
C  35.53500 7.59100 27.75600
O  35.88500 7.56700 26.59200
C  34.29600 6.79000 28.10100
N  40.45200 10.13200 27.88300
C  39.59300 9.61300 27.01000
C  39.90800 9.98600 25.49600
C  41.31400 10.75900 25.62800
C  41.51300 10.73800 27.15500
C  39.85000 8.85000 24.51000
C  41.35400 12.19400 24.95300
C  40.68500 13.40400 25.60800
N  41.74100 11.41000 30.12600
C  42.72400 11.67000 29.19300
C  43.84300 12.25000 29.83300
C  43.45600 12.31000 31.21600
C  42.20400 11.69000 31.32900
C  45.05400 12.75300 29.14600
C  43.94400 12.57900 32.54700
O  44.97100 13.16000 32.92800
C  42.82200 12.06000 33.55900
C  43.37200 11.07800 34.54100
O  43.74000 9.95500 34.31800
O  43.40900 11.68100 35.78800
C  43.71600 10.84600 36.95000
H  37.05300 8.35500 32.92400
H  37.65000 8.98800 26.44400
H  43.37700 11.63000 27.17400
H  40.86400 10.16900 35.09300
H  37.86900 10.36200 34.53200
H  38.63500 7.68200 34.87300
H  37.73300 8.80700 35.96200
H  39.49500 8.62300 36.04900
H  38.74700 12.12100 35.47600
H  40.06800 12.91900 34.48900
H  41.28600 13.15700 36.34100
H  40.92700 11.41200 36.96300
H  35.62500 7.14600 32.07800
H  34.92700 6.47600 30.64700
H  34.23100 7.91900 31.17900
H  33.59000 7.39500 28.66900
H  34.52500 5.95400 28.76300
H  33.87800 6.45700 27.15100
H  39.05400 10.63600 25.30800
H  42.08000 10.07400 25.26200
H  39.52600 7.89900 24.93200
H  40.81300 8.57200 24.08100
H  39.16700 9.16100 23.71900
H  40.88600 12.07600 23.97500
H  42.39400 12.50500 24.85400
H  40.07300 14.02600 24.95400
H  41.48300 14.06200 25.95000
H  40.12100 13.13100 26.50000
H  45.31400 13.68500 29.64800
H  45.02000 13.06900 28.10300
H  45.86500 12.09700 29.46100
H  42.37900 12.94200 34.02200
H  44.29100 11.43000 37.66900
H  44.24200 9.91400 36.74200
H  42.83000 10.59900 37.53600

