158

Mg 54.88800 25.59900 44.67800
C  52.05500 27.49800 43.93600
C  53.01700 22.74000 43.80600
C  57.64100 23.73200 44.97300
C  56.74500 28.53500 45.01500
N  52.74400 25.23800 43.90400
C  51.73000 26.16100 43.71600
C  50.43600 25.47600 43.16300
C  50.73600 23.95600 43.49900
C  52.28400 23.93800 43.80000
C  49.95500 23.42100 44.78700
C  50.31700 25.62800 41.62500
C  48.92900 25.42100 40.99300
H  48.82500 24.61100 39.70600
N  55.26900 23.49300 44.46300
C  54.37900 22.55800 44.05700
C  55.01300 21.26900 43.99200
C  56.44500 21.46100 44.35400
C  56.48800 22.92900 44.66100
C  54.27300 19.96500 43.75000
C  57.51800 20.40800 44.26800
O  57.19800 19.27600 43.92700
C  58.90500 20.66300 44.70200
N  56.94500 26.05800 44.90400
C  57.92200 25.11500 45.15700
C  59.30700 25.77700 45.40500
C  58.93400 27.28700 45.53000
C  57.43000 27.33000 45.13800
C  60.17600 25.12700 46.51400
C  59.77900 28.22200 44.68900
C  60.21500 29.53500 45.27300
N  54.55100 27.55500 44.56700
C  55.36100 28.60400 44.81700
C  54.46200 29.78200 44.92200
C  53.20800 29.44500 44.44700
C  53.30100 28.03800 44.32500
C  54.87900 31.10700 45.34300
C  51.84400 29.96200 44.22800
O  51.29200 31.03900 44.47100
C  51.05300 28.70200 43.78900
C  50.71700 29.01500 42.36000
O  51.47200 29.25800 41.47200
O  49.30800 29.08500 42.24600
C  48.85700 29.53200 40.94000
H  52.42300 21.87000 43.51600
H  58.52600 23.09500 45.02700
H  57.12500 29.51900 45.29600
H  49.52500 25.84400 43.63400
H  50.42000 23.42500 42.60100
H  49.22900 24.14100 45.16400
H  50.65000 23.19700 45.59600
H  49.42600 22.54200 44.41800
H  51.02800 24.89700 41.24200
H  50.68500 26.58900 41.26600
H  48.68000 26.45000 40.73400
H  48.17700 25.11100 41.71800
H  54.31600 19.78800 42.67500
H  53.23400 19.88600 44.06900
H  54.87100 19.20500 44.25400
H  59.54300 21.26000 44.05000
H  59.38800 19.72100 44.95900
H  58.76900 21.19300 45.64500
H  59.81600 25.64600 44.45000
H  59.11700 27.64200 46.54400
H  60.98900 24.50600 46.13700
H  59.56700 24.68400 47.30200
H  60.57600 25.95000 47.10600
H  59.33100 28.48500 43.73000
H  60.66900 27.72000 44.31100
H  61.29900 29.53700 45.15500
H  59.97600 29.78000 46.30700
H  59.77900 30.31600 44.65000
H  54.28900 31.86200 44.82400
H  55.94100 31.33600 45.24700
H  54.64400 31.24700 46.39800
H  50.16200 28.62400 44.41200
H  49.57900 30.15000 40.40600
H  47.87200 29.98300 41.06400
H  48.75500 28.64300 40.31900
Mg 26.88100 50.50100 26.08400
C  24.87000 51.57700 28.77800
C  28.98500 49.03100 28.30300
C  28.81000 49.54700 23.45800
C  24.83700 52.29100 23.99800
N  26.85500 50.23200 28.28100
C  26.00900 50.86000 29.25300
C  26.41000 50.44400 30.67600
C  27.89800 49.94900 30.45200
C  27.94200 49.73200 28.90100
C  29.08400 50.84200 30.84300
C  25.42700 49.35200 31.25700
C  24.64800 49.70900 32.59700
H  24.72000 48.69300 33.81300
N  28.63500 49.32600 25.91700
C  29.30800 48.74800 26.96300
C  30.53200 48.07400 26.41600
C  30.58700 48.34900 25.01800
C  29.29000 49.02400 24.70200
C  31.48400 47.36900 27.33600
C  31.70100 47.95100 23.93400
O  31.57300 48.20600 22.77200
C  32.87500 47.13100 24.45600
N  26.89400 50.90100 23.99400
C  27.82300 50.49900 23.13400
C  27.41700 50.91400 21.71800
C  25.93500 51.42200 21.82900
C  25.92300 51.59100 23.37200
C  28.39700 51.97100 21.18600
C  24.81500 50.45200 21.44700
C  23.44800 50.99300 21.05200
N  25.21200 51.71300 26.24400
C  24.46600 52.35300 25.32000
C  23.29100 52.92000 25.91700
C  23.43300 52.68900 27.34000
C  24.54400 51.82800 27.46300
C  22.23900 53.65900 25.07800
C  22.84500 52.88000 28.62500
O  21.96500 53.59000 29.09000
C  23.79200 52.17200 29.59200
C  24.28900 53.15600 30.51500
O  25.22800 53.91000 30.33100
O  23.51600 53.13300 31.64800
C  24.06000 54.12800 32.58300
H  29.66200 48.64700 29.06900
H  29.34500 49.28500 22.54300
H  24.15600 52.63200 23.21500
H  26.37800 51.38900 31.21900
H  28.14200 49.02700 30.98100
H  29.78300 50.91500 30.01000
H  29.55500 50.39300 31.71800
H  28.65300 51.80600 31.11400
H  25.95700 48.44600 31.55400
H  24.59300 49.23700 30.56400
H  23.60800 49.79700 32.28500
H  24.99000 50.65100 33.02700
H  31.86900 46.41400 26.97600
H  31.17700 47.36900 28.38200
H  32.43200 47.90400 27.27200
H  33.65900 46.96600 23.71700
H  32.50200 46.18800 24.85600
H  33.44600 47.58800 25.26500
H  27.32600 49.99000 21.14700
H  25.86900 52.37400 21.30200
H  29.09300 52.19000 21.99500
H  28.01700 52.98200 21.03100
H  28.92100 51.58900 20.31000
H  24.73500 49.60200 22.12500
H  25.18100 50.08700 20.48700
H  22.59300 50.69100 21.65700
H  23.39200 50.83000 19.97500
H  23.48600 52.07500 21.17800
H  21.62300 52.94600 24.53100
H  22.72100 54.33200 24.37000
H  21.57400 54.25600 25.70300
H  23.11200 51.46400 30.06700
H  25.02400 53.73800 32.91000
H  23.42300 54.24700 33.45900
H  24.21500 55.10200 32.11900

