158

Mg 47.59800 15.48200 27.67600
C  45.36200 14.90500 30.23000
C  49.10500 17.86900 29.80900
C  49.58100 16.34200 25.19300
C  45.40800 13.77900 25.48200
N  47.31900 16.19000 29.85500
C  46.43000 15.63700 30.70600
C  46.74700 16.11800 32.10600
C  47.76700 17.31000 31.93900
C  48.05900 17.14100 30.43100
C  47.23300 18.66900 32.44900
C  47.23000 14.98600 33.03400
C  47.08100 15.45900 34.48800
H  48.31000 15.22200 35.40000
N  49.32000 16.69400 27.59600
C  49.72600 17.63400 28.53400
C  50.92200 18.21800 27.96300
C  51.13500 17.72400 26.67300
C  49.97000 16.85900 26.44700
C  51.78100 19.31700 28.73300
C  52.27100 18.05000 25.74500
O  52.43000 17.52100 24.66600
C  53.26500 19.09500 26.15800
N  47.55900 14.98400 25.56000
C  48.52900 15.51700 24.73800
C  48.10900 15.24900 23.22300
C  46.91100 14.24100 23.34400
C  46.56300 14.32400 24.85700
C  47.80200 16.52700 22.40200
C  47.23900 12.76800 22.94100
C  47.97000 11.79400 23.94500
N  45.77700 14.52000 27.74600
C  45.01400 13.85200 26.85100
C  43.73300 13.50200 27.44600
C  43.84900 13.80000 28.78600
C  45.09600 14.47900 28.95100
C  42.60700 12.88700 26.59000
C  43.10400 13.82100 30.06300
O  41.92600 13.56400 30.34000
C  44.13000 14.45900 31.03900
C  43.47900 15.53100 31.84000
O  42.87800 16.50300 31.41200
O  43.49100 15.24800 33.19500
C  42.92600 16.31400 34.00900
H  49.45400 18.66700 30.46900
H  50.12800 16.73200 24.33200
H  44.69800 13.26100 24.83400
H  45.83300 16.49600 32.56500
H  48.68700 17.17400 32.50700
H  47.61500 19.44800 31.78900
H  47.73500 18.95000 33.37500
H  46.14700 18.75700 32.44100
H  48.26000 14.76600 32.75400
H  46.72600 14.02700 32.92000
H  46.27900 14.83000 34.87300
H  46.64300 16.44100 34.66300
H  51.26900 19.60800 29.65000
H  51.81700 20.17600 28.06300
H  52.80000 19.05700 29.01900
H  54.04400 19.02200 25.39800
H  53.79400 18.92700 27.09600
H  52.89100 20.11900 26.14900
H  48.94800 14.70900 22.78500
H  46.05000 14.55400 22.75400
H  48.70500 16.74600 21.83300
H  47.45100 17.37500 22.99000
H  47.02700 16.27000 21.68000
H  47.93000 12.67800 22.10300
H  46.28700 12.29600 22.69700
H  48.86800 11.33200 23.53400
H  47.23600 11.04200 24.23400
H  48.14100 12.16300 24.95600
H  41.65500 13.09700 27.07700
H  42.79700 11.81700 26.50400
H  42.59400 13.29400 25.57800
H  44.34400 13.64800 31.73600
H  43.33000 17.28700 33.72800
H  43.04200 15.91800 35.01700
H  41.86900 16.35800 33.74600
Mg 34.89900 49.81300 25.48600
C  34.76600 47.89900 28.33500
C  33.27200 52.34300 27.27000
C  34.04700 51.30200 22.62900
C  35.67700 46.90900 23.66500
N  34.05300 50.07400 27.61200
C  34.19700 49.16500 28.57100
C  33.90800 49.84400 30.00800
C  33.13400 51.16800 29.57700
C  33.57300 51.20800 28.12700
C  31.61700 51.28300 29.77900
C  35.22000 50.12300 30.83800
C  35.14900 49.54800 32.29500
H  33.77600 49.45400 32.92400
N  34.03300 51.69900 25.00900
C  33.42500 52.55600 25.85100
C  32.96700 53.75200 25.10200
C  33.24100 53.42500 23.73700
C  33.79000 52.15800 23.71100
C  32.29500 54.91200 25.71700
C  32.94100 54.27600 22.41500
O  33.20600 53.85300 21.24900
C  32.38300 55.68800 22.64200
N  34.91200 49.20000 23.43300
C  34.48100 49.97200 22.48900
C  34.67500 49.29400 21.03600
C  35.45100 48.03800 21.45100
C  35.38800 48.08700 22.94300
C  33.39800 48.98200 20.18500
C  36.97200 48.00400 20.87900
C  38.11600 48.82800 21.61800
N  35.17900 47.76400 25.90100
C  35.45300 46.70200 25.08500
C  35.82100 45.60300 25.91700
C  35.57500 46.01900 27.21700
C  35.07000 47.32700 27.13500
C  36.34800 44.32500 25.40800
C  35.53200 45.57400 28.64300
O  35.82800 44.54000 29.21700
C  34.93100 46.80100 29.44100
C  33.77600 46.26600 30.18900
O  32.59600 46.12200 29.71900
O  34.12500 45.84900 31.44300
C  33.02000 45.44000 32.33300
H  32.79700 53.12800 27.86200
H  33.88300 51.67900 21.61700
H  35.97300 46.02000 23.10400
H  33.29000 49.12900 30.55000
H  33.61900 52.05200 29.99100
H  31.18400 51.49800 28.80200
H  31.55100 52.06200 30.53700
H  31.11900 50.38400 30.14200
H  35.37000 51.20300 30.84300
H  36.04700 49.77900 30.21700
H  35.63800 50.24200 32.97900
H  35.65100 48.58200 32.22900
H  31.21800 54.98500 25.57100
H  32.77100 55.81200 25.32800
H  32.40800 55.08600 26.78700
H  32.15700 56.20200 21.70800
H  33.15400 56.35300 23.03000
H  31.49900 55.65500 23.27800
H  35.30700 49.92200 20.40800
H  35.06300 47.10200 21.04800
H  33.54800 49.50900 19.24200
H  32.50500 49.43000 20.62200
H  33.18800 47.93900 19.94900
H  37.06200 48.27600 19.82700
H  37.27600 46.95800 20.85500
H  38.56800 48.31700 22.46800
H  37.62200 49.68600 22.07400
H  38.79500 49.32300 20.92300
H  37.31000 44.43700 24.90900
H  35.66700 43.79300 24.74400
H  36.68200 43.67000 26.21400
H  35.70700 47.11300 30.14000
H  32.19700 46.15200 32.38900
H  33.42400 45.23500 33.32400
H  32.54800 44.55500 31.90500

