158

Mg 1.15200 8.29500 25.57300
C  1.88800 10.28900 28.36000
C  1.84100 5.60900 27.49100
C  0.90100 6.45800 22.79400
C  1.22500 11.13800 23.67200
N  1.98800 8.03000 27.71800
C  1.86700 8.90500 28.71600
C  1.85400 8.28000 30.07400
C  2.08000 6.76100 29.68600
C  1.94700 6.79000 28.23200
C  3.37900 6.05600 30.16400
C  0.55800 8.56700 30.80000
C  0.64600 8.76000 32.28100
H  1.71600 7.91200 33.01200
N  1.17800 6.33500 25.21600
C  1.42800 5.34000 26.17600
C  1.26100 4.06400 25.50200
C  0.82300 4.34000 24.17900
C  0.99600 5.80600 24.00100
C  1.24000 2.76000 26.28400
C  0.23600 3.39000 23.15300
O  -0.27800 3.73400 22.09100
C  0.14300 1.84900 23.38600
N  0.86200 8.81400 23.45500
C  0.85700 7.81300 22.53300
C  0.78400 8.48500 21.11400
C  0.66600 9.99000 21.43900
C  0.83900 10.00400 22.93100
C  2.03400 8.09000 20.11900
C  -0.57800 10.67500 20.95600
C  -0.52900 12.17100 20.49200
N  1.62000 10.20100 25.85500
C  1.55300 11.28000 25.01300
C  1.71000 12.52100 25.72300
C  1.83200 12.20400 27.00800
C  1.88900 10.77900 27.07400
C  1.60100 13.93500 25.12600
C  2.02800 12.66800 28.44000
O  2.13700 13.80000 28.86600
C  1.95000 11.45800 29.33000
C  3.14300 11.59400 30.25600
O  4.33400 11.47500 29.97200
O  2.75500 11.80300 31.59000
C  3.91100 12.01800 32.46300
H  1.91600 4.71100 28.10700
H  0.84400 5.71100 21.99900
H  1.35100 12.02100 23.04200
H  2.72900 8.65500 30.60500
H  1.27800 6.10700 30.02800
H  4.01000 6.77300 30.68900
H  4.08400 5.81200 29.36900
H  3.04600 5.25200 30.82100
H  -0.16700 7.75600 30.74200
H  0.04200 9.44700 30.41500
H  -0.27500 8.48200 32.79400
H  0.92700 9.80700 32.39300
H  1.90100 2.00500 25.85800
H  0.24000 2.34100 26.17000
H  1.32000 2.84500 27.36800
H  1.11100 1.53100 23.77400
H  -0.22200 1.49200 22.42300
H  -0.57400 1.71100 24.19500
H  -0.13600 8.04000 20.73400
H  1.58100 10.45500 21.07400
H  2.75200 7.51100 20.69900
H  2.59900 9.00400 19.94000
H  1.65900 7.57400 19.23500
H  -1.34500 10.48100 21.70600
H  -0.86400 10.05100 20.11000
H  -1.19200 12.17100 19.62700
H  0.50000 12.49200 20.33200
H  -0.90500 12.72700 21.35100
H  1.18600 13.88300 24.11900
H  2.52800 14.50200 25.04100
H  0.96600 14.47200 25.83200
H  1.01700 11.57600 29.88000
H  4.64600 12.72900 32.08600
H  4.24000 10.99600 32.65100
H  3.53400 12.26900 33.45500
Mg 0.32700 43.33500 26.48900
C  2.62800 42.73100 29.24900
C  -2.17600 41.94100 28.47900
C  -1.65300 43.53400 23.93600
C  3.12800 43.74400 24.50400
N  0.23400 42.52400 28.52300
C  1.24100 42.54900 29.48000
C  0.62200 42.44500 30.90800
C  -0.79600 41.86100 30.53900
C  -0.92700 42.09400 29.04600
C  -1.18600 40.41900 30.95400
C  0.70200 43.78700 31.72000
C  1.17800 43.69300 33.15500
H  0.64100 42.53600 34.06400
N  -1.75900 42.94300 26.21800
C  -2.64800 42.30400 27.15700
C  -3.95900 42.25900 26.54500
C  -3.82400 42.79500 25.24100
C  -2.36900 43.08900 25.05100
C  -5.23000 41.77800 27.27200
C  -4.87600 42.90600 24.19800
O  -4.57700 43.15400 22.99900
C  -6.29500 42.79600 24.61300
N  0.72600 43.52500 24.45900
C  -0.33000 43.82300 23.66600
C  0.14500 44.29100 22.29300
C  1.65600 44.39300 22.41700
C  1.90000 43.87500 23.88800
C  -0.32500 43.38400 21.08100
C  2.15400 45.84800 22.22900
C  2.20900 46.83400 23.41800
N  2.40900 43.29900 26.73100
C  3.41900 43.45300 25.84100
C  4.72000 43.30000 26.52200
C  4.43700 43.08900 27.88200
C  3.03300 42.98800 27.92600
C  6.05900 43.17200 25.74100
C  5.07300 42.84100 29.16800
O  6.29200 42.92000 29.48200
C  3.87600 42.76800 30.16200
C  4.01100 41.51300 30.98400
O  4.42900 40.46200 30.57800
O  3.74900 41.77600 32.30600
C  3.96700 40.64700 33.18400
H  -3.01100 41.61600 29.10400
H  -2.29800 43.68400 23.06800
H  4.02600 43.97000 23.92500
H  1.15800 41.60400 31.34900
H  -1.57500 42.50400 30.94900
H  -2.10000 40.50200 31.54200
H  -0.53300 40.04000 31.73900
H  -1.20000 39.65700 30.17400
H  -0.25100 44.31600 31.74200
H  1.45500 44.39300 31.21500
H  0.93800 44.64600 33.62500
H  2.26400 43.61100 33.10700
H  -4.83100 41.22800 28.12400
H  -5.65700 40.90000 26.78700
H  -5.86100 42.60300 27.60400
H  -6.55100 41.76400 24.85400
H  -6.90500 43.19300 23.80200
H  -6.52700 43.48700 25.42300
H  -0.27800 45.26700 22.05600
H  2.16400 43.81600 21.64400
H  -0.85300 42.46500 21.33400
H  0.48800 43.08200 20.42100
H  -1.01500 44.01700 20.52400
H  1.59700 46.31100 21.41500
H  3.17100 45.69100 21.87000
H  3.19900 46.85200 23.87200
H  1.39700 46.57800 24.09900
H  2.04800 47.84500 23.04500
H  6.85500 42.70700 26.32200
H  6.40500 44.15800 25.43200
H  5.94600 42.50600 24.88600
H  3.80300 43.66400 30.77900
H  3.78000 40.92100 34.22300
H  4.97000 40.22100 33.15900
H  3.32400 39.79700 32.95500

