158

Mg 17.22800 -0.01600 28.24400
C  16.00600 1.73200 30.97700
C  18.99000 -2.02400 30.34600
C  18.27200 -1.76100 25.55500
C  14.94700 1.92500 26.13300
N  17.50200 -0.00200 30.40400
C  16.86400 0.70900 31.33700
C  17.11700 0.17200 32.78500
C  18.22700 -0.85900 32.52800
C  18.24400 -1.01300 30.99700
C  19.56100 -0.45400 33.27300
C  15.83300 -0.38100 33.54300
C  15.29500 0.37800 34.76900
H  16.36000 0.88100 35.73500
N  18.60500 -1.60000 28.00600
C  19.16400 -2.33500 28.99000
C  19.97000 -3.42300 28.38500
C  19.75800 -3.30600 26.99200
C  18.84300 -2.19300 26.76600
C  20.71700 -4.41100 29.23200
C  20.28000 -4.22900 25.82800
O  20.01200 -4.03700 24.63900
C  21.13700 -5.37000 26.09900
N  16.64400 0.12900 26.09800
C  17.28000 -0.78100 25.21600
C  16.84500 -0.42300 23.79600
C  15.55300 0.56600 24.01100
C  15.70600 0.91600 25.48000
C  18.08900 0.25400 23.02200
C  14.21300 -0.08400 23.56300
C  13.49500 0.66800 22.32100
N  15.88800 1.61100 28.46300
C  15.02200 2.30700 27.51700
C  14.33700 3.32300 28.25000
C  14.68900 3.11000 29.61900
C  15.67800 2.11100 29.62900
C  13.43500 4.31600 27.63100
C  14.34700 3.51400 30.97000
O  13.48200 4.25300 31.35500
C  15.25600 2.66700 31.90100
C  16.16500 3.62200 32.59300
O  17.17200 4.14900 32.10300
O  15.76900 3.81000 33.90900
C  16.43600 4.96700 34.62100
H  19.62900 -2.70500 30.91200
H  18.50700 -2.29900 24.63500
H  14.30600 2.58000 25.53900
H  17.49800 1.05100 33.30400
H  17.94700 -1.85400 32.87300
H  19.46600 0.15200 34.17400
H  20.21600 0.04300 32.55700
H  20.07400 -1.33800 33.65300
H  15.95100 -1.39900 33.91500
H  15.00200 -0.32700 32.84000
H  14.71100 -0.33100 35.35500
H  14.70200 1.26500 34.54700
H  20.45700 -4.33400 30.28800
H  21.79800 -4.38400 29.09100
H  20.31100 -5.35200 28.86100
H  20.53700 -6.10200 26.64000
H  21.97100 -5.04000 26.71800
H  21.41700 -5.78800 25.13200
H  16.59700 -1.27900 23.16800
H  15.70300 1.44900 23.39000
H  18.18600 -0.23800 22.05400
H  19.00000 0.03300 23.57800
H  17.90200 1.30500 22.80000
H  13.45200 -0.02000 24.34000
H  14.21400 -1.12800 23.25100
H  12.61200 1.18900 22.68900
H  13.12600 -0.10100 21.64200
H  14.27400 1.23400 21.81000
H  12.54700 3.78600 27.28900
H  13.94200 4.78900 26.79000
H  13.10400 4.98100 28.42900
H  14.66000 2.19800 32.68400
H  16.64700 5.81600 33.97100
H  17.21100 4.41900 35.15600
H  15.71400 5.29200 35.37000
Mg 50.07200 45.35500 41.11300
C  46.85400 46.07900 40.10500
C  49.70100 42.11400 39.98700
C  53.54100 44.82900 41.22400
C  50.71900 48.77900 41.63200
N  48.39600 44.18000 40.23600
C  47.08900 44.67700 39.95500
C  46.23500 43.51100 39.38500
C  47.17200 42.23300 39.50400
C  48.49800 42.88100 39.92700
C  46.55900 41.17900 40.53100
C  45.71100 43.68400 37.96900
C  44.61500 42.70600 37.48000
H  44.91900 41.88500 36.21900
N  51.34600 43.67700 40.82900
C  51.00800 42.41700 40.31400
C  52.19100 41.57600 40.27800
C  53.29300 42.41400 40.72500
C  52.74600 43.72900 40.95800
C  52.24000 40.11200 39.87400
C  54.65500 41.87600 40.96800
O  54.85800 40.66100 40.86900
C  55.88500 42.60600 41.56200
N  51.85800 46.61100 41.33500
C  53.15300 46.13400 41.36500
C  54.15600 47.26800 41.66000
C  53.19500 48.44300 41.99700
C  51.83700 47.87900 41.68300
C  55.31300 46.98700 42.72700
C  53.48600 49.76400 41.26900
C  53.27900 51.06400 42.07500
N  49.06200 47.08400 41.02700
C  49.41800 48.39500 41.24300
C  48.28000 49.31400 41.13400
C  47.25900 48.39500 40.59500
C  47.76800 47.07200 40.59100
C  48.28200 50.75600 41.31300
C  45.88100 48.37400 40.05500
O  45.09400 49.29800 39.76800
C  45.60600 46.91100 39.83000
C  44.45900 46.50300 40.80500
O  44.48000 46.55200 41.99900
O  43.43400 46.12700 40.02400
C  42.13500 45.84700 40.69000
H  49.56900 41.06400 39.72000
H  54.62400 44.70100 41.27700
H  50.84900 49.79300 42.01600
H  45.29800 43.43200 39.93600
H  47.17400 41.71700 38.54400
H  46.27800 40.26600 40.00600
H  45.63900 41.51800 41.00700
H  47.28700 41.02200 41.32700
H  46.52800 43.46900 37.28000
H  45.28100 44.68300 37.90300
H  43.75600 43.32100 37.21100
H  44.31200 42.01500 38.26700
H  51.38100 39.87000 39.24800
H  52.12800 39.49300 40.76400
H  53.19800 39.92800 39.38900
H  55.54500 43.28500 42.34400
H  56.32400 43.23400 40.78700
H  56.59300 41.90200 41.99800
H  54.76100 47.55100 40.79900
H  53.25700 48.62500 43.07000
H  55.44800 47.86700 43.35400
H  56.21000 46.67000 42.19600
H  55.01000 46.20000 43.41800
H  52.79300 49.79000 40.42800
H  54.54500 49.78900 41.01300
H  52.85700 50.86900 43.06100
H  52.47300 51.55600 41.53000
H  54.16400 51.70000 42.08200
H  47.38100 51.01900 41.86700
H  48.10100 51.09500 40.29300
H  49.18300 51.26300 41.65900
H  45.40000 46.78800 38.76600
H  41.74700 44.96800 40.17700
H  41.48000 46.67700 40.42500
H  42.17900 45.65800 41.76300

