158

Mg -2.10400 17.56400 26.94400
C  -2.69000 15.00200 29.32700
C  -2.25900 19.86200 29.26300
C  -1.79900 19.78100 24.51400
C  -2.75400 14.97200 24.51700
N  -2.49400 17.40500 28.95500
C  -2.50500 16.36600 29.83800
C  -2.38100 16.77500 31.31000
C  -2.72700 18.26600 31.16900
C  -2.54400 18.55900 29.64200
C  -3.96900 18.86500 31.85700
C  -1.10700 16.40200 32.04900
C  -0.95000 17.09200 33.43400
H  -0.89400 16.27200 34.75600
N  -1.89700 19.59100 26.90000
C  -1.89600 20.35100 28.01500
C  -1.48000 21.70600 27.67300
C  -1.22400 21.65100 26.27300
C  -1.64000 20.27400 25.83500
C  -1.35700 22.84800 28.69700
C  -0.68700 22.67800 25.30700
O  -0.49900 22.43600 24.13300
C  -0.12900 23.95000 25.69000
N  -2.28700 17.38700 24.86400
C  -2.07000 18.48600 24.10900
C  -2.35000 18.27700 22.66300
C  -2.57700 16.71300 22.54200
C  -2.60000 16.31600 24.04700
C  -3.56400 19.10800 22.11400
C  -1.47700 15.91500 21.76800
C  -0.16100 15.59900 22.44400
N  -2.47300 15.39500 26.84400
C  -2.72200 14.50200 25.79100
C  -2.97400 13.21500 26.23300
C  -2.91300 13.32900 27.69200
C  -2.65400 14.66300 27.96900
C  -3.44900 12.05700 25.33800
C  -3.07900 12.57200 28.94600
O  -3.44200 11.44800 29.22700
C  -2.93900 13.65400 30.07000
C  -1.91500 13.15300 31.04200
O  -0.71300 13.24800 30.88200
O  -2.53300 12.53500 32.10100
C  -1.68700 12.09900 33.24100
H  -2.27900 20.65600 30.01100
H  -1.64300 20.54800 23.75300
H  -2.84400 14.26000 23.69400
H  -3.08600 16.26200 31.96300
H  -1.86600 18.74100 31.64000
H  -3.59500 19.51400 32.64900
H  -4.67300 18.14700 32.27600
H  -4.49800 19.47400 31.12500
H  -0.38300 16.58200 31.25500
H  -1.13500 15.33300 32.26000
H  -1.69300 17.88100 33.54900
H  -0.01500 17.64400 33.34000
H  -0.47900 23.45800 28.48500
H  -1.53500 22.51600 29.72000
H  -2.32800 23.31700 28.53900
H  -0.41200 24.37500 26.65200
H  -0.46600 24.57100 24.85900
H  0.95800 23.94800 25.76800
H  -1.40300 18.58200 22.21800
H  -3.54900 16.49600 22.09900
H  -4.53800 18.61800 22.09300
H  -3.31000 19.52300 21.13900
H  -3.62300 19.93000 22.82700
H  -1.47800 16.44600 20.81600
H  -1.85300 14.91300 21.56400
H  0.18800 14.64700 22.04400
H  -0.35300 15.43100 23.50400
H  0.45200 16.47800 22.24800
H  -4.39600 12.39900 24.92100
H  -3.60800 11.20600 26.00000
H  -2.81800 11.86500 24.47100
H  -3.81900 13.73800 30.70700
H  -2.12600 11.22800 33.72800
H  -1.48600 13.03200 33.76700
H  -0.76300 11.73700 32.79100
Mg 1.59400 -2.95900 45.00900
C  4.93300 -2.07600 44.32900
C  0.66800 -0.43000 42.97300
C  -1.49600 -4.37300 44.89100
C  2.75500 -5.82000 46.81200
N  2.79900 -1.46100 43.75800
C  4.12700 -1.34000 43.55800
C  4.34300 -0.19200 42.47800
C  2.90000 0.44100 42.30700
C  2.05200 -0.51900 43.17700
C  2.75900 1.88900 42.79600
C  4.83900 -0.69400 41.18300
C  5.98600 0.13300 40.49500
H  5.50400 0.85100 39.19800
N  -0.19900 -2.46500 44.09800
C  -0.34400 -1.34400 43.35800
C  -1.74800 -1.25800 42.92100
C  -2.40400 -2.39300 43.45500
C  -1.39200 -3.15700 44.20200
C  -2.37700 -0.14500 42.10200
C  -3.87500 -2.66000 43.31200
O  -4.57900 -1.88400 42.70700
C  -4.52700 -3.89500 44.02400
N  0.65500 -4.75200 45.79500
C  -0.62100 -5.13300 45.65600
C  -0.88700 -6.54800 46.00000
C  0.45400 -6.92600 46.89800
C  1.36700 -5.72800 46.54300
C  -2.14600 -6.85600 46.83800
C  1.10600 -8.30800 46.43000
C  1.48900 -9.21200 47.66300
N  3.40700 -3.82100 45.53300
C  3.74800 -4.92500 46.22300
C  5.19200 -4.99500 46.43700
C  5.67500 -3.87600 45.75300
C  4.54700 -3.22000 45.21200
C  5.99600 -6.07200 47.09500
C  6.93300 -3.16400 45.32200
O  8.07600 -3.43400 45.58500
C  6.47700 -2.12800 44.27100
C  6.99000 -0.85700 44.70600
O  6.95300 -0.48700 45.88100
O  7.70900 -0.26100 43.72900
C  8.45200 0.94400 44.02300
H  0.25600 0.37400 42.35800
H  -2.42300 -4.92800 44.73100
H  3.13100 -6.66800 47.38700
H  5.05500 0.51700 42.90000
H  2.63400 0.26700 41.26500
H  2.17500 2.16200 43.67500
H  2.38000 2.48300 41.96500
H  3.73200 2.21500 43.16200
H  4.06900 -0.80800 40.42100
H  5.28000 -1.66300 41.41400
H  6.81700 -0.52000 40.22700
H  6.38100 0.91700 41.14100
H  -3.12000 0.43900 42.64600
H  -2.86900 -0.61800 41.25200
H  -1.65200 0.51400 41.62500
H  -4.17700 -4.83000 43.58700
H  -5.61600 -3.91400 44.08200
H  -4.19300 -3.98100 45.05800
H  -0.74200 -7.10300 45.07300
H  0.25500 -6.87900 47.96900
H  -2.64500 -7.72700 46.41200
H  -2.76900 -5.96200 46.85300
H  -1.79000 -7.03200 47.85300
H  2.03300 -8.14800 45.87800
H  0.43300 -8.88700 45.79800
H  2.55900 -9.12100 47.84800
H  1.38300 -10.28600 47.50800
H  0.86900 -8.95400 48.52100
H  5.93300 -6.96700 46.47700
H  5.73400 -6.32700 48.12200
H  7.04400 -5.78200 47.17200
H  6.78600 -2.36000 43.25200
H  7.80400 1.80800 43.87900
H  9.28200 1.03300 43.32300
H  8.77000 0.97600 45.06600

