158

Mg 24.82500 -7.86800 47.50500
C  26.95700 -5.23400 46.25900
C  22.46600 -6.94300 45.28000
C  23.24400 -10.70000 48.24400
C  27.75400 -9.06900 49.17900
N  24.84500 -6.36700 45.78000
C  25.71800 -5.31800 45.58800
C  25.16900 -4.25100 44.62200
C  23.66500 -4.75700 44.52200
C  23.64500 -6.09100 45.21500
C  22.74300 -3.68100 45.03500
C  26.02100 -4.17600 43.29600
C  26.58200 -2.76000 42.99000
H  26.28200 -2.26700 41.58700
N  23.05300 -8.67500 46.89900
C  22.17800 -8.09200 46.00200
C  20.98300 -8.83800 45.79000
C  21.15200 -9.93300 46.72600
C  22.48000 -9.81700 47.38200
C  19.86900 -8.47100 44.75700
C  20.05600 -11.04100 47.00900
O  19.03400 -11.02300 46.39600
C  20.42500 -12.04600 48.08400
N  25.46400 -9.66000 48.44100
C  24.53700 -10.61700 48.71300
C  25.15700 -11.67900 49.60400
C  26.52400 -11.09600 50.10300
C  26.61300 -9.87900 49.16400
C  24.27600 -12.28600 50.71000
C  27.79900 -12.04300 50.05100
C  28.76200 -12.16700 51.21000
N  26.88000 -7.25800 47.84000
C  27.93000 -7.82200 48.55000
C  29.05100 -6.96600 48.58800
C  28.72800 -5.90700 47.76100
C  27.41100 -6.20100 47.24500
C  30.29100 -7.28500 49.42700
C  29.12800 -4.62500 47.30100
O  30.16300 -3.95900 47.43800
C  28.03200 -4.21000 46.21300
C  27.56600 -2.81700 46.51600
O  26.58200 -2.45100 47.14500
O  28.37000 -1.89500 45.89400
C  27.90600 -0.53000 45.80700
H  21.74200 -6.54300 44.56700
H  22.78900 -11.64700 48.54100
H  28.41300 -9.46400 49.95400
H  25.15900 -3.27700 45.11100
H  23.31400 -4.90800 43.50100
H  23.28000 -2.79200 45.36600
H  22.12000 -4.04700 45.85100
H  22.07000 -3.45700 44.20700
H  25.47000 -4.49800 42.41300
H  26.90400 -4.81200 43.35700
H  27.65600 -2.93800 43.04100
H  26.34000 -1.91800 43.63800
H  20.15900 -8.66000 43.72400
H  19.51300 -7.44200 44.70900
H  18.93100 -9.00800 44.89600
H  21.19500 -12.69400 47.66700
H  19.57700 -12.70300 48.27900
H  20.71900 -11.47500 48.96500
H  25.43300 -12.53000 48.98100
H  26.52700 -10.74000 51.13300
H  23.31600 -11.80200 50.89100
H  24.85300 -12.18300 51.62900
H  24.10600 -13.34700 50.52600
H  28.44000 -11.74900 49.22000
H  27.31600 -12.99400 49.82600
H  29.75100 -12.20100 50.75400
H  28.53800 -13.05400 51.80300
H  28.73700 -11.21700 51.74400
H  29.98100 -7.52700 50.44400
H  30.89700 -6.37900 49.42200
H  30.75900 -8.20600 49.07700
H  28.46900 -4.14600 45.21700
H  26.83600 -0.59300 45.60700
H  28.45700 -0.07700 44.98300
H  28.03800 0.01000 46.74400
Mg 36.15200 1.08900 29.84200
C  33.89500 1.90200 32.32000
C  38.54300 0.66800 32.39400
C  38.41700 0.30500 27.40700
C  33.67500 1.24700 27.46200
N  36.19500 1.43300 32.09300
C  35.12300 1.77600 32.82300
C  35.48300 1.73100 34.29800
C  37.01400 1.65500 34.29800
C  37.33700 1.29900 32.84500
C  37.85700 2.75100 34.85300
C  34.83000 0.51000 35.00300
C  35.07200 0.43700 36.57600
H  35.70000 1.64200 37.33800
N  38.17100 0.64800 29.91100
C  38.96200 0.50300 31.01900
C  40.33400 0.10100 30.54100
C  40.35600 0.05600 29.15400
C  38.92200 0.45500 28.73900
C  41.46800 -0.18700 31.54900
C  41.55600 -0.34600 28.18500
O  41.38500 -0.35900 26.95500
C  42.77600 -1.06700 28.74000
N  36.04900 0.63300 27.76500
C  37.08900 0.31900 26.92200
C  36.64200 0.23300 25.44100
C  35.10100 0.41500 25.51600
C  34.92400 0.78000 27.00600
C  37.40500 1.18400 24.56800
C  34.28900 -0.78500 25.06800
C  34.00100 -1.75300 26.19300
N  34.18000 1.60800 29.83000
C  33.28900 1.62700 28.77800
C  31.99700 2.08200 29.30400
C  32.18600 2.16900 30.65900
C  33.51400 1.85900 30.92400
C  30.78700 2.24900 28.40100
C  31.51100 2.51500 31.88900
O  30.38300 2.99600 32.08900
C  32.61500 2.34000 32.94000
C  32.61100 3.55600 33.75200
O  32.81200 4.65100 33.29900
O  32.44000 3.24400 35.10400
C  32.34400 4.30100 36.13800
H  39.30200 0.38400 33.12600
H  39.06500 -0.07900 26.61600
H  32.93800 1.49500 26.69500
H  35.26900 2.69900 34.75200
H  37.30200 0.73400 34.80500
H  38.62800 2.29500 35.47400
H  37.29900 3.41300 35.51400
H  38.41300 3.30600 34.09600
H  35.26000 -0.41900 34.63000
H  33.75500 0.49200 34.82300
H  35.61000 -0.48600 36.79100
H  34.04000 0.33000 36.90900
H  41.34700 -1.18100 31.97900
H  41.31800 0.50200 32.38000
H  42.51400 0.00200 31.30600
H  42.56200 -1.76900 29.54600
H  43.57700 -0.36300 28.96600
H  43.27600 -1.78700 28.09200
H  36.87500 -0.80800 25.21800
H  34.83200 1.27700 24.90500
H  37.84300 0.53500 23.80900
H  38.30900 1.61400 25.00000
H  36.79700 1.88800 24.00000
H  34.80300 -1.33700 24.28000
H  33.31100 -0.36400 24.83300
H  33.15300 -1.48300 26.82100
H  34.83000 -1.74600 26.90000
H  33.88900 -2.79000 25.87700
H  30.59900 1.25900 27.98400
H  31.05400 2.98200 27.64000
H  29.91200 2.58100 28.95800
H  32.26400 1.52900 33.57800
H  32.32700 5.24600 35.59500
H  33.22800 4.31700 36.77500
H  31.48100 4.20300 36.79700

