158

Mg 46.66500 24.36900 28.33200
C  47.56300 26.75700 30.90300
C  46.08800 22.19100 30.87200
C  46.48900 22.10400 26.13800
C  47.82400 26.72700 26.02000
N  46.58900 24.57700 30.67600
C  46.99300 25.60300 31.47800
C  46.78100 25.23800 32.94500
C  46.38900 23.78400 32.94100
C  46.35000 23.48500 31.39800
C  47.32000 22.89200 33.70900
C  45.86700 26.17900 33.76600
C  46.52500 26.77900 35.09600
H  45.54300 27.19300 36.12800
N  46.17300 22.44100 28.40300
C  45.99300 21.73800 29.53900
C  45.48700 20.41100 29.17200
C  45.69300 20.30800 27.76600
C  46.09100 21.63100 27.35700
C  44.98600 19.34100 30.14000
C  45.37100 19.19600 26.81900
O  45.20400 19.32500 25.59900
C  45.03500 17.81500 27.47200
N  47.14300 24.38100 26.31500
C  46.75800 23.31200 25.58900
C  47.01200 23.54800 24.11300
C  47.14000 25.09700 24.07800
C  47.42400 25.48300 25.60600
C  48.30900 22.94000 23.50100
C  45.97000 25.92800 23.52600
C  44.76700 26.23100 24.40300
N  47.50000 26.35400 28.36500
C  47.91300 27.15400 27.37000
C  48.56300 28.32400 27.82700
C  48.39900 28.25500 29.21500
C  47.78600 26.99000 29.50400
C  49.17900 29.42500 26.97100
C  48.61300 28.91700 30.43900
O  49.06200 30.02700 30.62600
C  48.16300 27.97400 31.62100
C  49.29900 27.46400 32.46300
O  49.83700 26.37700 32.48000
O  49.72000 28.45000 33.33500
C  50.52600 28.08300 34.48200
H  45.87100 21.47700 31.66900
H  46.52100 21.31700 25.38100
H  48.01900 27.54000 25.31700
H  47.73600 25.26700 33.46900
H  45.34200 23.81300 33.24300
H  46.70600 22.06800 34.07200
H  47.75100 23.39800 34.57200
H  48.11900 22.48000 33.09200
H  45.00100 25.57500 34.03600
H  45.47700 27.01800 33.19000
H  47.14300 27.62600 34.79800
H  47.23400 26.03600 35.46100
H  44.00900 19.00300 29.79500
H  44.64900 19.81500 31.06200
H  45.72400 18.55300 30.28800
H  45.91000 17.31000 27.88100
H  44.82900 17.10500 26.67100
H  44.14300 17.69700 28.08800
H  46.11000 23.33700 23.53900
H  47.92200 25.40100 23.38200
H  49.10100 23.61900 23.18700
H  48.04400 22.28100 22.67400
H  48.72200 22.26400 24.25000
H  45.65600 25.36900 22.64400
H  46.43400 26.86500 23.21800
H  44.83900 25.72200 25.36500
H  43.82000 25.81700 24.05700
H  44.79000 27.31800 24.47600
H  49.59600 28.96800 26.07300
H  49.95700 29.96100 27.51300
H  48.45400 30.14500 26.59100
H  47.42200 28.44500 32.26600
H  50.47400 28.88900 35.21500
H  51.51500 27.76400 34.15500
H  50.16700 27.18600 34.98600
Mg 26.13200 50.56800 26.36200
C  23.62300 51.22000 28.75800
C  28.09000 49.23700 28.77000
C  28.50900 50.07900 24.02200
C  24.04400 51.95300 23.98600
N  25.88300 50.32300 28.56400
C  24.82100 50.58800 29.35000
C  25.12500 50.27200 30.82900
C  26.60900 49.87900 30.76700
C  26.90200 49.80800 29.23900
C  27.57900 50.84300 31.42900
C  24.09400 49.26300 31.42600
C  23.39000 49.72200 32.70200
H  23.49600 48.90400 34.00400
N  28.04300 49.77600 26.40700
C  28.68000 49.26100 27.50200
C  29.97500 48.72700 27.11400
C  30.11300 49.08100 25.71600
C  28.84800 49.63500 25.29900
C  30.96700 48.03000 28.02000
C  31.32000 48.75600 24.82300
O  31.39200 49.06300 23.62600
C  32.46400 48.03000 25.37900
N  26.30400 50.99900 24.34600
C  27.36700 50.60800 23.53800
C  27.07600 51.05300 22.00800
C  25.61700 51.67600 22.03500
C  25.24400 51.40300 23.52400
C  28.14800 51.95600 21.40300
C  24.62300 51.33300 20.91000
C  23.38900 50.42500 21.21900
N  24.18600 51.34500 26.31900
C  23.53500 51.98500 25.25400
C  22.26500 52.51800 25.71000
C  22.31800 52.32700 27.10000
C  23.44700 51.56700 27.39900
C  21.33600 53.31700 24.83700
C  21.59500 52.60400 28.37000
O  20.61600 53.28700 28.52800
C  22.46800 51.88200 29.45700
C  23.00900 52.99900 30.31800
O  24.02400 53.65900 30.05200
O  22.12300 53.20800 31.34800
C  22.47700 54.11700 32.44200
H  28.68200 48.78200 29.56700
H  29.27000 49.95100 23.24900
H  23.33900 52.49700 23.35300
H  25.03600 51.25000 31.30200
H  26.72500 48.89900 31.23100
H  28.11100 51.35200 30.62500
H  28.29200 50.20700 31.95400
H  27.01700 51.58600 31.99500
H  24.62300 48.34600 31.68400
H  23.47200 48.94900 30.58800
H  22.33800 49.64300 32.42500
H  23.52600 50.79300 32.85600
H  31.13600 46.98600 27.75600
H  30.77700 47.95000 29.09000
H  31.88900 48.61200 28.01900
H  32.21700 47.07700 25.84600
H  32.76500 48.71800 26.16900
H  33.27400 47.79900 24.68700
H  27.02600 50.10600 21.47200
H  25.70500 52.76200 22.06000
H  27.81400 52.95000 21.10600
H  28.34600 51.45000 20.45800
H  29.09500 51.91300 21.94200
H  25.16500 50.90100 20.06800
H  24.34600 52.35300 20.64300
H  23.09900 49.85300 20.33700
H  22.52300 51.00400 21.54000
H  23.73200 49.72400 21.98000
H  20.82300 54.12800 25.35500
H  20.59200 52.68300 24.35400
H  21.80800 53.86400 24.02100
H  21.93900 51.26500 30.18300
H  23.29800 53.65100 32.98600
H  21.66900 54.19000 33.17100
H  22.77500 55.11200 32.11300

