158

Mg 0.46300 7.45300 25.50700
C  1.32800 9.57600 28.25100
C  0.81000 4.69800 27.63000
C  -0.32000 5.50900 22.96200
C  0.49200 10.25400 23.46000
N  1.03100 7.22400 27.60500
C  1.30700 8.14100 28.58100
C  1.41600 7.59400 29.95000
C  1.60700 6.10800 29.75800
C  1.11800 5.97900 28.24400
C  3.08500 5.53700 30.01100
C  0.23300 7.92600 30.91600
C  0.60000 8.24400 32.39600
H  1.77300 7.47000 33.15100
N  0.17300 5.37600 25.26400
C  0.36200 4.46400 26.26500
C  -0.03100 3.16700 25.71500
C  -0.25800 3.29600 24.32800
C  -0.17100 4.75300 24.12600
C  -0.00800 1.90600 26.58800
C  -0.39800 2.31800 23.24900
O  -0.58900 2.60900 22.08000
C  -0.22800 0.81600 23.48300
N  0.32000 7.74300 23.41000
C  -0.10900 6.80700 22.59200
C  -0.39800 7.35700 21.13700
C  -0.41500 8.89300 21.44300
C  0.26200 8.99500 22.79500
C  0.55600 7.00400 19.96900
C  -1.85800 9.49400 21.42400
C  -1.94200 10.88700 20.80100
N  0.94100 9.39300 25.70000
C  0.81100 10.49400 24.78900
C  0.98600 11.71500 25.46700
C  1.22400 11.42300 26.80900
C  1.14100 10.02300 26.89800
C  0.99500 13.07000 24.88300
C  1.49600 12.01100 28.18200
O  1.81800 13.10900 28.60000
C  1.54000 10.76500 29.11800
C  2.76700 10.82000 29.95300
O  3.90300 10.54300 29.66100
O  2.46500 11.40100 31.21500
C  3.50000 11.72800 32.22400
H  1.00000 3.83900 28.27700
H  -0.66500 4.92700 22.10500
H  0.36600 11.21600 22.95800
H  2.32100 8.06100 30.34000
H  0.96700 5.52100 30.41700
H  3.60100 5.53200 29.05100
H  2.98400 4.50500 30.34700
H  3.61200 6.15300 30.74000
H  -0.47500 7.09800 30.89600
H  -0.16600 8.88900 30.59700
H  -0.31600 8.06800 32.96100
H  0.80700 9.30600 32.52200
H  -0.71600 1.16800 26.21100
H  -0.32300 2.19700 27.59000
H  0.99700 1.48500 26.64100
H  -1.12900 0.45900 23.98200
H  0.67200 0.58000 24.05100
H  -0.22300 0.27700 22.53500
H  -1.36500 6.98700 20.79400
H  0.22600 9.37600 20.70600
H  1.44300 7.62700 20.07900
H  0.08100 7.22500 19.01300
H  0.96400 6.00100 20.09100
H  -2.27400 9.63400 22.42100
H  -2.56200 8.83200 20.91900
H  -2.77600 11.01500 20.11100
H  -1.09100 11.08400 20.14900
H  -1.87700 11.59400 21.62800
H  0.03100 13.05100 24.37400
H  1.82500 13.08300 24.17700
H  0.96600 13.97400 25.49100
H  0.69300 10.86400 29.79700
H  4.44900 11.86700 31.70500
H  3.66200 10.96800 32.98800
H  3.21500 12.68600 32.65800
Mg 47.09700 24.77600 28.84100
C  47.86800 27.25800 31.32500
C  45.94100 22.73800 31.37600
C  46.66600 22.48600 26.55900
C  48.53800 26.95200 26.45200
N  46.87600 24.98500 31.13300
C  47.33100 26.03700 31.92900
C  46.89300 25.77800 33.39800
C  46.69100 24.21900 33.43400
C  46.43600 23.96700 31.89100
C  47.88100 23.37400 34.01600
C  45.73900 26.65100 33.92500
C  45.85200 27.48900 35.23700
H  46.54100 26.73500 36.40800
N  46.22800 22.90200 28.88300
C  45.78300 22.26200 30.03800
C  45.22600 21.00100 29.62400
C  45.49500 20.89100 28.21200
C  46.20200 22.08900 27.83600
C  44.62300 19.99300 30.60000
C  45.19800 19.77500 27.20700
O  45.46300 19.80800 26.01700
C  44.41900 18.65900 27.67200
N  47.40400 24.80200 26.69500
C  47.34100 23.63200 26.06000
C  48.17800 23.62100 24.79200
C  48.51600 25.12000 24.58900
C  48.16300 25.68900 25.98100
C  49.44800 22.66200 24.75800
C  47.63800 25.86100 23.46900
C  48.38700 26.41900 22.23800
N  48.08300 26.65500 28.85700
C  48.36100 27.49200 27.76900
C  48.92000 28.74000 28.28800
C  48.60200 28.70700 29.64000
C  48.14100 27.39900 29.93500
C  49.64500 29.80400 27.52400
C  48.69900 29.45300 30.85900
O  49.12000 30.58200 30.99900
C  48.20500 28.55500 31.98500
C  49.27800 28.34900 33.03400
O  50.21600 27.60900 33.05700
O  49.06700 29.33500 33.97700
C  49.83400 29.13500 35.20700
H  45.54800 22.08300 32.15600
H  46.64200 21.65800 25.84700
H  49.11200 27.48000 25.68800
H  47.79100 26.02800 33.96300
H  45.82300 23.98200 34.04900
H  48.65800 23.94500 34.52400
H  48.34500 22.75100 33.25100
H  47.39100 22.67800 34.69700
H  44.88700 26.04000 34.22200
H  45.32900 27.34400 33.19000
H  44.84300 27.80500 35.50200
H  46.38100 28.38800 34.92000
H  43.89600 19.33400 30.12700
H  44.12800 20.55100 31.39400
H  45.52500 19.61100 31.07900
H  44.94300 18.28600 28.55200
H  44.27300 17.97600 26.83500
H  43.45000 19.10700 27.88700
H  47.57300 23.24200 23.96800
H  49.59600 25.20800 24.47200
H  49.25800 21.74800 24.19400
H  49.66500 22.35900 25.78200
H  50.32500 23.18800 24.38000
H  47.08800 26.65300 23.97600
H  46.91900 25.17800 23.01600
H  48.76200 25.62100 21.59700
H  49.25100 26.97800 22.59800
H  47.77700 27.15900 21.72000
H  49.26100 30.80000 27.74500
H  49.26800 29.71900 26.50500
H  50.68100 29.51800 27.70200
H  47.30400 29.04200 32.35800
H  50.91800 29.16200 35.09000
H  49.45600 28.26500 35.74500
H  49.72000 29.91600 35.95800

