158

Mg 0.18600 7.93300 26.12700
C  1.16400 9.83800 29.07400
C  -0.06100 5.18200 28.14400
C  -0.41400 6.23300 23.32200
C  0.96000 10.76900 24.28200
N  0.58500 7.60900 28.38500
C  0.80900 8.50100 29.41100
C  0.56900 7.89800 30.80700
C  0.35600 6.36700 30.50500
C  0.29800 6.33900 28.89800
C  1.36900 5.40600 31.12500
C  -0.64900 8.50600 31.52700
C  -0.38700 8.72500 33.04400
H  0.75000 8.27500 33.95900
N  -0.10500 5.94700 25.78500
C  -0.31000 4.98900 26.74000
C  -0.77100 3.72700 26.09800
C  -0.71700 3.96800 24.69700
C  -0.40300 5.45400 24.52200
C  -1.24800 2.42300 26.82900
C  -1.16500 3.07100 23.49600
O  -1.09400 3.37900 22.31700
C  -1.67600 1.66100 23.78000
N  0.28800 8.39700 24.08100
C  -0.10700 7.57200 23.07200
C  -0.12500 8.27200 21.73600
C  0.16800 9.77100 22.06700
C  0.41700 9.67600 23.63900
C  0.85200 7.64400 20.79400
C  -0.79100 10.89000 21.63900
C  -1.63600 10.76200 20.34500
N  0.97300 9.79500 26.47500
C  1.24900 10.83300 25.60400
C  1.67500 11.93900 26.36800
C  1.58800 11.62900 27.69000
C  1.20000 10.30600 27.71500
C  2.30500 13.25400 25.81400
C  1.80300 12.08600 29.02800
O  2.19500 13.19500 29.35200
C  1.49800 10.96400 30.00500
C  2.65700 10.67800 30.95800
O  3.75600 10.29800 30.63400
O  2.34700 11.15000 32.19300
C  3.46500 11.23300 33.11300
H  -0.20100 4.42700 28.92000
H  -0.64600 5.63200 22.44000
H  1.10300 11.70800 23.74400
H  1.44500 8.00700 31.44600
H  -0.61000 6.01200 30.86500
H  2.03000 5.94800 31.80100
H  1.93600 4.96100 30.30700
H  0.99300 4.54600 31.68000
H  -1.42800 7.74400 31.50800
H  -1.10300 9.42500 31.15700
H  -1.30000 8.35800 33.51300
H  -0.41500 9.81100 33.13200
H  -1.40100 2.60500 27.89200
H  -0.53700 1.61500 26.65500
H  -2.24600 2.16400 26.47500
H  -0.84500 1.04000 24.11700
H  -1.94300 1.25700 22.80400
H  -2.60400 1.74700 24.34500
H  -1.14300 8.17600 21.36000
H  1.15800 10.04300 21.70100
H  1.86300 7.79500 21.17300
H  0.76800 8.00300 19.76800
H  0.69000 6.56800 20.86200
H  -0.05200 11.67500 21.48100
H  -1.41200 11.27300 22.44900
H  -1.28000 10.05300 19.59700
H  -1.63500 11.72800 19.84100
H  -2.63300 10.38000 20.56400
H  2.90000 12.94700 24.95400
H  3.02500 13.64400 26.53300
H  1.64100 14.07600 25.54700
H  0.57400 11.29800 30.47800
H  4.02000 12.03900 32.63400
H  4.14000 10.38100 33.18600
H  3.08600 11.53700 34.08900
Mg 8.17100 2.29600 27.34300
C  9.66500 1.11100 30.24100
C  6.29400 4.35800 29.30500
C  6.83600 3.63400 24.61400
C  9.69800 -0.12000 25.42900
N  7.95100 2.61000 29.49100
C  8.64400 2.05200 30.51100
C  8.39600 2.64200 31.88800
C  7.22700 3.60500 31.52900
C  7.11700 3.52400 30.02700
C  5.76900 3.46700 32.21100
C  9.57000 3.37200 32.55500
C  9.28200 4.37300 33.69500
H  10.22400 4.26000 34.86400
N  6.70900 3.76700 27.01500
C  6.05600 4.52100 27.96400
C  5.03600 5.30300 27.34700
C  5.20100 5.16200 25.88600
C  6.27500 4.14000 25.80700
C  3.99500 6.12100 28.18800
C  4.48100 5.82700 24.83100
O  4.76100 5.58200 23.65600
C  3.31800 6.76800 25.11900
N  8.25800 1.75000 25.28900
C  7.67100 2.53600 24.32700
C  8.15600 2.16700 22.95400
C  8.88000 0.80500 23.17600
C  9.00100 0.81000 24.71100
C  7.14300 2.14100 21.74600
C  10.30900 0.68900 22.43600
C  10.27400 -0.45500 21.43100
N  9.45800 0.79600 27.73900
C  10.08600 -0.04500 26.83900
C  11.01000 -0.89300 27.59200
C  10.89400 -0.45800 28.90500
C  9.96800 0.56000 28.92800
C  11.87000 -1.99400 27.02300
C  11.31600 -0.65700 30.29200
O  12.07600 -1.54300 30.69800
C  10.52400 0.39500 31.25900
C  9.77300 -0.32100 32.37100
O  8.61400 -0.60800 32.28500
O  10.60700 -0.46700 33.46700
C  10.06800 -1.24500 34.65000
H  5.65500 4.92300 29.98700
H  6.36300 3.96400 23.68600
H  10.23400 -0.87200 24.84600
H  8.03700 1.88300 32.58300
H  7.58900 4.61500 31.72100
H  4.97700 3.20900 31.50900
H  5.55400 4.37300 32.77800
H  5.73200 2.68700 32.97200
H  10.12500 3.94600 31.81300
H  10.22600 2.60700 32.97000
H  8.24800 4.27200 34.02600
H  9.43900 5.38800 33.33000
H  4.22700 6.17600 29.25200
H  3.01700 5.65700 28.06400
H  3.90000 7.15300 27.85200
H  3.57800 7.67700 25.66200
H  2.58700 6.16200 25.65400
H  2.94700 7.12400 24.15900
H  8.87200 2.96200 22.74300
H  8.16200 0.10000 22.75400
H  7.49600 1.51900 20.92300
H  7.08700 3.15900 21.36000
H  6.24400 1.59600 22.03500
H  11.22800 0.67400 23.02100
H  10.37800 1.54000 21.75800
H  10.35900 0.01700 20.45200
H  9.36100 -1.04800 21.48100
H  11.13000 -1.09500 21.64300
H  11.70900 -2.88500 27.63100
H  12.95300 -1.87900 27.05300
H  11.48600 -2.31800 26.05600
H  11.22900 1.11800 31.66800
H  9.88100 -0.52500 35.44700
H  10.73600 -2.09600 34.78800
H  9.11700 -1.69000 34.36100

