158

Mg 26.09900 49.37800 25.93400
C  24.13400 51.01200 28.36200
C  28.57900 48.95000 28.20500
C  28.12700 48.48100 23.43300
C  23.69800 50.51700 23.45600
N  26.27700 49.79000 28.05700
C  25.28100 50.36800 28.80300
C  25.61400 50.16800 30.25800
C  27.19200 49.79200 30.15500
C  27.44400 49.56100 28.72100
C  28.22000 50.77500 30.78100
C  24.67200 49.19000 31.10100
C  24.11000 49.76800 32.40100
H  25.13800 50.11800 33.46800
N  28.02800 48.62000 25.84200
C  28.92900 48.56500 26.85000
C  30.14200 47.99400 26.41800
C  30.05400 47.95500 24.99100
C  28.68700 48.38300 24.65800
C  31.31100 47.74100 27.38000
C  31.22400 47.69000 23.95300
O  30.98200 47.78900 22.75400
C  32.57900 47.45300 24.38500
N  25.89900 49.54100 23.78700
C  26.84900 48.90900 22.98800
C  26.40000 48.92700 21.46800
C  24.90500 49.42900 21.58700
C  24.78000 49.82000 23.02200
C  27.33800 49.81600 20.58400
C  23.87500 48.23100 21.33300
C  23.93200 46.95100 22.24600
N  24.31100 50.55700 25.89100
C  23.41800 50.85100 24.85400
C  22.33600 51.61900 25.44400
C  22.52600 51.66400 26.79500
C  23.76800 51.10400 27.03200
C  21.19300 52.12800 24.68600
C  21.96900 52.08800 28.03800
O  20.93500 52.68500 28.19600
C  22.90400 51.51800 29.12700
C  23.28300 52.61700 30.07900
O  24.35000 53.19100 30.13800
O  22.42500 52.60800 31.13600
C  22.80500 53.52900 32.22300
H  29.37200 48.74800 28.92800
H  28.74900 48.11900 22.61100
H  23.08900 50.92400 22.64600
H  25.57800 51.14000 30.75000
H  27.27300 48.85600 30.70800
H  27.68200 51.36700 31.52100
H  28.85400 51.28800 30.05700
H  28.88300 50.14900 31.37800
H  25.34000 48.36500 31.34700
H  23.75800 48.85300 30.61100
H  23.40500 49.06300 32.84000
H  23.62200 50.71200 32.15800
H  31.90800 46.94700 26.93200
H  31.07200 47.36800 28.37600
H  31.89100 48.65000 27.54000
H  33.13800 47.70200 23.48300
H  32.62100 46.38400 24.59300
H  32.85400 48.09800 25.22000
H  26.48100 47.92100 21.05600
H  24.74100 50.30800 20.96400
H  28.34200 49.73800 20.99900
H  26.91400 50.81700 20.50500
H  27.26600 49.30400 19.62400
H  24.04900 47.84000 20.33000
H  22.86000 48.63000 21.33000
H  23.96900 46.12600 21.53500
H  23.01500 46.82700 22.82100
H  24.78600 46.93300 22.92400
H  21.57500 52.99600 24.14700
H  20.35800 52.38900 25.33600
H  20.96500 51.37000 23.93700
H  22.44900 50.85100 29.86000
H  23.40000 52.95500 32.93300
H  21.88600 53.77500 32.75400
H  23.36000 54.44600 32.02600
Mg -5.21300 25.55100 26.77300
C  -3.74200 27.33500 29.55300
C  -6.73500 23.47300 29.10400
C  -5.99500 23.55900 24.14100
C  -3.28500 27.57600 24.59700
N  -5.24300 25.48900 29.02000
C  -4.62300 26.28400 29.93900
C  -4.85700 25.73400 31.43300
C  -5.72700 24.50900 31.28800
C  -5.91600 24.44500 29.71500
C  -5.10700 23.15900 31.89500
C  -5.36800 26.99400 32.17000
C  -6.46600 26.82800 33.26400
H  -6.14500 25.92800 34.48900
N  -6.17700 23.79300 26.65700
C  -6.80300 23.16100 27.70100
C  -7.61700 22.03700 27.13800
C  -7.38300 22.01100 25.73900
C  -6.45900 23.16600 25.46100
C  -8.45100 21.22100 28.06000
C  -7.96500 21.02800 24.64200
O  -7.57700 20.99500 23.48500
C  -8.86100 19.95700 25.14300
N  -4.75800 25.59800 24.65900
C  -5.29000 24.75300 23.73300
C  -4.95100 25.16000 22.30400
C  -4.04400 26.42600 22.49700
C  -4.04000 26.57600 23.99200
C  -4.23700 24.06400 21.49300
C  -4.64200 27.75700 21.88700
C  -3.57500 28.66200 21.31200
N  -3.77400 27.09600 26.93800
C  -3.15500 27.84000 26.00200
C  -2.26400 28.73200 26.68000
C  -2.52200 28.59200 28.07400
C  -3.44000 27.58200 28.19500
C  -1.23100 29.61600 26.04500
C  -2.09700 29.20000 29.36100
O  -1.31600 30.04800 29.62200
C  -2.83700 28.32800 30.39300
C  -1.77000 27.63300 31.05600
O  -0.95700 26.94000 30.51400
O  -1.93400 27.75000 32.43500
C  -1.34500 26.76400 33.34200
H  -7.19400 22.77100 29.80200
H  -6.25100 23.04600 23.21200
H  -2.70800 28.23800 23.94800
H  -3.87000 25.42800 31.77800
H  -6.67500 24.62300 31.81300
H  -4.46700 23.47900 32.71800
H  -4.47400 22.64100 31.17400
H  -5.82000 22.41100 32.24400
H  -5.64600 27.75700 31.44300
H  -4.54100 27.40500 32.74800
H  -7.41200 26.45300 32.87500
H  -6.39900 27.86500 33.59400
H  -9.38500 20.92900 27.58000
H  -8.82400 21.75300 28.93600
H  -7.90300 20.30700 28.28600
H  -8.79200 19.09900 24.47500
H  -9.82400 20.45900 25.22700
H  -8.45000 19.57100 26.07600
H  -5.84600 25.38700 21.72500
H  -3.00700 26.19900 22.25000
H  -4.84800 23.66100 20.68500
H  -4.15900 23.17500 22.11900
H  -3.18100 24.30300 21.36700
H  -5.17800 28.30800 22.65900
H  -5.42100 27.55000 21.15300
H  -3.78100 28.87500 20.26300
H  -2.62400 28.12900 21.28600
H  -3.52600 29.58100 21.89700
H  -1.73400 30.54800 25.78800
H  -0.99400 29.24200 25.04900
H  -0.32300 29.80100 26.61800
H  -3.39800 28.89700 31.13400
H  -1.01200 25.83400 32.88200
H  -2.16100 26.47500 34.00400
H  -0.52100 27.25500 33.86100

