158

Mg 43.84600 3.82700 46.20900
C  41.86500 6.93200 46.41200
C  41.02500 1.99100 46.02600
C  45.80300 1.21400 45.61400
C  46.72900 5.94200 46.02500
N  41.71400 4.45000 46.10600
C  41.12200 5.70300 46.20000
C  39.59000 5.53100 46.44700
C  39.37200 3.93100 46.56700
C  40.78400 3.39300 46.21500
C  39.03800 3.39500 47.96900
C  38.72900 6.12700 45.30200
C  38.95200 5.48100 43.90900
H  39.44700 6.46400 42.80200
N  43.47000 1.88300 45.74200
C  42.24200 1.27600 45.75200
C  42.38000 -0.13000 45.45200
C  43.74800 -0.34900 45.26200
C  44.43300 0.94900 45.54800
C  41.18600 -1.15900 45.40400
C  44.39000 -1.67000 44.93400
O  43.84400 -2.75500 44.94000
C  45.81700 -1.78300 44.47100
N  45.95700 3.62300 45.73900
C  46.49700 2.38600 45.76100
C  48.04000 2.42100 45.79000
C  48.37200 3.96000 46.03300
C  46.99700 4.55100 45.85400
C  48.75600 1.40800 46.75400
C  49.62800 4.60400 45.23000
C  50.77700 5.10700 46.12500
N  44.20800 5.95700 46.13500
C  45.45500 6.59000 46.14800
C  45.16900 8.06000 46.30900
C  43.79900 8.19100 46.41300
C  43.23100 6.89200 46.23900
C  46.24100 9.14000 46.23900
C  42.73700 9.11500 46.59400
O  42.79400 10.35100 46.74800
C  41.42700 8.26600 46.62300
C  40.78200 8.32700 47.92100
O  41.14600 7.76000 48.94100
O  39.81200 9.27600 47.87800
C  38.84500 9.18900 48.94800
H  40.11500 1.38900 46.08600
H  46.42500 0.32300 45.51100
H  47.59400 6.60300 46.11400
H  39.15600 5.77600 47.41700
H  38.67500 3.62200 45.78800
H  39.79000 2.69500 48.33300
H  38.15300 2.79400 47.75500
H  38.63300 4.06200 48.73000
H  38.93900 7.18800 45.16500
H  37.67000 6.03600 45.54600
H  38.04300 5.01700 43.52600
H  39.64900 4.65200 44.02900
H  40.86600 -1.43600 44.40000
H  40.37600 -0.61300 45.88800
H  41.50800 -2.00900 46.00600
H  46.50300 -1.69100 45.31300
H  46.04300 -1.04200 43.70500
H  45.87400 -2.76100 43.99300
H  48.51700 2.12500 44.85600
H  48.55600 4.25100 47.06700
H  48.07600 0.98000 47.49000
H  49.71700 1.74400 47.14400
H  49.11200 0.60100 46.11300
H  49.40000 5.53000 44.70200
H  50.15100 3.87500 44.61000
H  51.70900 4.70400 45.72800
H  50.80600 4.75200 47.15500
H  50.61600 6.17300 46.28500
H  45.94400 9.99800 46.84200
H  46.58500 9.41200 45.24100
H  47.19300 8.77000 46.62100
H  40.77900 8.49100 45.77600
H  38.94600 10.10200 49.53600
H  38.71400 8.30900 49.57800
H  37.96500 9.24500 48.30700
Mg 47.14800 15.67300 28.06800
C  45.22500 15.27200 30.93100
C  49.41200 17.42100 29.90500
C  48.74800 16.52400 25.17200
C  44.41100 14.55600 26.12200
N  47.24300 16.38700 30.13000
C  46.42200 15.99000 31.14800
C  46.96100 16.51700 32.50900
C  48.17000 17.35700 32.16300
C  48.25000 17.08000 30.60500
C  48.17400 18.91700 32.57400
C  47.31500 15.33600 33.48400
C  46.92300 15.39100 35.03000
H  46.73500 16.85100 35.53900
N  48.91400 16.53400 27.65100
C  49.78300 17.12700 28.55100
C  51.00400 17.40800 27.91100
C  50.82700 17.24300 26.53700
C  49.47500 16.75200 26.39200
C  52.21100 17.76900 28.66000
C  51.82200 17.57400 25.34000
O  51.52400 17.44000 24.13800
C  53.18600 18.06400 25.61800
N  46.60300 15.66400 25.92900
C  47.44300 16.05300 24.94400
C  46.73700 16.00400 23.59200
C  45.45100 15.23100 23.89300
C  45.47400 15.13300 25.44400
C  46.53600 17.38700 23.04900
C  45.11600 13.89400 23.20900
C  45.72300 12.56500 23.79800
N  45.22600 15.10100 28.39400
C  44.27400 14.54000 27.56500
C  43.17400 13.99600 28.32100
C  43.54100 14.24400 29.65900
C  44.74500 14.92700 29.62800
C  41.84000 13.52000 27.73800
C  43.08500 14.14700 31.05600
O  42.04800 13.73500 31.57800
C  44.18800 14.88600 31.89900
C  43.59300 16.00400 32.58400
O  43.34000 17.10500 32.10500
O  43.21700 15.62100 33.83300
C  42.42600 16.51600 34.68100
H  50.15300 17.98500 30.47600
H  49.26100 16.76200 24.23800
H  43.66500 14.07200 25.48900
H  46.21500 17.16400 32.96900
H  49.14800 17.01000 32.49700
H  49.22700 19.15200 32.72600
H  47.51500 19.11100 33.42000
H  47.89800 19.55500 31.73500
H  48.38800 15.15200 33.43700
H  46.79200 14.44700 33.13100
H  47.62300 14.84800 35.66500
H  45.98700 14.84300 35.14300
H  52.61500 18.74300 28.38400
H  52.97700 17.02200 28.45300
H  52.17800 17.65500 29.74300
H  53.18200 18.99100 26.19100
H  53.67400 18.34300 24.68500
H  53.53800 17.20200 26.18500
H  47.41800 15.52400 22.88900
H  44.59800 15.87600 23.68100
H  47.12400 17.56700 22.14900
H  46.80200 18.17000 23.75900
H  45.51500 17.59700 22.72900
H  45.44600 13.96600 22.17200
H  44.02700 13.93900 23.23600
H  44.84400 12.05600 24.19400
H  46.44000 12.77400 24.59200
H  46.27700 11.99700 23.05200
H  41.86200 13.52600 26.64800
H  41.00900 14.18100 27.98300
H  41.60200 12.48800 27.99500
H  44.41700 14.06700 32.58000
H  41.90800 17.30600 34.13700
H  43.11100 17.02700 35.35700
H  41.68900 16.01400 35.30800

