158

Mg 44.15900 4.74300 47.82900
C  41.81800 7.23900 47.46300
C  41.58000 2.46800 47.67700
C  46.44100 2.45700 48.38300
C  46.69500 7.19600 47.32200
N  41.93100 4.86500 47.52300
C  41.19300 6.00200 47.52100
C  39.64100 5.72400 47.57000
C  39.63500 4.16400 47.60000
C  41.18100 3.84300 47.66500
C  38.85400 3.53100 48.83000
C  38.62500 6.33600 46.53100
C  39.20000 6.77400 45.17300
H  38.62400 6.05500 43.97200
N  44.11600 2.68800 47.71600
C  42.92600 1.93100 47.72900
C  43.26600 0.55300 47.79100
C  44.64100 0.55100 47.98500
C  45.14200 1.92000 48.04300
C  42.26200 -0.57200 47.58000
C  45.41900 -0.74400 48.15000
O  44.84600 -1.85800 48.36200
C  46.91000 -0.71100 47.90400
N  46.25800 4.74000 47.53600
C  46.91500 3.74600 48.23400
C  48.38500 4.10600 48.44100
C  48.48400 5.54800 47.87400
C  47.08600 5.84900 47.51100
C  48.96800 4.01000 49.80400
C  49.50000 5.66300 46.71000
C  50.96200 5.88200 47.10100
N  44.27400 6.76700 47.46900
C  45.39300 7.61600 47.34200
C  44.97500 8.92900 47.23000
C  43.54200 8.86000 47.27800
C  43.16700 7.53500 47.38800
C  45.78200 10.19800 46.99600
C  42.28500 9.73700 47.24700
O  42.12200 10.93300 47.21600
C  41.12700 8.61500 47.35700
C  40.36400 8.85600 48.68000
O  40.48700 8.29900 49.74600
O  39.39300 9.77000 48.37900
C  38.41100 10.02800 49.44400
H  40.76400 1.74300 47.73200
H  47.20600 1.82000 48.83100
H  47.34100 8.07500 47.29000
H  39.37300 6.06300 48.57000
H  39.21400 3.71800 46.69900
H  38.31200 2.60700 48.63100
H  38.13000 4.25500 49.20500
H  39.60300 3.30800 49.59000
H  38.20800 7.21200 47.02800
H  37.81900 5.62600 46.34600
H  40.25400 6.50200 45.11800
H  39.12600 7.84600 44.98800
H  41.27700 -0.10800 47.61400
H  42.46600 -1.37700 48.28700
H  42.34600 -1.03900 46.59900
H  47.16200 0.23500 47.42400
H  47.25200 -1.58100 47.34400
H  47.41000 -0.73800 48.87200
H  48.87500 3.42400 47.74600
H  48.79400 6.32200 48.57600
H  48.27300 3.62700 50.55200
H  49.29400 4.97400 50.19300
H  49.81100 3.32200 49.87100
H  49.23000 6.49400 46.05900
H  49.50100 4.74100 46.12900
H  51.24600 6.93400 47.06400
H  51.57900 5.29300 46.42300
H  51.02900 5.43100 48.09100
H  46.42000 10.43000 47.84900
H  45.12400 11.05800 46.87000
H  46.41300 10.12800 46.11000
H  40.39900 8.52600 46.55100
H  37.69800 9.20900 49.53700
H  37.91100 10.99300 49.36100
H  38.93700 10.03800 50.39900
Mg 48.08800 15.10900 28.26200
C  45.74000 15.35900 31.00700
C  49.98400 17.61800 29.89000
C  50.13600 15.13000 25.65300
C  45.58100 13.54400 26.40800
N  47.83600 16.26400 30.22700
C  46.95500 16.14600 31.26900
C  47.29400 17.03500 32.51800
C  48.23300 18.06400 31.80300
C  48.76500 17.27700 30.52300
C  47.70800 19.53100 31.59300
C  48.03900 16.14900 33.58200
C  47.28400 16.12400 34.93500
H  48.07800 15.80700 36.12000
N  49.87600 16.16000 27.86600
C  50.51700 17.06100 28.67300
C  51.80000 17.33900 28.10300
C  51.89700 16.59200 26.90900
C  50.62600 15.88800 26.77000
C  52.81700 18.21200 28.79400
C  53.02800 16.53100 25.88100
O  52.93200 15.91900 24.80100
C  54.32000 17.30900 26.13700
N  47.78800 14.67100 26.23000
C  48.89800 14.52600 25.46200
C  48.50200 13.71900 24.21100
C  47.01000 13.43400 24.28400
C  46.77200 13.85000 25.73300
C  48.97100 14.24300 22.81500
C  46.51500 12.00900 23.87300
C  45.55100 11.96000 22.66200
N  46.12500 14.44000 28.66300
C  45.23700 13.79800 27.77900
C  44.10200 13.43300 28.49100
C  44.21000 14.12500 29.70900
C  45.49500 14.68000 29.78400
C  43.00900 12.68500 27.96300
C  43.51800 14.46400 30.90600
O  42.35600 14.16900 31.15400
C  44.55100 15.01100 31.92500
C  43.98400 16.28600 32.62400
O  43.45300 17.26300 32.09300
O  44.14600 16.16500 33.96800
C  43.73200 17.29200 34.79400
H  50.67200 18.30200 30.39000
H  50.84300 14.84700 24.87000
H  44.75800 13.10500 25.84000
H  46.33300 17.42400 32.85500
H  49.04400 18.20900 32.51700
H  48.35900 20.22900 32.11900
H  46.71100 19.51800 32.03300
H  47.86000 19.85600 30.56300
H  49.12300 16.22700 33.65400
H  47.93500 15.14400 33.17100
H  46.61000 15.27700 34.80400
H  46.66500 16.97200 35.22700
H  52.43100 18.75900 29.65400
H  53.21400 18.93600 28.08300
H  53.58400 17.53700 29.17200
H  54.86100 16.88700 26.98400
H  54.17600 18.38800 26.07100
H  54.91900 17.10200 25.25000
H  48.99800 12.74900 24.23400
H  46.40600 14.11800 23.68700
H  49.61300 15.12100 22.89100
H  48.11000 14.71900 22.34600
H  49.30600 13.43000 22.17000
H  46.09200 11.46400 24.71800
H  47.36800 11.37800 23.62300
H  46.06000 11.69700 21.73500
H  45.00000 12.89100 22.53000
H  44.76600 11.21300 22.77100
H  43.36000 11.96200 27.22700
H  42.43200 13.35000 27.32100
H  42.38000 12.23600 28.73100
H  44.86900 14.20500 32.58600
H  44.30400 18.16600 34.48100
H  43.85700 17.08000 35.85500
H  42.64900 17.40300 34.84500

