158

Mg 8.97100 48.19900 26.45400
C  6.46600 48.88400 28.85200
C  11.34500 49.10100 28.72100
C  11.29700 47.58100 24.11700
C  6.47600 47.56000 24.09600
N  8.86500 49.03600 28.51800
C  7.71600 49.13000 29.29200
C  8.12600 49.34300 30.77500
C  9.64900 49.60900 30.64600
C  9.96800 49.20000 29.21100
C  9.97100 51.07300 30.97600
C  7.84700 48.15600 31.71500
C  8.67900 47.99600 32.98700
H  8.13800 47.10900 34.18800
N  11.04800 48.23600 26.41900
C  11.79600 48.72400 27.43600
C  13.19800 48.70700 26.98900
C  13.24100 48.21100 25.69100
C  11.83100 48.00400 25.33900
C  14.36500 49.08500 27.94800
C  14.40200 47.92000 24.69900
O  14.24700 47.51000 23.54800
C  15.79300 48.10500 25.16500
N  8.89500 47.73900 24.39300
C  10.01200 47.40000 23.69700
C  9.66600 46.93400 22.28400
C  8.17200 46.97200 22.23100
C  7.76600 47.39300 23.68500
C  10.31800 47.63300 21.09600
C  7.56200 45.54800 21.79800
C  7.27500 45.56000 20.22500
N  6.82100 48.39500 26.37200
C  5.92300 48.02100 25.34800
C  4.56200 48.26300 25.89500
C  4.74900 48.48200 27.23700
C  6.09700 48.62900 27.44100
C  3.30400 47.97500 25.26800
C  4.10200 48.71500 28.45100
O  2.89900 48.74400 28.69500
C  5.12800 48.89300 29.63600
C  5.09200 47.74400 30.50000
O  5.50100 46.60600 30.21900
O  4.62800 48.13900 31.68300
C  4.10400 47.16800 32.57900
H  12.10700 49.30300 29.47600
H  12.01800 47.19300 23.39500
H  5.79100 47.34500 23.27400
H  7.55400 50.21900 31.08000
H  10.32700 49.03600 31.27700
H  9.12300 51.70300 31.24300
H  10.22700 51.47500 29.99600
H  10.79900 51.12900 31.68300
H  7.65900 47.22800 31.17500
H  6.89800 48.45100 32.16300
H  9.03700 48.93900 33.40000
H  9.63200 47.54400 32.71200
H  15.05500 49.73100 27.40500
H  15.03600 48.26600 28.20800
H  13.96700 49.62100 28.81000
H  16.52300 47.75800 24.43400
H  15.97900 47.58700 26.10600
H  15.90300 49.18900 25.19800
H  10.03500 45.91200 22.20000
H  7.65400 47.64200 21.54400
H  9.54000 48.01400 20.43400
H  10.96600 47.02500 20.46400
H  10.93300 48.48600 21.38300
H  6.69800 45.38800 22.44300
H  8.19400 44.66200 21.85300
H  7.76800 46.36200 19.67500
H  6.20600 45.73400 20.09600
H  7.49200 44.57700 19.80800
H  3.53400 47.40700 24.36700
H  2.71800 48.85700 25.01000
H  2.69000 47.33000 25.89700
H  5.05500 49.83700 30.17500
H  3.89400 47.61400 33.55100
H  4.79400 46.32700 32.52400
H  3.14000 46.98700 32.10200
Mg -11.19800 16.90400 41.64400
C  -7.77100 16.09000 41.45200
C  -10.39900 20.15800 40.88300
C  -14.38900 17.53700 41.64200
C  -11.79900 13.42600 42.20100
N  -9.24900 18.03500 41.37800
C  -8.02700 17.47900 41.27000
C  -7.00400 18.56300 40.82800
C  -7.89100 19.87200 40.71200
C  -9.27300 19.35600 40.99300
C  -7.45400 21.16100 41.53600
C  -6.39300 18.21200 39.47900
C  -4.83700 18.08100 39.23300
H  -4.25600 18.55000 37.91500
N  -12.26100 18.61500 41.12800
C  -11.78500 19.82600 40.95300
C  -12.89300 20.85300 40.78500
C  -14.04000 20.05200 40.93000
C  -13.64400 18.66000 41.15400
C  -12.71400 22.36400 40.57200
C  -15.42800 20.50400 40.92700
O  -15.65600 21.74500 40.96700
C  -16.60100 19.63200 41.06900
N  -12.84300 15.66300 41.81900
C  -14.08300 16.17800 41.82200
C  -15.16900 15.14800 42.16300
C  -14.29200 13.82000 42.08800
C  -12.84300 14.27300 42.07800
C  -15.81800 15.47500 43.57800
C  -14.66300 13.01300 40.83800
C  -15.15400 11.55800 41.10100
N  -10.05700 15.13900 41.86100
C  -10.44300 13.81800 42.11400
C  -9.26200 13.00000 42.22900
C  -8.21400 13.86400 41.97600
C  -8.73000 15.09500 41.70900
C  -9.19000 11.60800 42.77600
C  -6.76600 13.93200 41.85400
O  -5.88400 13.05800 41.86000
C  -6.44200 15.38900 41.59200
C  -5.67100 15.90300 42.69900
O  -6.00500 15.90400 43.88000
O  -4.40300 16.30300 42.33600
C  -3.61100 16.98900 43.32200
H  -10.17600 21.22400 40.80100
H  -15.47900 17.52700 41.57700
H  -12.17600 12.43600 42.46500
H  -6.20900 18.78200 41.54200
H  -7.90900 20.12800 39.65300
H  -6.40700 20.93600 41.73700
H  -8.06200 21.45500 42.39200
H  -7.30400 22.03300 40.90000
H  -6.70700 18.77700 38.60100
H  -6.73000 17.18500 39.34200
H  -4.59800 17.04100 39.45300
H  -4.27100 18.64800 39.97300
H  -12.40400 22.71600 39.58800
H  -11.93600 22.74700 41.23300
H  -13.64300 22.86000 40.85200
H  -17.48000 20.26200 40.92800
H  -16.69500 19.16000 42.04600
H  -16.57500 18.86600 40.29400
H  -15.98300 15.19300 41.43900
H  -14.40400 13.22700 42.99600
H  -15.17000 16.19600 44.07700
H  -15.74400 14.57000 44.18000
H  -16.85200 15.77100 43.40200
H  -13.92600 12.92300 40.04000
H  -15.50500 13.55600 40.40800
H  -16.18900 11.38000 40.81000
H  -15.12500 11.22700 42.13900
H  -14.52100 10.90600 40.49900
H  -9.62700 11.64000 43.77300
H  -8.18300 11.23100 42.95700
H  -9.78000 10.96000 42.12700
H  -5.82000 15.50900 40.70500
H  -2.98200 16.16800 43.66500
H  -4.20300 17.36500 44.15600
H  -3.01700 17.83900 42.98800

