158

Mg 23.98300 -4.62700 45.68300
C  25.80200 -2.10800 44.00500
C  21.19900 -3.67700 43.80500
C  22.37100 -7.27900 46.80900
C  27.02200 -5.83000 47.02300
N  23.51000 -2.99100 44.12900
C  24.44600 -2.08100 43.61500
C  23.77400 -1.15500 42.61000
C  22.22400 -1.58800 42.75800
C  22.28600 -2.80900 43.60400
C  21.41200 -0.45000 43.50700
C  24.22700 -1.48800 41.16700
C  25.20800 -0.44100 40.43900
H  24.95600 -0.33500 39.00400
N  22.00500 -5.32500 45.37200
C  21.03100 -4.81800 44.58400
C  19.80100 -5.56800 44.73900
C  20.06800 -6.55700 45.61500
C  21.56100 -6.47700 45.92100
C  18.52500 -5.14200 44.05700
C  19.01200 -7.45200 46.17700
O  17.79600 -7.42300 45.90700
C  19.47700 -8.59300 47.01000
N  24.65400 -6.37600 46.74000
C  23.72000 -7.27700 47.17200
C  24.37000 -8.27800 48.09600
C  25.82400 -7.85100 48.29100
C  25.89700 -6.63300 47.32400
C  23.57900 -8.64200 49.40800
C  27.01600 -8.88300 48.22200
C  27.58300 -9.29400 49.59000
N  26.06400 -4.04300 45.68400
C  27.15000 -4.67800 46.15500
C  28.33300 -3.88700 45.83200
C  27.81000 -2.88100 45.00700
C  26.45100 -3.08500 44.83900
C  29.78900 -4.09200 46.20500
C  28.21200 -1.73600 44.26600
O  29.33900 -1.27400 44.14800
C  26.94600 -1.15600 43.56900
C  26.83100 0.28900 43.72400
O  26.00400 0.83400 44.41200
O  27.70300 0.90100 42.82300
C  27.62500 2.38200 42.59200
H  20.31500 -3.21900 43.35600
H  21.90200 -8.17300 47.22700
H  27.95200 -6.14000 47.50400
H  24.08900 -0.13000 42.80500
H  21.77000 -1.84000 41.79900
H  22.15600 0.33500 43.64400
H  21.00200 -0.80200 44.45300
H  20.53500 -0.05100 42.99700
H  23.37000 -1.53700 40.49500
H  24.79100 -2.42100 41.14400
H  26.23700 -0.78700 40.54100
H  25.21300 0.54100 40.91200
H  17.59100 -5.70300 44.08400
H  18.58700 -4.93300 42.98900
H  18.30400 -4.17300 44.50500
H  18.57400 -9.10900 47.33700
H  19.77700 -8.07700 47.92200
H  20.23100 -9.18900 46.49700
H  24.28600 -9.22800 47.56900
H  25.90800 -7.34000 49.25000
H  23.94700 -8.37600 50.39900
H  23.41900 -9.71800 49.34200
H  22.58200 -8.21300 49.30400
H  27.77700 -8.47200 47.55800
H  26.67300 -9.78700 47.71900
H  28.67000 -9.34700 49.54000
H  27.16300 -10.28700 49.74800
H  27.30300 -8.55600 50.34200
H  30.35400 -3.29200 45.72500
H  30.12200 -5.05700 45.82200
H  29.86900 -4.13400 47.29100
H  27.05300 -1.24400 42.48800
H  27.24600 2.88600 43.48100
H  27.01700 2.61300 41.71800
H  28.60900 2.73600 42.28500
Mg 29.19600 57.53700 41.52500
C  26.40100 55.75000 40.25700
C  31.14600 55.26700 39.66100
C  31.90500 59.48500 42.05000
C  27.02500 59.86700 42.81800
N  28.80800 55.75700 40.08700
C  27.63400 55.28200 39.77200
C  27.74900 54.16700 38.71800
C  29.18500 53.69800 38.96100
C  29.79800 54.94300 39.59100
C  29.36200 52.42400 39.88400
C  27.48600 54.71600 37.25700
C  26.63600 53.77500 36.37400
H  27.06600 53.74300 34.93400
N  31.24700 57.41100 40.98100
C  31.79100 56.38600 40.30000
C  33.27500 56.49200 40.31900
C  33.51800 57.74500 40.88300
C  32.23500 58.28500 41.31900
C  34.27700 55.48400 39.73000
C  34.89200 58.28900 41.09000
O  35.83900 57.62600 40.71500
C  35.21000 59.65900 41.66500
N  29.38500 59.41400 42.18600
C  30.61700 60.02700 42.38400
C  30.44900 61.45400 42.97100
C  28.90900 61.48100 43.28700
C  28.38400 60.17000 42.70800
C  31.42200 61.88700 44.15000
C  28.27500 62.86900 42.77300
C  27.69500 62.85400 41.37000
N  27.10400 57.68800 41.70000
C  26.34000 58.66200 42.36500
C  24.98100 58.29600 42.35300
C  24.93300 57.10000 41.60200
C  26.23400 56.80400 41.18300
C  23.89200 58.95500 43.09700
C  24.12900 56.06500 41.08500
O  22.94400 55.86600 41.32400
C  25.02700 55.10700 40.04300
C  24.93900 53.63200 40.34300
O  25.20300 53.08700 41.40400
O  24.32200 52.92900 39.26600
C  24.35300 51.44600 39.40700
H  31.86500 54.54000 39.27800
H  32.79300 60.07000 42.29900
H  26.44300 60.60500 43.37500
H  27.09800 53.32300 38.94300
H  29.76400 53.60500 38.04200
H  29.45800 52.74900 40.92000
H  30.28000 51.95000 39.53800
H  28.48200 51.78100 39.85000
H  28.42400 54.90000 36.73200
H  26.99400 55.68400 37.35600
H  25.61800 54.15300 36.27000
H  26.54900 52.76000 36.76000
H  33.85100 54.48400 39.65000
H  35.20300 55.36800 40.29400
H  34.55100 55.65000 38.68800
H  34.70600 60.38200 41.02300
H  36.29600 59.75100 41.68300
H  34.84400 59.68700 42.69100
H  30.51200 62.12300 42.11300
H  28.66600 61.39500 44.34600
H  32.30100 61.24300 44.18200
H  30.93500 61.92400 45.12500
H  31.78800 62.86600 43.84100
H  28.94000 63.71600 42.94400
H  27.41800 63.05400 43.42100
H  27.44000 61.88200 40.94800
H  28.46800 63.30800 40.75000
H  26.80900 63.48800 41.41200
H  22.96400 58.38600 43.02700
H  23.71200 59.89800 42.58200
H  24.16300 59.14300 44.13600
H  24.66700 55.43200 39.06800
H  23.30300 51.18200 39.28800
H  24.77600 51.08100 40.34300
H  25.00500 50.95400 38.68500

