158

Mg 10.27600 47.06000 25.82500
C  8.21100 47.15200 28.65200
C  12.68800 48.62100 27.76100
C  11.97300 47.60500 22.97200
C  7.46200 46.03400 23.89800
N  10.34200 47.90800 27.95300
C  9.45000 47.76200 28.95800
C  9.98700 48.32600 30.27500
C  11.34100 48.98800 29.84000
C  11.46300 48.46600 28.43300
C  11.25200 50.57100 29.83400
C  10.02100 47.32900 31.43400
C  10.67600 47.87500 32.76000
H  9.85800 47.87100 34.03500
N  12.19200 47.80900 25.47200
C  13.05200 48.29900 26.39500
C  14.35000 48.55300 25.70200
C  14.17100 48.20100 24.31000
C  12.73000 47.83100 24.18100
C  15.63100 49.16900 26.48600
C  15.11200 48.36000 23.16600
O  14.91900 47.89200 22.03600
C  16.47900 48.92200 23.42200
N  9.71000 46.92300 23.67300
C  10.69500 47.06400 22.75400
C  10.04200 46.79700 21.34200
C  8.78000 46.01300 21.69400
C  8.63700 46.22000 23.21800
C  9.90500 48.25000 20.67400
C  8.63700 44.42900 21.22800
C  8.35500 43.46000 22.35900
N  8.24200 46.71100 26.15500
C  7.13700 46.31500 25.32800
C  5.95200 46.26800 26.07000
C  6.39200 46.56300 27.38700
C  7.75500 46.75200 27.39200
C  4.53200 45.96100 25.62800
C  5.88300 46.74300 28.73600
O  4.72400 46.52500 29.13500
C  7.12900 47.02300 29.59900
C  7.38100 45.85600 30.50100
O  7.94400 44.81300 30.16100
O  6.70900 46.13800 31.69900
C  6.85900 45.14500 32.73500
H  13.48900 49.17300 28.25700
H  12.57100 47.52100 22.06200
H  6.63900 45.45300 23.47600
H  9.25700 48.98800 30.74200
H  12.21200 48.61000 30.37500
H  10.42200 50.86900 30.47400
H  11.04500 50.99300 28.85100
H  12.12900 51.04100 30.28000
H  10.55400 46.44100 31.09400
H  9.10700 46.96500 31.90400
H  10.98400 48.91200 32.63200
H  11.65500 47.46900 33.01100
H  16.15400 49.97800 25.97500
H  16.35100 48.43800 26.85300
H  15.30700 49.56800 27.44700
H  17.02700 48.51900 24.27400
H  16.42500 50.00700 23.34100
H  16.99400 48.68000 22.49300
H  10.77400 46.24100 20.75700
H  7.96300 46.50000 21.16100
H  10.39800 48.15000 19.70700
H  10.39100 49.05800 21.22100
H  8.85900 48.53300 20.56100
H  9.58500 44.11700 20.79100
H  7.84800 44.32600 20.48300
H  9.07900 42.64500 22.37000
H  7.35700 43.08300 22.13600
H  8.39400 43.81500 23.38900
H  4.26000 45.03700 26.13900
H  4.51100 45.75800 24.55700
H  3.77100 46.72800 25.76900
H  7.00800 47.84700 30.30200
H  6.59400 44.10300 32.56000
H  6.17000 45.52400 33.49000
H  7.89300 45.21800 33.07300
Mg -10.74400 37.84300 41.61200
C  -8.69500 35.02800 41.33300
C  -8.31700 39.67400 39.84600
C  -12.82400 40.51600 41.32700
C  -13.21200 35.84500 42.88400
N  -8.72000 37.37700 40.64600
C  -8.14000 36.13100 40.59800
C  -6.81400 36.22400 39.90600
C  -6.62800 37.77900 39.69700
C  -8.00600 38.28300 39.99100
C  -5.34200 38.41800 40.39800
C  -6.80500 35.44600 38.57500
C  -5.49800 34.59300 38.32600
H  -4.44200 35.15300 37.29000
N  -10.53200 39.82800 40.90400
C  -9.45300 40.33700 40.21400
C  -9.58000 41.73700 39.99300
C  -10.86800 42.10000 40.45200
C  -11.52300 40.78800 40.92600
C  -8.53900 42.56100 39.19700
C  -11.53500 43.46600 40.44800
O  -10.81000 44.45000 40.04600
C  -12.84500 43.76400 41.01900
N  -12.76400 38.13200 41.90500
C  -13.36900 39.33500 41.88600
C  -14.88100 39.23200 42.27800
C  -14.98800 37.73400 42.84300
C  -13.56900 37.15200 42.46000
C  -15.32500 40.36700 43.32900
C  -16.24300 37.00600 42.32900
C  -16.23000 36.04500 41.16800
N  -10.94500 35.84400 42.14500
C  -11.97900 35.21100 42.68900
C  -11.57000 33.78100 43.01300
C  -10.27100 33.68200 42.46700
C  -9.95100 34.97200 41.92600
C  -12.47400 32.77800 43.68000
C  -9.18900 32.80900 42.24800
O  -9.13000 31.65700 42.56800
C  -8.11400 33.64500 41.46300
C  -6.79300 33.56300 42.08700
O  -6.31800 32.49500 42.34100
O  -6.33200 34.74500 42.59400
C  -5.26000 34.73200 43.56900
H  -7.49200 40.20200 39.36200
H  -13.49100 41.37800 41.40100
H  -14.05600 35.19100 43.11500
H  -6.00200 35.95900 40.58300
H  -6.43300 38.07500 38.66600
H  -4.80800 37.73800 41.06200
H  -5.68800 39.18000 41.09700
H  -4.72500 38.97900 39.69600
H  -6.84200 36.10900 37.71100
H  -7.65200 34.76100 38.52900
H  -5.88300 33.64900 37.94100
H  -4.92700 34.35100 39.22200
H  -8.12700 43.17700 39.99700
H  -8.99600 43.13300 38.39000
H  -7.78900 41.93700 38.70900
H  -13.01100 43.36300 42.01900
H  -13.59400 43.43900 40.29700
H  -13.00300 44.84200 41.07000
H  -15.33500 39.31000 41.29000
H  -15.12500 37.76200 43.92400
H  -15.87800 41.14000 42.79600
H  -14.46900 40.84000 43.81100
H  -15.93600 39.99500 44.15100
H  -16.98000 37.76000 42.05200
H  -16.64000 36.42500 43.16100
H  -16.97200 36.38300 40.44500
H  -16.43500 35.00900 41.43800
H  -15.22600 36.07800 40.74300
H  -12.76500 32.01600 42.95700
H  -13.31300 33.32200 44.11600
H  -11.98300 32.19500 44.45900
H  -8.01800 33.23600 40.45700
H  -5.62900 34.82200 44.59100
H  -4.58400 35.57100 43.40500
H  -4.64200 33.83400 43.55700

