158

Mg 8.86900 3.24900 28.04000
C  10.15500 1.83800 30.95300
C  6.75300 5.17300 30.04900
C  7.51400 4.60100 25.28700
C  10.40400 0.75100 26.20100
N  8.41300 3.39700 30.34700
C  9.18700 2.81000 31.32400
C  8.73100 3.25800 32.72300
C  7.66000 4.32300 32.47400
C  7.55700 4.28900 30.86700
C  6.34500 4.07600 33.23600
C  10.00700 3.90400 33.60200
C  10.11300 3.43700 35.07200
H  10.26000 4.45600 36.19600
N  7.37600 4.65300 27.74400
C  6.69600 5.40300 28.66700
C  5.95600 6.44100 28.04700
C  6.27000 6.40500 26.66900
C  7.08400 5.14600 26.48200
C  5.19600 7.66400 28.77900
C  5.84500 7.39700 25.51700
O  6.26000 7.20800 24.40800
C  4.84300 8.46800 25.79500
N  8.96600 2.78200 26.10000
C  8.39700 3.52000 25.14100
C  8.71500 2.97300 23.74400
C  9.78900 1.88400 24.03600
C  9.72800 1.78100 25.54600
C  7.52600 2.56500 22.88400
C  11.23300 2.20000 23.49500
C  11.54500 1.71400 22.06600
N  10.08700 1.69900 28.46800
C  10.52600 0.64700 27.58500
C  11.34700 -0.26600 28.28200
C  11.25100 0.16600 29.61600
C  10.40100 1.33200 29.65700
C  12.18000 -1.37100 27.64700
C  11.76300 -0.11000 30.93500
O  12.62300 -0.91600 31.33400
C  11.02500 0.96400 31.85900
C  10.27500 0.07700 32.77100
O  9.48400 -0.80300 32.36600
O  10.52400 0.36600 34.11300
C  9.71900 -0.45200 35.07700
H  6.13100 5.85500 30.63300
H  7.13100 5.09800 24.39400
H  10.72600 0.01600 25.45900
H  8.40500 2.44300 33.37000
H  8.10300 5.27200 32.77500
H  5.63800 3.89500 32.42500
H  6.06700 4.81900 33.98300
H  6.35500 3.14800 33.80700
H  10.00200 4.99200 33.66500
H  10.94700 3.70700 33.08600
H  10.89900 2.71400 35.29100
H  9.18600 2.93100 35.33800
H  5.42000 7.60300 29.84400
H  4.14600 7.41000 28.63400
H  5.44800 8.65600 28.40300
H  5.27700 9.33800 26.28700
H  4.05100 8.12600 26.46100
H  4.37200 8.65400 24.82900
H  9.28000 3.82300 23.36000
H  9.32300 0.97600 23.65400
H  6.58300 2.63600 23.42600
H  7.57600 1.51700 22.58800
H  7.46900 3.17000 21.97900
H  11.98200 1.87000 24.21500
H  11.32300 3.27900 23.37300
H  12.40600 1.04900 22.00900
H  11.45400 2.58400 21.41500
H  10.57900 1.24700 21.87200
H  11.59800 -1.91500 26.90300
H  12.46000 -2.04800 28.45400
H  13.00200 -0.79500 27.22000
H  11.67400 1.61800 32.44000
H  10.19800 -0.17200 36.01500
H  9.89500 -1.51300 34.89900
H  8.67200 -0.20800 34.89900
Mg -1.17800 33.95800 26.32200
C  -2.91800 32.41800 28.82800
C  0.34700 36.03200 28.72500
C  0.42800 35.43600 23.89800
C  -2.84100 31.88700 23.97500
N  -1.19700 34.17400 28.53700
C  -1.99800 33.37600 29.28600
C  -1.77200 33.79200 30.76700
C  -0.91500 35.07100 30.75500
C  -0.55000 35.14100 29.25300
C  -1.64800 36.35100 31.28000
C  -1.15000 32.58300 31.61000
C  -1.97800 32.18200 32.83300
H  -1.16600 31.93700 34.10900
N  0.24700 35.49200 26.26000
C  0.71200 36.26300 27.33000
C  1.77600 37.17200 26.84400
C  1.98100 36.83400 25.44200
C  0.90800 35.87000 25.16500
C  2.56000 38.10000 27.75000
C  2.99600 37.15700 24.38000
O  3.00300 36.72800 23.24600
C  4.11100 38.01300 24.72600
N  -1.37400 33.79700 24.22000
C  -0.61500 34.53300 23.43800
C  -0.86600 34.20400 21.94400
C  -1.76000 32.98200 21.96500
C  -1.99900 32.84700 23.48300
C  -1.36600 35.42100 21.11300
C  -1.20500 31.81300 21.23800
C  -0.53600 30.70900 22.09800
N  -2.71300 32.62900 26.32100
C  -3.24900 31.79600 25.31300
C  -4.16300 30.80300 25.84100
C  -4.04800 31.04800 27.24900
C  -3.19100 32.14100 27.47500
C  -4.93500 29.77600 25.02900
C  -4.64800 30.59500 28.49600
O  -5.51700 29.77800 28.65800
C  -3.85000 31.45100 29.61300
C  -4.82400 32.26000 30.37100
O  -5.46900 33.18300 29.87800
O  -4.97800 31.74200 31.70300
C  -6.12100 32.37700 32.36500
H  0.92700 36.53900 29.49900
H  0.91700 35.76600 22.97900
H  -3.30500 31.27700 23.19700
H  -2.80600 33.99100 31.05000
H  -0.03400 34.92100 31.38000
H  -1.81000 37.07400 30.48000
H  -0.99700 36.78600 32.03800
H  -2.60800 36.14600 31.75400
H  -0.07700 32.60400 31.79800
H  -1.16200 31.72600 30.93600
H  -2.43100 31.23000 32.55600
H  -2.70900 32.95900 33.05700
H  2.13600 38.20100 28.74900
H  2.54600 39.10800 27.33500
H  3.60200 37.79600 27.85100
H  3.86900 38.62700 25.59300
H  4.37200 38.63500 23.86900
H  5.02200 37.45900 24.94800
H  0.11800 33.94800 21.54900
H  -2.70500 33.02600 21.42500
H  -1.30600 36.35400 21.67200
H  -2.42500 35.18600 21.00200
H  -0.82600 35.43700 20.16600
H  -0.54900 32.15000 20.43500
H  -1.98800 31.27500 20.70400
H  -1.19200 29.85000 22.23900
H  -0.27400 31.11100 23.07600
H  0.34400 30.39600 21.53500
H  -4.30900 29.31000 24.26900
H  -5.64700 30.41200 24.50200
H  -5.49900 29.02800 25.58500
H  -3.39200 30.86000 30.40600
H  -5.65800 33.25400 32.81700
H  -6.61800 31.81500 33.15600
H  -6.84500 32.80200 31.66900

