158

Mg 26.29400 51.15200 26.18600
C  24.18000 52.31600 28.73600
C  28.61000 50.50400 28.74900
C  28.78500 50.95300 23.88200
C  24.20200 52.66200 23.90200
N  26.33200 51.44700 28.45500
C  25.33100 51.80800 29.25900
C  25.57500 51.43200 30.75600
C  27.10500 51.20800 30.70100
C  27.39600 50.99000 29.17900
C  27.95800 52.31000 31.44800
C  24.76300 50.23700 31.23200
C  25.20600 49.54300 32.51000
H  24.41700 49.84800 33.82000
N  28.34100 50.56900 26.30200
C  29.12100 50.29300 27.41000
C  30.45500 49.98500 27.03000
C  30.46300 50.02400 25.59200
C  29.17500 50.54500 25.22600
C  31.52900 49.55800 27.95600
C  31.59000 49.62500 24.62600
O  31.51300 49.82600 23.37400
C  32.85300 48.98700 25.17900
N  26.46800 51.72100 24.19800
C  27.60000 51.42300 23.43500
C  27.19900 51.56100 21.94800
C  25.86100 52.40800 21.97100
C  25.47700 52.26100 23.44300
C  28.24800 52.28200 21.12500
C  24.83200 51.88400 20.97600
C  24.23900 52.99100 20.08200
N  24.45200 52.12100 26.19700
C  23.67400 52.56400 25.18900
C  22.39500 53.01700 25.72500
C  22.60500 52.98600 27.08800
C  23.87500 52.44700 27.35400
C  21.18100 53.51600 24.98900
C  21.97100 53.24400 28.36300
O  20.82900 53.65700 28.55500
C  22.92900 52.70800 29.44100
C  23.12300 53.68700 30.49200
O  23.85500 54.65800 30.49400
O  22.34300 53.27400 31.51900
C  22.43300 53.74900 32.90400
H  29.28100 50.36300 29.59900
H  29.38500 50.65000 23.02100
H  23.41000 52.98300 23.22200
H  25.26600 52.31300 31.31900
H  27.44400 50.26700 31.13300
H  28.34700 51.80400 32.33300
H  27.26600 53.12800 31.64800
H  28.71100 52.72500 30.77800
H  24.69200 49.57600 30.36800
H  23.71300 50.50600 31.35300
H  26.25500 49.75400 32.71500
H  25.14700 48.46900 32.33400
H  31.15100 49.52500 28.97700
H  32.51800 50.00200 27.84100
H  31.69300 48.49400 27.78600
H  33.54800 48.75800 24.37100
H  32.53300 47.99400 25.49400
H  33.27400 49.66200 25.92400
H  26.95700 50.58300 21.53100
H  26.01700 53.47700 21.82300
H  28.94200 52.87900 21.71700
H  27.66300 52.95300 20.49500
H  28.76600 51.45800 20.63500
H  23.95600 51.40700 21.41600
H  25.37200 51.19300 20.32800
H  23.17900 52.74000 20.03400
H  24.62700 52.93300 19.06500
H  24.45200 53.99700 20.44300
H  20.34100 53.09800 25.54400
H  21.18600 53.19300 23.94800
H  21.16500 54.60200 24.90100
H  22.49200 51.82800 29.91200
H  23.17100 53.22700 33.51200
H  21.48000 53.73900 33.43400
H  22.76700 54.78300 32.98000
Mg 16.06100 51.99100 25.90100
C  18.20400 50.75300 28.42000
C  13.62800 52.46500 28.39000
C  14.03900 52.62500 23.49000
C  18.52600 50.94900 23.60500
N  15.93500 51.60500 28.07700
C  16.96700 51.18100 28.90000
C  16.56400 51.49700 30.37000
C  15.04700 51.85000 30.36900
C  14.88600 52.03200 28.84300
C  14.09500 50.67600 30.77900
C  17.39300 52.64100 31.10700
C  17.54800 52.68800 32.66700
H  16.81000 51.53900 33.42100
N  14.12500 52.66400 25.94000
C  13.27200 52.79900 27.01900
C  11.96100 53.28200 26.57500
C  12.02800 53.29100 25.16000
C  13.41400 52.89300 24.76400
C  10.82000 53.60500 27.46400
C  10.90600 53.60000 24.12400
O  11.12400 53.67000 22.93900
C  9.42000 53.88100 24.55300
N  16.30800 51.89300 23.83300
C  15.30200 52.23900 23.06700
C  15.58000 52.20000 21.54700
C  17.14400 51.79400 21.59800
C  17.37800 51.46400 23.04700
C  14.66600 51.21800 20.80200
C  18.08800 52.90300 21.04400
C  19.24700 52.41100 20.18000
N  17.99300 51.09600 25.92800
C  18.91100 50.72200 24.95200
C  20.13000 50.13600 25.52600
C  19.82500 50.15500 26.86200
C  18.54300 50.73700 27.03800
C  21.41000 49.63300 24.87700
C  20.38000 49.83300 28.17400
O  21.45400 49.32200 28.32500
C  19.40000 50.36000 29.21500
C  19.05000 49.18600 30.17600
O  18.51300 48.13400 29.86400
O  19.42800 49.44100 31.46300
C  19.34500 48.32400 32.48600
H  12.83200 52.70000 29.10000
H  13.40900 52.91600 22.64700
H  19.29000 50.63400 22.89000
H  16.70500 50.58600 30.95100
H  14.79900 52.77500 30.88900
H  14.74900 49.80400 30.79800
H  13.24800 50.61800 30.09500
H  13.65400 50.75100 31.77300
H  16.93800 53.56400 30.74800
H  18.39800 52.78800 30.71100
H  17.25100 53.67800 33.01200
H  18.58700 52.42700 32.86900
H  10.48000 54.63700 27.38500
H  11.03000 53.54200 28.53200
H  9.96700 52.94200 27.32100
H  8.87000 52.94800 24.67800
H  8.96000 54.50800 23.79000
H  9.41000 54.55100 25.41300
H  15.56000 53.22800 21.18500
H  17.30700 50.92400 20.96100
H  14.56300 51.60800 19.78900
H  13.66100 51.20300 21.22300
H  14.96700 50.17200 20.84600
H  18.34400 53.67500 21.77000
H  17.54700 53.45800 20.27800
H  19.25100 52.59600 19.10500
H  19.42000 51.34100 20.29200
H  20.18800 52.81100 20.55600
H  21.71800 50.29200 24.06500
H  21.28100 48.65200 24.41900
H  22.22200 49.76400 25.59200
H  19.80200 51.14000 29.86200
H  18.32900 47.93100 32.47000
H  19.48100 48.84600 33.43300
H  20.22200 47.67700 32.50400

