158

Mg -0.96900 17.81400 27.31800
C  -1.68900 15.66700 30.09800
C  -1.55200 20.45300 29.41300
C  -0.64100 19.79900 24.73500
C  -0.64400 14.95600 25.30200
N  -1.57800 18.01300 29.57100
C  -1.74000 17.05100 30.49600
C  -2.00400 17.68600 31.82700
C  -2.21200 19.15600 31.50400
C  -1.67200 19.22900 30.09200
C  -3.59400 19.73400 31.66900
C  -0.83300 17.53200 32.82000
C  -1.29100 16.81800 34.14800
H  -0.17800 16.57900 35.14300
N  -1.11100 19.82500 27.11400
C  -1.30300 20.78200 28.10200
C  -1.17400 22.15400 27.60000
C  -1.00800 21.99400 26.18800
C  -0.93700 20.54200 25.91700
C  -1.22300 23.39500 28.37700
C  -0.80700 23.03100 25.07300
O  -0.75400 22.76300 23.88200
C  -0.62300 24.46600 25.44300
N  -0.66700 17.40200 25.24700
C  -0.60600 18.44700 24.40600
C  -0.34300 17.92700 22.98100
C  -0.16000 16.39900 23.14200
C  -0.60000 16.20000 24.64200
C  -1.50900 18.40400 21.97300
C  1.31400 15.84600 22.93800
C  2.42000 16.31400 23.90600
N  -1.06200 15.77300 27.53900
C  -0.78800 14.76100 26.70200
C  -1.02900 13.52900 27.38200
C  -1.30700 13.79600 28.67900
C  -1.34600 15.24000 28.75500
C  -1.05300 12.16200 26.79600
C  -1.65300 13.18900 29.95100
O  -1.79300 12.02800 30.24100
C  -1.77800 14.38100 30.94700
C  -0.73800 14.17100 32.01300
O  0.39300 14.63800 31.98200
O  -1.33400 13.48100 32.99400
C  -0.55500 13.11700 34.15600
H  -1.79300 21.29900 30.06100
H  -0.53800 20.33800 23.79100
H  -0.47400 14.02500 24.75700
H  -2.89000 17.20900 32.24400
H  -1.58100 19.81200 32.10500
H  -3.98500 20.00700 30.68900
H  -3.52100 20.57800 32.35400
H  -4.31700 19.11800 32.20400
H  -0.44600 18.50300 33.12800
H  0.07500 17.08200 32.41900
H  -1.73500 15.86600 33.85600
H  -1.96300 17.44100 34.73700
H  -1.56200 23.25300 29.40300
H  -1.96500 24.04800 27.91600
H  -0.24700 23.87800 28.33400
H  -0.21000 24.94000 24.55300
H  0.10000 24.31700 26.24500
H  -1.50100 24.96100 25.85900
H  0.62600 18.25700 22.60600
H  -0.77900 15.85200 22.43100
H  -2.15900 17.62200 21.58100
H  -1.10100 19.12500 21.26400
H  -2.30500 18.88400 22.54200
H  1.66900 16.23600 21.98400
H  1.23600 14.75900 22.97500
H  1.91400 16.87300 24.69400
H  3.05200 17.09100 23.47600
H  3.00000 15.42200 24.14300
H  -0.50300 12.22000 25.85600
H  -2.07100 11.97800 26.45600
H  -0.77800 11.32900 27.44300
H  -2.75600 14.26000 31.41300
H  0.38300 13.67300 34.16600
H  -0.25600 12.06900 34.16300
H  -1.21000 13.43300 34.96800
Mg 35.58800 2.15800 29.90600
C  33.25300 3.08100 32.29700
C  37.95700 2.03600 32.41700
C  37.98000 1.43100 27.57300
C  33.25000 2.62400 27.43900
N  35.63000 2.67800 32.01600
C  34.48800 2.84700 32.86000
C  34.86900 2.69400 34.36500
C  36.42100 2.63700 34.33700
C  36.71000 2.43200 32.83000
C  37.18500 3.80900 34.97800
C  34.16500 1.44500 35.06500
C  33.63900 1.71700 36.46000
H  34.31900 2.73300 37.34000
N  37.71800 1.76300 29.98900
C  38.47800 1.79400 31.06500
C  39.88000 1.42700 30.70800
C  39.87700 1.19600 29.30500
C  38.46200 1.45500 28.87200
C  40.97800 1.49100 31.73400
C  41.14300 0.92000 28.34900
O  41.05500 0.69700 27.13900
C  42.48200 0.80300 28.94000
N  35.63100 2.08000 27.83100
C  36.76000 1.77600 27.04400
C  36.36600 1.80600 25.57300
C  34.88200 2.11200 25.57100
C  34.50800 2.22600 27.03800
C  37.22100 2.75300 24.79800
C  33.96100 1.04100 24.85300
C  33.35200 -0.22200 25.61700
N  33.60000 2.67700 29.86100
C  32.78300 2.78000 28.78500
C  31.51400 3.13200 29.27300
C  31.60600 3.24600 30.67700
C  32.91700 3.00200 30.93000
C  30.37900 3.65000 28.49000
C  30.93800 3.64000 31.81800
O  29.76500 3.91500 32.04600
C  32.00000 3.43800 32.97300
C  32.15300 4.78300 33.68900
O  32.39800 5.82700 33.18400
O  31.95900 4.70500 35.02100
C  32.19000 6.01500 35.71500
H  38.79100 2.03900 33.12200
H  38.74400 1.17300 26.83700
H  32.46000 2.81300 26.70900
H  34.53100 3.57700 34.90700
H  36.78300 1.74300 34.84500
H  37.94700 3.51100 35.69800
H  36.51900 4.40200 35.60500
H  37.60400 4.43600 34.19000
H  34.81200 0.57600 35.18400
H  33.33700 1.07800 34.45800
H  33.60300 0.80800 37.06000
H  32.61500 2.04900 36.29300
H  41.74300 0.71600 31.67600
H  40.62400 1.48400 32.76500
H  41.44200 2.47400 31.65400
H  42.58400 1.80200 29.36400
H  43.22400 0.66400 28.15400
H  42.57000 -0.01700 29.65400
H  36.69600 0.85100 25.16400
H  34.61400 3.07100 25.12800
H  36.73400 3.26800 23.97000
H  38.10200 2.21500 24.44700
H  37.57900 3.53500 25.46700
H  34.40800 0.80600 23.88700
H  33.02500 1.55800 24.64400
H  33.87000 -0.30900 26.57200
H  33.56900 -1.15600 25.09700
H  32.26500 -0.15800 25.65400
H  30.54000 3.68000 27.41200
H  30.17500 4.69000 28.74300
H  29.46800 3.05600 28.56500
H  31.60600 2.77100 33.73900
H  31.38600 6.74900 35.75900
H  33.07900 6.54900 35.38000
H  32.39700 5.85000 36.77200

