158

Mg 43.07500 3.49500 46.82300
C  41.39400 6.60700 47.01600
C  39.81900 1.91100 46.83100
C  44.42400 0.62900 46.12900
C  46.06600 5.25900 46.28100
N  40.94400 4.24800 46.93600
C  40.54100 5.53900 47.03200
C  39.00900 5.70200 47.19600
C  38.57500 4.18800 47.14500
C  39.84300 3.35800 46.98800
C  37.69900 3.69000 48.36400
C  38.21000 6.45600 46.13600
C  38.84600 6.49700 44.65000
H  38.08600 5.76800 43.48800
N  42.24700 1.49400 46.46700
C  40.91300 1.03700 46.63500
C  40.91800 -0.36900 46.41100
C  42.25900 -0.77700 46.16600
C  43.09500 0.42100 46.21400
C  39.69000 -1.20400 46.56300
C  42.69400 -2.26800 45.93700
O  41.84900 -3.16800 45.74800
C  44.07200 -2.62300 45.53700
N  44.96700 3.04600 46.21900
C  45.25800 1.74000 46.10100
C  46.78300 1.61400 46.03300
C  47.34600 3.03900 45.79200
C  46.05400 3.84400 46.13700
C  47.34600 1.01500 47.30800
C  47.93100 3.28700 44.42300
C  49.16400 4.04100 44.27400
N  43.69700 5.49000 46.75000
C  44.91200 6.04700 46.51900
C  44.75600 7.52000 46.56900
C  43.39600 7.68900 46.72600
C  42.82500 6.50300 46.88300
C  45.85200 8.60900 46.42600
C  42.37900 8.81700 46.80400
O  42.44700 10.06500 46.72600
C  41.06900 8.10400 46.95800
C  40.52300 8.65800 48.27100
O  40.96400 8.54700 49.38200
O  39.36700 9.32600 48.00900
C  38.82300 10.00400 49.20600
H  38.84200 1.42200 46.81900
H  45.00300 -0.29600 46.10300
H  46.96400 5.87000 46.17000
H  38.86800 6.17900 48.16500
H  38.09500 3.92000 46.20400
H  37.80000 2.61800 48.53200
H  36.65600 3.92700 48.15700
H  37.94200 4.11200 49.33900
H  38.10300 7.45300 46.56400
H  37.21300 6.07200 45.91600
H  39.79700 5.97000 44.56600
H  38.93600 7.56900 44.47700
H  39.82600 -2.18800 47.01300
H  39.06100 -1.10700 45.67900
H  39.03100 -0.72500 47.28700
H  44.56700 -2.69700 46.50600
H  44.35700 -1.85300 44.82100
H  44.11600 -3.56000 44.98200
H  46.99100 1.06400 45.11500
H  47.99000 3.45900 46.56500
H  46.66300 0.54500 48.01600
H  47.84700 1.81500 47.85200
H  48.10700 0.30800 46.97600
H  47.21400 3.82700 43.80300
H  47.90200 2.39000 43.80400
H  49.00400 4.93500 43.67200
H  49.90900 3.41600 43.78200
H  49.50900 4.31500 45.27200
H  46.90100 8.31200 46.41400
H  45.71500 9.25700 47.29100
H  45.76200 9.13800 45.47700
H  40.37300 8.24700 46.13200
H  38.57100 9.20800 49.90700
H  37.83800 10.40800 48.97200
H  39.43400 10.79000 49.65100
Mg 53.57900 23.75900 44.90300
C  51.19800 26.11600 44.01300
C  51.56900 21.26900 43.53900
C  56.20300 21.70900 45.26200
C  55.61200 26.43900 45.98000
N  51.71000 23.81600 43.74700
C  50.89500 24.84200 43.49000
C  49.71000 24.38500 42.62100
C  49.60200 22.86300 43.07200
C  51.05800 22.60200 43.47200
C  48.59000 22.55500 44.15000
C  49.97400 24.39400 41.05100
C  51.38700 24.76100 40.59900
H  51.55100 25.37500 39.17700
N  53.84000 21.70500 44.41400
C  52.90600 20.83000 43.92400
C  53.50800 19.48700 43.90700
C  54.79800 19.62900 44.46700
C  54.97400 21.05300 44.77400
C  52.87900 18.33100 43.33000
C  55.70000 18.44100 44.77900
O  55.44100 17.36400 44.29900
C  56.85300 18.46400 45.70000
N  55.70200 24.09600 45.43700
C  56.50000 23.03200 45.59300
C  57.86600 23.52000 46.22500
C  57.75500 25.08600 46.22900
C  56.23400 25.27800 45.86400
C  58.11900 22.88600 47.64100
C  58.82000 25.84100 45.26100
C  58.43800 25.96200 43.77800
N  53.47300 25.83500 45.07000
C  54.32600 26.74300 45.58600
C  53.72900 28.09900 45.62000
C  52.43500 27.85000 44.99300
C  52.38400 26.46700 44.66000
C  54.32800 29.32400 46.22700
C  51.26100 28.51500 44.50200
O  50.93300 29.69700 44.57700
C  50.45000 27.38600 43.81300
C  50.18600 27.86400 42.38900
O  51.02800 28.13200 41.55900
O  48.85000 27.81400 42.19800
C  48.33600 27.84600 40.83500
H  50.93600 20.39000 43.40100
H  57.10500 21.12500 45.45700
H  56.20300 27.25100 46.40700
H  48.69500 24.73000 42.82200
H  49.32200 22.21200 42.24300
H  47.61500 22.23800 43.78100
H  48.39900 23.46700 44.71500
H  48.99200 21.79900 44.82600
H  49.43500 25.27200 40.69500
H  49.72400 23.50000 40.47900
H  51.87100 23.78500 40.56200
H  51.77200 25.48600 41.31700
H  53.48800 17.99200 42.49300
H  51.88000 18.65400 43.03700
H  52.72800 17.46800 43.97800
H  56.83100 17.50400 46.21600
H  56.70600 19.23400 46.45700
H  57.78700 18.58400 45.15000
H  58.69300 23.21500 45.58400
H  57.87000 25.49000 47.23400
H  58.60200 23.69800 48.18400
H  58.76200 22.01100 47.54100
H  57.16300 22.58100 48.06600
H  59.80500 25.37600 45.31400
H  58.90800 26.86800 45.61400
H  57.94800 26.92900 43.66300
H  57.68100 25.23100 43.49500
H  59.22600 25.86500 43.03100
H  53.85900 30.22900 45.84000
H  55.32500 29.53100 45.84000
H  54.25700 29.27600 47.31400
H  49.47100 27.42400 44.29100
H  48.11500 28.88900 40.60900
H  47.49400 27.19100 40.61100
H  49.05400 27.44200 40.12200

