158

Mg 26.58800 49.79500 26.68000
C  24.34600 50.86700 29.13500
C  28.63600 48.72200 29.15900
C  28.72300 48.91200 24.34100
C  24.54400 51.41500 24.33300
N  26.28900 49.45300 28.90500
C  25.35700 50.03800 29.68000
C  25.54000 49.68100 31.17300
C  26.99900 49.05000 31.23000
C  27.37200 49.02200 29.70000
C  28.07400 49.77900 32.03100
C  24.41900 48.74000 31.71200
C  23.79900 49.27700 33.11200
H  24.82400 49.89100 34.18000
N  28.38400 48.90200 26.76600
C  29.08400 48.54200 27.83200
C  30.32800 47.87500 27.47200
C  30.44800 47.94800 26.04100
C  29.15500 48.66700 25.63600
C  31.37300 47.29400 28.38500
C  31.61800 47.48000 25.07300
O  31.55000 47.78500 23.86600
C  32.86900 46.82100 25.60000
N  26.63300 50.15400 24.62300
C  27.61400 49.57000 23.89400
C  27.25600 49.61900 22.42000
C  25.85400 50.34000 22.35100
C  25.60800 50.63600 23.83700
C  28.27900 50.23600 21.42400
C  24.69000 49.55100 21.60200
C  23.61000 50.54400 21.07000
N  24.76000 50.85400 26.63700
C  24.20500 51.61500 25.67000
C  23.07100 52.27200 26.16900
C  23.10000 52.06500 27.53000
C  24.17900 51.25700 27.77300
C  22.10200 53.17700 25.48300
C  22.44000 52.41900 28.77400
O  21.42100 53.09700 28.99900
C  23.33200 51.70800 29.82800
C  23.89600 52.85100 30.61400
O  24.91800 53.44900 30.30100
O  23.08300 53.07300 31.75900
C  23.50900 54.24000 32.43000
H  29.28900 48.28200 29.91600
H  29.45200 48.65500 23.56900
H  23.89300 51.89500 23.59900
H  25.55300 50.66900 31.63300
H  26.92100 47.98600 31.45400
H  28.60800 50.58200 31.52200
H  28.80300 48.99400 32.23500
H  27.65400 50.13600 32.97100
H  24.86900 47.75600 31.84900
H  23.66100 48.62500 30.93800
H  23.39500 48.32700 33.46000
H  22.99600 49.95600 32.82400
H  31.58200 46.25800 28.11800
H  31.07700 47.18900 29.42900
H  32.24100 47.94200 28.26400
H  33.26200 47.51300 26.34400
H  33.62800 46.63400 24.84000
H  32.30200 45.97700 25.99300
H  27.09900 48.65300 21.94000
H  25.98500 51.37100 22.02100
H  28.01000 51.28300 21.28300
H  28.19800 49.77000 20.44200
H  29.29100 50.19600 21.82800
H  24.24400 49.03100 22.45000
H  25.05300 48.71700 21.00100
H  24.04200 51.53000 20.89800
H  22.73700 50.65300 21.71400
H  23.17500 50.16600 20.14600
H  22.68300 53.56000 24.64500
H  21.76500 54.01500 26.09300
H  21.32000 52.52200 25.09800
H  22.79200 51.06400 30.52300
H  22.67500 54.56300 33.05400
H  23.84300 54.98800 31.71100
H  24.39800 53.90700 32.96600
Mg -12.50600 38.31000 41.15000
C  -10.24400 35.62800 40.41600
C  -10.44100 40.35300 39.50200
C  -14.96000 40.39000 41.27300
C  -14.54500 35.90500 42.73700
N  -10.71700 38.01200 39.87500
C  -9.95200 36.84100 39.75900
C  -8.71000 37.12200 38.88900
C  -8.66000 38.64400 38.86200
C  -10.00600 39.03600 39.48500
C  -7.48900 39.21100 39.58600
C  -8.72400 36.35200 37.54900
C  -7.71300 35.20400 37.21200
H  -6.57900 35.59400 36.20300
N  -12.67000 40.13700 40.55700
C  -11.67400 40.88300 39.97100
C  -12.11500 42.26700 39.82700
C  -13.39600 42.33700 40.46700
C  -13.77300 40.90000 40.75300
C  -11.38000 43.32900 39.18500
C  -14.13600 43.59100 40.70100
O  -13.71400 44.66600 40.37300
C  -15.40600 43.64700 41.40900
N  -14.52000 38.06600 41.72200
C  -15.32800 39.15500 41.79500
C  -16.66800 38.98900 42.50900
C  -16.51800 37.53700 42.92400
C  -15.06500 37.12000 42.53400
C  -16.84600 40.09000 43.66000
C  -17.41800 36.49700 42.18400
C  -18.68500 36.10400 42.95900
N  -12.46500 36.08000 41.49200
C  -13.34300 35.40700 42.29900
C  -12.76100 34.07700 42.46700
C  -11.58900 34.05300 41.66600
C  -11.47400 35.31100 41.05200
C  -13.38900 32.95900 43.27700
C  -10.43900 33.24500 41.18600
O  -10.24900 32.03200 41.31200
C  -9.44400 34.34900 40.51500
C  -8.12400 34.39500 41.19900
O  -7.29000 33.49600 41.10700
O  -7.98300 35.62300 41.84800
C  -6.71700 35.65800 42.67000
H  -9.88300 41.12200 38.96300
H  -15.69900 41.18500 41.39500
H  -15.13800 35.21100 43.33500
H  -7.94500 36.79400 39.59300
H  -8.76700 38.97800 37.83000
H  -7.51700 38.80800 40.59800
H  -7.35900 40.28400 39.72800
H  -6.66300 38.77200 39.02500
H  -8.57100 37.07500 36.74800
H  -9.71400 35.99300 37.26600
H  -8.23500 34.31400 36.86000
H  -7.14300 34.85200 38.07200
H  -11.82400 43.91400 38.38000
H  -10.46900 43.12400 38.62200
H  -11.20600 44.03500 39.99700
H  -15.48000 44.69100 41.71300
H  -15.37800 43.14300 42.37500
H  -16.29100 43.28700 40.88300
H  -17.28200 39.10500 41.61600
H  -16.53800 37.41000 44.00700
H  -17.13800 39.79300 44.66700
H  -17.67900 40.63000 43.21000
H  -15.97400 40.74300 43.68400
H  -16.96100 35.53700 41.94300
H  -17.87200 36.97400 41.31600
H  -18.76100 35.01900 42.88400
H  -19.57900 36.29100 42.36500
H  -18.74100 36.43300 43.99700
H  -13.00800 31.98600 42.96900
H  -14.46800 33.11100 43.26300
H  -13.03600 33.08900 44.30000
H  -9.17700 34.07000 39.49600
H  -6.72200 36.65300 43.11400
H  -5.88600 35.58800 41.96700
H  -6.63600 35.08400 43.59300

