158

Mg 34.69100 2.75100 31.09100
C  32.50200 3.67500 33.71400
C  37.25500 2.85300 33.49700
C  36.90700 2.38400 28.63400
C  32.16100 3.14500 28.94900
N  34.89800 3.50400 33.34200
C  33.80900 3.54900 34.17300
C  34.26400 3.68900 35.61500
C  35.85000 3.62100 35.58800
C  36.01900 3.30000 34.02300
C  36.55200 5.01500 35.90700
C  33.71900 2.64000 36.53700
C  33.52900 3.13900 37.98100
H  34.35000 4.36400 38.49900
N  36.76700 2.44300 31.09500
C  37.63100 2.49700 32.17100
C  38.97100 2.28000 31.65200
C  38.88400 2.14000 30.22600
C  37.47900 2.36500 29.91100
C  40.12500 1.93900 32.63300
C  39.95100 1.77600 29.17300
O  39.69600 1.57900 27.99000
C  41.35800 1.68800 29.69600
N  34.57400 2.87500 29.10100
C  35.58600 2.63400 28.26100
C  35.15700 2.54000 26.79400
C  33.58700 2.59000 26.90700
C  33.43800 2.88100 28.37900
C  35.75800 3.68500 25.98600
C  32.91300 1.29300 26.40600
C  31.69500 1.47200 25.42900
N  32.67500 3.21400 31.23900
C  31.80400 3.46600 30.25300
C  30.49000 3.79500 30.74800
C  30.74000 3.88000 32.11700
C  32.05600 3.52500 32.36600
C  29.23900 3.88400 29.87800
C  30.15300 4.17500 33.36000
O  28.95700 4.46900 33.63400
C  31.23600 4.12600 34.42600
C  31.48800 5.42800 35.09900
O  32.03000 6.46300 34.66800
O  30.86700 5.38200 36.36500
C  30.68500 6.64300 37.07000
H  38.10100 2.77500 34.18200
H  37.48800 2.20600 27.72700
H  31.39000 3.03200 28.18400
H  34.00500 4.71200 35.88900
H  36.22000 2.89200 36.31000
H  37.11100 4.86300 36.83000
H  35.74600 5.74000 36.01800
H  37.27200 5.36100 35.16500
H  34.37400 1.77100 36.60600
H  32.74200 2.26900 36.22700
H  33.82600 2.35400 38.67700
H  32.45500 3.27300 38.11100
H  40.38100 0.88300 32.54800
H  40.04800 2.10500 33.70800
H  40.90700 2.63800 32.33700
H  41.73900 2.64200 30.06000
H  42.03000 1.21300 28.98200
H  41.22200 0.91400 30.45100
H  35.57400 1.68300 26.26600
H  33.14300 3.48400 26.46900
H  36.47500 3.34100 25.24100
H  36.25700 4.40900 26.63100
H  34.90700 4.17900 25.51600
H  32.74900 0.58300 27.21600
H  33.57000 0.82100 25.67600
H  31.74400 0.81000 24.56400
H  31.59800 2.50300 25.08900
H  30.77100 1.40400 26.00200
H  29.57500 4.35600 28.95500
H  28.37500 4.48500 30.16100
H  28.86100 2.92300 29.52800
H  30.99000 3.34800 35.14800
H  30.91100 7.48900 36.42000
H  31.31400 6.65500 37.96100
H  29.64500 6.79600 37.35600
Mg 40.47000 9.24100 29.85500
C  42.38300 10.56000 32.38500
C  38.16800 8.32400 32.07000
C  38.85600 7.87300 27.24000
C  43.16200 9.67800 27.64600
N  40.33600 9.26200 32.09600
C  41.31700 9.78700 32.93500
C  40.80600 9.73400 34.40100
C  39.38300 9.08700 34.29600
C  39.26300 8.88300 32.75700
C  39.22000 7.79000 35.14400
C  40.78200 11.21600 35.08000
C  39.81700 11.28500 36.32100
H  40.50700 11.81400 37.61500
N  38.70700 8.36800 29.62400
C  37.88700 8.09000 30.69400
C  36.62100 7.60500 30.17800
C  36.75900 7.49100 28.75100
C  38.13900 7.90600 28.49300
C  35.42200 7.32500 31.05200
C  35.76700 7.01900 27.74600
O  36.02900 7.01600 26.53600
C  34.39500 6.41200 28.24100
N  41.08300 8.51600 27.83400
C  40.18300 8.04300 26.95500
C  40.69400 8.09700 25.43000
C  42.14700 8.59900 25.60400
C  42.16500 8.98400 27.12700
C  40.54800 6.67700 24.69700
C  42.54600 9.64900 24.55700
C  42.46400 11.16600 25.06100
N  42.31400 9.99800 29.91100
C  43.17300 10.25800 28.91600
C  44.20100 11.16800 29.48500
C  43.91800 11.26900 30.84500
C  42.77400 10.54700 31.07800
C  45.32200 11.79700 28.73100
C  44.38500 11.83600 32.05700
O  45.39400 12.47300 32.23800
C  43.31300 11.41700 33.15800
C  44.01100 10.74500 34.28900
O  44.20000 9.53100 34.46900
O  44.39300 11.71600 35.22200
C  44.71200 11.19200 36.59500
H  37.39600 8.16100 32.82500
H  38.32600 7.50800 26.35800
H  44.03200 9.92900 27.03600
H  41.46600 9.18000 35.06900
H  38.49800 9.70300 34.45600
H  38.34900 7.77800 35.80000
H  40.05700 7.63100 35.82300
H  39.14100 6.93400 34.47400
H  40.51300 11.97200 34.34200
H  41.78000 11.46900 35.43700
H  39.43800 10.28600 36.53500
H  39.11400 12.02800 35.94500
H  34.52400 7.61500 30.50600
H  35.35600 7.85200 32.00400
H  35.20300 6.30800 31.37500
H  34.41400 5.79700 29.14100
H  34.04200 5.74000 27.45900
H  33.79400 7.31800 28.31800
H  40.04600 8.79600 24.90100
H  42.89300 7.80900 25.51500
H  41.48400 6.31300 24.27300
H  39.70500 6.71800 24.00700
H  40.33400 5.97100 25.50000
H  42.09900 9.67700 23.56300
H  43.57700 9.49700 24.23900
H  43.45700 11.52800 25.32900
H  41.74200 11.26600 25.87200
H  42.08300 11.84600 24.30000
H  45.11000 11.95500 27.67300
H  46.17000 11.12500 28.85800
H  45.53700 12.70400 29.29500
H  42.84200 12.36800 33.40700
H  43.97700 10.47900 36.96800
H  44.64600 12.02100 37.29900
H  45.73800 10.82800 36.64000

