158

Mg 41.86700 7.92200 29.48300
C  43.74600 9.46400 31.86600
C  39.61800 6.76100 31.83600
C  40.42800 6.12500 27.05600
C  44.46300 8.87000 27.12100
N  41.63700 8.27500 31.51500
C  42.50800 8.90300 32.29700
C  42.08300 8.91000 33.79300
C  40.95800 7.87800 33.82300
C  40.64800 7.61000 32.31400
C  40.98900 6.62400 34.76200
C  41.71400 10.39600 34.33100
C  41.00600 10.37800 35.67400
H  41.24400 11.46200 36.78300
N  40.14600 6.80000 29.35900
C  39.39400 6.44600 30.48500
C  38.30400 5.65900 30.01200
C  38.43200 5.51600 28.60900
C  39.73800 6.06800 28.27600
C  37.20900 5.06200 30.95600
C  37.50500 4.85100 27.54300
O  37.83700 4.76100 26.40400
C  36.16700 4.43100 27.91600
N  42.46000 7.50200 27.42400
C  41.55900 6.83000 26.60300
C  41.91000 6.89100 25.13200
C  43.04200 7.95100 25.14200
C  43.36500 8.16600 26.65400
C  42.20900 5.56900 24.31500
C  42.74700 9.23100 24.38000
C  41.78400 10.24500 25.05400
N  43.69400 8.90600 29.45700
C  44.63100 9.13800 28.45900
C  45.76800 9.84900 29.00600
C  45.45500 10.01800 30.35400
C  44.23300 9.38900 30.56700
C  46.88900 10.45000 28.23600
C  45.94700 10.59000 31.60700
O  47.03100 11.11900 31.94200
C  44.75100 10.29800 32.67100
C  45.34900 9.69700 33.85900
O  45.98100 8.63300 33.87500
O  44.99500 10.46200 34.87100
C  45.61600 10.24000 36.13800
H  38.86300 6.43800 32.55500
H  40.03800 5.43300 26.30700
H  45.04000 9.37500 26.34300
H  42.84000 8.43100 34.41400
H  40.02800 8.33500 34.16000
H  40.85800 5.69500 34.20700
H  40.05800 6.68000 35.32600
H  41.84200 6.48300 35.42600
H  41.10200 10.75300 33.50200
H  42.60500 11.00500 34.48300
H  41.07500 9.40300 36.15600
H  39.93100 10.46600 35.51800
H  36.19400 5.38200 30.72200
H  37.38600 5.47200 31.95000
H  37.35100 3.98400 31.03900
H  35.67700 4.01400 27.03600
H  35.52600 5.27300 28.17800
H  36.24300 3.83300 28.82300
H  40.99600 7.27700 24.68100
H  43.84300 7.40200 24.64800
H  43.08500 5.57500 23.66700
H  41.32400 5.45900 23.68900
H  42.34500 4.79000 25.06500
H  42.27200 8.95300 23.44000
H  43.61100 9.84500 24.12500
H  41.05300 10.57200 24.31400
H  42.38300 11.11600 25.32100
H  41.11900 9.76200 25.77000
H  47.37100 9.58800 27.77500
H  47.52100 10.86700 29.02000
H  46.43700 11.12700 27.51100
H  44.17500 11.13800 33.05700
H  44.92400 9.62200 36.70900
H  45.96900 11.19000 36.54000
H  46.53800 9.67100 36.01600
Mg 52.80000 24.09400 44.62700
C  49.87800 25.98700 43.76200
C  51.11300 21.34600 43.26400
C  55.70000 22.38200 44.93600
C  54.39300 27.07400 45.58800
N  50.74900 23.78500 43.57600
C  49.80700 24.71200 43.24600
C  48.62500 24.04800 42.59100
C  48.84500 22.52500 43.09500
C  50.33900 22.52600 43.33900
C  47.91700 22.10500 44.28800
C  48.75400 24.40600 41.09300
C  47.45800 24.47600 40.27100
H  47.45100 23.66500 38.94800
N  53.37900 22.18700 44.09100
C  52.54700 21.20700 43.54000
C  53.24400 19.91300 43.52800
C  54.53600 20.18600 44.03100
C  54.62700 21.64000 44.36300
C  52.70400 18.63200 42.98700
C  55.66500 19.16300 44.17800
O  55.45500 17.97000 44.00800
C  57.14600 19.59200 44.47500
N  55.00800 24.70900 44.85100
C  55.93200 23.76900 45.11800
C  57.13000 24.44400 45.82900
C  56.83600 25.92300 45.80900
C  55.28400 25.94600 45.43800
C  57.45900 23.85600 47.23400
C  57.64300 26.82600 44.75000
C  58.74200 27.59500 45.35400
N  52.26200 26.05000 44.85700
C  52.99100 27.13100 45.29600
C  52.11800 28.22800 45.28000
C  50.92500 27.83100 44.76400
C  51.04400 26.48300 44.44500
C  52.41200 29.60200 45.75600
C  49.61500 28.23100 44.46700
O  49.10600 29.33000 44.56400
C  48.85800 27.10300 43.73700
C  48.49400 27.61800 42.39900
O  49.11800 28.22200 41.58300
O  47.14700 27.30700 42.24800
C  46.51800 27.84200 41.03400
H  50.57800 20.45600 42.92600
H  56.49100 21.67700 45.20000
H  54.74200 28.02800 45.98900
H  47.70300 24.28700 43.12200
H  48.57200 21.86300 42.27300
H  46.92000 22.54300 44.24400
H  48.42800 22.44600 45.18700
H  47.84000 21.01800 44.32000
H  49.42900 23.72900 40.56900
H  49.18900 25.40400 41.02900
H  47.24300 25.51800 40.03500
H  46.63700 24.06700 40.86100
H  53.56600 18.24800 42.44100
H  51.85600 18.73100 42.30900
H  52.53800 17.94500 43.81700
H  57.49500 20.38500 43.81200
H  57.84300 18.77100 44.30600
H  57.25400 19.68700 45.55500
H  57.93300 24.19500 45.13600
H  56.86500 26.27800 46.84000
H  58.52700 23.65700 47.32600
H  56.97500 22.88900 47.37100
H  57.13300 24.46800 48.07500
H  56.92100 27.35500 44.12800
H  58.09700 26.20600 43.97800
H  59.04000 26.90500 46.14200
H  58.22100 28.49900 45.66900
H  59.57300 27.73800 44.66200
H  52.09500 30.27500 44.95900
H  53.48100 29.74500 45.91600
H  51.88200 29.82800 46.68200
H  48.07800 26.83500 44.45000
H  46.34900 28.90500 41.20800
H  45.52600 27.42100 40.87200
H  47.17000 27.69800 40.17300

