158

Mg 35.38300 2.67800 29.99000
C  33.07800 3.76400 32.32200
C  37.82200 2.75700 32.69400
C  37.78600 1.64400 27.98300
C  32.96400 2.77200 27.52400
N  35.47800 3.21700 32.26000
C  34.32600 3.61700 32.93200
C  34.61300 3.72200 34.47100
C  36.20600 3.91800 34.51900
C  36.60200 3.30900 33.08200
C  36.95300 5.24000 34.86300
C  33.96300 2.48400 35.27100
C  33.32700 2.91900 36.63400
H  34.09200 4.03700 37.36200
N  37.49100 2.26200 30.25400
C  38.23900 2.28600 31.45300
C  39.50200 1.68900 31.19100
C  39.58700 1.41600 29.73200
C  38.24100 1.79300 29.23800
C  40.56100 1.50900 32.27600
C  40.76700 0.94300 28.84400
O  40.71000 0.73300 27.62900
C  42.03400 0.60500 29.50600
N  35.36400 2.32100 28.05200
C  36.52000 1.83500 27.48800
C  36.24200 1.56000 25.94600
C  34.65100 1.82300 25.82100
C  34.27800 2.37000 27.19800
C  37.09500 2.46100 24.96700
C  33.77500 0.64500 25.38400
C  33.24500 0.65500 23.90400
N  33.49900 3.24400 29.86400
C  32.56300 3.14700 28.85800
C  31.23500 3.54100 29.33800
C  31.37100 3.79800 30.65600
C  32.77900 3.59400 30.97700
C  30.09700 3.69400 28.43200
C  30.70000 4.18000 31.85700
O  29.54000 4.47700 32.10900
C  31.74000 4.08400 33.02500
C  31.80300 5.39800 33.68100
O  32.25200 6.39300 33.14400
O  31.34300 5.29800 34.96300
C  31.10600 6.59400 35.54200
H  38.58200 2.86700 33.47100
H  38.36500 1.07700 27.25100
H  32.13600 2.64400 26.82400
H  34.11200 4.63700 34.78800
H  36.54400 3.21700 35.28200
H  37.96300 5.31000 34.45900
H  36.96900 5.35100 35.94700
H  36.40500 6.04800 34.37700
H  34.70400 1.69400 35.39600
H  33.19600 2.10200 34.59700
H  33.21000 2.04200 37.27000
H  32.34000 3.25800 36.32100
H  40.12500 1.55100 33.27400
H  41.35200 2.25500 32.20900
H  41.06700 0.54800 32.18800
H  41.89400 -0.25900 30.15700
H  42.18500 1.59500 29.93600
H  42.73900 0.31100 28.72800
H  36.44400 0.51300 25.71800
H  34.56600 2.58600 25.04700
H  37.40800 3.44100 25.32800
H  36.44600 2.63900 24.11000
H  37.98200 1.92100 24.63400
H  32.90900 0.51700 26.03400
H  34.37900 -0.23800 25.59400
H  33.08600 -0.36300 23.54700
H  34.01100 1.07300 23.25100
H  32.42900 1.37600 23.85600
H  29.24300 3.98400 29.04400
H  29.95300 2.67300 28.08100
H  30.26400 4.36200 27.58700
H  31.39300 3.29000 33.68600
H  30.57100 7.16700 34.78500
H  32.08700 7.01900 35.75400
H  30.54800 6.50300 36.47400
Mg -0.88700 34.95100 27.14800
C  -2.70800 33.16600 29.50400
C  0.48500 36.78500 29.78300
C  0.84800 36.65600 24.92900
C  -2.13100 32.86600 24.71600
N  -1.16100 35.00500 29.35200
C  -1.90200 34.12400 30.09000
C  -1.64100 34.38500 31.57600
C  -0.71300 35.62500 31.58500
C  -0.45500 35.78000 30.14800
C  -1.41800 36.91900 32.11200
C  -1.21800 33.14900 32.42700
C  -1.96600 32.85600 33.78000
H  -1.17600 32.78900 35.03400
N  0.47100 36.57600 27.31700
C  0.93500 37.13500 28.45000
C  1.92200 38.11700 28.08700
C  2.04100 38.09200 26.67100
C  1.06800 37.09900 26.22500
C  2.69400 38.97700 29.06100
C  2.98300 38.97600 25.81300
O  3.13200 38.77200 24.60900
C  3.94400 40.06600 26.28100
N  -0.67200 34.79700 25.05000
C  -0.02300 35.73600 24.32700
C  -0.01500 35.44000 22.84500
C  -0.87000 34.10300 22.82400
C  -1.30100 33.92100 24.27700
C  -0.68200 36.58000 21.98700
C  -0.07400 32.86000 22.33000
C  -0.82400 31.73200 21.59700
N  -2.27800 33.41300 27.04500
C  -2.69600 32.65200 25.98400
C  -3.70500 31.59700 26.48600
C  -3.74400 31.77600 27.81200
C  -2.84200 32.92000 28.13700
C  -4.35500 30.43400 25.68600
C  -4.31100 31.30800 29.06100
O  -5.18200 30.45000 29.28700
C  -3.58500 32.16600 30.16800
C  -4.74800 32.84900 30.86500
O  -5.28300 33.85300 30.49000
O  -4.96800 32.23800 32.12100
C  -5.90200 32.94000 33.04900
H  1.03400 37.26200 30.59800
H  1.38000 37.21100 24.15300
H  -2.54800 32.30000 23.88000
H  -2.58200 34.77400 31.96300
H  0.27800 35.62500 32.04000
H  -2.23400 36.71700 32.80700
H  -1.79700 37.42100 31.22200
H  -0.73800 37.61700 32.60100
H  -0.16400 33.18800 32.70100
H  -1.17400 32.25500 31.80500
H  -2.49900 31.91300 33.65600
H  -2.74300 33.61600 33.86100
H  2.40700 40.00100 28.82100
H  3.75600 38.76300 28.93500
H  2.38600 38.67600 30.06200
H  4.87200 39.55300 26.53300
H  3.45900 40.55800 27.12500
H  4.05700 40.80100 25.48400
H  1.01800 35.23300 22.56800
H  -1.73700 34.17900 22.16800
H  -0.81600 36.27800 20.94900
H  0.02500 37.40900 22.02800
H  -1.65400 36.85100 22.39900
H  0.49600 32.42600 23.15100
H  0.59100 33.28700 21.57800
H  -0.59000 30.78000 22.07200
H  -0.40400 31.76700 20.59100
H  -1.89300 31.89400 21.73500
H  -5.39000 30.74500 25.54800
H  -4.30900 29.51000 26.26300
H  -3.73700 30.32300 24.79500
H  -3.05400 31.56100 30.90300
H  -6.27500 32.08000 33.60500
H  -6.72200 33.51300 32.61500
H  -5.38200 33.53800 33.79700

