158

Mg 25.66000 0.92700 29.64500
C  27.73900 0.63900 32.42900
C  22.98800 1.25800 31.73100
C  23.78000 0.95200 26.88800
C  28.44300 -0.00400 27.71100
N  25.48600 0.90600 31.82200
C  26.45000 0.91000 32.80300
C  25.87400 1.26600 34.21600
C  24.33000 1.32600 33.92800
C  24.25800 1.15200 32.35900
C  23.44900 0.22400 34.60200
C  26.53000 2.53900 34.92000
C  27.23700 2.48000 36.23300
H  26.73600 3.39700 37.32600
N  23.66600 1.22900 29.32500
C  22.66600 1.30800 30.29700
C  21.39200 1.43800 29.71500
C  21.60100 1.38200 28.32200
C  23.06900 1.22200 28.09400
C  20.14900 1.59000 30.42000
C  20.65500 1.39200 27.13900
O  21.03200 1.22200 25.97900
C  19.18500 1.48300 27.42800
N  26.11700 0.75100 27.47200
C  25.10900 0.71800 26.55200
C  25.71500 0.58600 25.12100
C  27.22900 0.26100 25.45100
C  27.28600 0.38500 26.98500
C  25.09000 -0.41300 24.22700
C  28.28200 1.07500 24.63300
C  29.23100 0.14900 23.75900
N  27.60400 0.34900 30.02500
C  28.62900 0.03700 29.08800
C  29.85700 -0.19200 29.72400
C  29.62300 0.11700 31.09200
C  28.18800 0.38800 31.18900
C  31.10900 -0.50100 29.13100
C  30.16100 0.16300 32.47400
O  31.33900 0.00100 32.89500
C  28.96700 0.46100 33.33000
C  28.83100 -0.59900 34.39600
O  28.21500 -1.63200 34.34700
O  29.45100 -0.17100 35.53900
C  29.32800 -1.05200 36.62800
H  22.14100 1.32700 32.41700
H  23.26500 0.78800 25.93900
H  29.24700 -0.45700 27.12800
H  26.18500 0.49100 34.91600
H  24.05700 2.35100 34.18000
H  23.32500 -0.66000 33.97700
H  22.46700 0.59000 34.90300
H  23.99400 -0.03000 35.51100
H  25.75500 3.29100 35.06700
H  27.23100 2.97500 34.20900
H  28.22300 2.93300 36.12900
H  27.25800 1.42400 36.50000
H  19.72400 2.49000 29.97500
H  20.27200 1.73800 31.49300
H  19.50100 0.71400 30.41300
H  18.99600 0.54800 27.95600
H  18.64600 1.64800 26.49500
H  18.99600 2.35500 28.05500
H  25.62200 1.58400 24.69200
H  27.36000 -0.81400 25.32700
H  24.42100 -1.13200 24.70100
H  25.77400 -0.98300 23.59800
H  24.33000 0.05500 23.60200
H  28.87400 1.74100 25.26100
H  27.79100 1.72400 23.90800
H  30.28000 0.20900 24.05000
H  29.13300 0.40100 22.70300
H  28.85100 -0.86900 23.85100
H  31.43400 0.23900 28.40000
H  31.01400 -1.48500 28.67200
H  31.82100 -0.54500 29.95500
H  29.14100 1.39000 33.87400
H  30.25300 -1.16600 37.19200
H  29.05400 -2.08400 36.40700
H  28.61300 -0.58600 37.30600
Mg -9.63200 40.99900 39.58600
C  -9.02100 37.61500 38.54100
C  -6.29400 41.65800 39.07600
C  -10.57500 44.07500 39.49200
C  -13.22200 39.97600 39.36500
N  -7.86000 39.76400 38.90800
C  -7.88100 38.46000 38.50800
C  -6.51900 38.14700 37.91200
C  -5.53700 39.18500 38.64400
C  -6.61100 40.26800 38.90200
C  -4.83400 38.78600 39.96200
C  -6.42300 38.31100 36.31400
C  -5.95800 37.08200 35.54500
H  -6.89500 36.53400 34.47100
N  -8.54500 42.67200 39.42200
C  -7.19200 42.72200 39.24600
C  -6.93700 44.15400 39.09900
C  -8.06700 44.87000 39.24500
C  -9.17000 43.89000 39.37600
C  -5.54400 44.60000 38.91600
C  -8.10000 46.41200 39.27700
O  -7.08500 47.12900 39.17800
C  -9.36500 47.24200 39.52700
N  -11.66200 41.84100 39.61300
C  -11.67900 43.22600 39.66500
C  -13.12300 43.77000 39.75500
C  -13.88600 42.45000 39.45200
C  -12.87200 41.30600 39.52100
C  -13.48200 44.41600 41.09600
C  -14.65300 42.51200 38.07100
C  -16.07700 42.02100 38.10200
N  -10.93000 39.14500 39.33000
C  -12.22900 38.96100 39.23200
C  -12.49100 37.53300 39.05900
C  -11.24300 36.95700 38.70800
C  -10.31000 38.00900 38.90400
C  -13.88600 36.93600 39.38000
C  -10.52200 35.74700 38.33200
O  -10.89300 34.59700 38.20800
C  -9.06400 36.16100 38.22500
C  -8.24300 35.26800 39.15100
O  -8.41100 35.12100 40.35700
O  -7.35300 34.50700 38.43700
C  -6.65700 33.53000 39.22600
H  -5.23700 41.92900 39.02500
H  -10.84500 45.13300 39.51700
H  -14.27100 39.76600 39.14700
H  -6.21000 37.14700 38.21800
H  -4.82500 39.68800 37.99000
H  -5.44600 39.30100 40.70300
H  -3.78700 39.04000 40.12900
H  -5.01600 37.73100 40.16800
H  -5.75600 39.15300 36.12900
H  -7.42800 38.55000 35.96500
H  -5.75100 36.21200 36.16800
H  -5.03900 37.34300 35.02000
H  -5.26400 45.65100 38.99900
H  -5.20300 44.51100 37.88400
H  -4.85100 44.02500 39.52900
H  -9.17200 48.30500 39.67200
H  -9.87300 46.78200 40.37500
H  -9.95000 47.23200 38.60700
H  -13.18500 44.47800 38.92900
H  -14.60400 42.34700 40.26600
H  -12.58000 44.77900 41.58800
H  -13.96800 43.69300 41.75200
H  -14.19000 45.22800 40.92900
H  -14.14500 41.94200 37.29300
H  -14.69100 43.58100 37.86000
H  -16.37500 41.32000 38.88100
H  -16.26000 41.64800 37.09400
H  -16.64700 42.92000 38.33700
H  -13.85000 36.04000 40.00000
H  -14.48500 36.64300 38.51800
H  -14.50700 37.67600 39.88500
H  -8.80700 35.97500 37.18300
H  -6.12300 34.06100 40.01400
H  -5.85100 33.03200 38.68700
H  -7.31100 32.80800 39.71600

