158

Mg 35.95300 50.09000 26.23400
C  35.57400 48.07100 29.13100
C  35.04300 52.81500 28.18200
C  36.40600 51.98400 23.59100
C  36.71400 47.13400 24.46500
N  35.46700 50.38800 28.30900
C  35.42300 49.44800 29.30200
C  35.42600 50.14900 30.69400
C  34.69400 51.51900 30.35300
C  35.08100 51.59300 28.84900
C  33.19000 51.56500 30.59000
C  36.79400 50.28600 31.34800
C  36.76100 50.09400 32.86400
H  35.48700 50.15900 33.66600
N  35.77500 52.10900 25.90500
C  35.40700 53.07300 26.83700
C  35.42600 54.33300 26.28800
C  35.94200 54.21800 24.91200
C  36.10400 52.74900 24.71200
C  34.95100 55.48700 27.05200
C  36.28200 55.28400 23.83700
O  36.63400 54.93800 22.73200
C  36.05400 56.73300 24.18000
N  36.27900 49.58900 24.29900
C  36.53900 50.57600 23.39100
C  36.84600 49.97900 22.03200
C  37.34000 48.56500 22.43500
C  36.64500 48.33500 23.77600
C  35.57200 50.07600 21.13000
C  38.85300 48.35100 22.52600
C  39.44500 47.26600 21.67700
N  36.13400 47.97300 26.68700
C  36.41800 46.91300 25.87000
C  36.42400 45.71800 26.64100
C  36.18300 46.10700 27.89400
C  35.94500 47.46600 27.90100
C  36.72400 44.34500 26.17400
C  36.01700 45.68000 29.26500
O  36.10500 44.57400 29.72400
C  35.63400 46.95200 30.16000
C  34.37100 46.75900 30.92700
O  33.22200 47.03500 30.57800
O  34.60000 46.13300 32.16100
C  33.41200 45.76700 32.87600
H  34.58200 53.53300 28.86300
H  36.77100 52.63400 22.79400
H  36.96700 46.22800 23.90900
H  34.77700 49.49700 31.27900
H  35.06500 52.32300 30.98800
H  32.88100 50.66000 31.11200
H  32.73200 51.64000 29.60400
H  32.82000 52.36900 31.22600
H  37.34500 51.17900 31.05500
H  37.42500 49.51500 30.90500
H  37.46200 50.72500 33.40900
H  37.14700 49.07700 32.92500
H  35.74800 55.90800 27.66400
H  34.10400 55.22500 27.68700
H  34.59400 56.27400 26.38800
H  36.47000 57.29000 23.34100
H  36.69800 57.00500 25.01700
H  35.01000 57.03700 24.25900
H  37.74000 50.44500 21.61600
H  36.94500 47.87100 21.69200
H  35.23900 51.10100 20.96700
H  34.64500 49.56300 21.38700
H  35.87700 49.72700 20.14400
H  39.13200 48.32400 23.57900
H  39.34700 49.23800 22.13100
H  40.02700 46.71400 22.41500
H  39.96600 47.62200 20.78800
H  38.67600 46.56500 21.35200
H  37.13200 44.43500 25.16700
H  35.85400 43.69400 26.08700
H  37.46800 44.02600 26.90400
H  36.48600 47.17200 30.80300
H  33.62500 45.12300 33.72900
H  32.59000 45.35600 32.28800
H  32.99800 46.62700 33.40200
Mg -5.27000 24.59100 26.55900
C  -3.64600 26.29900 29.22500
C  -6.39900 22.33300 28.84000
C  -6.58000 23.34900 23.97500
C  -3.32200 27.03200 24.40700
N  -5.10900 24.27100 28.74700
C  -4.49500 25.22800 29.61400
C  -4.82100 24.91700 31.07600
C  -5.37300 23.46000 30.93300
C  -5.69400 23.33300 29.43800
C  -4.41400 22.25600 31.36000
C  -5.76000 25.89600 31.72800
C  -5.48600 26.25000 33.19600
H  -5.53300 25.00600 34.03400
N  -6.41500 23.00500 26.43800
C  -6.81200 22.17600 27.43700
C  -7.55500 21.11100 26.76500
C  -7.62300 21.44600 25.41100
C  -6.87000 22.70100 25.21300
C  -7.94500 19.84900 27.54500
C  -8.29400 20.69900 24.25600
O  -8.34400 21.03100 23.02300
C  -9.18600 19.54900 24.64100
N  -4.87100 25.07400 24.51900
C  -5.64800 24.32600 23.65100
C  -5.45300 24.81000 22.22700
C  -4.51500 26.06500 22.37400
C  -4.22100 26.07200 23.87100
C  -4.94100 23.75200 21.21800
C  -5.14900 27.34100 21.77600
C  -4.30400 28.17500 20.83900
N  -3.66500 26.17600 26.76600
C  -3.08300 27.05400 25.80600
C  -2.26100 28.10100 26.42600
C  -2.51100 27.81700 27.79300
C  -3.27800 26.67200 27.92400
C  -1.58000 29.20600 25.78300
C  -2.20200 28.31600 29.05100
O  -1.51600 29.32100 29.33600
C  -2.83500 27.27600 30.05300
C  -1.74200 26.63300 30.72700
O  -0.96700 25.87900 30.21500
O  -1.80000 26.93900 32.03600
C  -0.80600 26.34800 33.03300
H  -6.86100 21.56800 29.46900
H  -7.06700 22.92900 23.09300
H  -2.90300 27.78000 23.73000
H  -3.85800 24.93900 31.58600
H  -6.25800 23.30400 31.55000
H  -4.50800 22.16400 32.44200
H  -3.36500 22.47200 31.15700
H  -4.66900 21.39600 30.74000
H  -6.77000 25.48900 31.74500
H  -5.86900 26.68500 30.98500
H  -6.22100 26.93700 33.61600
H  -4.48800 26.68300 33.25100
H  -9.02000 19.88200 27.72400
H  -7.42700 19.88500 28.50300
H  -7.57300 18.94800 27.05800
H  -8.53100 18.74300 24.97100
H  -9.71100 19.20800 23.74800
H  -9.83800 19.76700 25.48600
H  -6.41000 25.10400 21.79700
H  -3.57000 25.85700 21.87100
H  -3.94400 24.01800 20.86700
H  -5.70000 23.51400 20.47300
H  -4.81500 22.79300 21.72000
H  -5.37500 28.04200 22.58000
H  -6.12800 27.08600 21.36900
H  -3.28700 27.79800 20.95600
H  -4.34100 29.22000 21.14700
H  -4.69500 28.04500 19.83000
H  -2.10800 29.39600 24.84900
H  -0.55400 28.89500 25.58100
H  -1.48000 30.16700 26.28700
H  -3.50600 27.81600 30.72100
H  -0.13500 27.06200 33.51100
H  -0.24500 25.53000 32.58200
H  -1.43200 25.98900 33.85000

