158

Mg 42.42500 40.91100 26.36500
C  41.68000 43.06100 29.03200
C  43.62700 38.60000 28.58100
C  43.15000 38.90900 23.76800
C  41.61300 43.44000 24.13300
N  42.77000 40.97800 28.53100
C  42.31600 41.88400 29.42200
C  42.47500 41.42400 30.96400
C  43.17300 40.07600 30.73900
C  43.15300 39.84700 29.12800
C  44.57100 39.88700 31.43300
C  41.14200 41.33200 31.73800
C  41.16700 41.94100 33.13900
H  40.54200 41.12100 34.21100
N  43.21300 38.95100 26.21900
C  43.68000 38.17800 27.20100
C  44.06800 36.91100 26.73100
C  43.81200 36.87800 25.32300
C  43.44200 38.25700 25.03500
C  44.56700 35.84300 27.66800
C  44.08600 35.84300 24.29300
O  43.88100 35.95600 23.09300
C  44.58900 34.61500 24.85700
N  42.41100 41.08000 24.26900
C  42.74500 40.18900 23.40400
C  42.62800 40.64400 21.94700
C  42.00700 42.06700 21.97800
C  41.98600 42.21500 23.56100
C  43.95400 40.70300 21.20300
C  40.64300 42.18800 21.30700
C  40.48600 43.43500 20.45200
N  41.86400 42.91000 26.47900
C  41.49700 43.82700 25.50500
C  41.05900 45.02300 26.07500
C  40.94000 44.66700 27.46100
C  41.59200 43.44600 27.66000
C  40.73500 46.30300 25.37000
C  40.47300 45.17700 28.75600
O  39.91200 46.23600 29.00100
C  41.15700 44.20400 29.81300
C  42.23400 44.97200 30.50100
O  43.35900 45.07000 30.15000
O  41.74800 45.12400 31.75900
C  42.77100 45.62300 32.72800
H  43.74100 37.83400 29.35200
H  43.30100 38.25800 22.90400
H  41.33700 44.21500 23.41400
H  43.05600 42.22900 31.41400
H  42.54200 39.27100 31.11700
H  45.37300 40.27700 30.80700
H  44.67400 38.84900 31.74800
H  44.44500 40.43500 32.36700
H  40.90600 40.27200 31.83000
H  40.40600 41.83400 31.10900
H  40.76300 42.95100 33.06200
H  42.20000 42.09900 33.44900
H  44.01700 34.91700 27.50000
H  44.58200 36.10600 28.72600
H  45.60600 35.63000 27.41800
H  43.82400 34.32800 25.57900
H  45.58300 34.85500 25.23500
H  44.78800 33.94100 24.02400
H  41.95500 39.98900 21.39400
H  42.71500 42.73400 21.48700
H  44.77500 40.59700 21.91100
H  44.08100 41.63800 20.65700
H  43.90400 39.86500 20.50700
H  39.88800 42.30500 22.08500
H  40.56100 41.26600 20.73100
H  39.41400 43.61900 20.38800
H  40.82200 43.29800 19.42400
H  41.01100 44.28900 20.88000
H  41.26200 46.26000 24.41700
H  40.97700 47.19000 25.95500
H  39.68200 46.10700 25.16500
H  40.35300 43.86100 30.46400
H  42.74400 46.70000 32.56200
H  43.75600 45.23800 32.46300
H  42.53900 45.50400 33.78600
Mg 6.22700 53.65500 41.05200
C  5.48600 50.13600 40.83300
C  9.31200 52.86100 39.77100
C  6.67000 56.91300 40.60700
C  2.84200 54.26600 41.71100
N  7.22000 51.67600 40.18100
C  6.78600 50.39900 40.25900
C  7.94800 49.50500 39.90400
C  9.25400 50.37700 39.90800
C  8.56500 51.72700 39.77800
C  10.21600 50.20700 41.14200
C  7.69500 48.75900 38.47200
C  6.68000 49.25400 37.46600
H  7.08300 49.76900 36.07800
N  7.86000 54.75900 40.46900
C  9.05800 54.20500 40.07300
C  9.90000 55.35600 39.88900
C  9.20100 56.61000 40.14300
C  7.84200 56.18700 40.38300
C  11.40600 55.13400 39.56600
C  9.89600 57.95400 40.25100
O  11.13100 58.09900 40.09900
C  9.11900 59.16900 40.55500
N  4.95700 55.37600 41.06700
C  5.40000 56.57100 41.03600
C  4.39300 57.70500 41.37800
C  3.14300 56.78600 41.60500
C  3.69300 55.35100 41.52600
C  4.96700 58.69100 42.51200
C  1.85400 57.18300 40.77000
C  1.67000 56.50400 39.37200
N  4.51900 52.48900 41.32400
C  3.22200 52.88900 41.59300
C  2.44800 51.67700 41.91400
C  3.33800 50.60400 41.66000
C  4.52400 51.13300 41.20000
C  0.97800 51.58200 42.41300
C  3.44300 49.13000 41.76800
O  2.66300 48.32500 42.24100
C  4.82400 48.74600 41.14700
C  4.59300 47.97000 39.92200
O  3.93700 48.28700 38.95100
O  5.28100 46.83400 40.09100
C  5.06900 45.72200 39.17600
H  10.29000 52.71500 39.30600
H  6.75300 57.97200 40.35400
H  1.79800 54.43900 41.98300
H  8.10200 48.68400 40.60400
H  9.78600 50.27300 38.96200
H  10.26300 50.97300 41.91600
H  11.22800 50.07200 40.76200
H  9.99000 49.31600 41.72800
H  7.41100 47.73100 38.69700
H  8.65300 48.77900 37.95200
H  6.14000 50.03800 37.99700
H  6.02400 48.41300 37.24100
H  11.76400 55.48300 38.59800
H  11.75400 54.11900 39.76100
H  12.00200 55.71900 40.26600
H  9.84300 59.98300 40.60400
H  8.57300 59.12700 41.49700
H  8.52600 59.35200 39.65900
H  4.19700 58.35700 40.52700
H  2.89700 56.80000 42.66600
H  4.21500 58.80300 43.29300
H  5.12400 59.66900 42.05500
H  5.87700 58.30200 42.96800
H  1.73800 58.25800 40.63200
H  1.10200 57.01100 41.54000
H  2.55700 55.97600 39.02100
H  1.37900 57.17900 38.56700
H  0.80500 55.84600 39.44200
H  0.79200 52.40600 43.10100
H  0.74900 50.61400 42.86000
H  0.37500 51.81100 41.53500
H  5.34200 48.12200 41.87600
H  5.58100 46.02100 38.26100
H  4.00200 45.54000 39.04400
H  5.66700 44.89500 39.55700

