158

Mg 26.04700 50.04300 26.71000
C  24.20700 51.35800 29.32300
C  28.41100 48.98600 29.07800
C  28.21900 49.20200 24.24500
C  23.73200 51.08500 24.38500
N  26.36800 50.22800 28.89600
C  25.39300 50.70400 29.73000
C  25.69100 50.30900 31.28300
C  27.07200 49.71900 31.15400
C  27.36000 49.64600 29.62300
C  28.30600 50.32800 31.90300
C  24.63200 49.46600 31.92900
C  23.97400 50.13000 33.16000
H  23.66700 49.19300 34.32900
N  28.04000 49.13900 26.65800
C  28.79600 48.72200 27.74200
C  30.01800 48.08800 27.25600
C  30.00700 48.24300 25.79900
C  28.67900 48.90100 25.52900
C  31.11200 47.52000 28.10400
C  31.10700 47.87100 24.74100
O  30.98000 48.11500 23.56500
C  32.33200 47.13500 25.22700
N  26.05300 50.24000 24.58400
C  27.04900 49.79400 23.82000
C  26.67400 49.69500 22.32200
C  25.20500 50.20400 22.42500
C  24.89500 50.47400 23.87700
C  27.71000 50.32400 21.31700
C  24.22500 49.26400 21.62900
C  23.83400 47.90700 22.34100
N  24.25500 51.01300 26.78200
C  23.47400 51.40300 25.76100
C  22.37500 52.05300 26.30500
C  22.57300 52.11800 27.72800
C  23.76300 51.41400 28.01900
C  21.24100 52.68300 25.57800
C  22.08900 52.55400 28.97500
O  21.02300 53.13400 29.21000
C  23.15200 52.06800 30.14200
C  23.66800 53.21100 30.92400
O  24.70000 53.80700 30.71600
O  23.02800 53.18800 32.14400
C  23.59500 54.09400 33.11000
H  29.17600 48.60600 29.75900
H  28.80900 48.84700 23.39700
H  22.96200 51.38900 23.67400
H  25.82100 51.19800 31.89900
H  27.02900 48.65900 31.40600
H  29.07100 50.66600 31.20300
H  28.80200 49.64200 32.58900
H  28.09200 51.22500 32.48400
H  24.99000 48.47000 32.19100
H  23.93600 49.26200 31.11600
H  22.97100 50.41400 32.84100
H  24.48500 51.04500 33.46000
H  32.00900 48.12500 27.97200
H  31.24700 46.44300 28.00400
H  30.95800 47.66300 29.17300
H  33.02200 47.77600 25.77500
H  32.76400 46.84500 24.26900
H  31.99200 46.29500 25.83400
H  26.65200 48.60600 22.28600
H  25.29000 51.18300 21.95400
H  28.55400 50.80300 21.81400
H  27.06700 50.98300 20.73300
H  28.05600 49.52700 20.65800
H  24.70500 48.86100 20.73700
H  23.29000 49.80100 21.46900
H  24.18200 47.08000 21.72300
H  22.75600 47.74700 22.37700
H  24.11900 47.76000 23.38300
H  21.17400 52.38400 24.53200
H  21.49200 53.73800 25.69000
H  20.31400 52.56900 26.14000
H  22.51200 51.38000 30.69500
H  24.05700 54.98800 32.69000
H  24.25100 53.50300 33.75000
H  22.74300 54.37800 33.72800
Mg 6.80600 54.55000 41.68000
C  5.76800 51.29200 41.23200
C  9.89900 53.67700 40.41400
C  7.53900 57.76200 41.48400
C  3.39200 55.45200 42.56600
N  7.63400 52.73900 40.82100
C  7.07000 51.44000 40.83200
C  8.06600 50.39300 40.17500
C  9.42200 51.17400 40.32900
C  8.95000 52.66100 40.52600
C  10.33100 50.59500 41.43800
C  7.71900 50.03600 38.62300
C  7.07600 51.08900 37.78600
H  6.67600 50.65400 36.35600
N  8.50300 55.57500 41.12300
C  9.66600 55.05300 40.50900
C  10.54600 56.11600 40.19100
C  9.94200 57.31500 40.57200
C  8.59100 56.93600 41.13100
C  11.93700 55.86600 39.57100
C  10.68600 58.72300 40.52600
O  11.86100 58.83000 40.09700
C  10.07900 59.92200 41.17500
N  5.61800 56.35000 42.09100
C  6.27200 57.56200 41.99300
C  5.26200 58.72700 42.13800
C  3.85400 57.98700 42.51000
C  4.24500 56.50100 42.39900
C  5.78600 59.78600 43.14200
C  2.62200 58.32800 41.53700
C  1.34700 58.77000 42.28200
N  4.99500 53.61500 42.03900
C  3.73100 54.07900 42.43900
C  2.87800 52.91400 42.61200
C  3.65400 51.80500 42.18200
C  4.90300 52.29900 41.71400
C  1.43000 52.80200 43.06400
C  3.63600 50.41500 42.08800
O  2.78800 49.62000 42.52500
C  4.98000 49.96700 41.39400
C  4.49500 49.39600 40.11000
O  3.76400 49.84400 39.25200
O  5.02300 48.12300 40.02300
C  4.43100 47.32900 38.92000
H  10.90800 53.35700 40.14800
H  7.86200 58.79200 41.32000
H  2.38100 55.70500 42.89400
H  7.97500 49.51200 40.81000
H  10.08800 51.16700 39.46700
H  11.27600 50.27000 41.00300
H  9.75800 49.75100 41.82300
H  10.41600 51.35200 42.21700
H  7.03600 49.19000 38.69900
H  8.56300 49.61200 38.07900
H  7.78900 51.91200 37.72200
H  6.15400 51.44100 38.25000
H  12.12300 56.72100 38.92100
H  12.04100 54.96700 38.96200
H  12.69600 55.78200 40.34800
H  9.16000 60.13100 40.62900
H  10.84500 60.69600 41.12700
H  9.91400 59.66900 42.22300
H  5.24900 59.21200 41.16200
H  3.51000 58.17200 43.52800
H  6.79500 59.64900 43.53000
H  5.00800 59.85300 43.90200
H  5.84600 60.73200 42.60400
H  2.34700 57.44400 40.96100
H  2.97100 59.15300 40.91700
H  0.53500 58.06800 42.09500
H  0.99000 59.72700 41.90200
H  1.48900 58.83100 43.36100
H  1.06400 53.82700 43.12200
H  1.37600 52.31100 44.03600
H  0.94700 52.18100 42.30900
H  5.54300 49.27000 42.01400
H  4.72800 46.30800 39.16000
H  5.22100 47.55100 38.20300
H  3.41500 47.62000 38.65300

