158

Mg 41.47800 41.04000 27.51500
C  41.18400 43.44700 30.14500
C  42.50400 38.79700 29.84900
C  41.93900 38.88700 25.03400
C  40.95800 43.49800 25.32700
N  41.79200 41.12600 29.80900
C  41.53700 42.19100 30.64300
C  41.59900 41.74000 32.05000
C  42.25000 40.31800 31.95000
C  42.23500 40.07000 30.43900
C  43.69700 40.10100 32.48400
C  40.14200 41.68100 32.70400
C  40.13000 42.37400 34.08700
H  39.44700 41.72200 35.39500
N  42.18100 39.12600 27.43700
C  42.50900 38.32000 28.54300
C  42.70400 36.99900 28.15200
C  42.51900 36.95000 26.70300
C  42.17500 38.34300 26.32300
C  43.14800 35.87000 29.07300
C  42.56300 35.83000 25.75300
O  42.04300 35.89500 24.60400
C  43.27100 34.62900 26.15000
N  41.64100 41.28100 25.51700
C  41.71800 40.17400 24.62700
C  41.54400 40.55400 23.15200
C  41.23800 42.03000 23.31300
C  41.20400 42.29300 24.78800
C  42.81800 40.12600 22.34600
C  40.00400 42.54900 22.52300
C  38.64900 41.94100 22.80900
N  41.11900 43.05800 27.66500
C  40.96200 43.97700 26.64800
C  40.75800 45.29800 27.11800
C  40.74000 45.08300 28.49400
C  41.05400 43.76900 28.78400
C  40.33500 46.51700 26.39400
C  40.41400 45.73100 29.77400
O  40.11200 46.88800 30.01500
C  40.78600 44.62700 30.94800
C  41.93800 45.14300 31.74900
O  43.09300 44.95200 31.44200
O  41.54600 45.80100 32.84000
C  42.48000 46.41200 33.68700
H  42.73700 38.00000 30.55900
H  41.76400 38.13200 24.26400
H  40.77300 44.25800 24.56500
H  42.31200 42.41800 32.52000
H  41.62600 39.52400 32.36100
H  43.96500 40.97100 33.08400
H  44.40900 39.94500 31.67300
H  43.71300 39.18100 33.06700
H  39.73200 40.68600 32.87500
H  39.34800 42.14100 32.11500
H  39.61400 43.31700 33.90700
H  41.09500 42.81900 34.33200
H  42.66300 34.94300 28.76500
H  42.95400 35.96000 30.14200
H  44.22700 35.76300 28.96400
H  43.31300 33.95700 25.29300
H  42.69000 34.08400 26.89400
H  44.25400 34.95200 26.49200
H  40.61100 40.07300 22.85700
H  42.07000 42.65600 22.99100
H  43.71300 39.93500 22.93800
H  43.00900 40.93200 21.63800
H  42.59400 39.24200 21.74900
H  40.24300 42.38200 21.47300
H  40.02300 43.63500 22.61300
H  38.57600 41.32800 23.70800
H  38.41700 41.30100 21.95800
H  37.88200 42.70800 22.91300
H  41.19600 47.15100 26.18100
H  39.57500 47.01300 26.99700
H  39.85300 46.33700 25.43300
H  39.97000 44.49400 31.65700
H  43.34000 46.83000 33.16300
H  42.88300 45.84300 34.52500
H  41.88800 47.18000 34.18600
Mg -5.45400 25.77900 26.42600
C  -4.11600 27.44200 29.12100
C  -7.14600 23.61200 28.59400
C  -6.56900 23.97900 23.76400
C  -3.55600 27.85300 24.19100
N  -5.55100 25.56400 28.61900
C  -5.00600 26.38700 29.51200
C  -5.46000 26.00100 30.97100
C  -6.17400 24.57400 30.68700
C  -6.38700 24.65700 29.17500
C  -5.20900 23.39000 31.07200
C  -6.40700 27.10500 31.52700
C  -6.45000 27.29800 33.04300
H  -5.88800 26.16600 33.92900
N  -6.73000 24.00300 26.17700
C  -7.31300 23.29900 27.17900
C  -8.16600 22.28200 26.63200
C  -8.08900 22.41500 25.22000
C  -7.06100 23.46600 24.97200
C  -9.07300 21.40400 27.48900
C  -8.85200 21.79400 24.16500
O  -8.62600 22.10900 23.03800
C  -9.91300 20.71100 24.49500
N  -4.82900 25.72800 24.31200
C  -5.55500 24.93200 23.41000
C  -5.13800 25.27500 21.91100
C  -4.19100 26.54700 22.04900
C  -4.16900 26.75000 23.59300
C  -4.57900 24.14000 21.01800
C  -4.71100 27.83100 21.19600
C  -5.48100 27.56800 19.91700
N  -4.14000 27.34700 26.58100
C  -3.50800 28.14500 25.54600
C  -2.77400 29.21400 26.19900
C  -2.96300 28.94700 27.62700
C  -3.75300 27.78800 27.77200
C  -1.94300 30.27700 25.65700
C  -2.64100 29.43900 28.94700
O  -1.95200 30.42600 29.32800
C  -3.44100 28.54300 29.97500
C  -2.51300 28.01200 30.97900
O  -1.73500 27.13800 30.72800
O  -2.78200 28.52000 32.23600
C  -2.05500 28.03400 33.38100
H  -7.67900 22.97200 29.30100
H  -6.88900 23.50600 22.83300
H  -3.06800 28.42700 23.40000
H  -4.60700 25.91700 31.64500
H  -7.08800 24.47900 31.27400
H  -5.18100 22.79200 30.16100
H  -5.62500 22.75700 31.85600
H  -4.20400 23.74500 31.29800
H  -7.41300 27.08100 31.10900
H  -6.14100 28.04500 31.04400
H  -7.52800 27.24700 33.19100
H  -6.17700 28.30600 33.35400
H  -8.97500 21.65100 28.54600
H  -9.02400 20.35400 27.20100
H  -10.09900 21.64800 27.21200
H  -9.40700 19.96800 25.11000
H  -10.17100 20.17300 23.58200
H  -10.77900 21.24600 24.88600
H  -6.10600 25.47900 21.45300
H  -3.20100 26.27400 21.68600
H  -3.55600 24.34800 20.70400
H  -5.33100 23.88300 20.27200
H  -4.43600 23.20100 21.55200
H  -3.80200 28.38100 20.95200
H  -5.23800 28.55800 21.81300
H  -6.49900 27.88500 20.14300
H  -5.48700 26.58100 19.45500
H  -5.00700 28.29000 19.25100
H  -1.22000 29.86100 24.95500
H  -1.25200 30.82800 26.29400
H  -2.55200 30.89200 24.99400
H  -4.29700 29.07500 30.38900
H  -2.55200 27.21700 33.90300
H  -1.96200 28.89700 34.03900
H  -1.01800 27.73100 33.23600

