158

Mg -2.86700 17.72900 27.03600
C  -3.25600 15.40500 29.60800
C  -3.24400 20.24500 29.36300
C  -3.00700 19.97600 24.51000
C  -3.09100 15.16700 24.82400
N  -3.52500 17.80900 29.26400
C  -3.38500 16.74800 30.07500
C  -3.27800 17.19700 31.50300
C  -3.59500 18.74700 31.42300
C  -3.48400 18.94500 29.91700
C  -4.93100 19.21700 32.10400
C  -1.95600 16.73500 32.21300
C  -1.40100 17.62200 33.42300
H  -1.15100 16.79900 34.70700
N  -2.98000 19.85600 26.98600
C  -2.99200 20.67100 28.07300
C  -2.72900 21.99100 27.67100
C  -2.54100 22.03700 26.26000
C  -2.83400 20.58600 25.81400
C  -2.78100 23.20200 28.60500
C  -2.05200 23.17000 25.31800
O  -1.90800 22.94400 24.12700
C  -1.52300 24.38500 25.95500
N  -3.20500 17.62200 25.01100
C  -3.30800 18.67700 24.11800
C  -3.49700 18.27700 22.69300
C  -3.56700 16.71700 22.81200
C  -3.24800 16.47300 24.28200
C  -4.74900 18.86400 21.86800
C  -2.56100 16.00000 21.92800
C  -1.07700 16.00200 22.37400
N  -3.02900 15.69900 27.16100
C  -3.04700 14.78800 26.17200
C  -3.08800 13.46500 26.72400
C  -3.19400 13.67600 28.00000
C  -3.12600 15.03600 28.26900
C  -3.09000 12.24300 25.97400
C  -3.21800 12.99500 29.20100
O  -3.25400 11.80500 29.42000
C  -3.30400 14.05700 30.30800
C  -2.17900 13.65900 31.19300
O  -1.04300 13.67900 30.87200
O  -2.66100 13.23700 32.40900
C  -1.78900 12.78400 33.47400
H  -3.04600 21.04800 30.07600
H  -2.82900 20.58300 23.62000
H  -3.30400 14.32400 24.16300
H  -4.03000 16.68900 32.10700
H  -2.68900 19.23100 31.78900
H  -5.31800 18.27500 32.49200
H  -5.55000 19.68600 31.33900
H  -4.83100 19.96600 32.89000
H  -1.12600 16.68200 31.50800
H  -2.11300 15.72800 32.59900
H  -2.16600 18.34900 33.69800
H  -0.49100 18.11900 33.08500
H  -3.11600 24.04900 28.00700
H  -1.77000 23.50700 28.87700
H  -3.55000 23.15500 29.37600
H  -0.77500 24.21500 26.73000
H  -2.33000 25.07000 26.21400
H  -1.05800 24.97800 25.16700
H  -2.55400 18.48600 22.18800
H  -4.56000 16.30600 22.62600
H  -5.31600 19.51500 22.53200
H  -5.37300 18.04100 21.51800
H  -4.44400 19.51100 21.04600
H  -2.68700 16.50100 20.96800
H  -2.95300 15.00100 21.73700
H  -0.97500 16.75800 23.15200
H  -0.45900 16.30300 21.52900
H  -0.78700 15.04800 22.81600
H  -2.93800 11.35000 26.58100
H  -2.35300 12.22000 25.17100
H  -4.07600 12.19100 25.51200
H  -4.28500 13.88200 30.74900
H  -1.83200 13.52900 34.26900
H  -0.73400 12.65500 33.23000
H  -2.13200 11.87800 33.97200
Mg 54.01500 24.21000 45.33600
C  51.36200 26.34300 44.58400
C  51.99600 21.54500 44.38000
C  56.65300 22.06700 45.51300
C  56.03300 26.88800 45.93000
N  51.91100 24.01200 44.52400
C  50.96600 25.00100 44.39900
C  49.68400 24.42100 43.69600
C  49.83600 22.85900 44.12200
C  51.33700 22.79000 44.42400
C  48.81100 22.26000 45.18900
C  49.60900 24.71500 42.15500
C  48.22800 25.14000 41.63700
H  47.94400 24.95400 40.17600
N  54.26600 22.11300 44.96800
C  53.33900 21.19300 44.66500
C  53.87000 19.90100 44.70400
C  55.27100 19.99800 44.83100
C  55.44700 21.48900 45.07700
C  53.15900 18.54100 44.56300
C  56.31000 18.87800 44.79500
O  55.97900 17.72500 44.62600
C  57.80900 19.06700 44.91400
N  56.06100 24.47800 45.55100
C  56.97700 23.43900 45.68000
C  58.38400 23.97400 46.03200
C  58.16800 25.48200 45.85700
C  56.63900 25.66000 45.80100
C  58.99700 23.44100 47.37800
C  58.90700 26.07000 44.72300
C  60.36200 26.42300 44.96600
N  53.80500 26.24700 45.31700
C  54.73300 27.22700 45.69600
C  54.04300 28.56300 45.65800
C  52.71300 28.25900 45.22100
C  52.68200 26.84500 45.00600
C  54.65500 29.87100 46.08600
C  51.48100 28.82300 44.92100
O  51.16000 30.02900 44.85100
C  50.59900 27.64200 44.34800
C  50.39000 27.94900 42.91700
O  51.27800 27.82700 42.06600
O  49.20300 28.47100 42.76000
C  48.86500 29.07000 41.50400
H  51.40900 20.68100 44.06300
H  57.53000 21.41700 45.55500
H  56.66100 27.73200 46.22300
H  48.80700 24.77700 44.23600
H  49.66000 22.18400 43.28400
H  49.33800 22.07000 46.12500
H  48.40400 21.38700 44.68000
H  48.00900 22.98700 45.31100
H  49.86600 23.77900 41.65900
H  50.40700 25.43400 41.97200
H  48.13200 26.18800 41.92100
H  47.37200 24.75700 42.19300
H  53.24500 18.21500 43.52700
H  52.08500 18.54400 44.75100
H  53.52800 17.71300 45.16900
H  58.27300 18.19900 44.44500
H  58.17000 19.25400 45.92500
H  58.13400 19.91700 44.31400
H  59.08200 23.66700 45.25300
H  58.63700 25.89700 46.74900
H  59.71100 24.09600 47.87800
H  59.50900 22.53500 47.05400
H  58.24700 23.15500 48.11500
H  58.42400 26.99900 44.42200
H  58.86200 25.37400 43.88500
H  60.62900 26.37100 46.02200
H  60.54700 27.44600 44.64100
H  60.96900 25.64800 44.49800
H  55.31600 29.75600 46.94500
H  53.84000 30.52200 46.40400
H  55.31200 30.28800 45.32300
H  49.62400 27.60600 44.83600
H  47.85800 29.48000 41.42600
H  48.91800 28.38000 40.66200
H  49.64000 29.81800 41.33900

