158

Mg 36.73400 2.45700 30.19800
C  33.90300 3.22300 32.37100
C  38.66100 2.48000 32.87800
C  39.15200 1.54400 28.13500
C  34.48500 2.70600 27.38700
N  36.30500 2.87300 32.36000
C  35.10000 3.02600 33.07700
C  35.29400 2.88800 34.62100
C  36.89100 2.90100 34.70400
C  37.30400 2.77100 33.20900
C  37.38700 4.23600 35.39100
C  34.56000 1.68000 35.22800
C  34.25200 1.66500 36.80300
H  34.88300 2.80200 37.72900
N  38.75600 2.20800 30.41600
C  39.33000 2.23500 31.60900
C  40.76400 1.88600 31.46600
C  40.96700 1.50100 30.09700
C  39.59500 1.78200 29.46400
C  41.66200 1.87100 32.68900
C  42.14500 0.82300 29.33400
O  42.07300 0.69600 28.08800
C  43.34200 0.25100 30.09300
N  36.81700 2.32600 28.00200
C  37.94000 1.79800 27.46700
C  37.76900 1.54000 25.97200
C  36.25100 1.75900 25.73700
C  35.81500 2.30600 27.09600
C  38.74800 2.41400 25.12400
C  35.49600 0.48600 25.22700
C  35.04800 -0.57200 26.25200
N  34.63500 2.78900 29.84100
C  33.92000 2.94300 28.67400
C  32.55800 3.28400 28.98600
C  32.55000 3.40300 30.38100
C  33.82500 3.11300 30.87800
C  31.47300 3.39100 27.97600
C  31.69700 3.79800 31.53400
O  30.50100 4.21300 31.56000
C  32.50000 3.62000 32.84400
C  32.51500 4.83100 33.75200
O  32.72200 6.01800 33.40100
O  32.02500 4.56100 35.02400
C  32.23700 5.61600 35.97700
H  39.32500 2.66200 33.72600
H  39.72600 0.91200 27.45400
H  33.89000 2.95000 26.50500
H  34.89300 3.68000 35.25500
H  37.17900 2.07700 35.35700
H  37.52500 4.25600 36.47200
H  36.78200 5.09900 35.11300
H  38.28800 4.56600 34.87400
H  35.10400 0.77800 34.94700
H  33.65000 1.55500 34.64000
H  34.52600 0.64200 37.06100
H  33.19200 1.64900 37.05900
H  41.27300 1.18100 33.43800
H  41.70600 2.88300 33.09300
H  42.67100 1.58900 32.39200
H  43.04000 -0.18000 31.04800
H  44.05600 1.07300 30.13800
H  43.78300 -0.48900 29.42400
H  38.07800 0.50600 25.81800
H  36.07900 2.55600 25.01300
H  39.38900 3.13300 25.63400
H  38.29800 2.96500 24.29800
H  39.39600 1.77100 24.52800
H  36.07300 -0.09400 24.50600
H  34.72300 0.85000 24.55100
H  35.51400 -1.54800 26.12200
H  34.01100 -0.71400 25.94700
H  35.04800 -0.20200 27.27700
H  31.17400 2.42100 27.57900
H  31.64900 4.10700 27.17400
H  30.50300 3.56800 28.44300
H  32.00600 2.89600 33.49400
H  33.23600 6.01000 35.78800
H  32.30000 5.33000 37.02700
H  31.54000 6.41000 35.70700
Mg 41.65700 9.00300 29.42500
C  43.57100 10.41000 31.95200
C  39.55500 7.65600 31.84100
C  39.85900 7.67700 26.95000
C  44.16100 9.87500 27.20400
N  41.78900 8.70200 31.71500
C  42.47100 9.62500 32.48900
C  41.97800 9.50700 33.97400
C  40.73100 8.49900 33.89700
C  40.69900 8.21500 32.41600
C  40.58000 7.35000 34.95900
C  41.78500 10.89900 34.65200
C  41.10100 10.84500 36.01100
H  41.90400 11.21500 37.19400
N  39.94600 7.85200 29.35700
C  39.21500 7.43600 30.48700
C  38.00700 6.76000 30.01500
C  38.08800 6.72500 28.57800
C  39.29300 7.46000 28.25100
C  37.17100 5.96500 30.98200
C  37.09500 6.13100 27.63400
O  37.39500 5.79600 26.44800
C  35.73400 5.84000 28.04100
N  41.99800 8.79300 27.38600
C  41.05500 8.32100 26.47900
C  41.56100 8.25900 25.01800
C  42.87700 9.13700 25.10800
C  43.07600 9.20900 26.67800
C  41.75500 6.85900 24.36800
C  42.81900 10.43500 24.28100
C  42.43200 11.77800 24.97500
N  43.51000 9.89100 29.54100
C  44.38000 10.20000 28.53200
C  45.48500 10.97900 29.02500
C  45.12700 11.15700 30.35000
C  44.00000 10.39100 30.62600
C  46.64900 11.44400 28.22700
C  45.50900 11.84300 31.58700
O  46.47600 12.57800 31.88100
C  44.52600 11.36000 32.73200
C  45.32000 10.58400 33.70500
O  45.77800 9.50800 33.40400
O  45.34200 11.18100 34.97800
C  45.95500 10.41800 36.07500
H  38.83700 7.44000 32.63500
H  39.25800 7.36700 26.09200
H  44.91600 10.09600 26.44800
H  42.78900 9.02000 34.51500
H  39.87700 9.14100 34.11100
H  41.33100 7.34700 35.75000
H  40.55400 6.33100 34.57200
H  39.61200 7.45400 35.44900
H  41.20500 11.40300 33.87800
H  42.76200 11.38200 34.67800
H  40.61600 9.89500 36.23200
H  40.32600 11.60900 35.95500
H  37.86400 5.58200 31.73100
H  36.76800 5.07200 30.50500
H  36.39200 6.57200 31.44300
H  35.37800 6.62300 28.71100
H  35.87800 4.93800 28.63600
H  35.14200 5.65000 27.14600
H  40.93000 8.74500 24.27400
H  43.73600 8.66200 24.63300
H  41.82900 6.07600 25.12300
H  42.64100 6.83900 23.73500
H  40.89200 6.66800 23.73000
H  42.22500 10.28400 23.38000
H  43.86200 10.49000 23.96900
H  41.93900 11.54600 25.92000
H  41.84300 12.43500 24.33600
H  43.35300 12.30000 25.23600
H  47.55900 11.21800 28.78200
H  46.44100 12.47700 27.94800
H  46.82500 10.80700 27.36100
H  44.07800 12.28400 33.09700
H  47.04100 10.49600 36.13200
H  45.70400 9.35700 36.05000
H  45.56500 10.79500 37.02100

