158

Mg 35.37000 0.40700 29.63900
C  33.42200 1.35300 32.33400
C  38.02700 0.01100 31.88300
C  37.40300 0.21200 27.05700
C  32.72500 0.94800 27.46200
N  35.68200 0.72700 31.90200
C  34.70800 1.07400 32.80400
C  35.21000 0.95800 34.25200
C  36.83700 0.81400 34.10700
C  36.84700 0.49500 32.54700
C  37.71300 2.00800 34.56400
C  34.38600 -0.18600 35.05700
C  33.82300 0.26100 36.48500
H  34.54600 1.40400 37.19800
N  37.41900 -0.04400 29.50300
C  38.32700 -0.22000 30.49900
C  39.59200 -0.64400 29.89200
C  39.41100 -0.50800 28.49800
C  38.05200 -0.02400 28.31400
C  40.80900 -0.92300 30.72500
C  40.41700 -0.76400 27.35700
O  40.20700 -0.70000 26.18100
C  41.90700 -0.96600 27.72900
N  35.08000 0.41900 27.59500
C  36.06000 0.40800 26.69100
C  35.60000 0.40200 25.22000
C  34.02500 0.47400 25.35900
C  33.90500 0.55900 26.88700
C  36.17500 1.59200 24.37800
C  33.29400 -0.74000 24.66000
C  33.18600 -1.96600 25.54700
N  33.48800 0.96500 29.78500
C  32.46800 0.99100 28.88400
C  31.21200 1.36400 29.47700
C  31.55700 1.59800 30.82500
C  32.87000 1.27400 30.99400
C  29.91400 1.59000 28.72500
C  31.05600 1.93200 32.08300
O  29.89000 2.20600 32.40000
C  32.19400 1.71000 33.14400
C  32.39100 2.93300 33.94100
O  33.27000 3.74600 33.77300
O  31.39200 3.08400 34.93000
C  31.40900 4.33300 35.66500
H  38.86800 -0.02700 32.57900
H  37.90100 0.11600 26.08900
H  31.86100 1.11400 26.81600
H  34.93100 1.90700 34.71100
H  37.21500 -0.08800 34.58900
H  37.10300 2.69100 35.15400
H  37.92000 2.57300 33.65500
H  38.55400 1.83400 35.23600
H  35.08400 -0.98100 35.32100
H  33.61100 -0.72000 34.50700
H  33.98600 -0.48500 37.26300
H  32.77100 0.53500 36.41100
H  41.39300 -1.73300 30.28800
H  40.58400 -1.11600 31.77400
H  41.27300 0.06100 30.66600
H  41.99700 -0.30300 28.59000
H  42.64500 -0.65000 26.99200
H  42.22000 -1.99800 27.89200
H  35.81800 -0.60400 24.86100
H  33.59100 1.40800 25.00100
H  37.02400 1.97400 24.94500
H  35.46800 2.37100 24.09400
H  36.55100 1.19300 23.43600
H  33.90400 -0.92200 23.77400
H  32.35300 -0.35500 24.26800
H  33.48800 -2.76400 24.86900
H  32.13300 -2.22500 25.66600
H  33.84500 -2.11300 26.40300
H  29.59000 0.67500 28.23000
H  30.12000 2.31200 27.93400
H  29.15900 1.94200 29.42800
H  31.88800 0.92600 33.83700
H  30.70700 4.26700 36.49600
H  31.00600 5.14700 35.06200
H  32.39400 4.65700 36.00000
Mg 15.83500 52.56100 25.59000
C  18.05200 51.65400 28.19400
C  13.32600 53.07600 28.04200
C  13.84600 53.56200 23.16300
C  18.33700 51.62700 23.30700
N  15.72600 52.46700 27.81900
C  16.83200 52.24800 28.66600
C  16.46500 52.49200 30.17100
C  14.92300 52.53900 30.09000
C  14.61600 52.78500 28.57600
C  14.20900 51.26400 30.60300
C  17.10100 53.75300 30.84600
C  17.28500 53.66900 32.34800
H  16.54600 52.55400 33.11700
N  13.91000 53.20600 25.58400
C  13.04400 53.33600 26.63900
C  11.68300 53.67600 26.11000
C  11.79000 53.66400 24.72100
C  13.20400 53.48800 24.40500
C  10.50400 53.84900 26.97800
C  10.75300 53.84700 23.64600
O  11.07100 53.81400 22.48400
C  9.41200 54.00800 24.05400
N  16.14500 52.69300 23.56800
C  15.11300 53.21700 22.74200
C  15.60600 53.42900 21.30900
C  17.14500 52.93500 21.45100
C  17.24600 52.36600 22.84100
C  14.85600 52.63200 20.21200
C  18.16700 54.09800 21.27100
C  19.21000 53.76400 20.20300
N  17.75500 51.72700 25.72400
C  18.63700 51.30600 24.67100
C  19.88800 50.79600 25.23500
C  19.60100 50.84200 26.64000
C  18.34600 51.48600 26.85800
C  21.11100 50.22100 24.46200
C  20.20200 50.60000 27.99500
O  21.33000 50.20200 28.31800
C  19.16900 51.17300 29.03500
C  18.85900 50.19600 30.12700
O  18.17000 49.20700 29.97200
O  19.44200 50.52200 31.32300
C  19.37600 49.47000 32.31300
H  12.50600 53.10000 28.76200
H  13.30800 53.93000 22.28700
H  19.12400 51.31700 22.61600
H  16.88500 51.65900 30.73400
H  14.47100 53.42300 30.53900
H  14.85900 50.49300 31.01700
H  13.49400 50.80800 29.91800
H  13.58200 51.49600 31.46300
H  16.54300 54.66400 30.63000
H  18.02800 53.89900 30.29100
H  16.93100 54.62100 32.74500
H  18.33100 53.46000 32.57200
H  9.94300 52.91600 27.04100
H  9.99100 54.75200 26.64900
H  10.77800 54.14100 27.99200
H  9.49200 54.83400 24.76100
H  9.09200 53.19700 24.70700
H  8.83100 54.08700 23.13500
H  15.45900 54.45800 20.97900
H  17.38800 52.08700 20.81100
H  13.91600 52.30600 20.65600
H  15.41100 51.78200 19.81600
H  14.47200 53.15900 19.33800
H  18.68200 54.27300 22.21500
H  17.60900 55.02900 21.17000
H  18.86000 53.01000 19.49800
H  20.14400 53.46600 20.67800
H  19.50700 54.56500 19.52500
H  21.58000 49.51100 25.14300
H  21.79900 50.94800 24.02800
H  20.78300 49.62400 23.61100
H  19.72700 52.00300 29.46800
H  18.39100 49.57000 32.76900
H  20.14300 49.43500 33.08600
H  19.52800 48.51200 31.81500

