158

Mg 34.72000 2.79300 29.25000
C  32.46300 3.60700 31.83100
C  37.23600 2.80300 31.66400
C  36.94800 2.40200 26.74200
C  32.04000 3.08300 26.91800
N  34.84400 3.15100 31.48300
C  33.78900 3.50000 32.29500
C  34.16500 3.43200 33.77700
C  35.70400 3.47000 33.68100
C  35.97400 3.10900 32.18700
C  36.33800 4.78300 34.09200
C  33.47100 2.28700 34.62800
C  32.69000 2.69400 35.83200
H  33.34100 3.75000 36.73600
N  36.82500 2.66600 29.21100
C  37.65300 2.60000 30.31900
C  39.08700 2.34100 29.81700
C  38.97700 2.19800 28.38300
C  37.52500 2.44700 28.05300
C  40.32100 2.29700 30.80200
C  40.06500 1.77700 27.36000
O  39.94000 1.82100 26.15700
C  41.44000 1.28000 27.77200
N  34.57000 2.76600 27.16500
C  35.59600 2.52200 26.32900
C  35.17300 2.46700 24.82200
C  33.62600 2.41800 24.99100
C  33.31300 2.84800 26.43400
C  35.67700 3.65500 24.07400
C  32.99000 1.02200 24.73800
C  31.59000 1.10100 24.09000
N  32.67500 3.06600 29.36000
C  31.70800 3.31500 28.29900
C  30.50400 3.61300 28.96200
C  30.79600 3.78500 30.28100
C  32.12700 3.41900 30.52400
C  29.29000 4.01500 28.29800
C  30.15400 4.20100 31.51800
O  29.03800 4.69800 31.70100
C  31.17800 4.09600 32.62100
C  31.30100 5.40100 33.28400
O  32.03100 6.34000 32.93000
O  30.47700 5.49000 34.35200
C  30.50800 6.79400 35.01700
H  37.95900 2.63800 32.46600
H  37.73200 2.33200 25.98500
H  31.17100 3.12100 26.25800
H  33.82400 4.42100 34.08300
H  36.06700 2.58100 34.19700
H  37.20500 4.62600 34.73300
H  35.53400 5.32800 34.58700
H  36.59100 5.29200 33.16200
H  34.11400 1.44200 34.87400
H  32.74100 1.81000 33.97400
H  32.34200 1.81900 36.38200
H  31.70000 3.01400 35.50700
H  40.00600 2.99900 31.57300
H  41.22000 2.78200 30.42100
H  40.52800 1.32700 31.25400
H  41.32900 0.61100 28.62600
H  42.10100 2.08700 28.08800
H  41.87200 0.74700 26.92500
H  35.40700 1.51000 24.35600
H  33.16000 3.18800 24.37600
H  34.94100 4.45700 24.14100
H  35.86200 3.42000 23.02600
H  36.58800 3.98200 24.57500
H  32.86400 0.60700 25.73800
H  33.68200 0.41100 24.15900
H  31.53800 0.72500 23.06800
H  31.16400 2.10400 24.12200
H  30.94400 0.35300 24.55200
H  29.42700 4.44000 27.30300
H  28.68600 4.69800 28.89500
H  28.71100 3.10500 28.14100
H  30.83000 3.33000 33.31300
H  29.56300 6.86200 35.55700
H  30.81400 7.62800 34.38500
H  31.33600 6.70700 35.72000
Mg 39.64700 9.87500 29.89700
C  41.74500 11.19300 32.48000
C  37.52400 8.91700 32.56300
C  37.82200 8.23800 27.61300
C  41.90800 10.97800 27.55100
N  39.75100 9.90600 32.34400
C  40.66300 10.57100 33.09700
C  40.22600 10.58100 34.55400
C  38.89000 9.73700 34.51800
C  38.71300 9.56600 33.01200
C  38.85700 8.34600 35.23300
C  40.01900 11.99900 35.16400
C  40.92600 12.32900 36.37000
H  40.25300 12.72800 37.69700
N  37.86700 8.71400 30.08500
C  37.07800 8.53500 31.26400
C  35.90300 7.84100 30.76000
C  36.09200 7.53900 29.35500
C  37.28200 8.17700 28.93900
C  34.79300 7.48000 31.75400
C  35.14900 6.70800 28.50700
O  35.43600 6.35200 27.35700
C  33.87100 6.37500 29.02500
N  39.78000 9.84800 27.78000
C  38.89700 8.99800 27.08700
C  39.30500 8.98100 25.58700
C  40.54100 10.02400 25.57900
C  40.79500 10.24700 27.03900
C  39.61300 7.60400 25.03400
C  40.22900 11.25800 24.71000
C  41.39500 12.19600 24.44000
N  41.47900 10.80800 29.96600
C  42.26400 11.22100 28.89100
C  43.47100 11.94800 29.38600
C  43.25800 11.99700 30.78900
C  42.01300 11.26900 31.07600
C  44.57600 12.45500 28.49700
C  43.83300 12.48300 32.00900
O  44.86100 13.17300 32.17200
C  42.84800 12.03800 33.18100
C  43.59500 11.13600 34.07300
O  43.80200 9.92400 33.97600
O  43.96300 11.80300 35.23500
C  44.72200 11.11300 36.23500
H  36.75000 8.85300 33.33000
H  37.16900 7.83300 26.83800
H  42.58500 11.20900 26.72600
H  41.00400 9.98000 35.02400
H  38.03300 10.29800 34.88800
H  39.85900 7.93500 35.36200
H  38.46200 7.51300 34.65300
H  38.30700 8.35500 36.17400
H  38.98700 12.11900 35.49400
H  40.12400 12.76800 34.39900
H  41.30500 13.31200 36.09100
H  41.65300 11.53700 36.54800
H  34.80100 8.18000 32.58900
H  34.96100 6.44800 32.05900
H  33.83600 7.58900 31.24300
H  33.41100 7.31500 29.33100
H  34.02200 5.63000 29.80600
H  33.26100 5.85400 28.28800
H  38.39300 9.34400 25.11400
H  41.38200 9.51000 25.11400
H  39.71600 6.86100 25.82500
H  40.41400 7.56700 24.29500
H  38.70000 7.29000 24.53000
H  39.40100 11.86000 25.08300
H  39.89300 10.83300 23.76400
H  41.16700 12.68500 23.49300
H  42.36500 11.70100 24.39400
H  41.41200 13.03700 25.13200
H  45.52600 11.99000 28.76300
H  44.57200 13.48300 28.85900
H  44.48500 12.35300 27.41500
H  42.41400 12.94400 33.60500
H  45.56200 10.62200 35.74300
H  44.15100 10.27500 36.63500
H  45.06600 11.74300 37.05500

