158

Mg 6.33000 54.13900 41.31600
C  5.93800 50.55200 41.00300
C  9.39700 54.03100 39.97300
C  6.28400 57.47800 41.27400
C  2.94000 54.13100 42.44700
N  7.41200 52.44100 40.55100
C  7.14400 51.07600 40.48400
C  8.38700 50.30500 39.93100
C  9.54000 51.40000 39.90400
C  8.74500 52.72000 40.17400
C  10.71200 51.25200 40.92600
C  8.21600 49.58800 38.54400
C  7.50000 50.34100 37.37600
H  6.81800 49.53300 36.19100
N  7.71400 55.62600 40.72600
C  8.94500 55.38300 40.18500
C  9.59700 56.58600 39.98900
C  8.70200 57.60400 40.31700
C  7.48900 56.91100 40.80500
C  11.00700 56.60100 39.44200
C  8.93500 59.12500 40.17600
O  9.98700 59.60800 39.70500
C  7.86800 60.22300 40.37500
N  4.71500 55.59200 41.66300
C  5.04200 56.90400 41.69500
C  3.81200 57.78600 41.94100
C  2.67900 56.64800 42.12500
C  3.49000 55.39600 42.09900
C  3.97500 58.77500 43.16400
C  1.59500 56.79900 41.00300
C  0.38000 57.59500 41.43500
N  4.71300 52.66800 41.60000
C  3.50600 52.82300 42.19500
C  2.95300 51.50900 42.59900
C  3.85600 50.54900 42.01200
C  4.90200 51.37400 41.43300
C  1.68900 51.26800 43.40400
C  4.17100 49.14500 41.89800
O  3.52000 48.22600 42.42100
C  5.55400 49.09700 41.21100
C  5.43300 48.17100 40.00600
O  4.88800 48.47500 38.89900
O  5.90200 46.89800 40.26700
C  5.50400 45.97000 39.21100
H  10.42600 54.01700 39.60900
H  6.29200 58.55300 41.46500
H  1.89700 54.06500 42.76300
H  8.66000 49.56800 40.68700
H  9.98500 51.40900 38.90900
H  11.70500 51.26600 40.47600
H  10.60400 50.24500 41.32800
H  10.63000 52.11200 41.59100
H  7.88000 48.56900 38.73700
H  9.20400 49.40000 38.12500
H  8.19800 51.04600 36.92500
H  6.73500 50.94000 37.87000
H  11.67300 56.08800 40.13600
H  11.28500 57.65000 39.34000
H  11.12500 56.20500 38.43400
H  8.21400 61.17000 39.96300
H  7.54000 60.27700 41.41300
H  7.03300 59.98400 39.71500
H  3.52700 58.36300 41.06100
H  2.24200 56.88000 43.09600
H  3.73900 59.82900 43.01200
H  5.03900 58.81400 43.39700
H  3.50800 58.56900 44.12700
H  1.28400 55.80900 40.66800
H  2.01600 57.33800 40.15400
H  0.15300 58.31400 40.64800
H  0.58800 58.18800 42.32500
H  -0.50000 56.97400 41.60400
H  1.71900 51.87100 44.31100
H  1.77700 50.26500 43.82300
H  0.78000 51.41200 42.82100
H  6.34100 48.60600 41.78400
H  4.41900 45.98900 39.10900
H  5.68400 44.93400 39.49900
H  5.97500 46.08000 38.23400
Mg -9.83700 39.77500 39.60400
C  -9.21300 36.30000 38.94000
C  -6.73000 40.53500 38.55700
C  -10.99800 42.96900 39.24900
C  -13.37300 38.72000 39.98300
N  -8.13400 38.48400 38.68900
C  -8.01900 37.13000 38.63800
C  -6.53800 36.74100 38.36900
C  -5.84000 38.13200 38.56700
C  -6.96900 39.12200 38.69200
C  -4.80200 38.22000 39.65900
C  -6.37300 36.01900 37.00000
C  -6.82700 36.76000 35.76200
H  -8.09300 36.29700 35.01900
N  -8.99800 41.48700 39.04700
C  -7.63300 41.60700 38.66400
C  -7.29600 43.00000 38.64900
C  -8.49200 43.73300 38.83600
C  -9.57400 42.74200 39.05700
C  -5.80600 43.48800 38.59400
C  -8.51400 45.25200 38.73900
O  -7.49500 45.90600 38.48600
C  -9.74200 46.00300 39.04200
N  -11.89600 40.67500 39.64700
C  -12.01400 42.00000 39.57300
C  -13.52200 42.36800 39.67000
C  -14.19400 41.08200 40.16600
C  -13.09000 40.08800 39.91400
C  -13.75800 43.63700 40.59700
C  -15.63400 40.84500 39.52700
C  -16.70700 40.59100 40.66100
N  -11.02900 37.96600 39.60900
C  -12.40600 37.73900 39.72400
C  -12.70800 36.37500 39.43000
C  -11.48700 35.77600 39.26300
C  -10.48600 36.79500 39.37700
C  -14.06500 35.78100 39.46100
C  -10.89100 34.46800 39.09500
O  -11.35200 33.36000 38.91100
C  -9.37500 34.80300 38.84100
C  -8.55000 33.99800 39.79900
O  -8.86100 33.77400 40.99200
O  -7.33200 33.61500 39.19700
C  -6.35100 32.92800 40.00500
H  -5.71300 40.89400 38.38800
H  -11.28400 44.02300 39.24000
H  -14.42600 38.49400 40.16500
H  -6.29900 36.06700 39.19300
H  -5.34800 38.38900 37.62900
H  -3.83300 38.10600 39.17300
H  -4.85300 37.40300 40.37800
H  -4.91200 39.16800 40.18600
H  -6.87500 35.05200 36.97600
H  -5.34100 35.77500 36.74900
H  -6.01400 36.59800 35.05500
H  -7.01200 37.78500 36.08200
H  -5.55600 44.09500 37.72400
H  -5.03700 42.73300 38.75400
H  -5.74600 44.19700 39.42000
H  -10.07500 45.85800 40.07000
H  -10.52300 45.63000 38.37900
H  -9.66300 47.07300 38.84600
H  -13.69700 42.42900 38.59600
H  -14.33700 41.25100 41.23300
H  -12.93100 43.77500 41.29400
H  -14.63300 43.46500 41.22400
H  -13.89700 44.62200 40.15100
H  -15.76600 39.89400 39.01100
H  -15.99900 41.52100 38.75500
H  -17.16100 39.60400 40.56900
H  -17.53000 41.30400 40.69700
H  -16.25100 40.68000 41.64700
H  -13.91900 34.70100 39.41600
H  -14.59900 35.99600 38.53600
H  -14.56200 36.08500 40.38200
H  -9.29300 34.49500 37.79800
H  -5.46600 32.90200 39.37000
H  -6.77500 31.93900 40.18100
H  -6.13500 33.49500 40.91000

