158

Mg 51.51500 46.28600 42.30200
C  48.40500 47.43500 40.60400
C  51.14800 43.52900 40.51400
C  54.77400 45.67200 43.16300
C  51.90100 49.71500 43.24600
N  49.95400 45.65300 40.66200
C  48.78800 46.16200 40.32200
C  47.92500 45.14100 39.54200
C  48.84300 43.85600 39.48200
C  50.11900 44.38600 40.23500
C  48.12600 42.53900 39.93200
C  47.32800 45.57700 38.12200
C  45.77800 45.33500 38.00100
H  45.48800 44.20600 37.02200
N  52.75300 44.76500 41.95300
C  52.33300 43.62600 41.21200
C  53.37200 42.65500 41.34500
C  54.48800 43.26700 42.08400
C  54.05800 44.61300 42.46400
C  53.28800 41.27900 40.75800
C  55.77000 42.57100 42.44000
O  56.00600 41.47900 41.89600
C  56.72500 43.03800 43.46300
N  53.04900 47.53700 43.11100
C  54.24300 46.96300 43.49500
C  55.09300 48.01500 44.27800
C  54.12500 49.20200 44.36700
C  52.98400 48.89200 43.42500
C  55.59000 47.53500 45.73100
C  54.79700 50.54900 44.09400
C  55.13500 51.39500 45.42100
N  50.40500 48.24100 42.11000
C  50.66800 49.52000 42.65200
C  49.53500 50.33600 42.44500
C  48.69200 49.61700 41.57300
C  49.19600 48.31400 41.44000
C  49.39200 51.76900 43.01300
C  47.35100 49.67100 40.96900
O  46.47100 50.50400 41.04200
C  47.12300 48.26700 40.26400
C  45.92900 47.77400 40.89900
O  45.80600 47.32100 42.01400
O  44.86300 47.89100 40.03900
C  43.48300 47.74600 40.54300
H  50.93900 42.52500 40.14000
H  55.83500 45.56000 43.39700
H  52.10100 50.73300 43.58600
H  47.12200 45.04600 40.27200
H  49.21300 43.75200 38.46200
H  48.17500 41.81100 39.12300
H  47.14100 42.74500 40.34900
H  48.59100 42.15900 40.84200
H  47.86400 45.00700 37.36300
H  47.54400 46.63100 37.94900
H  45.46600 46.33500 37.70100
H  45.20200 45.07500 38.88900
H  53.00200 41.24000 39.70700
H  52.42200 40.82000 41.23500
H  54.07700 40.55500 40.96500
H  56.21400 43.31500 44.38500
H  57.25000 43.85800 42.97400
H  57.42200 42.21000 43.60100
H  55.90600 48.29400 43.60700
H  53.69900 49.18800 45.37000
H  54.89800 47.74500 46.54800
H  56.50400 48.06200 46.00400
H  55.69100 46.46400 45.55800
H  54.24600 51.18200 43.39900
H  55.69100 50.43500 43.48100
H  55.84200 50.87800 46.07000
H  54.26500 51.62600 46.03600
H  55.64600 52.31900 45.15400
H  48.53000 52.20000 42.50400
H  50.30900 52.35800 43.01500
H  49.05700 51.49500 44.01400
H  47.09600 48.55100 39.21200
H  43.31100 46.90000 41.20800
H  42.78800 47.88500 39.71400
H  43.29600 48.61300 41.17600
Mg 9.50500 48.61400 25.74700
C  7.37100 48.86000 28.55800
C  11.95300 49.98700 27.60400
C  11.38800 48.43900 23.01400
C  6.69200 47.76700 23.92600
N  9.63400 49.25800 27.80000
C  8.68800 49.16800 28.80900
C  9.34400 49.53700 30.12900
C  10.63100 50.32900 29.67300
C  10.77100 49.81300 28.29500
C  10.49600 51.90600 29.68100
C  9.58600 48.34100 31.13200
C  9.02400 48.74900 32.53300
H  9.40800 47.74000 33.69200
N  11.53100 49.06600 25.39700
C  12.33000 49.69200 26.26500
C  13.62700 49.82500 25.64400
C  13.51600 49.16900 24.34300
C  12.09500 48.89100 24.17400
C  14.81800 50.40400 26.33100
C  14.55100 48.84500 23.41700
O  14.16100 48.31700 22.37800
C  16.00500 49.03800 23.67800
N  9.07600 48.30700 23.63800
C  10.04300 48.26400 22.72500
C  9.56700 47.59800 21.44500
C  8.19300 47.05800 21.85500
C  7.90700 47.80200 23.21900
C  9.64300 48.38800 20.08400
C  8.11900 45.47600 21.90800
C  8.25600 44.83000 23.32200
N  7.50700 48.31600 26.14700
C  6.45800 47.98000 25.28600
C  5.12100 47.91100 25.98000
C  5.49500 48.18200 27.28400
C  6.93500 48.42900 27.33000
C  3.73400 47.62700 25.38900
C  4.96900 48.27200 28.63400
O  3.83500 48.16600 29.10100
C  6.21700 48.56000 29.54800
C  6.28900 47.25800 30.21700
O  6.75800 46.19900 29.76500
O  5.87400 47.24100 31.54800
C  6.07900 45.99800 32.34700
H  12.82700 50.24000 28.20800
H  11.89900 48.13100 22.09900
H  5.90200 47.18300 23.44900
H  8.57500 50.21100 30.50700
H  11.46900 50.10600 30.33300
H  9.61000 52.22100 30.23300
H  10.60000 52.36000 28.69600
H  11.35100 52.28100 30.24300
H  10.64600 48.09000 31.17100
H  9.03800 47.45900 30.80200
H  7.95000 48.56600 32.50200
H  9.10100 49.82600 32.67700
H  15.56900 50.88600 25.70500
H  15.35100 49.73700 27.00900
H  14.46700 51.15900 27.03400
H  16.27100 50.06900 23.44100
H  16.49300 48.43900 22.91000
H  16.35800 48.66800 24.64100
H  10.28700 46.78400 21.35300
H  7.48200 47.35000 21.08200
H  9.26800 49.40500 20.19700
H  9.19600 47.80300 19.28000
H  10.70500 48.43400 19.84300
H  8.80900 45.06800 21.17000
H  7.15400 45.19200 21.48800
H  8.91200 45.37200 24.00200
H  8.70800 43.84100 23.24900
H  7.23600 44.82100 23.70700
H  3.42100 46.72400 25.91400
H  3.56500 47.63200 24.31200
H  3.09900 48.38300 25.85100
H  6.05700 49.40900 30.21200
H  5.83200 46.17500 33.39400
H  7.13000 45.74000 32.21600
H  5.42400 45.14900 32.15400

