158

Mg 8.09100 3.39200 27.19700
C  9.26300 1.93800 30.20200
C  5.89200 5.24400 29.06000
C  6.81300 4.34500 24.38800
C  9.75000 0.79400 25.42600
N  7.73500 3.66600 29.39900
C  8.38400 3.03400 30.45300
C  7.91600 3.71900 31.74800
C  6.76800 4.68000 31.36600
C  6.80300 4.56900 29.86800
C  5.42600 4.26800 31.96000
C  9.13900 4.31200 32.52900
C  9.51700 3.71400 33.90900
H  9.59400 4.68200 35.09600
N  6.71700 4.71900 26.75900
C  5.91500 5.43900 27.65000
C  5.15000 6.40500 26.92700
C  5.41800 6.16300 25.54500
C  6.35200 5.04900 25.52800
C  4.19000 7.34800 27.75300
C  4.85900 6.83900 24.22400
O  5.03300 6.45500 23.07500
C  3.83700 7.91800 24.40100
N  8.12600 2.50900 25.19700
C  7.61300 3.22600 24.14400
C  7.94600 2.69500 22.76800
C  8.90600 1.51700 23.07900
C  8.92900 1.53800 24.61900
C  6.77300 2.24000 21.94700
C  10.39000 1.72500 22.60400
C  10.88200 0.77800 21.54400
N  9.31100 1.79300 27.69600
C  9.98000 0.88100 26.85700
C  10.74100 -0.07600 27.62800
C  10.52100 0.36600 28.98400
C  9.58400 1.42800 28.93200
C  11.52200 -1.26900 27.07400
C  10.87700 0.09600 30.37500
O  11.66200 -0.68900 30.84800
C  10.10700 1.09300 31.25000
C  9.21800 0.43200 32.28700
O  8.27500 -0.23500 32.06000
O  9.78000 0.57800 33.53600
C  8.91600 0.04100 34.65300
H  5.27600 5.95500 29.61400
H  6.47300 4.68300 23.40700
H  10.28900 0.05100 24.83400
H  7.56400 2.84200 32.29100
H  7.03700 5.71900 31.55600
H  4.65000 4.15000 31.20400
H  5.08600 5.06100 32.62600
H  5.58300 3.39700 32.59700
H  8.92700 5.37300 32.66700
H  10.03800 4.33400 31.91400
H  10.48100 3.21600 33.80300
H  8.74200 2.97200 34.10200
H  4.74100 7.79900 28.57900
H  3.31500 6.79600 28.09500
H  3.87900 8.08400 27.01100
H  3.40700 8.08500 23.41300
H  4.34400 8.76200 24.86800
H  3.00100 7.58000 25.01300
H  8.40500 3.50100 22.19500
H  8.51700 0.53300 22.82100
H  6.73600 1.18200 21.68900
H  6.83600 2.74800 20.98400
H  5.87700 2.58200 22.46400
H  11.17700 1.62600 23.35100
H  10.42400 2.72800 22.18100
H  11.73100 1.25600 21.05600
H  10.18000 0.46400 20.77200
H  11.16400 -0.09100 22.13700
H  11.93000 -0.86600 26.14600
H  10.90700 -2.16000 26.95100
H  12.28700 -1.39000 27.84100
H  10.79200 1.80400 31.71200
H  8.15800 -0.67200 34.32900
H  8.38300 0.90100 35.05800
H  9.56000 -0.18500 35.50400
Mg 25.20400 0.94700 29.79900
C  27.15900 0.70400 32.63300
C  22.46200 1.09900 31.96000
C  23.19500 0.62300 27.15800
C  28.07000 0.35200 27.77100
N  24.89800 1.03600 31.99100
C  25.88100 1.03400 32.98900
C  25.33100 1.24100 34.38800
C  23.84400 1.29800 34.15000
C  23.70800 1.09200 32.58000
C  22.83400 0.37600 34.96900
C  26.06300 2.27800 35.26200
C  26.56100 1.73400 36.63200
H  26.52300 2.62200 37.92000
N  23.08900 0.77200 29.56700
C  22.17500 0.96800 30.59900
C  20.85000 0.96700 29.95500
C  21.02200 0.74100 28.54300
C  22.49900 0.65600 28.33700
C  19.58200 1.13700 30.77900
C  19.94000 0.56500 27.48900
O  20.18100 0.26200 26.31300
C  18.50400 0.95900 27.81000
N  25.71200 0.75400 27.68900
C  24.62600 0.65900 26.87800
C  25.13100 0.44500 25.41600
C  26.68700 0.27800 25.56700
C  26.87800 0.60300 27.05500
C  24.40700 -0.71700 24.68700
C  27.63900 1.29300 24.73000
C  28.21500 0.83600 23.40900
N  27.15500 0.52400 30.11900
C  28.21600 0.34800 29.21300
C  29.39800 0.09900 29.98800
C  29.02700 0.22500 31.32600
C  27.65400 0.50900 31.33900
C  30.76000 -0.22100 29.45400
C  29.57700 0.25600 32.58600
O  30.72700 0.01300 32.95000
C  28.30300 0.39400 33.56400
C  28.23600 -0.94300 34.31200
O  27.77900 -1.99100 33.83200
O  28.59800 -0.79600 35.61400
C  28.49000 -1.85600 36.59100
H  21.65200 1.22100 32.68200
H  22.50800 0.50200 26.31800
H  28.91100 0.02800 27.15500
H  25.33000 0.30300 34.94400
H  23.43500 2.26000 34.46000
H  22.10200 1.00500 35.47600
H  23.32700 -0.25500 35.70900
H  22.40900 -0.40100 34.33300
H  25.43000 3.14800 35.43400
H  26.97800 2.53300 34.72700
H  27.59800 1.50200 36.38800
H  26.02600 0.80100 36.81100
H  18.97700 0.24700 30.60500
H  19.04900 2.07400 30.62000
H  19.63100 1.10800 31.86700
H  18.00900 0.35800 28.57300
H  17.93600 0.84200 26.88800
H  18.56200 2.00900 28.09800
H  24.88000 1.37500 24.90500
H  26.98600 -0.75900 25.41600
H  23.68500 -1.13800 25.38700
H  25.09300 -1.54200 24.49300
H  23.85200 -0.36300 23.81800
H  28.48100 1.65600 25.31900
H  27.15100 2.26400 24.64100
H  27.79100 -0.11100 23.07600
H  29.25600 0.51300 23.40000
H  28.07200 1.55500 22.60300
H  31.13000 -0.90600 30.21700
H  31.43300 0.63600 29.42800
H  30.75400 -0.80000 28.53000
H  28.44900 1.16200 34.32300
H  28.66000 -2.81900 36.10800
H  27.44800 -1.86500 36.91200
H  29.18900 -1.74700 37.42000

