158

Mg 1.90600 -2.33600 44.20300
C  5.30300 -1.40600 43.87100
C  0.95500 0.39900 42.52600
C  -1.15000 -3.73900 43.62400
C  3.02200 -5.54500 45.25100
N  3.04800 -0.76700 43.17500
C  4.40200 -0.49900 43.35000
C  4.74800 0.91300 42.86000
C  3.31400 1.59700 42.74200
C  2.34200 0.37700 42.87300
C  2.90200 2.69500 43.68600
C  5.66000 0.93100 41.65000
C  5.51100 -0.08200 40.56000
H  5.15000 0.54200 39.15600
N  0.10600 -1.70500 43.31900
C  -0.06500 -0.57900 42.63500
C  -1.44700 -0.37300 42.21700
C  -2.13600 -1.50600 42.68400
C  -1.07200 -2.34100 43.18200
C  -1.95600 0.83000 41.40200
C  -3.61800 -1.65500 42.61200
O  -4.32600 -0.81500 42.06200
C  -4.34000 -2.86700 43.14900
N  1.05800 -4.38900 44.45100
C  -0.24200 -4.63400 44.21300
C  -0.57900 -6.01600 44.67700
C  0.73700 -6.58800 45.17800
C  1.68900 -5.43400 45.04000
C  -1.85800 -6.02900 45.66500
C  1.16500 -7.81900 44.39900
C  2.02300 -8.90300 45.18500
N  3.81300 -3.30900 44.60800
C  4.08100 -4.60000 45.01800
C  5.55300 -4.75400 45.15900
C  6.07200 -3.52900 44.81100
C  5.01700 -2.65700 44.38700
C  6.21700 -5.91300 45.70400
C  7.27100 -2.71300 44.71600
O  8.44500 -2.93000 44.96900
C  6.81200 -1.36000 44.07800
C  7.10400 -0.27900 45.09300
O  6.38800 -0.20400 46.06100
O  8.14700 0.52000 44.80200
C  8.26500 1.79300 45.57400
H  0.53900 1.35600 42.20400
H  -2.14300 -4.18300 43.52200
H  3.39600 -6.47000 45.69400
H  5.30500 1.39500 43.66300
H  3.08400 1.99300 41.75300
H  3.82800 3.10400 44.09000
H  2.31700 2.37400 44.54800
H  2.53400 3.53200 43.09200
H  6.70200 0.88100 41.96700
H  5.44700 1.94900 41.32300
H  4.81100 -0.85800 40.87100
H  6.47900 -0.57700 40.48800
H  -2.59900 0.33600 40.67300
H  -1.16400 1.32100 40.83700
H  -2.60500 1.49600 41.97100
H  -5.40800 -2.76600 43.33900
H  -3.81600 -2.99600 44.09600
H  -4.20200 -3.75700 42.53500
H  -0.97200 -6.45400 43.75900
H  0.75500 -6.87400 46.23000
H  -1.73200 -6.60000 46.58500
H  -2.66900 -6.54700 45.15300
H  -1.98400 -4.95900 45.82800
H  1.71800 -7.55800 43.49700
H  0.28500 -8.42300 44.17500
H  2.85900 -9.18300 44.54500
H  1.39700 -9.76000 45.43200
H  2.39200 -8.48500 46.12200
H  6.31700 -6.71400 44.97200
H  5.82000 -6.35000 46.62100
H  7.23100 -5.60800 45.96100
H  7.40700 -1.22500 43.17500
H  7.29000 2.25900 45.71000
H  8.83700 2.51000 44.98500
H  8.84300 1.58500 46.47400
Mg 47.81200 25.03000 28.06600
C  48.96700 27.27500 30.64800
C  47.35600 22.79600 30.66200
C  46.92100 22.98500 25.67300
C  49.30100 27.17000 25.67400
N  48.23100 25.11600 30.41200
C  48.42600 26.20100 31.20400
C  48.09600 25.94100 32.68100
C  47.58200 24.48100 32.63700
C  47.76300 24.02200 31.11700
C  48.26900 23.57300 33.68700
C  47.07200 26.95300 33.14900
C  46.50400 26.59600 34.55600
H  46.87300 27.43400 35.77200
N  47.23700 23.19200 28.13000
C  46.99200 22.42800 29.25800
C  46.41300 21.15500 28.83100
C  46.19400 21.24000 27.44200
C  46.75200 22.51200 27.01700
C  45.93600 20.06700 29.85900
C  45.43100 20.31100 26.45600
O  45.44600 20.44200 25.22300
C  44.86300 19.06400 27.02700
N  47.90500 25.12300 25.98100
C  47.46600 24.12900 25.12500
C  47.94300 24.35800 23.65700
C  48.47800 25.82300 23.72400
C  48.55300 26.05400 25.19200
C  49.08100 23.46700 23.13100
C  47.61300 26.90600 22.97100
C  48.27800 27.85100 21.87900
N  48.83300 26.81500 28.04900
C  49.49700 27.53700 27.06100
C  50.09200 28.67200 27.55200
C  49.89700 28.64200 28.96000
C  49.13800 27.52100 29.22600
C  50.90900 29.59800 26.73400
C  50.23900 29.35800 30.15900
O  50.84400 30.46500 30.19800
C  49.56300 28.56600 31.31300
C  50.58000 28.25600 32.29100
O  51.45100 27.46100 32.20000
O  50.32300 28.92300 33.42700
C  51.05200 28.48100 34.64500
H  46.96700 22.11600 31.42300
H  46.70600 22.33400 24.82300
H  49.72400 27.74900 24.85000
H  49.04800 26.13300 33.17700
H  46.52000 24.56400 32.87100
H  48.99100 22.87100 33.27000
H  47.59600 22.92500 34.24800
H  48.76800 24.24500 34.38600
H  46.24100 26.83100 32.45400
H  47.46400 27.96900 33.18100
H  46.82200 25.58400 34.80500
H  45.42300 26.47300 34.48500
H  44.88000 19.80700 29.79500
H  45.97100 20.41300 30.89200
H  46.66200 19.26800 29.70700
H  45.57000 18.50100 27.63600
H  44.72600 18.42400 26.15600
H  43.95400 19.31400 27.57400
H  47.12400 24.28700 22.94200
H  49.50600 25.97500 23.39500
H  48.78300 22.53600 22.65000
H  49.74500 23.29000 23.97800
H  49.71100 23.95100 22.38500
H  47.20900 27.55500 23.74900
H  46.84900 26.33300 22.44600
H  47.71700 27.87300 20.94500
H  49.28900 27.47700 21.71200
H  48.51600 28.82700 22.30200
H  50.32900 29.75000 25.82300
H  51.93500 29.29000 26.53100
H  50.98100 30.54800 27.26300
H  48.84500 29.23300 31.78800
H  51.04200 29.30700 35.35600
H  52.06300 28.08400 34.54800
H  50.38700 27.73300 35.07600

