158

Mg 40.71800 7.36100 29.80600
C  42.66600 8.81900 32.70000
C  38.50600 6.38200 32.11400
C  39.37600 5.70100 27.33900
C  43.42800 8.12900 27.76900
N  40.69700 7.55200 32.22900
C  41.41000 8.29300 33.10500
C  40.80900 8.33600 34.42500
C  39.52100 7.46400 34.21000
C  39.57800 7.05800 32.75100
C  39.29800 6.25700 35.09400
C  40.54300 9.85000 34.75400
C  39.66300 10.14700 36.05300
H  40.17900 11.12500 37.06900
N  39.11400 6.21400 29.75500
C  38.29800 5.93300 30.82000
C  37.09600 5.25000 30.20000
C  37.22300 5.33800 28.77700
C  38.62500 5.78100 28.56300
C  35.90100 4.85700 31.01100
C  36.34000 5.01700 27.71700
O  36.56400 5.12100 26.52900
C  34.92600 4.48300 28.08200
N  41.47100 6.82100 27.84700
C  40.63000 6.20700 26.96400
C  41.07400 6.29300 25.53000
C  42.21700 7.39700 25.69000
C  42.44400 7.36800 27.17100
C  41.46900 4.89200 25.06900
C  41.86300 8.80100 25.02600
C  42.88500 9.31500 24.09400
N  42.66700 8.24800 30.15000
C  43.55500 8.55500 29.18900
C  44.59100 9.27300 29.67600
C  44.35500 9.32800 31.09500
C  43.13800 8.72300 31.29800
C  45.68900 9.92300 28.83600
C  44.89600 9.89000 32.34500
O  45.94800 10.51700 32.48900
C  43.84800 9.56500 33.44800
C  44.31800 8.73100 34.53300
O  45.03100 7.78400 34.47100
O  43.88200 9.27500 35.71200
C  44.03600 8.49000 36.97300
H  37.61000 6.33700 32.73700
H  38.91200 5.19200 26.49100
H  44.18900 8.61200 27.15300
H  41.57600 7.98100 35.11400
H  38.70100 8.14300 34.44100
H  39.17200 5.26900 34.65100
H  38.35800 6.46900 35.60300
H  39.98900 6.20200 35.93600
H  40.11500 10.40100 33.91700
H  41.46800 10.42400 34.80100
H  39.32100 9.20700 36.48600
H  38.83800 10.73700 35.65300
H  35.63900 3.80900 30.86700
H  34.99900 5.39200 30.71500
H  36.04100 5.24600 32.02000
H  34.99000 3.58700 28.69900
H  34.36800 4.20500 27.18800
H  34.47800 5.36000 28.55100
H  40.28500 6.69400 24.89300
H  43.12300 7.00600 25.22900
H  40.82600 4.21300 25.62900
H  42.49800 4.70500 25.37500
H  41.25300 4.72200 24.01400
H  41.79400 9.55600 25.81000
H  40.93800 8.75900 24.45100
H  43.62700 8.52700 23.96600
H  43.34100 10.19200 24.55400
H  42.65700 9.52200 23.04900
H  45.31000 10.35900 27.91100
H  46.37000 9.08600 28.68500
H  46.07800 10.77900 29.38800
H  43.50000 10.51100 33.86200
H  43.66400 9.09800 37.79700
H  45.11900 8.38300 37.04100
H  43.57500 7.50200 36.96300
Mg 47.17000 44.43000 42.78800
C  43.75200 43.89600 42.17000
C  47.65200 41.10600 42.45800
C  50.40000 45.18300 43.01400
C  46.47100 47.95600 42.68100
N  45.85100 42.74400 42.14800
C  44.51700 42.70700 42.12400
C  43.86500 41.29000 42.09100
C  45.14300 40.47800 42.24900
C  46.29000 41.47400 42.25100
C  45.00600 39.46700 43.44900
C  43.09400 40.94600 40.72100
C  43.52800 41.57200 39.33100
H  43.20000 40.98200 37.94400
N  48.79300 43.27600 42.72800
C  48.78900 41.91200 42.67200
C  50.17100 41.46200 42.81000
C  50.98400 42.64100 42.78600
C  50.06600 43.79400 42.82600
C  50.61000 39.95700 42.84000
C  52.52800 42.64300 42.67900
O  53.22300 41.56100 42.70300
C  53.30800 43.89300 42.61500
N  48.26100 46.26200 42.69700
C  49.57300 46.26400 42.96900
C  49.98900 47.66800 43.38600
C  48.73300 48.52500 43.51200
C  47.73700 47.55200 43.03000
C  50.94800 47.61300 44.61900
C  48.81200 49.85400 42.69300
C  48.32700 51.08200 43.43700
N  45.45000 45.75500 42.48800
C  45.34300 47.11800 42.49300
C  43.97900 47.51200 42.17100
C  43.30900 46.27400 42.21000
C  44.21100 45.21000 42.34300
C  43.42400 48.92500 42.03000
C  41.97800 45.63500 42.11900
O  40.84500 46.13400 41.93700
C  42.17800 44.05900 42.15200
C  41.41000 43.69900 43.39900
O  40.31300 43.11900 43.44800
O  42.26400 43.77600 44.47500
C  41.90600 43.02600 45.70000
H  47.88400 40.04000 42.49600
H  51.43200 45.50200 43.17600
H  46.15200 48.99700 42.77000
H  43.16300 41.38700 42.91900
H  45.29300 39.87800 41.35100
H  45.06200 38.48500 42.97900
H  44.13900 39.67200 44.07700
H  45.83400 39.56800 44.15000
H  42.04800 41.24900 40.75800
H  43.07500 39.87000 40.55200
H  44.61600 41.58500 39.38500
H  43.30700 42.63200 39.20800
H  50.72200 39.37500 41.92500
H  49.84400 39.45400 43.43000
H  51.37300 39.70300 43.57500
H  52.70800 44.52600 41.96100
H  54.32700 43.82000 42.23300
H  53.39500 44.34900 43.60100
H  50.57000 48.13300 42.58900
H  48.47000 48.51600 44.56900
H  51.92800 47.25600 44.30300
H  50.62700 46.93500 45.41000
H  51.01800 48.60400 45.06600
H  48.17000 49.71900 41.82200
H  49.73900 50.20800 42.24200
H  47.53800 51.65500 42.95000
H  49.09900 51.80100 43.71100
H  47.84900 50.62800 44.30500
H  43.64300 49.12900 40.98200
H  43.98000 49.57800 42.70200
H  42.33900 48.96300 42.12200
H  41.62200 43.68900 41.29100
H  41.30300 43.67700 46.33300
H  42.70500 42.65600 46.34200
H  41.43500 42.07900 45.43600

