158

Mg 24.29800 1.16900 29.13000
C  26.42300 1.03900 32.09800
C  21.68100 1.59300 31.01000
C  22.53800 0.97800 26.38700
C  27.28300 0.60800 27.23400
N  24.12000 1.16900 31.37300
C  25.05500 1.20200 32.39100
C  24.43800 1.56300 33.74200
C  22.90600 1.70500 33.33500
C  22.87000 1.46800 31.76000
C  21.81900 0.74700 33.98800
C  25.05800 2.88600 34.43200
C  25.70500 2.69200 35.82500
H  25.52800 3.67900 36.98800
N  22.35100 1.32800 28.75400
C  21.40300 1.59100 29.69900
C  20.09300 1.59000 29.06300
C  20.32200 1.27700 27.72500
C  21.78000 1.15300 27.54000
C  18.82700 2.00100 29.76100
C  19.29100 1.15200 26.59800
O  19.65600 0.94300 25.45500
C  17.76100 1.18800 26.90200
N  24.88400 0.85200 27.08100
C  23.90800 0.90800 26.11800
C  24.53000 1.11400 24.75100
C  26.07200 0.96200 25.04300
C  26.09700 0.73900 26.53000
C  24.01400 0.02900 23.71100
C  26.87000 2.25800 24.63100
C  26.28100 3.59900 25.02400
N  26.41100 0.95300 29.51100
C  27.44900 0.60800 28.65400
C  28.69300 0.66500 29.41700
C  28.33800 0.83900 30.81300
C  26.92800 0.97200 30.79800
C  30.02500 0.34200 28.91900
C  28.78400 0.88700 32.15300
O  29.92500 0.72500 32.65000
C  27.59400 1.12200 33.08700
C  27.52300 0.12500 34.12500
O  26.92800 -0.94800 33.99000
O  28.24500 0.53200 35.15700
C  28.32500 -0.36700 36.32100
H  20.76900 1.65300 31.60800
H  21.93700 0.86300 25.48200
H  28.16600 0.55700 26.59300
H  24.66600 0.67300 34.33000
H  22.50900 2.70200 33.52800
H  21.07800 1.40200 34.44500
H  22.30000 0.03100 34.65500
H  21.34100 0.24800 33.14500
H  24.31100 3.67300 34.52800
H  25.74000 3.38900 33.74700
H  26.78200 2.71100 35.66200
H  25.35500 1.72800 36.19500
H  18.25900 1.07100 29.79700
H  18.27800 2.72600 29.15900
H  18.89500 2.31700 30.80200
H  17.46500 2.21200 27.12900
H  17.45600 0.62500 27.78500
H  17.17300 0.70600 26.12100
H  24.24500 2.07100 24.31500
H  26.54700 0.17500 24.45700
H  23.13400 -0.41400 24.17900
H  24.68700 -0.81800 23.58500
H  23.79200 0.38700 22.70600
H  27.06100 2.24700 23.55800
H  27.87400 2.22400 25.05500
H  25.35000 3.52900 25.58600
H  26.13200 4.18900 24.12000
H  26.99300 4.20000 25.58900
H  30.31600 0.72500 27.94100
H  30.20100 -0.73300 28.91900
H  30.71600 0.66200 29.69900
H  27.68400 2.08300 33.59400
H  29.37800 -0.30500 36.59300
H  28.23100 -1.40800 36.01100
H  27.64500 -0.20200 37.15700
Mg -1.77400 33.57400 26.97100
C  -3.46800 32.08500 29.57900
C  -0.39400 35.76800 29.40500
C  -0.13000 35.16700 24.45800
C  -3.38900 31.54200 24.70000
N  -1.83300 33.84200 29.33100
C  -2.62600 33.07300 30.12500
C  -2.34400 33.26800 31.57800
C  -1.53600 34.64200 31.59500
C  -1.17500 34.82900 30.09000
C  -2.36500 35.91700 32.07700
C  -1.60400 32.03500 32.34100
C  -2.35800 31.39600 33.57400
H  -1.54200 31.44200 34.85700
N  -0.52600 35.31600 26.95500
C  -0.09900 36.05200 28.05900
C  0.85300 37.00600 27.52200
C  0.88400 36.88100 26.06500
C  0.05400 35.72900 25.75900
C  1.57400 37.91900 28.38700
C  1.65900 37.74400 25.00400
O  1.75300 37.45300 23.85600
C  2.38200 39.00500 25.49800
N  -1.73400 33.44100 24.86500
C  -0.90200 34.01900 24.04800
C  -1.04600 33.54100 22.53100
C  -1.90800 32.25000 22.82700
C  -2.43500 32.42100 24.24300
C  -1.74300 34.62700 21.57200
C  -1.19300 30.94900 22.61700
C  -2.12900 29.80800 22.02000
N  -3.13000 32.06500 27.11500
C  -3.77000 31.38500 26.04700
C  -4.75100 30.48600 26.56500
C  -4.65000 30.67000 27.95500
C  -3.68600 31.69900 28.25700
C  -5.67200 29.60800 25.79100
C  -5.05900 30.17500 29.26800
O  -5.90700 29.35800 29.61500
C  -4.40800 31.16900 30.35100
C  -5.47100 32.01800 31.05600
O  -5.73900 33.21400 30.84600
O  -5.99400 31.18700 31.99300
C  -6.91400 31.87300 32.86400
H  0.09600 36.43200 30.12000
H  0.49600 35.55600 23.65300
H  -3.65100 30.86400 23.88500
H  -3.32000 33.45400 32.02700
H  -0.58800 34.61600 32.13200
H  -3.40500 35.63500 32.24200
H  -2.21700 36.67700 31.31100
H  -1.92600 36.45100 32.91900
H  -0.61300 32.30500 32.70500
H  -1.36100 31.29300 31.58100
H  -2.60300 30.34600 33.41700
H  -3.27300 31.96500 33.74100
H  0.83100 38.11400 29.16100
H  1.83300 38.89200 27.96900
H  2.34700 37.41600 28.96900
H  1.58600 39.62900 25.90500
H  2.79900 39.46000 24.60000
H  3.09100 38.68700 26.26100
H  -0.11000 33.12400 22.15800
H  -2.77400 32.28400 22.16600
H  -1.03200 35.42000 21.34500
H  -2.60600 35.20400 21.90400
H  -1.98200 34.07500 20.66300
H  -0.81900 30.57800 23.57200
H  -0.42600 31.14400 21.86600
H  -1.63000 29.36000 21.16100
H  -3.09200 30.24200 21.75100
H  -2.28100 29.01500 22.75200
H  -5.40800 29.60400 24.73300
H  -6.68500 29.99000 25.91900
H  -5.68200 28.57200 26.13100
H  -3.88300 30.60200 31.12000
H  -7.47100 32.58600 32.25600
H  -6.42200 32.44300 33.65300
H  -7.48200 31.04200 33.28100

