158

Mg 35.59200 2.20900 29.75100
C  33.64200 3.45800 32.35400
C  38.39900 2.31900 31.78300
C  37.36400 1.18400 27.13500
C  32.91500 2.81700 27.55000
N  35.98800 3.05200 31.74000
C  34.99300 3.22300 32.72200
C  35.65600 3.37100 34.13600
C  37.17900 3.14100 33.87700
C  37.22000 2.89200 32.37100
C  38.18100 4.17800 34.33300
C  34.92400 2.33900 35.06900
C  34.69800 2.73300 36.56200
H  35.49800 4.02000 37.04600
N  37.59900 1.71400 29.50100
C  38.60900 1.81300 30.46600
C  39.89400 1.17500 30.02900
C  39.56300 0.99500 28.61000
C  38.14100 1.34500 28.35900
C  41.07200 0.91500 30.98800
C  40.50000 0.42200 27.60400
O  40.15200 0.24300 26.43000
C  41.89900 -0.00600 27.93000
N  35.25300 2.12600 27.62000
C  36.10000 1.63100 26.78100
C  35.56100 1.54900 25.30900
C  34.07400 1.91900 25.58900
C  34.05200 2.31600 27.00000
C  36.24400 2.53400 24.39300
C  33.19000 0.62500 25.38200
C  32.29200 0.66300 24.22600
N  33.69900 2.94100 29.86700
C  32.72000 3.12300 28.91100
C  31.52700 3.58300 29.56400
C  31.81500 3.69000 30.88200
C  33.16500 3.33800 31.01600
C  30.16900 3.94300 28.99800
C  31.26000 4.04900 32.13900
O  30.09600 4.40000 32.39000
C  32.48000 3.87900 33.15200
C  32.66100 5.16400 33.85800
O  32.94900 6.22100 33.32400
O  32.41800 4.97800 35.21400
C  32.42000 6.14200 36.07200
H  39.27800 2.26200 32.42900
H  37.98100 0.80200 26.31900
H  31.97500 2.90500 27.00200
H  35.52900 4.39900 34.47500
H  37.42100 2.19300 34.35800
H  37.62000 4.98600 34.80300
H  38.66200 4.54700 33.42700
H  38.88600 3.78700 35.06600
H  35.46900 1.39500 35.05200
H  34.00000 1.94900 34.64400
H  35.15500 1.89900 37.09500
H  33.65000 2.82400 36.85000
H  41.70800 0.11900 30.59900
H  40.51600 0.63500 31.88200
H  41.61000 1.85500 31.11400
H  42.50800 0.87300 28.13900
H  42.32900 -0.42200 27.01900
H  41.76300 -0.77600 28.68900
H  35.70600 0.51400 24.99900
H  33.62400 2.73500 25.02300
H  36.65400 3.38200 24.94200
H  35.72900 2.84000 23.48200
H  37.17800 2.02500 24.15600
H  32.65300 0.40000 26.30300
H  33.80300 -0.27100 25.28000
H  32.47100 -0.19500 23.57800
H  32.06300 1.63700 23.79200
H  31.39400 0.26900 24.70000
H  29.60400 3.07700 28.65100
H  30.22400 4.64100 28.16300
H  29.52400 4.37900 29.76100
H  32.18500 3.11900 33.87600
H  32.62700 5.85300 37.10200
H  31.36200 6.40700 36.08900
H  33.16600 6.86500 35.74400
Mg 41.41500 8.81100 30.33800
C  43.25600 10.01700 32.92500
C  39.01300 7.69400 32.54800
C  39.82800 7.27700 27.79900
C  44.21300 9.43600 28.22300
N  41.32100 8.61000 32.50200
C  42.05600 9.41500 33.31900
C  41.34200 9.72900 34.62200
C  40.11900 8.70800 34.59900
C  40.16200 8.30000 33.10000
C  40.24300 7.50200 35.54200
C  40.98900 11.20800 34.72200
C  40.31100 11.59300 35.98700
H  41.02600 12.03000 37.31500
N  39.57900 7.85500 30.14600
C  38.78800 7.44900 31.18800
C  37.64500 6.76500 30.61600
C  37.71400 6.85700 29.22900
C  39.05600 7.32200 28.99500
C  36.53700 6.28000 31.57000
C  36.70700 6.37500 28.18100
O  36.92500 6.29900 26.97000
C  35.32500 5.96900 28.70600
N  41.97200 8.37300 28.30200
C  41.10200 7.68600 27.50000
C  41.85600 7.60400 26.08700
C  43.08600 8.47800 26.25700
C  43.09600 8.79200 27.67300
C  42.19900 6.11500 25.79700
C  43.20900 9.58700 25.20200
C  42.50500 10.95500 25.41700
N  43.41500 9.57700 30.48500
C  44.44400 9.87800 29.58200
C  45.47300 10.58500 30.25100
C  45.11500 10.64000 31.62300
C  43.85200 9.97400 31.70200
C  46.75300 11.09200 29.56700
C  45.49300 11.07400 32.89100
O  46.45400 11.66200 33.38900
C  44.32500 10.67000 33.82700
C  44.76300 9.52900 34.76400
O  44.49900 8.30800 34.68900
O  45.57700 10.14600 35.66900
C  45.78700 9.19400 36.74000
H  38.30900 7.55800 33.37200
H  39.32600 6.79900 26.95500
H  45.10600 9.82300 27.72900
H  42.08200 9.52900 35.39700
H  39.11600 9.08200 34.80500
H  39.60800 7.57700 36.42500
H  41.29100 7.38200 35.81700
H  39.82100 6.61700 35.06600
H  40.43700 11.47500 33.82100
H  41.86700 11.85200 34.66700
H  39.76600 10.69500 36.27700
H  39.46300 12.24500 35.77400
H  36.07100 7.22300 31.85700
H  36.95100 5.84200 32.47800
H  35.87000 5.55600 31.10100
H  34.63600 5.95800 27.86200
H  35.00500 6.76000 29.38400
H  35.40000 4.98800 29.17400
H  41.29500 7.99100 25.23700
H  44.00200 7.88700 26.27500
H  41.89800 6.06300 24.75100
H  41.84700 5.44900 26.58500
H  43.26900 5.92600 25.70700
H  42.93100 9.33900 24.17800
H  44.26700 9.84400 25.15400
H  43.22700 11.76600 25.32200
H  42.03400 10.96100 26.40000
H  41.74200 11.12300 24.65600
H  46.56800 11.22000 28.50100
H  47.58400 10.39000 29.63200
H  47.06300 12.08900 29.88300
H  43.93200 11.56000 34.31700
H  44.92300 8.91100 37.34000
H  46.50700 9.68900 37.39300
H  46.25300 8.30700 36.31100

