158

Mg 47.63800 25.20000 28.22700
C  48.69600 27.39700 30.77300
C  46.75500 22.98000 30.64100
C  46.87300 23.01300 25.73700
C  48.61100 27.58600 25.78500
N  47.75100 25.24800 30.47100
C  48.05600 26.30500 31.31000
C  47.71200 26.05500 32.74800
C  47.18800 24.55700 32.61400
C  47.30900 24.18000 31.19600
C  47.78100 23.56100 33.65200
C  46.70900 26.96100 33.45500
C  47.02500 27.20300 34.99200
H  46.00000 27.77800 35.99600
N  46.94400 23.24800 28.21600
C  46.66000 22.46400 29.32900
C  46.11900 21.18100 28.88400
C  46.11800 21.20400 27.42200
C  46.67700 22.53800 27.08800
C  45.65800 20.09700 29.80600
C  45.70200 20.15400 26.39300
O  45.79200 20.34100 25.13800
C  45.32600 18.81200 26.77900
N  47.87600 25.23800 26.11200
C  47.44900 24.23000 25.31700
C  47.65300 24.56700 23.78800
C  47.93800 26.09100 23.84900
C  48.26200 26.36900 25.34300
C  48.71000 23.70200 23.05300
C  46.80500 27.04500 23.31700
C  45.61100 27.31100 24.26800
N  48.69900 26.98900 28.18800
C  48.88000 27.89300 27.14100
C  49.35900 29.14300 27.67500
C  49.33300 28.97600 29.07900
C  48.91200 27.67000 29.40200
C  49.74400 30.32600 26.93300
C  49.57200 29.69100 30.38500
O  50.07500 30.81400 30.58200
C  49.02800 28.65700 31.47800
C  50.07000 28.56000 32.55300
O  50.97400 27.71100 32.63100
O  49.74800 29.39800 33.55000
C  50.63900 29.16200 34.79300
H  46.26800 22.34600 31.38500
H  46.50300 22.39100 24.92000
H  48.83100 28.31800 25.00500
H  48.61500 26.10500 33.35700
H  46.13900 24.66300 32.89000
H  48.71600 23.10900 33.32400
H  46.99700 22.84900 33.91000
H  47.93600 24.03100 34.62400
H  45.68200 26.59700 33.44600
H  46.71000 27.91600 32.92900
H  47.83400 27.93200 35.03300
H  47.39400 26.25200 35.37700
H  44.56900 20.14900 29.83500
H  45.97200 20.35300 30.81800
H  45.99600 19.12000 29.46000
H  45.93200 18.43700 27.60300
H  45.49600 18.13500 25.94200
H  44.30600 18.82700 27.16300
H  46.69400 24.41100 23.29300
H  48.80400 26.39200 23.25900
H  48.26000 23.16300 22.21900
H  49.11600 23.01600 23.79600
H  49.60200 24.15200 22.61600
H  46.50200 26.64500 22.34900
H  47.26800 27.97800 22.99600
H  45.77100 26.94200 25.28100
H  44.72000 26.80500 23.89600
H  45.32100 28.36100 24.23700
H  50.76800 30.26600 26.56200
H  49.71100 31.20000 27.58200
H  49.07600 30.44700 26.08100
H  48.13400 29.13000 31.88600
H  49.94200 28.78300 35.54000
H  51.00900 30.11800 35.16200
H  51.51100 28.51700 34.68400
Mg 16.83000 51.80100 25.79500
C  18.64400 50.11100 28.30200
C  14.77500 53.10700 28.17700
C  14.73600 52.78100 23.23700
C  18.76100 50.15500 23.44500
N  16.67700 51.57500 27.98400
C  17.53400 50.84800 28.79600
C  16.98300 50.78800 30.22200
C  15.74100 51.79500 30.23400
C  15.69000 52.19400 28.72700
C  14.44100 51.17100 30.82800
C  18.01700 51.31200 31.32100
C  17.74300 50.76300 32.72100
H  16.94400 51.60300 33.66500
N  15.12500 52.98200 25.73300
C  14.46100 53.51700 26.82900
C  13.32300 54.22300 26.39200
C  13.30000 54.20300 24.95500
C  14.41100 53.27000 24.55200
C  12.23800 54.71600 27.34800
C  12.54700 55.01200 23.92000
O  12.86600 54.98600 22.75200
C  11.40300 55.83100 24.44800
N  16.74600 51.56400 23.61100
C  15.80600 52.08900 22.84700
C  16.05300 51.63900 21.34200
C  17.51500 51.05300 21.37400
C  17.71400 50.90000 22.88600
C  15.04500 50.60300 20.77700
C  18.66500 51.80600 20.67300
C  19.90400 52.33300 21.36000
N  18.36200 50.41100 25.84500
C  19.05600 49.86700 24.78200
C  20.15900 49.03700 25.26300
C  20.04000 49.09000 26.63300
C  18.94300 49.96000 26.94000
C  21.17500 48.29800 24.39600
C  20.62500 48.65400 27.90300
O  21.62300 47.99000 28.12200
C  19.76300 49.30600 29.06500
C  19.36300 48.23300 30.06700
O  18.64100 47.33000 29.85400
O  19.97200 48.48200 31.28600
C  19.54500 47.56200 32.36000
H  14.17400 53.46400 29.01600
H  13.98400 52.87100 22.45000
H  19.51000 49.86000 22.70700
H  16.81300 49.72300 30.38500
H  15.90800 52.69100 30.83100
H  14.73400 50.32600 31.45200
H  13.74500 50.90000 30.03400
H  14.04200 51.87000 31.56300
H  18.10800 52.39700 31.36900
H  19.02500 50.89900 31.27300
H  18.70300 50.67400 33.23000
H  17.19300 49.82500 32.65900
H  11.39200 54.02800 27.36200
H  12.01200 55.77100 27.19500
H  12.56700 54.73400 28.38600
H  10.59600 56.11300 23.77200
H  11.67000 56.71300 25.03100
H  10.91700 55.26600 25.24400
H  16.02800 52.49200 20.66400
H  17.61200 50.03500 20.99800
H  14.08000 50.54000 21.28000
H  15.41900 49.59200 20.61800
H  14.85900 50.85200 19.73200
H  18.26200 52.65800 20.12600
H  19.12300 51.12500 19.95600
H  19.91400 52.24700 22.44600
H  20.00300 53.36700 21.03100
H  20.80100 51.81200 21.02500
H  20.68900 47.95800 23.48200
H  21.54200 47.40400 24.90100
H  22.06700 48.88300 24.16900
H  20.29500 50.10000 29.59100
H  18.73200 47.98100 32.95200
H  20.35900 47.51100 33.08300
H  19.33500 46.56500 31.97100

