158

Mg 0.80900 8.01900 27.04600
C  1.70100 10.05200 29.73400
C  0.71900 5.37100 29.25000
C  0.58600 6.02900 24.32300
C  1.09100 10.72500 24.92000
N  1.17300 7.78100 29.18900
C  1.31000 8.76000 30.11600
C  1.08200 8.28200 31.57800
C  1.17400 6.72900 31.29000
C  0.95900 6.65000 29.78400
C  2.49100 6.03400 31.79600
C  -0.20100 8.79700 32.31200
C  -0.22000 8.91700 33.81800
H  1.00700 8.55400 34.66100
N  0.72600 5.94400 26.81400
C  0.68100 5.06100 27.87200
C  0.73000 3.70700 27.23500
C  0.62100 3.86300 25.83000
C  0.64000 5.33500 25.61900
C  0.72000 2.40600 27.98700
C  0.46400 2.90700 24.75400
O  0.45100 3.31200 23.60700
C  0.30400 1.43100 24.96600
N  1.01200 8.33200 24.88900
C  0.63900 7.39800 24.00300
C  0.61100 7.93800 22.53300
C  0.38300 9.49200 22.88400
C  0.78600 9.50700 24.33200
C  1.91000 7.69400 21.72100
C  -1.05800 9.87300 22.45000
C  -1.21500 10.86100 21.23200
N  1.45200 10.01400 27.20100
C  1.50600 10.98500 26.31000
C  1.99100 12.15300 26.90900
C  2.14000 11.83600 28.30600
C  1.78800 10.53500 28.42800
C  1.99800 13.57000 26.33700
C  2.44000 12.44300 29.58000
O  2.83300 13.51900 30.05700
C  2.10800 11.30500 30.59000
C  3.33900 11.16400 31.45700
O  4.34300 10.58200 31.16400
O  3.05600 11.79000 32.61300
C  4.04400 11.80300 33.67900
H  0.66600 4.57500 29.99500
H  0.38600 5.42700 23.43400
H  0.95300 11.58800 24.26600
H  1.99600 8.50600 32.12900
H  0.35500 6.18000 31.75400
H  3.06600 6.77200 32.35600
H  3.14800 5.85800 30.94500
H  2.19900 5.14200 32.35000
H  -1.00200 8.13000 31.99500
H  -0.39100 9.79200 31.91000
H  -0.99300 8.20000 34.09300
H  -0.63100 9.89600 34.06500
H  0.95300 2.63800 29.02600
H  1.47900 1.78400 27.51200
H  -0.25700 1.92300 27.99400
H  -0.04200 0.88600 24.08700
H  -0.37500 1.22100 25.79200
H  1.25900 1.02700 25.30200
H  -0.25200 7.51700 22.01600
H  1.15000 10.01200 22.31000
H  2.41200 8.62400 21.45200
H  1.69100 7.23700 20.75600
H  2.61600 7.12500 22.32600
H  -1.53900 10.25700 23.34900
H  -1.68000 9.02200 22.17100
H  -0.28500 10.92300 20.66700
H  -1.64400 11.83400 21.46900
H  -1.98900 10.36900 20.64300
H  2.65700 14.30700 26.79500
H  0.97700 13.93900 26.43800
H  2.20100 13.55300 25.26600
H  1.21400 11.64600 31.11300
H  4.53600 12.77500 33.72200
H  4.83600 11.05500 33.67000
H  3.52400 11.73400 34.63400
Mg -10.48100 39.18400 41.15800
C  -9.06800 35.85000 40.39100
C  -7.65900 40.45300 39.76100
C  -12.02800 42.01700 41.15800
C  -13.41500 37.39100 42.19600
N  -8.79300 38.23000 39.85300
C  -8.35300 36.92400 39.87200
C  -7.04600 36.81200 39.18700
C  -6.46300 38.28000 39.32700
C  -7.70800 39.02200 39.72900
C  -5.38200 38.46500 40.41200
C  -7.20900 36.16300 37.79600
C  -6.00500 35.43200 37.21800
H  -5.39900 36.18100 35.97000
N  -9.94500 41.05000 40.54500
C  -8.66300 41.33900 40.07500
C  -8.73100 42.76900 39.70300
C  -9.92200 43.35500 40.25200
C  -10.66500 42.16700 40.74400
C  -7.70400 43.57100 38.95400
C  -10.33000 44.74200 40.32300
O  -9.77700 45.59100 39.68300
C  -11.42400 45.18200 41.16400
N  -12.41700 39.62300 41.66800
C  -12.82200 40.91800 41.57900
C  -14.31700 40.95600 41.94000
C  -14.66300 39.55100 42.38900
C  -13.43300 38.80500 42.13200
C  -14.94300 42.16400 42.73000
C  -15.91600 38.98600 41.63100
C  -16.91100 38.18900 42.43500
N  -11.15200 37.05700 41.35200
C  -12.26300 36.56300 41.89300
C  -12.13400 35.18000 42.11000
C  -10.88500 34.85800 41.53700
C  -10.35600 35.98200 40.99300
C  -13.17000 34.30500 42.64000
C  -10.00300 33.77000 41.24900
O  -10.04400 32.56100 41.60300
C  -8.85000 34.39700 40.32500
C  -7.51400 33.88300 40.72900
O  -6.67900 33.49600 39.95800
O  -7.36600 33.95100 42.07300
C  -6.12600 33.60600 42.68600
H  -6.79900 40.92800 39.28500
H  -12.60200 42.93200 40.99400
H  -14.27500 36.85100 42.59900
H  -6.30200 36.21000 39.70900
H  -6.07300 38.58100 38.35500
H  -5.65200 39.07900 41.27000
H  -4.40600 38.77400 40.03600
H  -5.25900 37.50000 40.90400
H  -7.49000 36.89500 37.03900
H  -7.94800 35.36700 37.88400
H  -6.29600 34.41600 36.95000
H  -5.22800 35.50000 37.98000
H  -7.33100 44.51800 39.34600
H  -7.89600 43.80900 37.90800
H  -6.80200 42.98500 38.77900
H  -11.21600 46.18300 41.54300
H  -11.39200 44.50100 42.01400
H  -12.33500 45.21500 40.56600
H  -14.65500 41.10000 40.91400
H  -14.86600 39.53500 43.46000
H  -15.72300 42.51900 42.05700
H  -14.11400 42.85100 42.89600
H  -15.52900 41.89100 43.60800
H  -15.49700 38.44900 40.78000
H  -16.42500 39.77200 41.07300
H  -16.74000 38.11400 43.50900
H  -16.82300 37.20700 41.97200
H  -17.91900 38.59500 42.35900
H  -14.12800 34.33800 42.12000
H  -13.34600 34.43200 43.70800
H  -12.73800 33.31200 42.51400
H  -9.06100 34.16000 39.28200
H  -5.58500 32.73000 42.32700
H  -6.31700 33.47000 43.75100
H  -5.43700 34.43700 42.53600

