158

Mg 35.59800 1.89600 30.20800
C  33.21100 2.66400 32.66200
C  38.02400 1.66100 32.65400
C  37.91400 1.42200 27.82800
C  33.22700 2.39400 27.74900
N  35.64700 2.25000 32.41700
C  34.51500 2.45800 33.22200
C  34.93000 2.45900 34.69700
C  36.46800 2.38400 34.68000
C  36.75100 2.08700 33.16100
C  37.14600 3.79600 35.00000
C  34.26700 1.21700 35.44300
C  33.79300 1.49200 36.88300
H  34.50000 2.51800 37.77600
N  37.73200 1.52600 30.24100
C  38.47500 1.41000 31.34300
C  39.80900 1.03000 30.93200
C  39.86700 1.13200 29.51400
C  38.44600 1.36400 29.14100
C  40.85200 0.88000 31.97600
C  41.06400 1.00900 28.61300
O  40.94700 1.21900 27.40500
C  42.39300 0.70000 29.14700
N  35.50700 1.67800 28.17500
C  36.63500 1.52900 27.36500
C  36.33500 1.52500 25.91900
C  34.73600 1.65900 25.88300
C  34.48100 1.98200 27.28700
C  36.95200 2.64500 25.07900
C  33.99300 0.53000 25.12100
C  33.47400 -0.68900 25.97900
N  33.64800 2.32700 30.15600
C  32.80100 2.59800 29.01900
C  31.52200 2.89300 29.51500
C  31.61600 2.96500 30.89300
C  32.89100 2.59400 31.25600
C  30.33600 3.15900 28.59800
C  30.89200 3.33300 32.11100
O  29.75900 3.77600 32.34100
C  31.86200 2.94900 33.30600
C  32.00400 4.19300 34.20100
O  32.30500 5.31500 33.80000
O  31.69100 3.88500 35.52800
C  31.61000 5.09900 36.38000
H  38.72800 1.54000 33.48000
H  38.54700 0.99100 27.05000
H  32.55000 2.54100 26.90400
H  34.63200 3.41700 35.12200
H  36.83400 1.62300 35.36900
H  38.16800 3.61100 35.32900
H  36.57500 4.35600 35.74000
H  37.21100 4.49000 34.16200
H  34.89100 0.32800 35.34500
H  33.38800 0.90100 34.88100
H  33.74600 0.51600 37.36600
H  32.78200 1.87400 36.74500
H  41.74500 0.31700 31.70600
H  40.36800 0.22000 32.69500
H  41.13000 1.79300 32.50400
H  42.75900 1.52300 29.76100
H  43.08700 0.59300 28.31400
H  42.49200 -0.25700 29.66000
H  36.68200 0.56000 25.54900
H  34.37200 2.56100 25.39200
H  37.30300 3.44700 25.72900
H  36.19400 3.12800 24.46300
H  37.69800 2.17200 24.44100
H  34.73100 -0.02900 24.54700
H  33.14500 0.82300 24.50200
H  33.87200 -1.62900 25.59700
H  32.39800 -0.79100 25.83500
H  33.69700 -0.66600 27.04600
H  30.37700 2.50500 27.72800
H  30.59100 4.09900 28.10900
H  29.34700 3.06200 29.04400
H  31.48100 2.06200 33.81200
H  30.56000 5.38700 36.42500
H  32.21500 5.99200 36.22400
H  31.74200 4.67100 37.37400
Mg 50.50800 45.62000 42.30300
C  47.49100 47.05000 41.04100
C  49.54300 42.59600 41.23400
C  53.70200 44.62700 42.78300
C  51.62300 48.96800 42.82000
N  48.84200 44.99200 41.13600
C  47.71100 45.69600 40.83300
C  46.63500 44.73100 40.31900
C  47.19100 43.38200 40.53500
C  48.62200 43.64900 41.06900
C  46.33200 42.43100 41.50900
C  46.39200 45.05800 38.81000
C  44.91200 45.11800 38.37400
H  44.29500 43.91000 37.59700
N  51.53000 43.77500 42.03500
C  50.88500 42.64000 41.67800
C  51.87600 41.57800 41.70100
C  53.12500 42.15200 42.09100
C  52.85100 43.59200 42.30500
C  51.52600 40.14300 41.30700
C  54.43800 41.42700 42.25700
O  54.48800 40.20800 42.22000
C  55.74500 42.12500 42.46200
N  52.37200 46.75200 42.65000
C  53.48500 46.03200 42.95700
C  54.65300 46.87300 43.46500
C  54.00800 48.20400 43.36800
C  52.51200 48.00200 43.09000
C  55.29800 46.56900 44.89200
C  54.66900 49.30800 42.42500
C  55.64300 50.32200 42.99800
N  49.72400 47.58500 42.04900
C  50.30600 48.86100 42.30200
C  49.36900 49.95600 42.01900
C  48.21700 49.24000 41.66900
C  48.49400 47.83900 41.63100
C  49.61100 51.40600 42.15300
C  46.80200 49.41500 41.34300
O  46.06700 50.38200 41.28400
C  46.37800 48.04100 40.80400
C  45.10300 47.63400 41.55600
O  44.96400 47.44900 42.74500
O  44.11600 47.41600 40.58800
C  42.86700 47.16500 41.21100
H  48.98900 41.71800 40.89400
H  54.71300 44.40800 43.13200
H  52.07600 49.88000 43.21400
H  45.81000 44.84300 41.02300
H  47.41600 42.83200 39.62200
H  45.44200 42.92700 41.89500
H  46.97100 42.05900 42.31000
H  45.95100 41.61900 40.88900
H  46.94200 44.27700 38.28600
H  46.75700 46.04600 38.52800
H  44.73800 46.13900 38.03400
H  44.33800 45.01900 39.29500
H  52.09400 39.78100 40.45000
H  50.48100 39.94900 41.06900
H  51.79300 39.48800 42.13700
H  55.93300 42.57700 43.43600
H  55.84200 42.96300 41.77300
H  56.55800 41.42700 42.26000
H  55.34400 46.63800 42.65500
H  53.90500 48.58100 44.38600
H  56.30000 46.21600 44.65100
H  54.76100 45.64900 45.12400
H  55.14700 47.36100 45.62600
H  53.93100 49.77100 41.77000
H  55.30000 48.72100 41.75700
H  56.61700 50.14700 42.54000
H  55.78000 50.15000 44.06600
H  55.17700 51.28800 42.80300
H  48.72800 52.01300 41.95500
H  50.40500 51.71000 41.47100
H  49.96500 51.67000 43.15000
H  46.07600 48.15200 39.76200
H  42.66700 47.79300 42.07800
H  42.66600 46.12300 41.45900
H  42.16600 47.42600 40.41800

