158

Mg 27.46900 50.38500 25.81100
C  25.18200 51.17200 28.37900
C  29.48000 48.80700 28.07700
C  29.75600 49.90700 23.33300
C  25.18300 51.55200 23.45300
N  27.35700 50.22500 27.97600
C  26.33000 50.50100 28.80200
C  26.58900 50.06200 30.25500
C  28.06900 49.47800 30.08600
C  28.36600 49.47300 28.60900
C  29.17500 50.21800 30.84700
C  25.55800 49.14100 30.93700
C  24.83000 49.67900 32.25500
H  25.74500 50.15600 33.39600
N  29.34300 49.48500 25.74500
C  30.05700 48.83800 26.79000
C  31.21600 48.19000 26.24600
C  31.36500 48.67100 24.91500
C  30.18800 49.45400 24.63900
C  32.12700 47.41900 27.17100
C  32.52700 48.61800 23.99900
O  32.56300 49.10800 22.87700
C  33.74800 47.88600 24.49300
N  27.49000 50.77200 23.72600
C  28.49800 50.34500 22.93800
C  28.07800 50.30200 21.44300
C  26.54800 50.62900 21.51600
C  26.39200 51.05400 22.99700
C  29.03000 51.13200 20.49800
C  25.61000 49.47200 21.09500
C  24.83100 49.76200 19.77900
N  25.59700 51.31100 25.83300
C  24.82600 51.76200 24.82500
C  23.60300 52.36300 25.37300
C  23.68800 52.15000 26.76300
C  24.92400 51.45000 27.00200
C  22.51700 53.08000 24.63700
C  23.00300 52.32600 28.02400
O  21.91800 52.79700 28.32400
C  24.03700 51.76700 29.11300
C  24.43300 52.98900 29.91500
O  25.38500 53.65800 29.68900
O  23.64800 53.10100 31.08500
C  23.99800 54.25300 31.97700
H  30.06000 48.25100 28.81600
H  30.40900 49.67100 22.48900
H  24.52600 51.75100 22.60300
H  26.60000 51.01500 30.78500
H  28.03200 48.45000 30.44900
H  29.56200 49.47700 31.54600
H  28.75300 50.98600 31.49600
H  30.07000 50.52700 30.30600
H  26.03200 48.18400 31.15800
H  24.70300 48.97100 30.28200
H  24.34200 48.78500 32.64200
H  24.21400 50.55000 32.02800
H  32.75400 48.17000 27.65200
H  32.83000 46.67800 26.79200
H  31.52100 46.88100 27.90000
H  33.70400 46.79700 24.48800
H  33.91900 48.25900 25.50300
H  34.50100 48.28200 23.81200
H  28.13000 49.25000 21.16000
H  26.34700 51.49500 20.88500
H  29.48500 50.39000 19.84200
H  29.75200 51.65600 21.12400
H  28.46700 51.69600 19.75400
H  24.81600 49.33700 21.83100
H  26.07800 48.50300 20.92500
H  25.26200 48.98200 19.15100
H  25.15200 50.68500 19.29700
H  23.74800 49.63900 19.76400
H  21.79600 53.66700 25.20600
H  22.04800 52.32800 24.00300
H  23.02500 53.78300 23.97600
H  23.49700 51.03600 29.71500
H  24.67800 53.87300 32.73900
H  23.03500 54.56900 32.37800
H  24.41200 55.11400 31.45200
Mg 9.61600 47.87300 26.27500
C  7.63300 47.89700 29.20800
C  12.23900 49.05600 28.09600
C  11.36100 47.44100 23.52100
C  6.63000 46.96800 24.46900
N  9.78500 48.48200 28.44000
C  8.95200 48.28300 29.49400
C  9.59900 48.58400 30.80300
C  10.80900 49.38400 30.30900
C  11.03100 48.97500 28.83800
C  10.69900 50.94100 30.42900
C  10.09500 47.33100 31.57800
C  10.82300 47.61300 32.85700
H  10.57900 46.60000 33.99600
N  11.52500 48.35200 25.89500
C  12.52500 48.81400 26.75000
C  13.78700 48.86800 26.00700
C  13.50700 48.45200 24.68500
C  12.11100 47.99400 24.68500
C  15.04200 49.40400 26.56400
C  14.45800 48.42900 23.58700
O  14.02300 47.96100 22.56800
C  15.84800 48.85400 23.67500
N  8.99600 47.32900 24.20900
C  10.01200 47.19200 23.33700
C  9.53800 46.61500 21.99700
C  7.94500 46.43800 22.22100
C  7.82900 46.89300 23.75500
C  9.94000 47.43600 20.76000
C  7.49300 44.93000 21.91100
C  7.62900 43.96900 23.01200
N  7.52700 47.57100 26.64300
C  6.44600 47.27600 25.82200
C  5.23700 47.24400 26.63000
C  5.70500 47.39800 27.96600
C  7.06300 47.66300 27.91500
C  3.79800 46.88800 26.16600
C  5.35200 47.35500 29.35800
O  4.35800 47.05500 29.90900
C  6.55300 47.73500 30.14700
C  6.76200 46.57700 31.07100
O  6.87800 45.42000 30.78600
O  6.68500 47.04600 32.32000
C  6.21900 46.11900 33.34500
H  13.06700 49.28400 28.77200
H  11.92600 47.11600 22.64600
H  5.71400 46.75700 23.91300
H  8.89200 49.13900 31.41900
H  11.76600 49.15000 30.77600
H  9.95000 51.34000 31.11400
H  10.45600 51.41700 29.47900
H  11.70300 51.23400 30.73700
H  10.74900 46.78600 30.89700
H  9.31600 46.58600 31.73900
H  10.27600 48.49400 33.19000
H  11.84300 47.99100 32.79300
H  14.99900 49.58000 27.63900
H  15.44400 50.31500 26.12000
H  15.89300 48.73100 26.45900
H  16.47100 48.35800 24.42000
H  15.99300 49.91800 23.86200
H  16.34900 48.55400 22.75500
H  10.00700 45.64700 21.82000
H  7.36700 47.11400 21.59000
H  9.08400 48.08400 20.57500
H  10.08300 46.76100 19.91500
H  10.75000 48.13300 20.97400
H  8.14300 44.59700 21.10300
H  6.47000 45.01400 21.54400
H  8.34200 44.34800 23.74400
H  8.15700 43.09300 22.63500
H  6.62700 43.76600 23.39200
H  3.74300 47.32900 25.17000
H  3.00300 47.33000 26.76700
H  3.63700 45.81000 26.17800
H  6.41700 48.63500 30.74700
H  5.48600 46.69600 33.90900
H  7.07100 45.99300 34.01300
H  5.88400 45.13600 33.01200

