158

Mg 24.08400 -5.47500 46.23400
C  26.37400 -3.15700 45.11500
C  21.69200 -4.29800 44.07300
C  22.08700 -8.22200 47.04400
C  26.64500 -6.86600 48.27800
N  24.06600 -3.99400 44.79000
C  25.07700 -3.08600 44.57100
C  24.68000 -2.02700 43.60700
C  23.07700 -2.26100 43.48500
C  22.90700 -3.63500 44.11100
C  22.04500 -1.14900 44.14900
C  25.44700 -2.16200 42.25800
C  25.81700 -0.88000 41.57200
H  25.24500 -0.79000 40.17400
N  22.12300 -6.10300 45.69400
C  21.32800 -5.45700 44.81500
C  20.02400 -6.07200 44.88400
C  20.08700 -7.27400 45.57500
C  21.47500 -7.24400 46.16700
C  18.80400 -5.61500 44.09700
C  19.00300 -8.34600 45.69400
O  17.92700 -8.11500 45.15700
C  19.22000 -9.68900 46.26500
N  24.23300 -7.22500 47.52500
C  23.30900 -8.20800 47.67200
C  23.89500 -9.43400 48.45600
C  25.19300 -8.81200 49.11600
C  25.41100 -7.54800 48.25300
C  22.98700 -10.18300 49.34600
C  26.41000 -9.69700 49.03900
C  27.02800 -9.98000 47.63200
N  26.17500 -5.17300 46.64700
C  27.04600 -5.67600 47.53000
C  28.31000 -4.90100 47.49900
C  28.07000 -3.95600 46.51900
C  26.79500 -4.11100 46.03000
C  29.51100 -5.13800 48.37400
C  28.70300 -2.90900 45.77100
O  29.86400 -2.47500 45.74300
C  27.58400 -2.27600 44.81600
C  27.53600 -0.83100 45.06100
O  26.84100 -0.27600 45.93800
O  28.27000 -0.08600 44.09200
C  28.11200 1.41100 44.09000
H  20.89700 -3.96100 43.40500
H  21.57600 -9.17500 47.20000
H  27.41800 -7.28300 48.92700
H  24.88200 -1.04600 44.03900
H  22.71200 -2.28700 42.45900
H  22.69200 -0.38100 44.57400
H  21.37100 -1.75500 44.75400
H  21.45200 -0.68100 43.36300
H  24.80100 -2.73300 41.59000
H  26.38600 -2.70200 42.38000
H  26.88100 -0.64500 41.61300
H  25.38900 -0.10000 42.20200
H  18.69800 -5.94000 43.06200
H  18.80600 -4.52500 44.10000
H  17.93500 -5.93300 44.67300
H  19.48200 -9.39800 47.28200
H  20.10500 -10.17900 45.86000
H  18.32300 -10.29600 46.14500
H  24.24800 -10.17500 47.73900
H  24.99300 -8.43700 50.12000
H  21.99700 -9.72900 49.37500
H  23.31600 -10.14600 50.38400
H  22.96700 -11.16600 48.87500
H  26.31200 -10.67000 49.52100
H  27.07700 -9.22400 49.76000
H  27.14200 -11.05100 47.46700
H  28.05700 -9.62900 47.71300
H  26.48000 -9.45500 46.84900
H  30.46700 -4.96400 47.87800
H  29.59800 -6.12900 48.81800
H  29.46200 -4.45200 49.21900
H  27.91300 -2.43600 43.78900
H  27.25000 1.73100 43.50500
H  28.97500 1.86300 43.60000
H  27.94800 1.79700 45.09600
Mg -12.96000 15.65800 41.99000
C  -9.89000 14.22800 41.67400
C  -11.61800 18.61700 40.39200
C  -16.05600 17.07000 41.72700
C  -14.29300 12.69600 42.99700
N  -10.91400 16.29700 41.19100
C  -9.79300 15.53600 41.18700
C  -8.59700 16.14800 40.42600
C  -9.18300 17.57800 40.08900
C  -10.71600 17.49300 40.52300
C  -8.44500 18.78100 40.75800
C  -8.43700 15.27800 39.14200
C  -7.01400 14.91100 38.73000
H  -6.34200 15.81700 37.67400
N  -13.73800 17.61700 41.31200
C  -13.00000 18.64800 40.72600
C  -13.90200 19.66700 40.33800
C  -15.22100 19.17100 40.51000
C  -15.05900 17.91700 41.24800
C  -13.47800 20.94000 39.57500
C  -16.54300 19.83000 40.14100
O  -16.60200 20.99600 39.75800
C  -17.90700 19.15300 40.31500
N  -14.89300 14.96400 42.30400
C  -16.01400 15.75400 42.25400
C  -17.25900 14.85100 42.60800
C  -16.69800 13.38900 42.82800
C  -15.17800 13.67100 42.72700
C  -18.10500 15.35500 43.84000
C  -17.31700 12.25500 41.93100
C  -17.63700 10.89700 42.51600
N  -12.33300 13.84200 42.29100
C  -12.94700 12.68700 42.84100
C  -11.97700 11.62100 43.12400
C  -10.73900 12.21800 42.72200
C  -11.01200 13.55200 42.20200
C  -12.19400 10.21700 43.64900
C  -9.35600 12.06600 42.73300
O  -8.73600 11.07100 43.16800
C  -8.74600 13.21200 41.89200
C  -7.60800 13.76000 42.67800
O  -7.60600 14.17500 43.79700
O  -6.51300 13.82300 41.87300
C  -5.27300 14.36900 42.52100
H  -11.27600 19.53800 39.91500
H  -17.12000 17.31300 41.76600
H  -14.70600 11.81600 43.49400
H  -7.68900 16.12800 41.02900
H  -9.12800 17.77300 39.01800
H  -7.39200 18.62200 40.98600
H  -8.79800 18.92200 41.77900
H  -8.63100 19.73700 40.26800
H  -8.76800 15.87500 38.29200
H  -9.10300 14.42600 39.00400
H  -7.01600 13.91400 38.29100
H  -6.32100 14.81700 39.56600
H  -14.27700 21.27900 38.91600
H  -12.65100 20.84200 38.87200
H  -13.18800 21.77500 40.21200
H  -17.82100 18.24800 39.71400
H  -18.61500 19.88100 39.91800
H  -18.11100 19.11900 41.38500
H  -17.90300 14.93700 41.73300
H  -16.96800 13.06200 43.83200
H  -18.64900 14.59900 44.40600
H  -18.91400 16.04600 43.60500
H  -17.31100 15.73900 44.48200
H  -16.89700 12.15000 40.93100
H  -18.25100 12.74100 41.64900
H  -17.28600 10.15100 41.80200
H  -18.68900 10.68500 42.70900
H  -17.07500 10.80400 43.44500
H  -12.56600 10.15300 44.67200
H  -11.28800 9.62400 43.52500
H  -13.00200 9.80600 43.04400
H  -8.40400 12.77700 40.95300
H  -4.64800 13.56400 42.90600
H  -5.47500 15.18600 43.21300
H  -4.69400 14.85400 41.73500

