158

Mg 2.46600 -1.59100 44.05400
C  5.73000 -0.26100 43.27600
C  1.24700 1.24700 42.49600
C  -0.48300 -2.87600 44.35900
C  4.05100 -4.54900 45.09100
N  3.42800 0.22100 42.85500
C  4.77500 0.59900 42.75100
C  4.92600 1.95700 42.11800
C  3.48300 2.47700 42.03000
C  2.64400 1.29500 42.47400
C  3.30900 3.68500 42.95500
C  5.70400 1.68100 40.75600
C  6.83600 2.63400 40.17300
H  6.53300 2.93600 38.73600
N  0.60900 -0.96100 43.47700
C  0.32900 0.24900 42.90700
C  -1.10700 0.37400 42.85600
C  -1.69800 -0.85600 43.46000
C  -0.50400 -1.60600 43.81100
C  -1.79200 1.74500 42.44300
C  -3.18100 -1.10200 43.74100
O  -3.96500 -0.33700 43.22500
C  -3.68800 -2.34700 44.48700
N  1.95500 -3.46200 44.56400
C  0.61600 -3.77600 44.64200
C  0.42500 -5.28900 44.96300
C  1.79200 -5.73900 45.37700
C  2.67000 -4.51800 44.93900
C  -0.79100 -5.56900 45.92100
C  2.27200 -7.09100 44.69500
C  2.93500 -8.14200 45.53300
N  4.45400 -2.19600 44.33000
C  4.95800 -3.41600 44.81100
C  6.38000 -3.37800 44.98700
C  6.70800 -2.07600 44.40000
C  5.51000 -1.46900 43.98800
C  7.27400 -4.37400 45.62500
C  7.79500 -1.20900 44.05300
O  8.99200 -1.35700 44.18700
C  7.20700 -0.01100 43.31500
C  7.44800 1.14700 44.14100
O  6.81400 1.38500 45.17500
O  8.48500 1.89300 43.64000
C  9.10600 2.84400 44.58400
H  0.80900 2.16700 42.10300
H  -1.50600 -3.25000 44.44500
H  4.59400 -5.37500 45.55400
H  5.52500 2.65200 42.70700
H  3.13700 2.65800 41.01200
H  2.33200 3.63400 43.43600
H  3.30100 4.53100 42.26800
H  4.14900 3.88100 43.62000
H  4.87500 1.63600 40.04900
H  6.08600 0.66100 40.71400
H  7.80300 2.15200 40.31900
H  6.95900 3.59700 40.66700
H  -2.86800 1.81600 42.59900
H  -1.61100 1.87800 41.37600
H  -1.27700 2.54500 42.97600
H  -3.11700 -2.37700 45.41600
H  -3.53100 -3.22700 43.86400
H  -4.71500 -2.01000 44.62800
H  0.14100 -5.70200 43.99500
H  1.77600 -5.83800 46.46200
H  -1.24700 -4.65200 46.29400
H  -0.42900 -6.11700 46.79100
H  -1.57100 -6.09300 45.36800
H  2.99400 -6.83700 43.91900
H  1.41600 -7.63600 44.29600
H  3.51700 -7.72000 46.35300
H  3.70000 -8.60100 44.90700
H  2.26500 -8.89400 45.94700
H  8.27500 -4.06900 45.32100
H  7.05200 -5.36100 45.21700
H  7.14700 -4.30600 46.70500
H  7.66700 0.02200 42.32800
H  8.87400 2.77100 45.64600
H  9.13800 3.89200 44.28600
H  10.08900 2.37400 44.60000
Mg 42.55300 41.69000 25.41800
C  42.08400 44.34100 27.67800
C  43.94900 39.89500 28.07800
C  43.58900 39.41100 23.32400
C  41.97800 43.96000 22.79800
N  42.92700 42.10200 27.65300
C  42.67500 43.29700 28.32800
C  42.91400 43.06800 29.86300
C  43.56500 41.62800 29.95100
C  43.56200 41.21900 28.48800
C  44.91800 41.63800 30.67900
C  41.63600 43.27400 30.74500
C  41.55900 42.64600 32.22200
H  41.42300 43.57300 33.44400
N  43.39400 39.76800 25.63200
C  43.88600 39.22400 26.78900
C  44.13900 37.85600 26.52300
C  44.06500 37.55400 25.12200
C  43.64500 38.91200 24.62100
C  44.62300 36.84300 27.59000
C  44.37300 36.36900 24.28700
O  44.33700 36.27200 23.09100
C  44.95900 35.20800 24.90500
N  42.64600 41.64100 23.34900
C  43.15500 40.54600 22.73200
C  43.18100 40.71500 21.22500
C  42.58300 42.16400 21.03000
C  42.37200 42.65900 22.46100
C  44.60800 40.49900 20.59600
C  41.29800 42.10100 20.29800
C  39.97000 42.05500 21.03400
N  42.07900 43.75900 25.22700
C  41.83900 44.51200 24.10000
C  41.40000 45.78000 24.51600
C  41.47000 45.82600 25.95800
C  41.87900 44.49600 26.31400
C  40.90000 46.81600 23.65400
C  41.29900 46.54900 27.17400
O  41.01600 47.71000 27.32800
C  41.55500 45.57900 28.28800
C  42.66200 46.15200 29.25800
O  43.83800 46.17000 28.97000
O  42.11700 46.74600 30.36900
C  43.03400 47.31000 31.36400
H  44.44800 39.42500 28.92800
H  44.11200 38.88300 22.52400
H  41.63400 44.63000 22.00700
H  43.56400 43.86900 30.21600
H  42.84200 40.97100 30.43500
H  45.05900 42.44500 31.39900
H  45.74000 41.75400 29.97300
H  44.98000 40.62000 31.06300
H  40.83400 42.99200 30.06200
H  41.47600 44.33900 30.91100
H  42.28200 41.85700 32.42700
H  40.62000 42.10900 32.08700
H  45.68700 36.74900 27.37400
H  44.14000 35.86700 27.54200
H  44.48500 37.08200 28.64500
H  45.03700 34.44200 24.13300
H  44.32700 34.80800 25.69800
H  45.97300 35.43300 25.23600
H  42.44600 39.98000 20.89800
H  43.35500 42.76700 20.55300
H  44.83200 41.26800 19.85700
H  44.54600 39.52200 20.11600
H  45.44200 40.52200 21.29800
H  41.26100 41.28700 19.57400
H  41.32400 42.97100 19.64300
H  39.94700 42.18800 22.11600
H  39.50300 41.07200 20.98400
H  39.19100 42.73600 20.69200
H  39.84500 46.54600 23.60200
H  41.26300 46.74500 22.62900
H  40.93000 47.84300 24.01900
H  40.65500 45.47500 28.89400
H  43.76800 46.55000 31.63100
H  42.54500 47.67800 32.26500
H  43.67000 48.07100 30.91200

