158

Mg 40.96600 8.58100 29.90400
C  42.97100 9.81000 32.34300
C  38.74800 7.45100 32.21000
C  38.96100 7.69300 27.45100
C  43.43900 9.31300 27.55800
N  40.79200 8.70900 32.05300
C  41.74300 9.28200 32.91100
C  41.30300 9.20800 34.42600
C  40.06100 8.27800 34.25300
C  39.86300 8.05200 32.74800
C  40.28500 6.91800 34.92000
C  41.02000 10.68400 35.04900
C  41.60600 10.81400 36.52200
H  41.13800 11.89600 37.46800
N  39.16500 7.54600 29.78100
C  38.48300 7.10300 30.88700
C  37.27600 6.40900 30.42100
C  37.23000 6.63100 28.99800
C  38.54400 7.23900 28.68900
C  36.29500 5.73900 31.35000
C  36.14700 6.32900 28.02100
O  36.16600 6.60500 26.85700
C  34.96900 5.62700 28.56400
N  41.20700 8.29100 27.74100
C  40.14300 8.12500 26.97400
C  40.41800 8.43400 25.49400
C  41.92700 8.89400 25.48900
C  42.19300 8.88900 27.01500
C  40.09500 7.25900 24.38600
C  42.16000 10.24200 24.76200
C  41.63500 11.52100 25.67300
N  42.91100 9.30000 29.93700
C  43.76200 9.49100 28.90000
C  45.09300 9.94100 29.42900
C  44.74100 10.16400 30.81300
C  43.41400 9.78300 31.01000
C  46.30500 10.45900 28.74900
C  45.31500 10.57800 32.10900
O  46.42200 10.90700 32.45500
C  44.14600 10.45300 33.14700
C  44.53400 9.55000 34.28800
O  44.86300 8.38400 34.21200
O  44.85300 10.30900 35.41300
C  45.82300 9.81200 36.39300
H  38.04900 7.09600 32.97000
H  38.35500 7.61800 26.54600
H  44.20700 9.57400 26.82700
H  42.09800 8.69000 34.96300
H  39.25800 8.83400 34.73500
H  41.32600 6.60800 35.01100
H  39.72300 6.11300 34.44600
H  39.93100 7.03900 35.94400
H  39.94700 10.85600 35.13900
H  41.48800 11.45500 34.43700
H  42.68500 10.92100 36.63500
H  41.46600 9.82900 36.96800
H  35.74200 4.90300 30.92000
H  35.58400 6.48100 31.71400
H  36.75000 5.39400 32.27800
H  34.57800 6.24700 29.37100
H  35.23900 4.60600 28.83100
H  34.26400 5.39300 27.76700
H  39.77700 9.31000 25.39200
H  42.59900 8.13100 25.09700
H  40.98400 6.70100 24.09300
H  39.65800 7.77100 23.52900
H  39.28500 6.62600 24.74900
H  41.51800 10.23300 23.88100
H  43.23400 10.36700 24.61900
H  41.97600 11.68900 26.69500
H  40.54900 11.42600 25.66800
H  41.88600 12.38700 25.06100
H  46.55300 9.71800 27.99000
H  47.14200 10.53600 29.44400
H  46.08800 11.45100 28.35200
H  43.97700 11.43800 33.58100
H  45.42100 9.01100 37.01300
H  46.24100 10.61400 37.00100
H  46.65200 9.50000 35.75800
Mg -11.99200 16.61900 41.97200
C  -8.83500 15.59800 41.29400
C  -11.26300 19.78900 40.65800
C  -15.27900 17.51000 42.20200
C  -12.96400 13.22300 42.43100
N  -10.22600 17.57000 41.21600
C  -8.95400 16.97500 41.08500
C  -7.93300 17.92100 40.55700
C  -8.68800 19.30800 40.66300
C  -10.16700 18.90000 40.86900
C  -8.16700 20.12500 41.83700
C  -7.55600 17.56300 39.07400
C  -6.05000 17.41100 38.74900
H  -5.67500 17.96100 37.36300
N  -13.12300 18.37700 41.56600
C  -12.66800 19.49900 40.90100
C  -13.77300 20.31600 40.55600
C  -14.94900 19.78700 41.10600
C  -14.45200 18.51400 41.68300
C  -13.70300 21.55600 39.66800
C  -16.33700 20.44100 41.15500
O  -16.42900 21.58700 40.72300
C  -17.53200 19.84100 41.77000
N  -13.84900 15.53500 42.33500
C  -15.07700 16.12000 42.44400
C  -16.18600 15.06400 42.55700
C  -15.42600 13.71900 42.36500
C  -13.97600 14.17900 42.41000
C  -17.10100 15.18400 43.81400
C  -15.85500 13.00900 41.08700
C  -16.14500 11.49600 41.20500
N  -11.08100 14.74600 41.99200
C  -11.55600 13.49400 42.30900
C  -10.43100 12.59100 42.24900
C  -9.33100 13.36500 41.87200
C  -9.80400 14.64000 41.69000
C  -10.44600 11.13000 42.44800
C  -7.92300 13.32500 41.46300
O  -7.12000 12.43500 41.38000
C  -7.50200 14.80300 41.16100
C  -6.46300 15.21000 42.22900
O  -6.73600 15.21800 43.44100
O  -5.43100 15.77500 41.61400
C  -4.41600 16.17500 42.56700
H  -11.03800 20.83800 40.45500
H  -16.35700 17.68300 42.23000
H  -13.36900 12.21000 42.45700
H  -7.07600 17.98200 41.22700
H  -8.55900 19.93200 39.77800
H  -8.21600 21.17100 41.53500
H  -7.12000 19.92100 42.06200
H  -8.68800 20.03900 42.79000
H  -7.98300 18.24200 38.33600
H  -8.04500 16.60400 38.89900
H  -5.75600 16.36400 38.67100
H  -5.42600 17.99900 39.42300
H  -14.65400 21.77100 39.17900
H  -13.00600 21.27800 38.87800
H  -13.42700 22.44000 40.24300
H  -18.40500 20.37900 41.40100
H  -17.47300 19.81500 42.85800
H  -17.63600 18.83400 41.36500
H  -16.72700 15.26900 41.63300
H  -15.48900 13.09800 43.25800
H  -17.84300 15.98100 43.75300
H  -16.52900 15.37400 44.72300
H  -17.52400 14.19400 43.98500
H  -15.02300 13.11900 40.39200
H  -16.77400 13.36500 40.62300
H  -17.19000 11.23800 41.03600
H  -15.90800 11.12300 42.20200
H  -15.49900 11.00200 40.47900
H  -10.87500 10.60000 41.59800
H  -10.99900 10.92600 43.36500
H  -9.40200 10.83000 42.54000
H  -6.97700 14.87300 40.20900
H  -3.51700 15.98200 41.98200
H  -4.36200 15.55800 43.46300
H  -4.49900 17.24900 42.73400

