158

Mg 26.55600 50.42200 25.80200
C  24.61000 51.37400 28.70400
C  28.93100 49.44600 28.01900
C  28.64600 50.04600 23.07900
C  24.20700 51.89200 23.68900
N  26.68100 50.38900 28.12300
C  25.75100 50.72300 29.06300
C  26.18800 50.31200 30.46300
C  27.65000 49.88300 30.23700
C  27.77200 49.92900 28.71000
C  28.72500 50.84900 30.80700
C  25.32000 49.16100 30.95000
C  24.99800 49.17100 32.47100
H  26.09300 49.43700 33.53800
N  28.50500 49.95200 25.62100
C  29.32100 49.51100 26.66900
C  30.60300 49.04500 26.07600
C  30.58100 49.30400 24.67700
C  29.15900 49.75100 24.38300
C  31.68700 48.47500 27.02200
C  31.69000 49.04000 23.66800
O  31.50500 49.37000 22.50300
C  32.96500 48.36800 24.06200
N  26.52500 51.01200 23.68800
C  27.42300 50.57700 22.76700
C  26.83600 50.54100 21.32600
C  25.38100 50.96300 21.51900
C  25.32100 51.34200 23.05600
C  27.69700 51.43700 20.41100
C  24.22100 49.92900 21.05700
C  23.49800 50.35000 19.78300
N  24.77000 51.35100 26.01000
C  23.96300 51.97700 25.10500
C  22.77500 52.35400 25.87000
C  23.04800 52.28600 27.22300
C  24.26300 51.58200 27.28700
C  21.66000 53.09500 25.17500
C  22.50500 52.50400 28.54200
O  21.49300 53.09000 28.86800
C  23.57500 52.05600 29.51600
C  24.12400 53.22600 30.25800
O  24.64300 54.26100 29.80400
O  24.10000 53.02400 31.64100
C  24.92400 53.91500 32.45900
H  29.71000 48.94200 28.59500
H  29.13000 49.67800 22.17200
H  23.39400 52.14900 23.00600
H  26.13000 51.16800 31.13600
H  27.88100 48.85300 30.50800
H  29.59200 50.30000 31.17600
H  28.29100 51.60800 31.45800
H  29.19300 51.53200 30.09900
H  25.67300 48.18900 30.60400
H  24.35200 49.09400 30.45400
H  24.60600 48.18800 32.73400
H  24.22800 49.93800 32.55200
H  32.68000 48.83800 26.75500
H  31.64800 47.38700 27.08100
H  31.66000 48.85900 28.04100
H  32.65500 47.42100 24.50500
H  33.54900 48.95500 24.77000
H  33.55800 48.18600 23.16600
H  26.86000 49.48400 21.06000
H  25.17900 51.93300 21.06500
H  27.76100 50.94500 19.44100
H  28.71600 51.47000 20.79600
H  27.34700 52.44700 20.19900
H  23.58700 49.76600 21.92800
H  24.64500 48.95900 20.79500
H  23.62400 49.66800 18.94300
H  23.78600 51.37900 19.56400
H  22.46200 50.43900 20.10900
H  21.62500 52.65600 24.17800
H  21.89300 54.16000 25.19200
H  20.75500 52.96800 25.76800
H  23.10500 51.42100 30.26700
H  25.95300 53.83200 32.10900
H  24.82800 53.53200 33.47500
H  24.57000 54.94600 32.43500
Mg 1.39600 42.11900 25.72100
C  2.92900 42.38900 28.91800
C  -1.30800 40.64700 27.24000
C  0.10800 41.88200 22.80300
C  4.48000 43.23800 24.41300
N  0.86900 41.46700 27.93300
C  1.55800 41.96100 28.99200
C  0.69800 41.67600 30.27400
C  -0.59100 40.99000 29.77700
C  -0.35100 40.99800 28.24800
C  -0.98600 39.70600 30.51100
C  0.51000 42.97000 31.07800
C  0.82300 42.88800 32.60400
H  0.69100 41.53800 33.29100
N  -0.18200 41.15400 25.08200
C  -1.20300 40.66800 25.81400
C  -2.29700 40.26000 24.97000
C  -1.98700 40.76600 23.68200
C  -0.64000 41.29700 23.79900
C  -3.57200 39.59500 25.39600
C  -2.89600 40.83000 22.44900
O  -2.47600 41.32100 21.38100
C  -4.29000 40.49300 22.45000
N  2.25500 42.48000 23.92200
C  1.47600 42.28200 22.78500
C  2.13900 42.84300 21.54500
C  3.43100 43.47700 22.09400
C  3.40200 43.08300 23.54300
C  2.35000 41.87000 20.36400
C  3.48400 45.06500 22.02900
C  4.15600 45.54500 20.76100
N  3.31100 42.70900 26.45800
C  4.45100 43.11100 25.80300
C  5.48800 43.32800 26.76300
C  4.96000 43.00400 27.94200
C  3.63500 42.62700 27.74500
C  7.02400 43.78400 26.55500
C  5.30300 43.01600 29.32600
O  6.28000 43.32500 29.92300
C  3.92900 42.63600 30.13600
C  4.29800 41.41900 30.93000
O  4.37800 40.31600 30.44900
O  4.33500 41.73700 32.24900
C  4.44000 40.60100 33.17400
H  -2.20300 40.31200 27.76700
H  -0.31200 42.04800 21.80900
H  5.41400 43.62800 24.00300
H  1.33000 40.95000 30.78600
H  -1.44900 41.64100 29.94600
H  -1.04600 38.89300 29.78700
H  -1.96600 39.76900 30.98300
H  -0.29600 39.53500 31.33800
H  -0.54400 43.24800 31.06700
H  1.17900 43.74700 30.70800
H  0.01600 43.56100 32.89500
H  1.74500 43.40800 32.86400
H  -4.40900 40.29200 25.35400
H  -3.40700 39.20300 26.40000
H  -3.70200 38.73800 24.73500
H  -4.52100 39.52700 22.90000
H  -4.62800 40.44100 21.41500
H  -4.90300 41.18100 23.03200
H  1.50700 43.67900 21.24600
H  4.33600 43.14600 21.58500
H  1.37700 41.75000 19.88800
H  2.62700 40.87200 20.70400
H  2.96100 42.24700 19.54400
H  3.85300 45.38100 23.00500
H  2.42700 45.33100 22.00400
H  4.42000 44.68400 20.14800
H  5.08500 46.09800 20.90300
H  3.44600 46.20100 20.25700
H  7.58100 42.90000 26.86600
H  7.22700 44.49500 27.35600
H  7.27200 44.14100 25.55500
H  3.64100 43.40200 30.85600
H  5.49800 40.40700 33.34900
H  4.06600 39.70100 32.68600
H  3.85400 40.76000 34.07900

