158

Mg 26.18200 0.64800 29.01700
C  27.81500 0.43700 32.17100
C  23.35600 1.02400 30.77400
C  24.58900 0.82600 26.16100
C  29.19000 -0.29700 27.48400
N  25.67300 0.59600 31.29300
C  26.50400 0.80300 32.35200
C  25.67000 0.93200 33.67600
C  24.21100 0.94800 33.16700
C  24.43900 0.84300 31.65600
C  23.22500 -0.13800 33.63900
C  26.23500 2.12700 34.47300
C  26.90800 1.76000 35.85100
H  26.49700 2.60900 37.06500
N  24.18000 0.86200 28.48600
C  23.16200 0.98400 29.38500
C  21.88300 1.16700 28.70100
C  22.19200 1.18100 27.30300
C  23.66200 1.00200 27.23900
C  20.58000 1.17600 29.46600
C  21.27800 1.38100 26.09400
O  21.65900 1.26700 24.89300
C  19.83800 1.65200 26.30600
N  26.79500 0.29500 27.10800
C  25.97600 0.50500 26.08400
C  26.65800 0.59800 24.76800
C  28.10700 0.14200 25.10600
C  28.08300 0.02400 26.65600
C  25.99900 -0.04400 23.46900
C  29.29200 0.90000 24.55200
C  29.81200 0.61800 23.15000
N  28.10300 0.15700 29.63400
C  29.21500 -0.24800 28.87400
C  30.30600 -0.55700 29.75400
C  29.76800 -0.29400 31.03300
C  28.43100 0.14200 30.87500
C  31.72400 -0.86900 29.28600
C  30.09600 -0.34100 32.42200
O  31.18500 -0.70000 32.95700
C  28.89900 0.26200 33.19500
C  28.58000 -0.73100 34.23000
O  28.00600 -1.79000 34.01300
O  29.19200 -0.47100 35.43600
C  29.02300 -1.58100 36.39200
H  22.44600 1.19500 31.35300
H  24.05500 0.84900 25.20800
H  30.13700 -0.56000 27.00800
H  25.73500 -0.02200 34.19900
H  23.92600 1.97400 33.40300
H  23.70100 -0.67900 34.45700
H  23.01500 -0.83900 32.83100
H  22.38000 0.38900 34.08200
H  25.46500 2.89000 34.58800
H  27.09300 2.54700 33.94700
H  27.98700 1.91700 35.83600
H  26.67700 0.70100 35.97200
H  19.84800 1.82100 28.98100
H  20.80600 1.44200 30.49900
H  20.16600 0.17100 29.37900
H  19.36200 0.77300 26.74100
H  19.21600 1.63300 25.41100
H  19.66000 2.49000 26.97900
H  26.66900 1.66100 24.53000
H  28.24700 -0.88000 24.75600
H  25.70400 0.71400 22.74400
H  25.04700 -0.49600 23.74700
H  26.66700 -0.78900 23.03700
H  30.18100 0.74600 25.16300
H  28.88900 1.91200 24.51300
H  30.83800 0.24800 23.15700
H  29.86400 1.56700 22.61600
H  29.25100 -0.19600 22.69100
H  32.33300 -0.04700 28.91100
H  31.65500 -1.64300 28.52100
H  32.15500 -1.39500 30.13800
H  29.28600 1.14800 33.69700
H  27.96600 -1.71700 36.61900
H  29.55500 -1.29300 37.29900
H  29.36700 -2.59300 36.18200
Mg 48.77200 44.55100 43.00600
C  45.24200 44.58000 42.86400
C  48.77000 41.16200 42.75300
C  52.14500 44.66800 43.00300
C  48.68000 48.07600 42.60300
N  47.14500 43.07400 42.72300
C  45.80900 43.27600 42.75300
C  45.00500 41.97200 42.76000
C  46.20600 40.90300 42.82600
C  47.48500 41.73700 42.86800
C  46.07000 40.00900 44.08400
C  43.96500 41.62700 41.64400
C  43.99500 42.39000 40.36200
H  44.47100 41.70300 39.12100
N  50.22800 43.11400 42.85800
C  50.01800 41.75600 42.85100
C  51.27800 41.07200 42.69300
C  52.28200 42.04200 42.78400
C  51.60800 43.36100 42.88000
C  51.49200 39.60000 42.46000
C  53.77500 41.65100 42.70700
O  54.24700 40.53700 42.57300
C  54.68400 42.73800 42.77600
N  50.16500 46.13400 42.82100
C  51.50200 45.89600 43.01700
C  52.25500 47.27000 43.30100
C  51.25800 48.26500 42.85900
C  49.92700 47.52900 42.74000
C  52.71400 47.44800 44.82400
C  51.63200 48.90500 41.53100
C  52.12100 50.32400 41.50700
N  47.27400 46.10600 42.75200
C  47.41500 47.47400 42.66500
C  46.04000 48.09000 42.74300
C  45.15500 47.00500 42.88500
C  45.95400 45.82000 42.83500
C  45.69000 49.58600 42.84100
C  43.77900 46.63500 43.08400
O  42.73900 47.23300 43.34600
C  43.77200 45.01600 42.99600
C  43.12500 44.49900 44.21300
O  42.09700 43.82700 44.20900
O  43.83500 44.89000 45.32900
C  43.60800 44.06200 46.46300
H  48.71100 40.08900 42.56200
H  53.22600 44.80500 43.08500
H  48.65400 49.16700 42.57300
H  44.56300 41.99400 43.75600
H  46.22100 40.26200 41.94400
H  46.35600 38.98100 43.86000
H  45.03100 39.83100 44.36400
H  46.68000 40.35500 44.91800
H  42.99900 41.79300 42.12100
H  43.89200 40.56300 41.41700
H  44.43800 43.38300 40.44100
H  42.91700 42.50200 40.24400
H  52.05500 39.08700 43.24000
H  51.88500 39.36300 41.47200
H  50.48000 39.21900 42.32700
H  54.54500 43.35300 41.88700
H  55.70000 42.37800 42.61300
H  54.53700 43.19700 43.75400
H  53.19700 47.24800 42.75300
H  51.02900 49.09000 43.53400
H  52.55400 48.45100 45.22000
H  53.75800 47.13800 44.77600
H  52.28300 46.72100 45.51300
H  50.85500 48.78700 40.77500
H  52.46800 48.32300 41.14300
H  51.31700 51.03700 41.32600
H  52.86400 50.55600 40.74400
H  52.54100 50.62900 42.46600
H  44.65700 49.78900 43.12600
H  45.82700 49.90600 41.80800
H  46.44100 50.00000 43.51300
H  43.11000 44.86100 42.14400
H  44.61100 43.88600 46.85000
H  43.01700 43.16000 46.30000
H  42.94100 44.62900 47.11300

