158

Mg 16.95100 -1.68900 27.83400
C  16.09200 0.54400 30.56100
C  19.12400 -3.13100 30.04100
C  18.18000 -3.49800 25.15100
C  15.47900 0.48900 25.71000
N  17.44600 -1.35200 30.09600
C  16.92100 -0.49100 30.96900
C  17.33400 -0.77600 32.39000
C  18.30100 -2.00900 32.23500
C  18.28500 -2.17500 30.69700
C  19.72800 -1.72000 32.93700
C  16.17300 -0.99100 33.38500
C  16.19200 0.04900 34.59700
H  17.60400 0.54500 35.14100
N  18.51200 -3.09500 27.66600
C  19.22000 -3.62600 28.65700
C  19.87200 -4.75400 28.20700
C  19.62400 -4.89800 26.80600
C  18.76000 -3.82600 26.45600
C  20.70500 -5.66200 29.12900
C  20.28600 -5.82600 25.80700
O  20.05300 -5.80100 24.59800
C  21.21300 -6.88300 26.37300
N  16.96700 -1.37900 25.74300
C  17.40500 -2.36100 24.87000
C  17.39000 -1.76800 23.41900
C  16.29500 -0.61900 23.58500
C  16.25700 -0.46100 25.10600
C  18.62600 -1.21900 22.71700
C  14.89100 -1.02800 22.98900
C  14.08400 0.00600 22.23200
N  15.92300 0.11300 28.01800
C  15.35200 0.90100 27.08600
C  14.60100 1.94400 27.62700
C  14.89800 1.85600 29.06400
C  15.75400 0.74000 29.17300
C  13.71600 2.81700 26.89200
C  14.67900 2.50600 30.31900
O  13.95500 3.43800 30.54900
C  15.41700 1.68100 31.41700
C  16.33400 2.65200 32.09100
O  17.43000 2.96600 31.75900
O  15.69700 3.13300 33.17000
C  16.30700 4.21300 33.93500
H  19.76800 -3.67400 30.73600
H  18.42700 -4.16200 24.32000
H  14.81700 1.09100 25.08300
H  17.93600 0.09200 32.65800
H  18.00700 -2.89000 32.80600
H  19.61100 -0.78100 33.47900
H  20.47400 -1.52400 32.16600
H  20.00600 -2.54100 33.59700
H  16.29500 -2.00200 33.77200
H  15.23200 -0.90000 32.84300
H  15.78600 -0.55100 35.41300
H  15.41100 0.77500 34.37100
H  20.22100 -6.63600 29.05500
H  20.55300 -5.56500 30.20500
H  21.77700 -5.72400 28.94700
H  21.67000 -7.40000 25.52900
H  20.70200 -7.63900 26.96900
H  22.08800 -6.44500 26.85300
H  16.92900 -2.49800 22.75300
H  16.57100 0.35800 23.18700
H  19.07400 -0.40600 23.28800
H  18.36800 -0.97100 21.68700
H  19.33300 -2.04000 22.60600
H  14.28800 -1.48200 23.77600
H  15.02800 -1.78700 22.21800
H  13.65400 -0.40900 21.32000
H  14.63500 0.92500 22.03200
H  13.34500 0.33400 22.96200
H  12.68500 2.46600 26.93700
H  14.03900 3.01900 25.87100
H  13.81300 3.70400 27.51800
H  14.63400 1.32800 32.08900
H  17.37200 4.10400 34.14200
H  15.81700 4.29300 34.90600
H  16.39800 5.16000 33.40200
Mg 1.56900 42.28500 25.23500
C  2.96600 42.19200 28.52400
C  -1.43000 41.07300 26.61200
C  0.37700 41.79600 22.06400
C  4.62000 43.14900 23.96200
N  0.86200 41.69500 27.30000
C  1.53300 41.88100 28.46700
C  0.60900 41.62300 29.71900
C  -0.66500 40.97600 29.02500
C  -0.37500 41.13500 27.53400
C  -1.04300 39.54800 29.52100
C  0.35900 43.02400 30.48800
C  0.27800 42.99200 32.05500
H  0.09200 41.67500 32.80800
N  -0.29900 41.65700 24.44600
C  -1.39500 41.30900 25.18300
C  -2.44900 40.93300 24.28900
C  -2.04700 41.05600 22.97400
C  -0.61000 41.56500 23.06900
C  -3.78400 40.41100 24.80000
C  -2.74000 40.74000 21.68900
O  -2.18300 40.84100 20.55100
C  -4.23400 40.27800 21.77300
N  2.42300 42.53300 23.21200
C  1.74400 42.21500 22.08200
C  2.61100 42.60500 20.86200
C  3.92900 43.22700 21.46000
C  3.68400 42.96800 22.99000
C  2.93200 41.31400 20.08200
C  4.23400 44.66200 20.99300
C  4.42000 44.85300 19.48400
N  3.40600 42.62400 25.99900
C  4.58700 42.87900 25.31300
C  5.68200 42.96000 26.25100
C  5.07100 42.81400 27.52200
C  3.71600 42.49000 27.33100
C  7.16000 43.28100 25.90900
C  5.30300 42.71200 28.95000
O  6.37400 42.68000 29.56500
C  3.97000 42.34800 29.68600
C  4.29800 41.01300 30.35300
O  4.42100 39.92800 29.78500
O  4.28900 41.18800 31.71400
C  4.14600 40.06900 32.63400
H  -2.37300 40.92500 27.14200
H  0.05600 41.55300 21.04900
H  5.61800 43.44300 23.62800
H  0.92200 40.86500 30.43700
H  -1.47900 41.68500 29.17700
H  -0.92000 38.96600 28.60800
H  -2.09900 39.66800 29.76600
H  -0.46900 39.08000 30.32100
H  -0.51300 43.60100 30.17800
H  1.22500 43.63200 30.22600
H  -0.47200 43.70500 32.39900
H  1.19900 43.37600 32.49200
H  -4.69300 40.86900 24.41200
H  -3.85400 40.50300 25.88400
H  -3.82500 39.32700 24.69200
H  -4.26000 39.36500 22.36700
H  -4.43800 40.01900 20.73400
H  -4.91700 41.07500 22.06700
H  1.98700 43.20800 20.20200
H  4.86400 42.76400 21.14400
H  2.79100 40.42100 20.69200
H  3.94900 41.29500 19.69000
H  2.30900 41.08600 19.21800
H  5.16700 45.01100 21.43400
H  3.51800 45.34500 21.45100
H  4.64200 44.00400 18.83800
H  5.36300 45.38700 19.36400
H  3.52300 45.31400 19.07000
H  7.18000 44.32100 25.58400
H  7.24400 42.61000 25.05300
H  7.80900 43.00500 26.74000
H  3.57100 42.93300 30.51400
H  5.13900 39.85200 33.02800
H  3.82100 39.23000 32.01900
H  3.52500 40.33800 33.48800

