158

Mg 44.29600 3.91400 47.09400
C  42.55200 6.88500 46.60500
C  41.37100 2.15900 46.68700
C  46.17200 1.15200 46.64000
C  47.28000 5.83400 47.14200
N  42.26100 4.44500 46.45000
C  41.74800 5.72400 46.34200
C  40.26600 5.75300 46.12300
C  39.86100 4.24600 46.35600
C  41.19700 3.56400 46.65800
C  38.82200 4.03500 47.49100
C  39.96500 6.08100 44.55600
C  39.07900 7.27600 44.27700
H  39.48500 8.30500 43.17300
N  43.77400 1.87800 46.83000
C  42.50300 1.35000 46.74500
C  42.62000 -0.05100 46.57900
C  44.07200 -0.34500 46.54300
C  44.76300 0.91800 46.71100
C  41.42500 -0.99300 46.46400
C  44.58800 -1.78800 46.32100
O  43.80600 -2.63200 45.98500
C  46.04300 -2.22300 46.37600
N  46.38600 3.56300 46.92400
C  46.84800 2.32400 46.76500
C  48.36000 2.24900 46.60800
C  48.74700 3.81500 46.73900
C  47.37300 4.47600 46.88500
C  49.15900 1.30200 47.56000
C  49.59400 4.35600 45.60600
C  50.96300 4.95600 46.12500
N  44.84600 5.93900 46.87000
C  46.05900 6.58000 47.01800
C  45.87100 8.05000 47.06400
C  44.50800 8.21800 46.90900
C  43.92100 6.87600 46.81800
C  46.94700 9.11500 47.28100
C  43.48700 9.25500 46.92500
O  43.56900 10.48900 47.00300
C  42.18200 8.37000 46.62000
C  41.18000 8.52600 47.75600
O  41.27900 7.91700 48.84400
O  40.18100 9.47800 47.52400
C  39.27100 9.74500 48.68900
H  40.45400 1.56700 46.65100
H  46.68400 0.23800 46.33200
H  48.24800 6.33600 47.20500
H  39.71000 6.49100 46.70300
H  39.39700 3.82000 45.46700
H  38.57700 4.85500 48.16700
H  39.18800 3.27300 48.18000
H  37.88900 3.59500 47.13900
H  39.47100 5.24300 44.06500
H  40.86200 6.35900 44.00300
H  38.98100 7.84500 45.20200
H  38.04200 7.01600 44.06400
H  41.33600 -1.73700 47.25500
H  41.45900 -1.55900 45.53300
H  40.45200 -0.50100 46.46900
H  46.68100 -1.73300 45.64000
H  46.13100 -3.29900 46.22700
H  46.47200 -2.02300 47.35800
H  48.39800 1.86300 45.58900
H  49.20300 3.92500 47.72300
H  48.55500 0.72200 48.25700
H  49.83200 1.96000 48.11000
H  49.80000 0.66700 46.94900
H  49.01200 5.08900 45.04700
H  49.76400 3.53200 44.91200
H  51.69400 4.30100 45.65200
H  51.03300 5.07200 47.20700
H  51.23200 5.96600 45.81600
H  46.54400 9.96100 47.83900
H  47.25300 9.37900 46.26800
H  47.79000 8.72700 47.85300
H  41.74900 8.77400 45.70500
H  39.80800 10.28900 49.46700
H  38.75600 8.84300 49.02100
H  38.53500 10.43000 48.26800
Mg 47.26700 25.73600 28.43900
C  48.30400 27.80900 31.03000
C  46.16300 23.47100 31.01500
C  46.69500 23.44100 26.15800
C  48.88300 27.75800 26.20100
N  47.19000 25.66500 30.78200
C  47.58000 26.67200 31.55900
C  47.26000 26.39600 33.02000
C  46.78000 24.93600 33.07500
C  46.66800 24.64900 31.54200
C  47.61600 23.90700 33.74300
C  46.23300 27.38300 33.60900
C  46.65700 27.81700 35.04500
H  45.48000 27.98100 36.03300
N  46.48100 23.73500 28.56600
C  46.07600 22.98500 29.66900
C  45.67900 21.66000 29.22700
C  45.73200 21.65100 27.84300
C  46.30600 22.98200 27.44700
C  45.23000 20.65100 30.19700
C  45.25300 20.51600 26.83900
O  45.31400 20.63900 25.63000
C  44.89700 19.13900 27.40600
N  47.92500 25.48700 26.51700
C  47.45700 24.49800 25.74300
C  47.71100 24.77400 24.24700
C  48.21400 26.30000 24.31600
C  48.34100 26.57200 25.76700
C  48.84400 23.86900 23.64800
C  47.26400 27.33000 23.62200
C  47.76500 28.27300 22.52500
N  48.26200 27.46600 28.53500
C  48.90600 28.17800 27.50700
C  49.60500 29.32100 28.04200
C  49.32300 29.24200 29.44900
C  48.58800 28.07000 29.67900
C  50.53400 30.34000 27.30200
C  49.57500 29.85100 30.69200
O  50.16900 30.83500 30.89700
C  48.97700 28.96000 31.70100
C  50.04500 28.47900 32.52600
O  50.86000 27.63800 32.20600
O  49.98200 28.98500 33.81900
C  50.72400 28.30700 34.82900
H  45.75500 22.79000 31.76500
H  46.29500 22.82900 25.34700
H  49.35700 28.38700 25.44500
H  48.15200 26.42500 33.64600
H  45.76700 24.90400 33.47600
H  47.84500 23.00800 33.17000
H  46.95800 23.53200 34.52700
H  48.53000 24.28800 34.19800
H  45.19500 27.05000 33.61400
H  46.12000 28.20300 32.90000
H  47.19800 28.74600 34.86300
H  47.53100 27.35200 35.50100
H  44.21000 20.33400 29.97900
H  45.34900 21.03300 31.21100
H  45.86400 19.76400 30.20000
H  45.66000 18.59300 27.95900
H  44.53600 18.50700 26.59500
H  44.02000 19.31100 28.02900
H  46.78300 24.64500 23.69000
H  49.23500 26.42100 23.95400
H  49.69400 24.54500 23.55300
H  48.60400 23.43900 22.67600
H  49.15500 23.14600 24.40100
H  46.70500 27.87600 24.38200
H  46.56300 26.72000 23.05300
H  48.85400 28.26200 22.48500
H  47.41600 29.28100 22.74900
H  47.33000 28.06800 21.54700
H  49.86500 31.08200 26.86600
H  51.11900 29.99200 26.45100
H  51.24700 30.83100 27.96400
H  48.44100 29.60600 32.39600
H  49.99200 28.27500 35.63500
H  51.51500 29.00600 35.10200
H  51.12800 27.32400 34.58400

