158

Mg 9.36300 4.93800 28.39300
C  10.75200 3.20900 31.11100
C  7.36700 6.59400 30.44200
C  8.10400 6.58900 25.75400
C  11.27400 2.97700 26.15100
N  9.32900 4.99000 30.62900
C  9.91200 4.18900 31.55700
C  9.40200 4.46500 32.96000
C  8.31700 5.59700 32.75800
C  8.26200 5.69000 31.17800
C  6.89200 5.33500 33.44500
C  10.60400 4.90300 33.82300
C  10.31500 5.88100 34.97500
H  11.01100 5.73600 36.34500
N  7.80100 6.34500 28.08700
C  7.12400 6.91000 29.08000
C  6.10600 7.76100 28.49000
C  6.42900 7.86700 27.07700
C  7.47400 6.90700 26.92200
C  5.09200 8.36400 29.41500
C  5.82700 8.71700 26.02300
O  6.22900 8.87800 24.91600
C  4.65900 9.51700 26.50900
N  9.45900 4.61300 26.18200
C  9.00500 5.61100 25.40900
C  9.35900 5.41300 23.97000
C  10.67600 4.49500 24.07600
C  10.48600 3.95300 25.54500
C  8.21300 4.98700 23.06100
C  11.99100 5.26000 23.80000
C  12.28000 6.48200 24.67400
N  10.61700 3.34200 28.55200
C  11.30700 2.62700 27.53900
C  12.06100 1.60800 28.17100
C  11.89600 1.83200 29.55500
C  11.04100 2.89900 29.71700
C  12.77200 0.37000 27.57000
C  12.24400 1.28500 30.83000
O  12.97800 0.30600 31.10100
C  11.51600 2.17500 31.95600
C  10.57900 1.23900 32.65300
O  9.85100 0.46300 32.01900
O  10.88900 1.11400 33.98200
C  10.04000 0.22100 34.66400
H  6.75600 7.28200 31.02900
H  7.92000 7.19900 24.86700
H  11.88700 2.40000 25.45500
H  9.02700 3.51300 33.33500
H  8.75100 6.53700 33.10000
H  6.15200 5.19400 32.65800
H  6.71000 6.20100 34.08200
H  6.97900 4.43300 34.05100
H  11.23200 5.46200 33.13000
H  11.12100 3.99900 34.14300
H  9.28300 6.09800 35.25000
H  10.64900 6.87600 34.68200
H  4.92700 7.80700 30.33700
H  4.12400 8.43000 28.91900
H  5.48100 9.33300 29.72800
H  4.31300 10.12400 25.67300
H  4.86700 10.27100 27.26900
H  3.85400 8.87900 26.87300
H  9.73400 6.39600 23.68600
H  10.60300 3.77200 23.26400
H  8.15100 3.98600 22.63300
H  8.18500 5.71400 22.24900
H  7.26100 5.05800 23.58600
H  11.91500 5.66500 22.79100
H  12.75500 4.48900 23.69900
H  11.48700 6.66300 25.40000
H  12.42100 7.31300 23.98300
H  13.22000 6.25700 25.17900
H  12.07800 -0.05200 26.84300
H  13.06800 -0.35000 28.33300
H  13.68200 0.65100 27.04200
H  12.25700 2.65600 32.59400
H  9.16500 0.63000 35.16800
H  10.62700 -0.19700 35.48200
H  9.82600 -0.63600 34.02600
Mg 47.96300 16.02800 27.84100
C  46.18000 15.73500 30.88700
C  50.42000 17.71500 29.58400
C  49.57200 16.39500 24.97800
C  45.21900 14.57500 26.19400
N  48.23400 16.68000 30.05700
C  47.42600 16.37200 31.10000
C  48.01300 16.87700 32.41800
C  49.06400 17.85000 31.84600
C  49.27800 17.40600 30.41600
C  48.65500 19.33500 31.89200
C  48.63200 15.70500 33.16100
C  48.75900 16.01400 34.72000
H  49.01700 17.41900 35.16000
N  49.77200 16.86800 27.35000
C  50.68900 17.46300 28.21400
C  51.91800 17.76400 27.48700
C  51.76700 17.25200 26.17900
C  50.32200 16.79100 26.07500
C  53.25500 18.20000 28.15800
C  52.76600 17.19500 24.99400
O  52.41300 16.64100 23.94700
C  54.14500 17.73500 25.11900
N  47.41400 15.53300 25.86600
C  48.27200 15.92600 24.88000
C  47.61000 15.80700 23.50800
C  46.21800 15.19000 23.91000
C  46.31700 14.96900 25.39300
C  47.52400 17.06000 22.61700
C  45.86600 13.96100 23.12700
C  46.44300 12.55900 23.58600
N  46.05900 15.31000 28.33500
C  45.08600 14.69600 27.58500
C  44.00600 14.29100 28.45400
C  44.32100 14.70000 29.80700
C  45.60600 15.29100 29.65000
C  42.81400 13.49200 28.04300
C  43.97900 14.68300 31.15200
O  42.97400 14.28200 31.70200
C  45.13500 15.35900 31.94700
C  44.60100 16.49200 32.70600
O  44.23000 17.52800 32.21400
O  44.38700 16.15900 34.03900
C  43.80900 17.18500 34.93600
H  51.31800 18.10800 30.06400
H  50.07800 16.42800 24.01100
H  44.36700 14.19300 25.62800
H  47.35500 17.48000 33.04500
H  50.01600 17.74000 32.36600
H  47.57900 19.40800 32.05300
H  48.91700 19.97500 31.04900
H  49.07700 19.80500 32.78000
H  49.62200 15.47200 32.77000
H  47.96900 14.84400 33.07000
H  49.63800 15.42600 34.98300
H  47.84700 15.67800 35.21300
H  54.07200 17.71400 27.62500
H  53.23400 17.96800 29.22300
H  53.44300 19.25600 27.96300
H  54.80500 17.06000 25.66400
H  53.96200 18.75800 25.44900
H  54.46900 17.91000 24.09400
H  48.24100 15.09100 22.98000
H  45.45400 15.96500 23.84400
H  48.29100 17.69900 23.05400
H  46.58100 17.60600 22.65600
H  47.73500 16.75900 21.59100
H  46.26900 14.12900 22.12800
H  44.79100 13.78300 23.09100
H  46.76900 12.10300 22.65100
H  45.64900 11.94700 24.01400
H  47.28700 12.67200 24.26600
H  42.38900 12.92800 28.87400
H  43.10100 12.72800 27.32100
H  42.12100 14.13200 27.49700
H  45.56800 14.68000 32.68200
H  42.97900 17.55800 34.33600
H  44.61500 17.90600 35.07500
H  43.46000 16.82500 35.90300

