158

Mg 47.56300 25.69300 27.83500
C  48.62900 27.84800 30.37200
C  46.68300 23.44500 30.01800
C  46.97800 23.71500 25.28300
C  49.11700 27.98500 25.54100
N  47.47000 25.75500 29.99800
C  47.89200 26.72300 30.87400
C  47.38400 26.42800 32.30600
C  46.70700 24.95500 32.10800
C  46.99200 24.68500 30.62600
C  47.11800 23.91600 33.11800
C  46.31200 27.47300 32.82000
C  45.49900 27.15700 34.17400
H  45.38600 28.14900 35.31500
N  46.81900 23.83200 27.64700
C  46.54300 23.02000 28.69600
C  46.10300 21.72400 28.17200
C  46.08500 21.75600 26.78000
C  46.64800 23.13000 26.47000
C  45.59000 20.60000 29.03600
C  45.55100 20.81500 25.69100
O  45.50600 21.08500 24.51400
C  44.92100 19.53800 26.05300
N  48.33300 25.67000 25.67400
C  47.66600 24.80200 24.84000
C  47.92400 25.12200 23.30600
C  48.86700 26.43900 23.42600
C  48.79400 26.71300 24.95200
C  48.42200 23.97500 22.43800
C  48.57100 27.62100 22.45400
C  49.66700 27.84400 21.36200
N  48.58200 27.52000 27.89400
C  49.09500 28.38700 26.90500
C  49.68800 29.57300 27.47900
C  49.51600 29.39900 28.82800
C  48.87800 28.13400 29.04700
C  50.21800 30.70300 26.68700
C  49.72100 29.96400 30.11500
O  50.22600 31.05700 30.36300
C  49.06100 29.02200 31.15200
C  50.07300 28.71100 32.18100
O  51.07100 28.03200 31.98000
O  49.74600 29.37500 33.30700
C  50.72500 29.25000 34.44100
H  46.39000 22.66200 30.72100
H  46.75000 23.03800 24.45700
H  49.60800 28.67900 24.85500
H  48.24900 26.37600 32.96600
H  45.62000 25.03000 32.15000
H  47.64400 24.38100 33.95300
H  47.61900 23.16200 32.51100
H  46.27400 23.47400 33.64700
H  45.65600 27.70900 31.98200
H  46.86500 28.34200 33.17400
H  45.80700 26.17900 34.54300
H  44.48600 27.13600 33.77100
H  44.50500 20.69400 29.00900
H  45.90500 20.69900 30.07500
H  45.85700 19.59900 28.69800
H  45.60300 18.75400 26.38100
H  44.31300 19.17300 25.22500
H  44.21300 19.75400 26.85300
H  47.00900 25.48400 22.83700
H  49.89500 26.12900 23.23500
H  49.40200 24.34000 22.12900
H  47.85900 23.84000 21.51400
H  48.54600 23.11800 23.09900
H  48.55400 28.58000 22.97200
H  47.60000 27.54100 21.96600
H  49.19700 27.66400 20.39500
H  50.59600 27.28900 21.49100
H  49.99100 28.88400 21.41000
H  51.29600 30.60800 26.55900
H  50.02500 31.68700 27.11400
H  49.72300 30.62700 25.71800
H  48.23200 29.63500 31.50500
H  51.78500 29.20800 34.18600
H  50.57400 28.39700 35.10200
H  50.61900 30.22000 34.92800
Mg 17.48100 52.70300 26.47900
C  19.38000 51.42800 29.17200
C  14.86900 53.17100 28.63800
C  15.70300 53.71000 23.90400
C  20.07000 51.53600 24.31300
N  17.13600 52.39100 28.66300
C  18.14100 52.04000 29.54800
C  17.71200 52.21700 30.99200
C  16.18300 52.63400 30.92500
C  16.05100 52.72600 29.34000
C  15.15100 51.68400 31.64800
C  18.67200 53.15200 31.84800
C  18.86000 52.94100 33.33300
H  17.73000 52.15100 34.07200
N  15.53500 53.29900 26.29400
C  14.59300 53.45800 27.31500
C  13.36100 54.05200 26.85700
C  13.65400 54.27800 25.45300
C  15.04900 53.79200 25.18100
C  12.18200 54.40500 27.79700
C  12.77500 55.00200 24.37500
O  13.18800 55.30200 23.25000
C  11.52200 55.69600 24.89100
N  17.89100 52.73500 24.45300
C  16.93400 53.21700 23.60900
C  17.48000 53.20300 22.17900
C  18.88800 52.55400 22.26600
C  18.93700 52.19700 23.72800
C  16.54800 52.39600 21.17700
C  20.03200 53.50800 21.70400
C  20.17200 54.75700 22.60700
N  19.27800 51.63000 26.65100
C  20.17600 51.31500 25.71100
C  21.28200 50.69200 26.30300
C  20.97700 50.64200 27.66000
C  19.76800 51.28800 27.85600
C  22.38300 49.98500 25.67800
C  21.48800 50.23200 28.94800
O  22.47800 49.57800 29.28700
C  20.50300 50.74600 30.00200
C  19.87300 49.63300 30.81100
O  18.96600 48.93800 30.41800
O  20.44200 49.39500 32.03400
C  19.81200 48.55800 33.00600
H  14.04100 53.48900 29.27500
H  15.19100 54.00100 22.98500
H  20.85000 51.15300 23.65200
H  17.83600 51.21000 31.38800
H  16.03400 53.67200 31.21900
H  14.76400 51.05400 30.84700
H  14.34300 52.21400 32.15300
H  15.62800 51.05600 32.40100
H  18.17000 54.10600 31.68600
H  19.62600 53.25600 31.33100
H  18.96700 53.88700 33.86400
H  19.81600 52.44300 33.49200
H  11.22000 54.53000 27.29800
H  12.51200 55.28900 28.34200
H  12.07200 53.67600 28.59900
H  10.90000 54.88900 25.27800
H  11.14100 56.14400 23.97400
H  11.75400 56.50400 25.58400
H  17.46100 54.24900 21.87400
H  19.09200 51.59700 21.78700
H  16.74200 51.32900 21.28200
H  16.73500 52.87800 20.21700
H  15.50800 52.60900 21.42500
H  19.82200 53.86000 20.69400
H  21.03200 53.07500 21.72000
H  19.64800 55.68600 22.38500
H  21.23000 54.97900 22.47100
H  19.98300 54.43700 23.63200
H  22.93400 50.71000 25.07800
H  21.95000 49.32000 24.93100
H  23.04100 49.32700 26.24500
H  20.93400 51.54100 30.61000
H  19.93000 49.02500 33.98400
H  20.27200 47.57100 33.04400
H  18.73300 48.55100 32.84700

