158

Mg 50.93400 45.64900 43.52200
C  48.08100 47.04100 42.15800
C  50.18500 42.65400 42.06000
C  54.10800 44.63300 44.11600
C  51.74100 48.70600 44.90100
N  49.29500 45.01300 42.25600
C  48.20000 45.65300 41.90900
C  47.16400 44.78000 41.20100
C  47.82500 43.35100 41.39500
C  49.24600 43.68400 41.94500
C  47.22900 42.40700 42.50200
C  46.96500 45.31400 39.74700
C  45.50300 45.53200 39.37300
H  44.93800 44.59700 38.31400
N  51.96400 43.84200 43.19300
C  51.47300 42.69000 42.57200
C  52.59100 41.71400 42.45100
C  53.78100 42.31600 42.94900
C  53.29700 43.63100 43.48200
C  52.47200 40.38700 41.77800
C  55.22900 41.76500 42.95400
O  55.47700 40.54700 42.60800
C  56.49600 42.50800 43.42200
N  52.65700 46.52600 44.40200
C  53.83400 45.90500 44.49300
C  54.91900 46.74600 45.20700
C  54.06800 47.94400 45.69800
C  52.75600 47.73300 44.92700
C  55.86200 46.18500 46.32500
C  54.84100 49.24300 45.32500
C  54.74300 50.29000 46.43900
N  50.06000 47.55300 43.66600
C  50.47400 48.71700 44.23500
C  49.54100 49.80700 43.95800
C  48.55000 49.13400 43.15700
C  48.97100 47.80700 42.91600
C  49.59300 51.17100 44.47400
C  47.35200 49.39000 42.36500
O  46.80400 50.40500 42.05700
C  46.95500 47.99000 41.71100
C  45.52500 47.65100 42.16600
O  45.30600 46.96400 43.13100
O  44.52900 48.06500 41.24100
C  43.19100 47.78500 41.80500
H  50.00700 41.69500 41.56900
H  55.15700 44.38500 44.28600
H  52.00900 49.62700 45.42300
H  46.27300 45.03400 41.77500
H  47.90400 42.73800 40.49600
H  47.79600 42.42600 43.43300
H  47.31600 41.35900 42.21500
H  46.19300 42.67200 42.71100
H  47.47500 44.56900 39.13700
H  47.46000 46.23900 39.45000
H  45.37300 46.54400 38.98900
H  44.85300 45.47300 40.24600
H  53.44300 40.03500 41.42900
H  51.83700 40.52200 40.90300
H  51.99200 39.66100 42.43400
H  56.54700 42.67500 44.49800
H  56.53200 43.49600 42.96400
H  57.38600 41.92100 43.19400
H  55.48700 47.10900 44.35100
H  53.83100 47.76700 46.74700
H  55.63400 45.11900 46.34500
H  55.59800 46.70000 47.24900
H  56.86100 46.43600 45.97100
H  54.42100 49.60200 44.38500
H  55.91100 49.07000 45.21000
H  54.14400 51.11300 46.04900
H  55.72100 50.73300 46.62800
H  54.30800 50.02800 47.40300
H  49.02000 51.68300 43.70200
H  50.56900 51.64700 44.57100
H  49.09900 51.16800 45.44600
H  46.86800 48.20200 40.64600
H  42.48200 48.44900 41.30900
H  43.10400 47.83300 42.89000
H  43.05400 46.77100 41.42900
Mg 41.70200 41.10300 26.56400
C  40.85800 43.26700 29.13100
C  42.75700 38.83900 28.85300
C  43.11600 39.48300 23.87400
C  40.87300 43.74300 24.28800
N  41.83200 41.07100 28.83000
C  41.40300 42.08200 29.67400
C  41.55900 41.70500 31.19200
C  42.30500 40.28200 31.08500
C  42.25900 39.95900 29.54000
C  43.78700 40.15700 31.63800
C  40.14900 41.64200 31.85800
C  40.02300 42.42800 33.25300
H  39.38700 41.77500 34.46600
N  42.63200 39.34200 26.38100
C  42.84400 38.56100 27.46900
C  43.57100 37.40300 26.91300
C  43.90400 37.61700 25.49700
C  43.24400 38.88700 25.19500
C  43.88600 36.18000 27.78900
C  44.77000 36.80500 24.56400
O  45.01700 37.18900 23.39900
C  45.50200 35.54800 24.98100
N  42.15100 41.65000 24.39100
C  42.57000 40.71400 23.54600
C  42.44100 41.16600 22.09200
C  41.40000 42.35800 22.21800
C  41.50200 42.70300 23.71700
C  43.83000 41.56700 21.48300
C  39.93600 42.01300 21.73200
C  39.04600 41.23700 22.70800
N  41.14600 43.10100 26.60200
C  40.71100 43.99400 25.69000
C  40.34900 45.24200 26.26500
C  40.23300 44.93100 27.61400
C  40.75900 43.60100 27.80300
C  39.94900 46.47200 25.63000
C  39.74300 45.43600 28.86500
O  39.12500 46.42900 29.17800
C  40.28700 44.43900 29.90500
C  41.32300 45.18200 30.75600
O  42.54300 45.11900 30.63900
O  40.67300 45.94900 31.71700
C  41.39200 46.22500 32.92900
H  43.30000 38.17600 29.53000
H  43.41600 38.80000 23.07600
H  40.47500 44.51900 23.63100
H  42.12000 42.53000 31.63000
H  41.81400 39.48300 31.64000
H  44.01200 39.15000 31.99100
H  43.93300 40.83600 32.47800
H  44.58200 40.49100 30.97200
H  39.96100 40.59300 32.08600
H  39.36900 42.01100 31.19200
H  39.51500 43.36800 33.03700
H  41.04900 42.69500 33.50900
H  43.63000 35.23900 27.30200
H  43.38600 36.15400 28.75700
H  44.96600 36.17800 27.94100
H  46.08300 35.80500 25.86700
H  46.22600 35.19900 24.24500
H  44.72700 34.80400 25.16400
H  42.14700 40.40000 21.37400
H  41.70500 43.23500 21.64800
H  44.48800 41.45300 22.34400
H  43.96500 42.61900 21.23000
H  44.11200 40.95200 20.62900
H  40.06500 41.37900 20.85400
H  39.36300 42.93300 21.62000
H  39.76100 40.69800 23.32900
H  38.41100 40.49500 22.22500
H  38.39300 41.88200 23.29700
H  40.56400 46.72300 24.76600
H  40.00100 47.15200 26.48000
H  38.89000 46.36800 25.39300
H  39.49800 44.25900 30.63600
H  42.24300 46.85000 32.66000
H  41.64700 45.27100 33.39100
H  40.71700 46.70900 33.63500

