158

Mg 1.87500 -1.80000 43.95400
C  5.23500 -1.40100 43.40900
C  1.32200 1.12700 42.38400
C  -1.37800 -2.58500 44.10100
C  2.53700 -5.06700 45.14500
N  3.17800 -0.36900 42.83200
C  4.51700 -0.36100 42.85400
C  5.05300 0.82700 42.08400
C  3.79700 1.78400 41.85800
C  2.68700 0.79700 42.40000
C  3.82000 3.19100 42.60800
C  5.70400 0.51200 40.73000
C  6.87000 1.40700 40.41200
H  6.73800 2.24400 39.18000
N  0.18800 -0.80900 43.34000
C  0.12100 0.46400 42.81400
C  -1.20800 0.78900 42.63200
C  -2.06200 -0.22500 43.20900
C  -1.07600 -1.30100 43.61400
C  -1.74100 2.06600 42.08600
C  -3.62400 -0.22800 43.42400
O  -4.29700 0.56500 42.81000
C  -4.28400 -1.13600 44.35500
N  0.73200 -3.59300 44.56200
C  -0.57200 -3.67600 44.55200
C  -1.15900 -5.05700 44.91600
C  0.08300 -5.88100 45.09700
C  1.20200 -4.78200 44.91700
C  -2.16000 -4.98400 46.04700
C  0.38800 -7.05800 44.01900
C  0.15600 -8.50700 44.46900
N  3.55900 -3.03500 44.33100
C  3.69000 -4.29800 44.84700
C  5.12900 -4.60100 44.92200
C  5.78400 -3.48700 44.39000
C  4.78300 -2.55200 44.07900
C  5.77400 -5.79200 45.51500
C  6.96200 -2.96200 44.06800
O  8.09300 -3.44000 44.23000
C  6.72600 -1.52000 43.43700
C  7.45000 -0.45000 44.23900
O  7.57200 -0.34100 45.46500
O  8.01000 0.48600 43.43300
C  8.80000 1.54000 44.23500
H  1.04400 2.02900 41.83500
H  -2.41000 -2.93900 44.15000
H  2.74500 -6.10800 45.40300
H  5.73500 1.35200 42.75300
H  3.61800 1.98300 40.80200
H  3.90100 4.03900 41.92800
H  4.72300 3.27400 43.21200
H  3.03200 3.25800 43.35900
H  4.96000 0.67100 39.95000
H  5.89300 -0.53800 40.50600
H  7.81900 0.88800 40.28000
H  7.15900 2.10700 41.19700
H  -2.61600 1.85400 41.47200
H  -1.09000 2.58600 41.38300
H  -1.86300 2.93900 42.72800
H  -5.25800 -0.67400 44.51900
H  -3.57700 -1.36700 45.15100
H  -4.43000 -2.03200 43.75300
H  -1.71200 -5.36400 44.02900
H  0.25400 -6.13100 46.14400
H  -1.84800 -5.75700 46.75000
H  -3.18800 -5.07900 45.69800
H  -2.08600 -4.00400 46.51800
H  1.45000 -7.03900 43.77400
H  -0.14000 -6.73800 43.12100
H  -0.50800 -9.05800 43.80300
H  -0.44700 -8.59200 45.37300
H  1.09500 -9.04100 44.61900
H  6.40700 -6.34000 44.81800
H  4.96500 -6.43800 45.85900
H  6.32000 -5.35900 46.35300
H  7.29800 -1.53300 42.50900
H  8.01700 2.23100 44.54700
H  9.57200 1.99100 43.61300
H  9.45500 1.10400 44.98900
Mg 9.59800 47.09300 26.82200
C  7.52800 47.05400 29.76500
C  12.20600 47.76400 28.96800
C  11.35000 47.76600 24.13000
C  6.58100 47.07100 24.87600
N  9.77900 47.43600 29.10300
C  8.86800 47.22800 30.11200
C  9.49800 47.54400 31.53600
C  10.98400 48.05000 31.25300
C  10.97800 47.76600 29.67400
C  11.25400 49.56200 31.63900
C  9.21200 46.34400 32.57900
C  10.16600 46.23500 33.76100
H  9.61900 45.77900 35.11100
N  11.51900 47.37800 26.61200
C  12.44000 47.69900 27.58000
C  13.72900 48.01500 26.94500
C  13.43300 48.15100 25.55500
C  12.05400 47.68800 25.38500
C  14.96800 48.33000 27.73900
C  14.34900 48.63600 24.37600
O  13.98500 48.74100 23.18400
C  15.80800 48.82900 24.68200
N  9.02100 47.50400 24.75300
C  9.99800 47.63900 23.81500
C  9.27100 47.81700 22.40900
C  7.76300 47.46800 22.64700
C  7.79400 47.28100 24.16100
C  9.63700 49.22800 21.82800
C  7.28100 46.23700 21.78400
C  8.01900 44.91000 22.12900
N  7.48800 47.08000 27.13300
C  6.42900 47.00900 26.27400
C  5.19500 47.09300 27.02500
C  5.63400 46.97700 28.34400
C  6.98000 47.01800 28.40500
C  3.84300 47.05000 26.49800
C  5.08600 46.76600 29.70100
O  3.93800 46.69400 30.15600
C  6.38400 46.85000 30.66700
C  6.38800 45.52000 31.36600
O  6.95500 44.46300 31.02600
O  5.66100 45.61800 32.46400
C  5.54700 44.39700 33.31400
H  13.02600 47.94100 29.66600
H  11.82400 48.08900 23.20100
H  5.65700 46.93300 24.31000
H  8.91200 48.41400 31.83200
H  11.70100 47.39300 31.74500
H  11.98500 49.69500 32.43700
H  10.39400 50.03500 32.11300
H  11.53300 50.06900 30.71600
H  9.30100 45.45400 31.95600
H  8.19900 46.42100 32.97400
H  10.72300 47.15600 33.93100
H  10.79400 45.41200 33.41900
H  15.38300 49.24000 27.30400
H  15.70500 47.53400 27.63200
H  14.82300 48.57300 28.79100
H  15.93000 49.82400 25.11100
H  16.40400 48.67100 23.78300
H  16.12000 48.05100 25.38000
H  9.77800 47.18100 21.68400
H  7.19300 48.37900 22.46100
H  10.12300 49.78000 22.63300
H  8.82700 49.76300 21.33200
H  10.39000 49.14800 21.04300
H  7.32300 46.52600 20.73400
H  6.24900 46.06800 22.09200
H  8.63000 44.46000 21.34700
H  7.34400 44.13000 22.48300
H  8.74800 45.03100 22.93000
H  3.71100 48.01100 26.00200
H  3.19100 46.93900 27.36500
H  3.77100 46.31300 25.69700
H  6.30300 47.59100 31.46200
H  5.50500 43.42200 32.82700
H  4.59700 44.39900 33.84800
H  6.42400 44.38300 33.96100

