158

Mg 45.83600 5.34400 48.24700
C  43.45400 7.90800 47.29700
C  43.28700 3.07800 47.14400
C  48.09400 3.07900 48.11700
C  48.17000 7.86800 48.66700
N  43.52600 5.49700 47.38600
C  42.93900 6.62600 46.97900
C  41.62500 6.33800 46.25700
C  41.39600 4.82600 46.65200
C  42.83300 4.40000 47.06000
C  40.34200 4.66600 47.80700
C  41.60500 6.66300 44.75400
C  40.41300 7.56400 44.28500
H  39.57800 7.04400 43.10000
N  45.72900 3.31000 47.87100
C  44.60400 2.60300 47.47200
C  45.02700 1.17100 47.44700
C  46.44000 1.10300 47.54900
C  46.82700 2.51800 47.82400
C  44.06800 0.05500 47.17800
C  47.25900 -0.13300 47.47600
O  46.73200 -1.22800 47.22300
C  48.86900 -0.18900 47.58800
N  47.83800 5.51100 48.29200
C  48.58700 4.35300 48.34900
C  50.03500 4.59000 48.73100
C  50.00800 6.12400 48.94600
C  48.59600 6.52800 48.63600
C  50.61500 3.73600 49.84700
C  51.01400 6.94100 48.09900
C  52.00800 7.98700 48.79800
N  45.82700 7.46700 48.26700
C  46.89800 8.32500 48.41900
C  46.41600 9.66400 48.08100
C  45.07600 9.55900 47.73900
C  44.74400 8.17900 47.83000
C  47.34400 10.84600 48.07600
C  43.84900 10.27300 47.36000
O  43.73600 11.49500 47.06600
C  42.76000 9.24200 47.12700
C  41.78800 9.50500 48.29400
O  41.87600 8.85700 49.32300
O  40.87200 10.44900 47.98200
C  39.80000 10.66600 48.96200
H  42.55100 2.31800 46.87400
H  48.92900 2.39300 48.27300
H  48.91100 8.63700 48.89500
H  40.88400 6.90800 46.81600
H  41.00300 4.30300 45.78000
H  39.80900 5.55300 48.14900
H  40.78100 4.27800 48.72600
H  39.58300 3.91200 47.60000
H  41.68700 5.73000 44.19600
H  42.47300 7.27600 44.51100
H  40.87300 8.50000 43.96900
H  39.80000 7.84100 45.14300
H  43.07200 0.44700 46.97000
H  43.84900 -0.52900 48.07200
H  44.42200 -0.57400 46.36100
H  49.25700 -1.20700 47.55400
H  49.13600 0.10400 48.60300
H  49.41100 0.48500 46.92400
H  50.69100 4.33300 47.90000
H  50.24800 6.35400 49.98400
H  51.41300 4.18900 50.43400
H  50.93200 2.82000 49.34800
H  49.83900 3.29600 50.47400
H  50.41400 7.57000 47.44100
H  51.62800 6.28500 47.48300
H  51.80200 8.96300 48.35900
H  53.02000 7.68800 48.52500
H  52.05400 7.98500 49.88700
H  47.87900 10.86800 47.12700
H  47.98800 10.88600 48.95500
H  46.67200 11.70100 48.15200
H  42.20400 9.34500 46.19500
H  39.52700 9.76600 49.51300
H  38.93000 10.94900 48.36900
H  40.03700 11.50000 49.62400
Mg 34.87400 1.95100 29.30000
C  33.00500 3.21400 31.94700
C  37.66500 2.03300 31.50700
C  36.90500 1.41800 26.75300
C  32.30900 2.80700 27.09100
N  35.19800 2.40300 31.52500
C  34.29000 2.89200 32.42100
C  34.90800 3.09100 33.85200
C  36.40600 2.73900 33.61200
C  36.46000 2.36000 32.11300
C  37.40800 3.84500 34.07500
C  34.18800 2.19800 34.92300
C  33.71500 2.78900 36.18600
H  34.59300 3.81900 36.91000
N  36.95300 1.46600 29.20600
C  37.88700 1.58900 30.18400
C  39.06500 1.10400 29.68100
C  38.94400 0.84100 28.31400
C  37.53600 1.26000 28.00900
C  40.27500 1.10900 30.54300
C  39.91300 0.35200 27.32700
O  39.68700 0.20200 26.13900
C  41.37700 0.11400 27.75900
N  34.66500 2.05800 27.20800
C  35.64100 1.77000 26.35100
C  35.19700 2.13300 24.92700
C  33.65900 2.19600 25.03800
C  33.48200 2.33800 26.52100
C  36.01500 3.27300 24.21400
C  32.84900 1.02800 24.36000
C  32.75900 -0.26000 25.24900
N  33.06600 2.93600 29.39300
C  32.12400 3.19400 28.45600
C  30.98600 3.84800 29.04200
C  31.27100 3.85100 30.41300
C  32.60500 3.33800 30.58400
C  29.75500 4.22800 28.36100
C  30.74600 4.13400 31.67900
O  29.67500 4.65400 32.05500
C  31.94300 3.87200 32.70300
C  32.32900 5.14200 33.41900
O  33.10000 5.94900 32.92100
O  31.72200 5.30900 34.63700
C  31.89300 6.69400 35.12200
H  38.48100 2.11800 32.22800
H  37.47300 1.37300 25.82100
H  31.48600 2.96200 26.39100
H  34.88200 4.14500 34.12900
H  36.78500 1.88500 34.17300
H  37.99100 4.18400 33.21800
H  38.01700 3.33300 34.82000
H  36.83000 4.71100 34.39700
H  34.68300 1.26400 35.19100
H  33.22500 1.98100 34.46200
H  33.53600 2.02800 36.94600
H  32.75100 3.26800 36.01400
H  40.42500 2.04300 31.08400
H  41.25400 0.86000 30.13200
H  40.22700 0.30300 31.27500
H  41.29900 -0.76100 28.40400
H  41.70600 1.07700 28.15000
H  41.97900 -0.13300 26.88500
H  35.42400 1.21000 24.39400
H  33.16900 3.07900 24.62700
H  36.53800 2.90000 23.33300
H  36.78200 3.65100 24.89000
H  35.27100 3.98200 23.85200
H  33.32100 0.61300 23.47000
H  31.83300 1.32300 24.09700
H  33.05200 -1.15000 24.69200
H  31.75200 -0.45900 25.61600
H  33.45600 -0.15300 26.08100
H  29.17000 3.32700 28.17800
H  29.94500 4.78400 27.44400
H  29.20900 4.88200 29.04100
H  31.60400 3.13100 33.42700
H  32.05900 7.46100 34.36600
H  32.68300 6.60800 35.86800
H  31.06600 6.92400 35.79400

