158

Mg 50.43900 46.21300 40.81000
C  47.28400 47.38900 39.96800
C  49.56200 43.11900 39.60700
C  53.53800 45.20100 41.34400
C  51.42800 49.57800 41.42000
N  48.66300 45.36400 39.97000
C  47.46500 46.04200 39.60000
C  46.45000 45.07900 38.96000
C  47.08500 43.74000 39.21600
C  48.55000 44.10300 39.60600
C  46.42300 42.88800 40.38700
C  46.15700 45.43100 37.43500
C  45.12700 44.50800 36.79200
H  45.68500 43.77700 35.54800
N  51.46200 44.40100 40.55300
C  50.86200 43.25800 40.11800
C  51.84800 42.17700 40.17300
C  53.00000 42.73800 40.72800
C  52.72800 44.15900 40.90800
C  51.55400 40.77400 39.81500
C  54.26800 41.95000 41.01900
O  54.33500 40.79400 40.67200
C  55.45700 42.52400 41.74400
N  52.29500 47.32500 41.14400
C  53.34400 46.57200 41.56200
C  54.51000 47.51900 41.88800
C  53.89100 48.92000 41.97300
C  52.45100 48.61900 41.49900
C  55.33000 46.99300 43.13400
C  54.54700 49.94000 40.98900
C  54.79800 51.22900 41.67600
N  49.48800 48.13000 40.77700
C  50.06200 49.37100 41.04000
C  49.01200 50.40900 40.86800
C  47.89600 49.62300 40.43000
C  48.25100 48.30700 40.42200
C  49.13400 51.88600 41.02300
C  46.49600 49.68900 40.02700
O  45.74100 50.63900 40.12400
C  46.15500 48.21300 39.55700
C  44.87300 47.69600 40.28800
O  44.79300 47.23100 41.41800
O  43.80100 47.97500 39.56100
C  42.45500 47.61100 40.02300
H  49.27500 42.11100 39.30100
H  54.60100 44.98600 41.46600
H  51.59300 50.61700 41.71200
H  45.54200 45.20800 39.55000
H  47.17400 43.19500 38.27600
H  45.79100 43.51900 41.01100
H  47.24600 42.56900 41.02600
H  45.85800 42.05500 39.96700
H  47.11300 45.56100 36.92700
H  45.61300 46.37200 37.35400
H  44.27800 45.14600 36.54500
H  44.70800 43.66200 37.33700
H  50.72500 40.78000 39.10800
H  51.27500 40.26300 40.73600
H  52.34300 40.18500 39.34700
H  54.95300 42.94200 42.61600
H  55.99200 43.29600 41.19100
H  56.09500 41.69000 42.03700
H  55.17100 47.47500 41.02300
H  53.72700 49.08400 43.03800
H  54.87400 46.13500 43.62700
H  55.58300 47.66700 43.95300
H  56.31800 46.61000 42.87800
H  53.89500 50.10500 40.13200
H  55.47100 49.53700 40.57400
H  54.74600 51.06300 42.75200
H  54.02700 51.91400 41.32200
H  55.76100 51.63300 41.36400
H  48.79400 52.17800 42.01600
H  48.64000 52.47300 40.24900
H  50.19400 52.10500 40.89900
H  46.11000 48.24200 38.46800
H  41.85900 47.45600 39.12300
H  41.92200 48.25400 40.72300
H  42.64200 46.63400 40.46900
Mg 16.38500 51.79100 26.15600
C  17.92800 49.99000 28.74500
C  14.02000 52.93100 28.36800
C  14.77200 53.08600 23.51500
C  18.63600 50.18900 23.94900
N  16.10300 51.63400 28.35300
C  16.91500 50.89300 29.20400
C  16.62700 51.26100 30.69500
C  15.24700 52.00100 30.51800
C  15.05900 52.14500 29.02400
C  14.10300 51.26200 31.21200
C  17.78900 52.19800 31.28700
C  17.90600 52.43500 32.78800
H  16.97900 51.63400 33.76600
N  14.58400 52.83300 25.96200
C  13.80100 53.27200 27.00700
C  12.80300 54.16500 26.45900
C  12.92500 54.02700 25.01000
C  14.14700 53.33700 24.76600
C  11.77300 54.88400 27.36600
C  12.03500 54.62100 23.97100
O  12.28000 54.54500 22.78300
C  10.83500 55.37800 24.38800
N  16.45800 51.37800 23.81800
C  15.84600 52.28600 23.09700
C  16.70700 52.59700 21.82700
C  17.93600 51.60500 21.94800
C  17.66400 51.01400 23.29200
C  16.04700 52.47200 20.46200
C  19.31800 52.40300 21.84900
C  20.44100 51.74000 20.95500
N  17.86500 50.30700 26.24500
C  18.71000 49.74100 25.28800
C  19.69400 48.83200 25.82600
C  19.39300 48.88200 27.22900
C  18.31400 49.74300 27.38400
C  20.80600 48.16800 25.08000
C  19.82500 48.51000 28.55500
O  20.88400 48.03900 28.93000
C  18.82700 49.16800 29.60400
C  18.19300 48.08800 30.41100
O  17.55500 47.16700 29.94500
O  18.70400 48.13100 31.75100
C  18.41000 46.95500 32.59400
H  13.45600 53.37900 29.18900
H  14.51900 53.86200 22.79000
H  19.45300 49.92800 23.27400
H  16.50400 50.32000 31.23100
H  15.21800 52.98700 30.98200
H  14.39200 50.32200 31.68100
H  13.42900 50.92700 30.42300
H  13.64400 51.93400 31.93700
H  17.54900 53.22800 31.02200
H  18.78100 51.93200 30.92100
H  17.85600 53.50000 33.01500
H  18.89100 52.09400 33.10500
H  10.73800 54.76500 27.04700
H  12.07400 55.92600 27.47900
H  11.78900 54.50700 28.38800
H  10.21500 54.74600 25.02400
H  10.29100 55.75400 23.52100
H  11.24200 56.26800 24.86800
H  17.05000 53.62700 21.92800
H  17.82900 50.79700 21.22500
H  15.00600 52.15200 20.50100
H  16.47700 51.79900 19.71900
H  16.05800 53.47500 20.03700
H  19.70000 52.48300 22.86700
H  19.23400 53.46400 21.61400
H  20.89600 52.43400 20.24900
H  20.16100 50.86400 20.36900
H  21.13500 51.26800 21.65000
H  21.36600 48.81900 24.40800
H  20.47300 47.26600 24.56800
H  21.53400 47.91600 25.85100
H  19.52000 49.72400 30.23600
H  17.34200 46.73800 32.56700
H  18.90600 47.02100 33.56200
H  18.96200 46.13700 32.13300

