158

Mg 35.44800 2.29700 29.67700
C  33.79400 3.36400 32.54600
C  38.26200 2.10200 31.70400
C  37.41300 1.76900 26.94800
C  32.79900 3.37600 27.66400
N  35.99400 2.66600 31.94700
C  35.07900 3.04300 32.89900
C  35.72700 2.96300 34.36200
C  37.23100 2.78800 33.95600
C  37.21600 2.49800 32.47600
C  38.22500 3.96700 34.23500
C  35.15300 1.81300 35.17900
C  34.66900 2.18600 36.53500
H  35.35900 3.28700 37.31700
N  37.52800 1.91500 29.33300
C  38.47300 1.79200 30.33500
C  39.71700 1.31600 29.73000
C  39.45900 1.17600 28.34500
C  38.10100 1.66000 28.14000
C  40.88600 0.94400 30.49700
C  40.31100 0.68400 27.17700
O  39.97300 0.61300 25.97200
C  41.71500 0.29600 27.49100
N  35.13000 2.52400 27.55100
C  36.10600 2.19400 26.60900
C  35.43200 2.17600 25.23600
C  33.94900 2.54400 25.44300
C  33.93800 2.84300 26.91200
C  36.17400 3.11600 24.33200
C  32.94800 1.48000 24.89300
C  32.43300 0.32400 25.81200
N  33.65000 3.09200 30.01700
C  32.70100 3.47200 29.10500
C  31.50600 3.95800 29.83100
C  31.88200 3.89400 31.14200
C  33.18600 3.40200 31.24700
C  30.17200 4.45000 29.31300
C  31.47900 4.16200 32.46600
O  30.40700 4.60300 32.85300
C  32.62100 3.78500 33.41800
C  32.88800 5.04700 34.38000
O  33.58200 6.01700 34.12300
O  32.02900 4.92800 35.43700
C  31.92200 6.00800 36.38400
H  39.19300 1.95300 32.25500
H  37.95900 1.75400 26.00300
H  31.87500 3.63200 27.14100
H  35.53800 3.96800 34.73900
H  37.59600 1.89700 34.46700
H  38.72000 3.87900 35.20200
H  37.58700 4.85100 34.20700
H  38.95500 4.11100 33.43800
H  35.92100 1.06700 35.38200
H  34.32600 1.33200 34.65500
H  34.46200 1.32800 37.17400
H  33.66600 2.56300 36.33800
H  40.89100 -0.11400 30.76200
H  40.87000 1.40400 31.48600
H  41.82200 1.23400 30.01900
H  42.05700 1.26100 27.86700
H  42.29700 0.02600 26.60900
H  41.87700 -0.47500 28.24400
H  35.49100 1.12100 24.96800
H  33.75900 3.52500 25.00800
H  35.45700 3.78300 23.85500
H  36.59200 2.42800 23.59700
H  36.97400 3.68700 24.80400
H  33.37900 1.06400 23.98200
H  32.14500 2.09700 24.48800
H  33.10300 0.15200 26.65400
H  32.30000 -0.61700 25.27800
H  31.42100 0.58500 26.12200
H  29.72200 3.71600 28.64500
H  30.16900 5.38600 28.75500
H  29.56400 4.50300 30.21600
H  32.21900 2.94700 33.98800
H  30.87300 6.29700 36.45800
H  32.60400 6.83600 36.19500
H  32.15200 5.54200 37.34200
Mg 47.43000 16.70500 28.49700
C  45.89400 16.72600 31.52700
C  49.80900 18.87900 29.74400
C  48.65600 17.07400 25.26800
C  44.69500 15.05600 27.05900
N  47.94300 17.51300 30.45900
C  47.11600 17.38400 31.58000
C  47.78700 17.92900 32.83400
C  48.78100 18.97800 32.16900
C  48.89000 18.43200 30.70800
C  48.43600 20.53100 32.27400
C  48.27700 16.73300 33.73900
C  48.09600 16.84700 35.26100
H  47.79300 18.30600 35.80200
N  49.04500 17.70600 27.72200
C  49.96300 18.52300 28.39000
C  50.88300 19.10500 27.46000
C  50.60800 18.52900 26.17500
C  49.38600 17.74400 26.36200
C  51.77600 20.26400 27.78200
C  51.32300 18.77400 24.80200
O  50.83500 18.50500 23.76900
C  52.69400 19.49700 24.79100
N  46.70600 16.23600 26.41100
C  47.48700 16.37900 25.27000
C  46.77700 15.80500 24.02200
C  45.56300 15.02900 24.58600
C  45.66900 15.40100 26.12200
C  46.45000 16.90000 23.05500
C  45.51000 13.45600 24.40300
C  44.87700 13.01800 23.08700
N  45.65100 15.97300 29.09200
C  44.59800 15.32800 28.46300
C  43.61200 14.98600 29.43900
C  44.04200 15.54800 30.65200
C  45.30700 16.07400 30.41600
C  42.32000 14.31000 29.17800
C  43.68400 15.74400 32.03000
O  42.70000 15.31200 32.63400
C  44.83800 16.51600 32.69400
C  44.32300 17.79300 33.30500
O  43.90600 18.73300 32.71600
O  43.98900 17.46800 34.61600
C  43.28400 18.43200 35.44600
H  50.39600 19.72500 30.10800
H  48.99000 17.22600 24.24000
H  43.96000 14.34500 26.67900
H  47.10000 18.55900 33.39900
H  49.71400 18.74000 32.68000
H  49.33600 21.14100 32.35900
H  47.87500 20.72900 33.18700
H  47.90000 20.89500 31.39800
H  49.34600 16.67000 33.53400
H  47.83200 15.80900 33.36700
H  49.12900 16.63900 35.54000
H  47.32700 16.13700 35.56800
H  51.44000 21.16200 27.26300
H  52.78000 19.96400 27.48100
H  51.89200 20.43900 28.85200
H  52.35800 20.53300 24.81900
H  53.24900 19.29700 23.87400
H  53.32700 19.22600 25.63500
H  47.50200 15.14000 23.55200
H  44.65400 15.48600 24.19600
H  45.49500 16.69300 22.57300
H  47.23500 17.06000 22.31600
H  46.31900 17.84400 23.58500
H  45.12600 12.88900 25.25100
H  46.57300 13.21400 24.38100
H  45.49900 13.35500 22.25800
H  43.85200 13.34700 22.91800
H  44.77800 11.94100 23.22000
H  41.95800 14.53500 28.17400
H  41.45200 14.53600 29.79700
H  42.42400 13.23200 29.30300
H  45.21200 15.91500 33.52400
H  43.20800 19.32800 34.83100
H  43.85600 18.60100 36.35800
H  42.31600 17.94500 35.57200

