158

Mg 44.67800 4.34500 47.20600
C  42.82400 7.33600 47.30300
C  41.63500 2.67400 47.36300
C  46.33400 1.50700 46.55300
C  47.56400 6.25000 46.45400
N  42.48800 4.97300 47.12800
C  41.95600 6.25000 47.24300
C  40.47400 6.21500 47.15700
C  40.08900 4.70500 47.39700
C  41.47600 4.02800 47.27400
C  39.34700 4.37300 48.79200
C  39.79600 6.83700 45.86600
C  40.44400 6.89400 44.52400
H  39.80100 6.09800 43.37600
N  44.09000 2.36700 47.08200
C  42.77500 1.89200 47.23100
C  42.83500 0.49700 47.05100
C  44.10300 0.13800 46.53700
C  44.91300 1.35200 46.69600
C  41.58300 -0.45800 47.31600
C  44.47800 -1.19300 45.98100
O  43.70900 -2.14000 46.11800
C  45.82200 -1.54400 45.34300
N  46.69900 3.91200 46.53600
C  47.16100 2.64500 46.48000
C  48.67800 2.65900 46.32800
C  49.14500 4.18400 46.35400
C  47.67500 4.84700 46.46000
C  49.50900 1.82300 47.33500
C  50.04700 4.61500 45.16900
C  51.44700 3.94100 45.07000
N  45.19200 6.37400 47.01800
C  46.38200 7.00800 46.76000
C  46.14100 8.49200 46.59300
C  44.78500 8.60700 46.81500
C  44.26200 7.27300 47.08000
C  47.20300 9.55900 46.31200
C  43.74700 9.53800 46.92100
O  43.77400 10.77100 46.86500
C  42.43200 8.80200 47.24600
C  41.78400 9.20800 48.53400
O  41.88800 8.66500 49.60200
O  40.85400 10.20300 48.34300
C  40.11400 10.67100 49.49500
H  40.68400 2.13800 47.33300
H  46.79100 0.51500 46.56300
H  48.37600 6.97700 46.39000
H  40.13700 6.70100 48.07300
H  39.42800 4.34800 46.60800
H  39.04400 5.29100 49.29600
H  39.97600 3.86000 49.51900
H  38.43500 3.84500 48.51500
H  39.61600 7.89500 46.05500
H  38.85200 6.29800 45.78800
H  41.41200 6.46700 44.78600
H  40.71500 7.88600 44.16200
H  41.15200 -0.89400 46.41500
H  40.88700 0.12700 47.91600
H  41.88800 -1.34600 47.86900
H  46.51800 -1.77000 46.15100
H  46.05300 -0.73600 44.64900
H  45.83500 -2.44800 44.73500
H  48.98400 2.25000 45.36500
H  49.66900 4.45100 47.27100
H  48.97200 1.46900 48.21500
H  50.38700 2.30000 47.77100
H  49.95000 0.99900 46.77400
H  50.11400 5.70300 45.15700
H  49.44600 4.57500 44.26000
H  51.56200 3.32400 45.96100
H  52.33500 4.57000 45.11500
H  51.49100 3.31600 44.17800
H  46.79300 10.56800 46.26900
H  47.49400 9.32900 45.28700
H  47.94900 9.58900 47.10700
H  41.72900 9.02600 46.44300
H  40.14700 11.76100 49.49700
H  40.58700 10.50800 50.46300
H  39.05500 10.41800 49.44300
Mg -12.88000 16.48600 41.12600
C  -10.02100 14.89900 40.31400
C  -11.56600 19.36000 39.86500
C  -16.09200 17.74500 40.92600
C  -14.34100 13.29900 41.54200
N  -10.97200 17.00600 39.95400
C  -9.90700 16.20500 39.87600
C  -8.62200 16.97100 39.44000
C  -9.18500 18.43200 39.37500
C  -10.69600 18.29200 39.79900
C  -8.36900 19.57300 40.11900
C  -8.08700 16.39500 38.14200
C  -6.52500 16.18900 38.14200
H  -5.62300 16.82600 37.07500
N  -13.71300 18.28000 40.62600
C  -12.95200 19.38100 40.20200
C  -13.79900 20.55700 40.10200
C  -15.12600 20.15600 40.35400
C  -15.04800 18.66700 40.67600
C  -13.33100 21.92900 39.68100
C  -16.31300 20.99700 40.27000
O  -16.29300 22.15700 40.02800
C  -17.70700 20.45800 40.45400
N  -14.94400 15.63500 41.42700
C  -16.04100 16.39900 41.24000
C  -17.33900 15.48000 41.19400
C  -16.71300 14.17500 41.70600
C  -15.27400 14.35900 41.38800
C  -18.58000 15.92700 42.05800
C  -17.31600 12.76200 41.15900
C  -17.90500 11.73800 42.13800
N  -12.34000 14.59400 41.18300
C  -13.00200 13.35300 41.40800
C  -12.09100 12.21100 41.29700
C  -10.86400 12.82500 41.02500
C  -11.06900 14.23100 40.86600
C  -12.33300 10.75800 41.50700
C  -9.49700 12.52700 40.77700
O  -8.86900 11.46100 40.76500
C  -8.92100 13.83700 40.25000
C  -7.65000 14.06600 40.83700
O  -7.38100 14.87100 41.72000
O  -6.68300 13.39800 40.17300
C  -5.25800 13.49600 40.57200
H  -11.07100 20.28000 39.54600
H  -17.14500 18.01500 40.81900
H  -14.78600 12.30900 41.66000
H  -7.91100 16.87100 40.25900
H  -9.19000 18.67800 38.31300
H  -7.29500 19.39100 40.11800
H  -8.67100 19.59900 41.16600
H  -8.55100 20.55900 39.69200
H  -8.36200 17.01200 37.28700
H  -8.45000 15.37300 38.04300
H  -6.36100 15.12200 37.99300
H  -6.07900 16.40400 39.11400
H  -13.78800 22.35400 38.78800
H  -12.26300 21.90500 39.46600
H  -13.55700 22.60900 40.50200
H  -18.49600 21.10100 40.06300
H  -18.01400 20.31700 41.49100
H  -17.85000 19.53700 39.88900
H  -17.63500 15.48900 40.14500
H  -16.64800 14.05400 42.78700
H  -18.36000 16.89700 42.50400
H  -18.60500 15.24700 42.90900
H  -19.51500 15.82700 41.50700
H  -16.67900 12.14800 40.52300
H  -18.12800 13.02900 40.48200
H  -18.95300 11.63600 41.85300
H  -17.91000 12.03000 43.18800
H  -17.36100 10.79400 42.17800
H  -12.59800 10.59900 42.55300
H  -11.41000 10.21700 41.30100
H  -13.12500 10.39400 40.85400
H  -8.69300 13.67400 39.19700
H  -4.79000 12.56900 40.90500
H  -5.05600 14.39400 41.15500
H  -4.66500 13.70500 39.68100

