158

Mg 9.61700 48.52300 24.75300
C  7.52500 48.60500 27.65200
C  12.12100 49.88800 26.51600
C  11.45100 48.44300 22.04700
C  6.69700 47.47700 22.95400
N  9.70900 49.16300 26.95500
C  8.86300 49.03500 27.94200
C  9.45700 49.50000 29.27300
C  10.74300 50.24500 28.65600
C  10.89000 49.67400 27.28800
C  10.54100 51.76600 28.64100
C  9.76200 48.28000 30.13800
C  9.29100 48.55100 31.55600
H  9.46200 47.54900 32.72100
N  11.54700 48.99400 24.42300
C  12.42700 49.46700 25.26000
C  13.73200 49.51800 24.62600
C  13.57200 49.20900 23.27200
C  12.16900 48.87800 23.20800
C  14.96500 49.83900 25.42900
C  14.58500 48.99600 22.23000
O  14.31100 48.81600 21.05100
C  16.07000 49.02800 22.54400
N  9.08500 48.06100 22.77700
C  10.04400 48.06100 21.84400
C  9.58100 47.64100 20.45100
C  8.10800 47.17500 20.73300
C  7.93800 47.59500 22.24300
C  9.73400 48.87500 19.51600
C  7.83400 45.66100 20.50800
C  8.40700 44.70500 21.64400
N  7.49200 48.32300 25.15500
C  6.49700 47.94700 24.30700
C  5.28900 47.80800 24.99500
C  5.59700 47.93200 26.37700
C  6.97400 48.33300 26.41100
C  3.95900 47.42300 24.47400
C  5.13800 47.84300 27.68400
O  4.07700 47.47200 28.13400
C  6.35600 48.20200 28.60500
C  6.53800 47.02500 29.38200
O  7.05900 45.95400 29.00400
O  6.01300 47.24000 30.59200
C  6.13400 46.05600 31.49500
H  12.94600 50.37700 27.03900
H  12.08300 48.33000 21.16400
H  5.83000 47.00000 22.49000
H  8.70400 50.18200 29.66800
H  11.54700 49.96900 29.33800
H  10.90000 52.12400 27.67600
H  11.05400 52.15400 29.52000
H  9.50100 52.07100 28.76100
H  10.83300 48.08300 30.09600
H  9.28900 47.35400 29.81200
H  8.21700 48.67800 31.42000
H  9.72300 49.45900 31.97600
H  14.80700 49.86100 26.50800
H  15.44400 50.80400 25.26600
H  15.73000 49.08300 25.24800
H  16.35200 48.20000 23.19500
H  16.01200 50.00200 23.02900
H  16.51800 49.10000 21.55300
H  10.16200 46.77800 20.12400
H  7.36900 47.75300 20.17900
H  10.38900 48.58400 18.69500
H  10.15300 49.76000 19.99600
H  8.76200 49.19900 19.14300
H  8.29500 45.52600 19.52900
H  6.77000 45.45800 20.38700
H  9.13300 45.20300 22.28800
H  8.92000 43.80500 21.30700
H  7.55300 44.33700 22.21200
H  3.33200 47.39900 25.36600
H  3.88000 46.36800 24.21200
H  3.69200 48.04000 23.61700
H  6.08300 49.05500 29.22700
H  7.20600 45.99200 31.68200
H  5.81900 45.08900 31.10000
H  5.69000 46.21900 32.47700
Mg -11.97300 16.24000 42.76900
C  -9.03500 14.47500 42.16700
C  -10.45800 18.91400 40.92300
C  -15.01100 17.56900 42.22800
C  -13.34000 13.32500 44.04400
N  -10.02500 16.57900 41.52000
C  -8.95500 15.77200 41.55300
C  -7.77000 16.39500 40.78100
C  -8.19100 17.85200 40.54100
C  -9.58600 17.84600 41.19400
C  -7.16200 18.89300 41.12900
C  -7.53100 15.67300 39.46700
C  -6.09200 15.33100 39.03500
H  -5.52900 16.13000 37.83600
N  -12.57700 18.09100 41.98000
C  -11.84200 18.97300 41.22000
C  -12.73100 20.10600 40.80000
C  -14.07600 19.67900 41.17100
C  -13.93900 18.45300 41.88300
C  -12.32200 21.28100 39.89700
C  -15.32500 20.49000 40.80800
O  -15.25300 21.52000 40.12200
C  -16.68200 20.15200 41.27900
N  -13.94300 15.55200 43.09100
C  -14.99000 16.31200 42.83500
C  -16.24500 15.50500 43.17000
C  -15.62500 14.46700 44.13500
C  -14.21700 14.37300 43.73400
C  -17.42200 16.40600 43.71600
C  -16.41400 13.13600 44.22600
C  -16.37400 12.09700 43.09800
N  -11.32800 14.31600 43.11500
C  -11.99900 13.28900 43.71200
C  -11.13500 12.12500 43.89300
C  -9.93900 12.56000 43.30600
C  -10.07600 13.90200 42.82800
C  -11.37100 10.78200 44.50000
C  -8.62300 12.22900 43.06700
O  -7.99900 11.23900 43.42500
C  -7.95200 13.39900 42.31800
C  -6.82800 13.93900 43.14700
O  -6.95300 14.43900 44.23900
O  -5.64100 13.69700 42.44300
C  -4.35600 14.07200 43.07900
H  -9.99700 19.73900 40.37600
H  -15.97200 17.81500 41.77200
H  -13.58700 12.44700 44.64400
H  -6.86800 16.24800 41.37600
H  -8.38300 17.98000 39.47600
H  -6.62700 18.43600 41.96100
H  -7.49500 19.84200 41.55000
H  -6.40600 19.05400 40.36000
H  -8.04100 16.04300 38.57800
H  -7.93400 14.66900 39.60400
H  -6.00300 14.24700 38.96300
H  -5.48900 15.73400 39.85000
H  -13.08000 21.49100 39.14300
H  -11.38800 21.06400 39.37700
H  -12.23000 22.18700 40.49400
H  -16.74500 19.79500 42.30700
H  -17.10500 19.39000 40.62400
H  -17.29900 21.05000 41.31100
H  -16.64500 14.96500 42.31100
H  -15.67300 14.83000 45.16200
H  -17.38300 17.43500 43.35900
H  -17.55900 16.37200 44.79700
H  -18.39600 16.03000 43.40400
H  -17.44900 13.42000 44.41600
H  -16.16100 12.57600 45.12700
H  -17.27400 11.92700 42.50700
H  -16.05000 11.16500 43.56000
H  -15.54300 12.25800 42.41100
H  -12.02900 10.14700 43.90700
H  -11.76900 10.90200 45.50800
H  -10.45500 10.21000 44.64400
H  -7.42500 13.06600 41.42300
H  -4.49300 15.14900 43.17400
H  -3.53200 13.79000 42.42400
H  -4.20600 13.68300 44.08700

