158

Mg 25.71800 0.17300 28.86300
C  27.81400 -0.02800 31.71800
C  22.97300 0.28500 30.82700
C  23.77000 0.48600 25.98400
C  28.42300 -0.61700 26.85700
N  25.48700 0.12400 30.99400
C  26.48000 0.27800 31.99800
C  25.80600 0.48100 33.33900
C  24.32000 0.50400 33.01500
C  24.23600 0.28500 31.51700
C  23.38000 -0.27800 33.89000
C  26.49400 1.73800 34.03300
C  25.74900 2.38400 35.24300
H  26.48000 2.79800 36.51800
N  23.65200 0.42400 28.47100
C  22.66900 0.31000 29.45900
C  21.41200 0.27600 28.76300
C  21.64600 0.36700 27.37300
C  23.10700 0.42700 27.21900
C  20.16300 0.09000 29.54900
C  20.67400 0.35700 26.19500
O  20.98200 0.50600 25.00200
C  19.19800 0.12300 26.44500
N  26.10300 0.13800 26.69800
C  25.16200 0.35500 25.73900
C  25.71200 0.23100 24.30200
C  27.28300 -0.06600 24.62500
C  27.27500 -0.22500 26.11400
C  25.02700 -0.95400 23.54900
C  28.35500 1.02000 24.29000
C  27.94000 2.53900 24.46500
N  27.77600 -0.23900 29.15300
C  28.71900 -0.58200 28.23000
C  29.96500 -0.85000 28.93300
C  29.65700 -0.61800 30.32700
C  28.33200 -0.25400 30.42500
C  31.24200 -1.29500 28.32400
C  30.17200 -0.58600 31.68100
O  31.21900 -0.89600 32.19700
C  29.01100 -0.10200 32.56900
C  28.91900 -1.13200 33.60900
O  28.52000 -2.30500 33.38400
O  29.20400 -0.62500 34.82100
C  28.99700 -1.34500 36.09600
H  22.11800 0.48800 31.47500
H  23.17400 0.60100 25.07600
H  29.30800 -0.87500 26.27200
H  26.04400 -0.38600 33.95600
H  24.04800 1.54300 33.19800
H  22.36000 0.06600 33.71800
H  23.62800 -0.10800 34.93800
H  23.46500 -1.34100 33.66200
H  26.76800 2.53500 33.34200
H  27.40000 1.31800 34.47100
H  25.04600 1.63100 35.59800
H  25.27600 3.28100 34.84300
H  20.31200 -0.23900 30.57800
H  19.61700 -0.67900 29.00200
H  19.56100 0.99500 29.62100
H  18.64300 0.78600 27.10900
H  19.12100 -0.78700 27.04000
H  18.61400 -0.05300 25.54200
H  25.68600 1.19500 23.79300
H  27.49100 -1.00400 24.11000
H  24.51700 -1.63000 24.23600
H  25.67300 -1.46500 22.83500
H  24.19100 -0.51300 23.00600
H  28.49100 0.91500 23.21400
H  29.33900 0.86900 24.73400
H  27.35900 2.86400 25.32800
H  27.51100 2.96500 23.55800
H  28.86900 3.10600 24.52800
H  31.31900 -2.37000 28.48500
H  32.10600 -0.75700 28.71400
H  31.28100 -1.13000 27.24800
H  29.28600 0.88700 32.93600
H  28.30300 -2.16600 35.91900
H  28.47600 -0.54300 36.62000
H  29.87500 -1.76300 36.58800
Mg 47.73700 15.09000 27.23900
C  45.79900 15.23500 30.01500
C  49.94800 17.29000 28.62200
C  49.25300 15.33100 24.23600
C  45.09700 13.33300 25.60100
N  47.87800 16.21500 29.12400
C  47.05000 15.90100 30.12600
C  47.50100 16.55500 31.43300
C  48.83100 17.33600 31.00200
C  48.86700 17.06200 29.51500
C  48.94500 18.79800 31.45300
C  47.77600 15.44100 32.53100
C  47.24900 15.82300 33.93700
H  46.95600 17.26500 34.37000
N  49.38800 16.05200 26.63300
C  50.19000 16.90600 27.34400
C  51.37000 17.33900 26.57500
C  51.17600 16.61300 25.30200
C  49.88200 15.95200 25.31000
C  52.48800 18.22200 27.08900
C  52.03700 16.64600 24.11600
O  51.81700 16.13700 23.02900
C  53.30000 17.42800 24.16800
N  47.31700 14.29900 25.29700
C  48.08000 14.57100 24.21400
C  47.53200 13.88700 22.95200
C  46.25300 13.13700 23.36100
C  46.22500 13.54100 24.86200
C  47.23500 14.85900 21.76600
C  46.21900 11.65000 22.99100
C  46.69200 10.64600 24.16700
N  45.78800 14.41700 27.68100
C  44.87100 13.63900 26.95400
C  43.67700 13.47600 27.76200
C  44.03000 14.01400 29.01100
C  45.30000 14.58400 28.89700
C  42.32100 12.93300 27.37500
C  43.57800 14.21100 30.41700
O  42.51900 14.04600 30.92100
C  44.74400 14.94000 31.14200
C  44.16500 16.13500 31.79800
O  44.33800 17.29000 31.43400
O  43.48400 15.79900 32.96200
C  42.68900 16.82400 33.62200
H  50.67300 17.88900 29.17600
H  49.66400 15.38300 23.22500
H  44.28000 12.80900 25.10000
H  46.80600 17.33500 31.74400
H  49.67900 16.80000 31.42700
H  48.82800 19.35700 30.52500
H  49.98400 18.92600 31.75700
H  48.17200 19.20200 32.10700
H  48.84900 15.29000 32.65000
H  47.33000 14.51200 32.17700
H  47.89100 15.49400 34.75500
H  46.31700 15.30200 34.15400
H  52.21600 18.65300 28.05200
H  52.79500 19.04400 26.44200
H  53.30400 17.55200 27.35900
H  53.89000 17.38000 25.08300
H  53.08900 18.41200 23.75000
H  53.94900 17.00400 23.40100
H  48.30500 13.14500 22.75600
H  45.43800 13.66700 22.86700
H  46.19500 14.90600 21.44400
H  47.90800 14.50200 20.98700
H  47.55000 15.87500 22.00600
H  46.69600 11.32900 22.06500
H  45.14800 11.45700 22.91900
H  47.24700 9.81700 23.72600
H  45.84400 10.22300 24.70500
H  47.35600 11.05300 24.92900
H  42.21400 12.92800 26.29100
H  41.60200 13.65800 27.75700
H  42.18300 11.88800 27.65300
H  45.19100 14.27800 31.88300
H  43.00000 17.86600 33.54700
H  42.54400 16.53900 34.66400
H  41.71800 16.79600 33.12800

