158

Mg -10.91700 16.82700 40.90100
C  -7.43600 16.29500 40.47800
C  -10.30300 20.15200 39.98400
C  -14.22400 17.48800 40.73200
C  -11.38200 13.44600 40.81200
N  -9.08400 18.07700 40.27500
C  -7.74300 17.64900 40.35200
C  -6.74900 18.81400 40.13100
C  -7.72400 20.05800 40.45900
C  -9.12500 19.42400 40.20800
C  -7.48400 20.72300 41.86300
C  -6.21000 18.78200 38.71900
C  -4.67100 18.53500 38.45500
H  -4.32700 17.72200 37.20200
N  -12.13100 18.64900 40.52200
C  -11.70000 19.79300 40.03600
C  -12.76000 20.70600 39.69100
C  -13.91700 19.99900 40.09000
C  -13.45500 18.65300 40.44800
C  -12.54100 22.18000 39.22900
C  -15.31500 20.59100 40.10000
O  -15.46000 21.80200 39.85500
C  -16.57800 19.81000 40.40300
N  -12.57400 15.64700 40.81600
C  -13.82900 16.17300 40.84100
C  -14.82400 14.93000 40.98600
C  -13.88600 13.68400 40.62000
C  -12.52800 14.24400 40.79800
C  -15.50400 14.98700 42.37100
C  -14.11000 13.20900 39.14800
C  -14.18800 14.13000 37.98000
N  -9.68200 15.18800 40.85000
C  -10.01600 13.84700 40.84800
C  -8.84300 12.98500 40.69900
C  -7.83000 13.95900 40.55600
C  -8.40000 15.27700 40.64700
C  -8.90400 11.51200 40.75600
C  -6.42300 14.11700 40.39700
O  -5.59700 13.29300 40.02800
C  -6.10300 15.56400 40.43000
C  -5.18400 15.78500 41.57900
O  -4.27800 16.59900 41.52300
O  -5.45000 14.91600 42.65900
C  -4.37200 14.91200 43.74800
H  -10.12300 21.18200 39.66800
H  -15.30200 17.48900 40.55900
H  -11.60700 12.38700 40.67300
H  -5.91200 18.87700 40.82600
H  -7.55500 20.85300 39.73400
H  -6.86700 20.04500 42.45200
H  -8.46900 20.52900 42.28700
H  -7.08000 21.73500 41.89000
H  -6.59700 19.70800 38.29300
H  -6.71200 17.97100 38.19200
H  -4.21900 18.10100 39.34800
H  -4.24900 19.53700 38.37500
H  -11.71900 22.23300 38.51500
H  -12.21100 22.76500 40.08800
H  -13.50400 22.54100 38.86700
H  -16.71700 19.16400 39.53600
H  -17.42200 20.49700 40.46800
H  -16.41100 19.28000 41.34100
H  -15.63600 14.92700 40.25900
H  -14.08200 12.76800 41.17800
H  -16.57100 15.19200 42.27400
H  -15.00800 15.87400 42.76500
H  -15.22300 14.15200 43.01300
H  -14.86900 12.42600 39.14600
H  -13.21600 12.62400 38.92900
H  -13.26600 14.23800 37.40900
H  -14.49700 15.14500 38.22900
H  -15.02400 13.73600 37.40100
H  -8.02500 10.91600 40.51100
H  -9.72400 11.09600 40.17000
H  -8.99600 11.23300 41.80600
H  -5.46300 15.78700 39.57600
H  -4.83300 14.87000 44.73500
H  -3.84900 15.86600 43.82100
H  -3.73500 14.04200 43.58900
Mg -5.48000 25.42500 26.26300
C  -4.04500 26.81600 29.10000
C  -7.46900 23.32700 28.31000
C  -6.49300 23.88200 23.50800
C  -3.10700 27.22900 24.35900
N  -5.67600 25.01000 28.44400
C  -5.00300 25.76800 29.38900
C  -5.54700 25.50400 30.83200
C  -6.48000 24.21000 30.51900
C  -6.58000 24.18000 29.01500
C  -5.88200 22.89800 31.18100
C  -6.36300 26.58900 31.52500
C  -6.01400 26.75100 32.98700
H  -5.94100 25.58000 33.93900
N  -6.86000 23.82700 25.92100
C  -7.60900 23.18000 26.87000
C  -8.44800 22.21800 26.16500
C  -8.08600 22.26000 24.77000
C  -7.08000 23.31600 24.69000
C  -9.36300 21.27300 26.88100
C  -8.53600 21.43500 23.59000
O  -7.86900 21.44200 22.54700
C  -9.67900 20.62800 23.67800
N  -4.76200 25.45900 24.17800
C  -5.40100 24.78300 23.31200
C  -4.87200 25.11600 21.92200
C  -3.86900 26.22100 22.11400
C  -3.96300 26.40000 23.63000
C  -4.14900 23.89200 21.23500
C  -4.25500 27.54100 21.40700
C  -3.39100 27.81700 20.21200
N  -3.86200 26.67600 26.58500
C  -3.03100 27.39500 25.75300
C  -2.21400 28.32000 26.45200
C  -2.59800 28.08400 27.83900
C  -3.50800 27.04700 27.81400
C  -1.26600 29.32100 25.92200
C  -2.26800 28.49900 29.20400
O  -1.58400 29.42400 29.64700
C  -3.24800 27.60700 30.10800
C  -2.38700 26.73400 30.99300
O  -1.88500 25.74900 30.61200
O  -2.50800 27.14800 32.25900
C  -1.88900 26.32300 33.34400
H  -8.25800 22.79100 28.84100
H  -6.71800 23.36000 22.57600
H  -2.52600 27.92200 23.74800
H  -4.71400 25.16800 31.44900
H  -7.44200 24.33900 31.01500
H  -6.60700 22.28100 31.71300
H  -5.01600 23.10800 31.80800
H  -5.57200 22.29200 30.33000
H  -7.44700 26.48800 31.46500
H  -6.18700 27.56800 31.07900
H  -6.80400 27.35100 33.43700
H  -5.09000 27.30600 33.15100
H  -10.38900 21.63400 26.96100
H  -8.94000 20.87500 27.80300
H  -9.59700 20.35400 26.34500
H  -10.08500 20.55700 22.66900
H  -10.39400 21.20300 24.26700
H  -9.58900 19.58600 23.98600
H  -5.68100 25.40300 21.25000
H  -2.81900 25.99900 21.92200
H  -3.06200 23.95000 21.16900
H  -4.67600 23.72800 20.29500
H  -4.34900 23.02700 21.86800
H  -4.08200 28.38600 22.07300
H  -5.29600 27.58700 21.08600
H  -3.96500 27.88800 19.28700
H  -2.51800 27.17900 20.07300
H  -2.92700 28.79500 20.34200
H  -1.81100 30.26400 25.88100
H  -0.98200 29.03000 24.91100
H  -0.36500 29.50100 26.50900
H  -3.84400 28.28100 30.72300
H  -1.75300 26.85700 34.28400
H  -0.95200 25.86700 33.02500
H  -2.65200 25.60100 33.63500

