158

Mg 45.14800 4.34400 46.77300
C  42.96600 7.10700 46.66900
C  42.42400 2.31200 46.05300
C  47.13300 1.70500 45.90200
C  47.86000 6.33800 46.86300
N  42.92800 4.78500 46.32600
C  42.23700 5.92000 46.48700
C  40.67900 5.65400 46.58000
C  40.63000 4.04900 46.68000
C  42.09500 3.66300 46.35200
C  40.22900 3.45200 48.00500
C  39.91600 6.15000 45.33100
C  40.40600 5.81700 43.85500
H  40.19400 6.79100 42.63100
N  44.80800 2.30000 46.23300
C  43.62300 1.67800 46.06500
C  43.76500 0.24100 45.76100
C  45.15800 0.04600 45.57900
C  45.81200 1.43500 45.94500
C  42.64800 -0.84200 45.53200
C  45.79700 -1.22300 45.11300
O  45.14300 -2.16000 44.71900
C  47.26900 -1.53400 45.11000
N  47.25800 4.05900 46.46100
C  47.84800 2.88300 46.21700
C  49.37400 2.92200 46.27900
C  49.62700 4.40700 46.69800
C  48.18600 4.97000 46.70400
C  50.05500 1.90500 47.25700
C  50.65000 5.16600 45.89100
C  51.92900 5.71100 46.50000
N  45.45200 6.37700 46.77200
C  46.59700 7.05700 46.89200
C  46.31800 8.48200 46.83000
C  44.87100 8.53600 46.81100
C  44.41600 7.21600 46.67900
C  47.29900 9.61800 47.10400
C  43.74500 9.48300 46.81600
O  43.70400 10.71700 46.99300
C  42.41200 8.57000 46.66900
C  41.51000 8.79300 47.87100
O  41.71400 8.39100 49.02300
O  40.31900 9.28800 47.37100
C  39.32400 9.77100 48.40700
H  41.55200 1.65600 46.09200
H  47.88600 0.97900 45.58800
H  48.74400 6.93000 47.10800
H  40.23000 6.14500 47.44300
H  39.87600 3.68700 45.98200
H  40.01200 4.28900 48.66800
H  41.08000 2.92600 48.43700
H  39.38300 2.76800 47.94600
H  39.71100 7.22100 45.31500
H  38.91900 5.72000 45.42400
H  39.87200 4.93600 43.49800
H  41.42900 5.44400 43.82400
H  42.99500 -1.75900 46.00900
H  42.45000 -0.80500 44.46100
H  41.71800 -0.48900 45.97900
H  47.69200 -1.04000 45.98500
H  47.62200 -1.25000 44.11900
H  47.52500 -2.57300 45.31900
H  49.77900 2.77000 45.27900
H  50.05500 4.47800 47.69800
H  50.37600 0.98300 46.77300
H  49.35800 1.68400 48.06500
H  51.06300 2.17400 47.57200
H  50.31700 6.06600 45.37400
H  51.03500 4.43600 45.18000
H  51.75700 5.78700 47.57400
H  52.30600 6.70800 46.27100
H  52.78800 5.12200 46.18100
H  46.69500 10.52100 47.00900
H  48.21500 9.60400 46.51300
H  47.61300 9.78800 48.13400
H  41.90100 8.71000 45.71600
H  39.17900 10.84900 48.32600
H  39.48400 9.50500 49.45100
H  38.40900 9.25800 48.11200
Mg 36.15400 49.40400 25.30800
C  36.58600 47.91500 28.52900
C  34.72600 52.18500 26.96600
C  35.56900 50.86200 22.23000
C  37.39300 46.62100 23.80300
N  35.68900 49.97600 27.47800
C  36.08900 49.24700 28.58300
C  35.74800 50.01500 29.84600
C  35.20100 51.32900 29.39800
C  35.08500 51.15200 27.80900
C  33.94700 51.81100 30.17000
C  36.87300 50.08100 30.96900
C  36.52000 49.79700 32.39500
H  35.09400 49.48500 32.87100
N  35.30200 51.31500 24.68900
C  34.80200 52.29600 25.55000
C  34.31700 53.43000 24.74400
C  34.58100 53.04500 23.38500
C  35.19900 51.69100 23.41700
C  33.74100 54.60100 25.38700
C  34.25400 53.81600 22.18900
O  34.41300 53.30100 21.08900
C  33.83100 55.22700 22.27800
N  36.30400 48.79000 23.35500
C  36.13900 49.55200 22.22000
C  36.41000 48.78200 20.91100
C  37.07100 47.48500 21.44800
C  36.91000 47.66400 22.99200
C  35.18500 48.55700 20.04100
C  38.57800 47.43500 21.04100
C  39.69900 48.17100 21.86300
N  36.81100 47.63800 25.95400
C  37.35200 46.58200 25.18500
C  37.71300 45.53700 26.09500
C  37.41400 45.94900 27.41100
C  36.88300 47.28400 27.24900
C  38.32200 44.20400 25.66400
C  37.47500 45.58900 28.77900
O  37.88300 44.57200 29.25100
C  36.85100 46.81400 29.55900
C  35.64800 46.23500 30.24200
O  34.52800 46.16300 29.78600
O  35.90200 45.64300 31.52400
C  34.80800 45.19200 32.41300
H  34.31900 53.00500 27.56000
H  35.35300 51.22700 21.22300
H  37.92700 45.82700 23.27700
H  34.92000 49.39700 30.19600
H  35.91700 52.13100 29.57100
H  33.37200 51.05600 30.70500
H  33.24500 52.30700 29.50000
H  34.14700 52.52100 30.97400
H  37.41700 51.01400 30.82000
H  37.50200 49.21800 30.75000
H  36.86500 50.71200 32.87500
H  37.18500 49.08300 32.88100
H  32.74400 54.71300 24.96100
H  34.25400 55.44700 24.92800
H  33.74900 54.68200 26.47400
H  34.66000 55.76600 22.73600
H  32.92600 55.33300 22.87500
H  33.77900 55.54400 21.23600
H  37.13800 49.40000 20.38600
H  36.62200 46.54400 21.13000
H  34.24100 48.88900 20.47300
H  35.04900 47.47900 19.96300
H  35.33600 49.02600 19.06800
H  38.54600 47.71100 19.98700
H  38.93900 46.40800 20.97800
H  40.18400 48.77800 21.09800
H  40.36100 47.45000 22.34200
H  39.33100 48.77300 22.69400
H  38.56600 44.13700 24.60400
H  37.63800 43.36800 25.81500
H  39.21900 44.04700 26.26400
H  37.60500 47.12700 30.28000
H  34.75700 44.10300 32.42200
H  33.82800 45.61400 32.18900
H  35.04400 45.44700 33.44600

