158

Mg 0.63200 8.10500 26.61100
C  1.28600 9.95800 29.50400
C  0.48100 5.27000 28.70700
C  0.22800 6.30700 23.95100
C  1.28700 10.98700 24.67700
N  0.74600 7.72900 28.88100
C  0.94200 8.63200 29.82900
C  0.83200 8.03500 31.25400
C  0.69900 6.54000 30.98400
C  0.60100 6.46300 29.42300
C  1.83800 5.74400 31.67400
C  -0.28200 8.69500 32.14300
C  0.17100 9.04800 33.61700
H  -0.37200 8.32900 34.85700
N  0.35400 6.00500 26.39500
C  0.37000 5.03600 27.30500
C  0.15400 3.74800 26.58000
C  -0.02600 4.00700 25.16300
C  0.22300 5.49900 25.15500
C  -0.14600 2.41800 27.29700
C  -0.23800 3.08700 24.05900
O  -0.14900 3.45900 22.90000
C  -0.55500 1.64200 24.29600
N  0.61400 8.62900 24.58900
C  0.45200 7.67700 23.69400
C  0.48000 8.24500 22.27900
C  0.59500 9.82700 22.51300
C  0.81100 9.86900 23.98900
C  1.50400 7.57200 21.30900
C  -0.61200 10.85100 22.09300
C  -2.08000 10.37500 22.36700
N  1.22200 10.05500 26.93500
C  1.41600 11.13300 26.08000
C  1.79200 12.30600 26.77800
C  1.77900 11.87900 28.12400
C  1.37800 10.53300 28.16600
C  2.10900 13.62200 26.25100
C  2.03900 12.26800 29.48100
O  2.32500 13.35400 30.01800
C  1.49300 11.13200 30.40700
C  2.49800 10.91900 31.47600
O  3.50000 10.20500 31.37100
O  2.22000 11.70200 32.63500
C  3.04400 11.64800 33.85900
H  0.36000 4.41600 29.37700
H  0.02800 5.67500 23.08400
H  1.38100 11.81500 23.97000
H  1.79300 8.08600 31.76600
H  -0.16900 6.11100 31.48500
H  1.57700 4.71100 31.90400
H  1.92800 6.16100 32.67600
H  2.76400 5.66500 31.10300
H  -1.12000 8.00700 32.26000
H  -0.59100 9.64100 31.69900
H  -0.06200 10.09300 33.82000
H  1.25600 8.96600 33.68700
H  -1.06700 2.00000 26.88800
H  -0.27600 2.57000 28.36800
H  0.68700 1.72200 27.19800
H  0.21900 1.21600 24.93400
H  -0.59400 1.07400 23.36600
H  -1.55800 1.53300 24.70800
H  -0.52300 8.00400 21.92800
H  1.45700 10.16400 21.93800
H  2.42600 7.32900 21.83600
H  1.58300 8.12700 20.37400
H  1.04700 6.62100 21.03500
H  -0.44300 10.94600 21.02100
H  -0.42800 11.79100 22.61400
H  -2.62100 10.31800 21.42300
H  -2.60600 11.03300 23.05900
H  -2.06500 9.37100 22.79300
H  1.25700 14.27700 26.43000
H  2.39900 13.62000 25.20100
H  2.87800 13.90600 26.97000
H  0.61100 11.44100 30.96900
H  3.22400 12.70100 34.07700
H  3.96100 11.08400 33.68700
H  2.38900 11.15900 34.58000
Mg 36.54200 48.64700 24.51400
C  36.82400 46.81300 27.47000
C  35.49100 51.42600 26.33400
C  36.01600 50.30300 21.67000
C  37.73000 45.98800 22.78800
N  36.04100 48.97300 26.61400
C  36.37400 48.16000 27.71400
C  36.17000 48.89400 29.05200
C  35.81100 50.32400 28.63000
C  35.78000 50.27200 27.08400
C  34.40700 50.82300 29.18200
C  37.36400 48.74400 30.00100
C  37.08600 48.14400 31.36600
H  35.76500 48.27200 32.08700
N  35.80100 50.60700 24.07000
C  35.43800 51.57500 24.91500
C  34.86800 52.67600 24.23600
C  35.07200 52.45100 22.85000
C  35.65300 51.09700 22.81700
C  34.46900 53.92500 24.94500
C  34.66200 53.28400 21.57100
O  34.92500 52.88900 20.42800
C  33.90100 54.60500 21.69700
N  36.70300 48.11300 22.54700
C  36.46700 48.95900 21.55400
C  36.90400 48.44100 20.19600
C  37.48200 47.07200 20.50300
C  37.28400 47.03300 22.04600
C  35.96100 48.33600 19.05700
C  38.92700 46.92000 19.97500
C  40.15500 47.14800 20.98500
N  37.21000 46.72900 25.01800
C  37.65000 45.74900 24.19200
C  37.95800 44.54200 24.92600
C  37.62300 44.91200 26.23400
C  37.21600 46.26500 26.20100
C  38.45100 43.13700 24.38100
C  37.58400 44.42700 27.58600
O  37.96700 43.38200 28.08900
C  37.14900 45.63400 28.47000
C  36.04800 45.26700 29.32900
O  34.92100 45.23700 28.86700
O  36.48900 44.89100 30.57900
C  35.48100 44.31700 31.49100
H  35.17300 52.18300 27.05400
H  35.95400 50.85100 20.72800
H  38.17200 45.19400 22.18200
H  35.28500 48.45700 29.51400
H  36.55600 51.06600 28.91500
H  34.65700 51.53600 29.96700
H  33.84200 50.03500 29.68000
H  33.76500 51.20700 28.38900
H  37.84300 49.68400 30.27600
H  38.06100 48.16400 29.39600
H  37.84700 48.66400 31.94900
H  37.43900 47.11300 31.37800
H  35.21200 54.66600 24.65100
H  34.32600 53.75300 26.01200
H  33.49400 54.25000 24.58100
H  34.39900 55.28900 22.38400
H  32.91700 54.42200 22.12700
H  33.71500 55.04600 20.71700
H  37.63300 49.21900 19.96800
H  36.97300 46.17500 20.14800
H  35.88900 49.31500 18.58300
H  35.00900 48.08000 19.52200
H  36.26800 47.59500 18.31900
H  39.05900 47.57800 19.11600
H  39.07100 45.87800 19.68800
H  40.42100 46.13900 21.30300
H  39.96500 47.85400 21.79400
H  40.98300 47.64800 20.48200
H  37.79900 42.33300 24.71900
H  39.49600 42.97700 24.64500
H  38.46200 43.12200 23.29100
H  37.94000 45.91000 29.16700
H  35.80600 44.47100 32.52000
H  35.36300 43.25900 31.25600
H  34.53300 44.84900 31.41900

