158

Mg 48.42100 35.31500 27.42800
C  46.49700 33.81800 30.06600
C  48.59300 38.16000 29.22200
C  49.70400 36.77100 24.65000
C  47.53400 32.44100 25.49000
N  47.70700 35.87000 29.35800
C  47.07800 35.07400 30.28500
C  47.23800 35.69300 31.69600
C  47.33400 37.23200 31.34000
C  47.90300 37.11100 29.90300
C  46.04700 38.09800 31.55400
C  48.52900 35.07700 32.36900
C  48.53200 35.07700 33.85700
H  47.69600 36.07200 34.57000
N  49.22900 37.14500 27.05800
C  49.29800 38.15400 27.98600
C  50.04400 39.29700 27.39900
C  50.26300 38.94600 26.05600
C  49.69700 37.61500 25.85100
C  50.35700 40.59400 28.13300
C  50.87800 39.81000 24.94800
O  51.07800 39.31000 23.87700
C  51.40700 41.16600 25.16400
N  48.42000 34.74100 25.32400
C  49.07300 35.50700 24.42000
C  49.10900 34.83700 22.98600
C  48.70400 33.36100 23.36700
C  48.14300 33.50800 24.79500
C  48.02400 35.42900 21.98800
C  49.95400 32.41100 23.35400
C  49.74000 31.00000 22.71100
N  47.27900 33.44800 27.65500
C  47.08000 32.36500 26.82500
C  46.26000 31.36000 27.54500
C  46.06500 31.86100 28.82900
C  46.66200 33.15500 28.84500
C  45.81000 30.05200 27.05300
C  45.37800 31.65400 30.06200
O  44.74100 30.68300 30.48400
C  45.52800 33.00100 30.88100
C  45.85300 32.67200 32.31200
O  46.90800 32.16300 32.71600
O  44.79800 33.07300 33.12800
C  45.15100 32.94900 34.55900
H  48.69400 39.05600 29.83900
H  50.12100 37.28100 23.78000
H  47.38100 31.58200 24.83300
H  46.35200 35.43200 32.27500
H  48.07100 37.66000 32.02000
H  45.19700 37.58900 32.00900
H  45.70600 38.62800 30.66400
H  46.15800 38.96500 32.20500
H  49.29600 35.69500 31.90100
H  48.49800 34.06900 31.95700
H  49.58000 35.32300 34.02700
H  48.46500 34.04100 34.19000
H  50.20200 41.43000 27.45100
H  51.43300 40.67200 28.29200
H  49.69900 40.67500 28.99900
H  52.07800 41.40200 24.33900
H  51.92200 41.19400 26.12400
H  50.70600 42.00000 25.19100
H  50.12600 34.76800 22.60000
H  47.89100 32.84600 22.85400
H  47.47600 36.23900 22.47100
H  47.24800 34.69400 21.77700
H  48.45000 35.79200 21.05300
H  50.32300 32.34000 24.37700
H  50.78300 32.74800 22.73000
H  50.43500 30.94800 21.87200
H  48.80100 30.69700 22.24700
H  50.06500 30.27200 23.45400
H  46.08000 29.29000 27.78400
H  46.28400 29.73600 26.12300
H  44.74300 30.14500 26.85100
H  44.58000 33.53600 30.94800
H  45.35800 31.91000 34.81400
H  44.31100 33.23800 35.19000
H  45.98000 33.64800 34.67500
Mg -12.07900 16.98400 41.56900
C  -9.05300 15.17500 41.20500
C  -10.50300 19.67400 40.18800
C  -15.05700 18.47200 41.15500
C  -13.71700 13.78500 41.98200
N  -10.04100 17.36800 40.71700
C  -8.95900 16.50300 40.68200
C  -7.78600 17.04400 39.92800
C  -8.18700 18.57100 39.94400
C  -9.64900 18.58000 40.32100
C  -7.24200 19.45300 40.75400
C  -7.58000 16.41900 38.50100
C  -6.32400 15.66700 38.14400
H  -5.65300 15.96300 36.77900
N  -12.69100 18.92700 41.01700
C  -11.86700 19.93600 40.51500
C  -12.65500 21.08400 40.32900
C  -14.02300 20.77700 40.60100
C  -13.99200 19.36200 40.97700
C  -12.08300 22.32500 39.87300
C  -15.18000 21.66700 40.47200
O  -15.11100 22.80000 40.10600
C  -16.65600 21.24400 40.75800
N  -14.03000 16.21400 41.57500
C  -15.05800 17.08700 41.43800
C  -16.36900 16.30500 41.53500
C  -15.93100 14.81400 41.84100
C  -14.41300 14.91000 41.73100
C  -17.40600 16.87000 42.54600
C  -16.71900 13.69900 41.02800
C  -17.05600 12.39700 41.85300
N  -11.56400 14.87000 41.68900
C  -12.30500 13.70500 41.93200
C  -11.41000 12.58900 42.14500
C  -10.13800 13.09900 41.87600
C  -10.30300 14.51400 41.60300
C  -11.93300 11.22900 42.45400
C  -8.77800 12.70500 41.72000
O  -8.25600 11.66100 41.83300
C  -8.00600 14.11900 41.38300
C  -7.06500 14.42800 42.53200
O  -7.39400 14.92200 43.63500
O  -5.75500 14.15900 42.23600
C  -4.73000 14.29100 43.30300
H  -9.91100 20.54400 39.89300
H  -16.06500 18.89200 41.14300
H  -14.30600 12.88300 42.16400
H  -6.83700 16.86200 40.43200
H  -8.13900 18.95700 38.92600
H  -6.28800 18.98900 41.00600
H  -7.71200 19.60600 41.72500
H  -7.05500 20.41400 40.27400
H  -7.78600 17.20400 37.77400
H  -8.37900 15.70100 38.32000
H  -6.49400 14.59000 38.13900
H  -5.52000 15.80700 38.86700
H  -12.19400 22.38400 38.79100
H  -10.99900 22.39800 39.97200
H  -12.55200 23.15900 40.39400
H  -17.29100 22.12300 40.64700
H  -16.82500 20.87100 41.76800
H  -16.94500 20.36500 40.18100
H  -16.80600 16.35200 40.53700
H  -16.13400 14.70600 42.90700
H  -18.25200 17.38400 42.09000
H  -16.95900 17.64400 43.17000
H  -17.87800 16.14500 43.20800
H  -16.29500 13.50800 40.04200
H  -17.69400 14.16400 40.88300
H  -18.12000 12.45700 42.08100
H  -16.57400 12.38500 42.83100
H  -16.94000 11.51300 41.22600
H  -12.28500 10.67200 41.58600
H  -12.71200 11.37300 43.20300
H  -11.03100 10.80200 42.89100
H  -7.53400 13.97100 40.41200
H  -4.14600 13.37200 43.23700
H  -5.11200 14.26000 44.32300
H  -4.10100 15.14500 43.05300

