158

Mg 47.47300 16.23800 29.23700
C  44.93200 15.94400 31.69000
C  49.16900 18.27700 31.31700
C  49.56700 17.07100 26.54300
C  45.15600 15.02100 26.89500
N  47.05300 16.95300 31.27900
C  45.98300 16.71400 32.13100
C  46.32200 17.24800 33.57700
C  47.52100 18.25800 33.30100
C  47.91000 17.85800 31.84400
C  47.14500 19.81100 33.50200
C  46.49000 16.12900 34.59200
C  45.41800 16.04100 35.76200
H  45.11900 17.20600 36.64300
N  49.23900 17.26200 29.11000
C  49.80300 18.01000 30.06400
C  51.07900 18.51000 29.59600
C  51.21800 18.16600 28.23300
C  50.02100 17.42800 27.89600
C  52.14900 19.15400 30.53100
C  52.32100 18.50700 27.27100
O  52.25400 18.09100 26.09000
C  53.41600 19.53500 27.71800
N  47.33200 16.17400 27.03800
C  48.30000 16.57200 26.19000
C  47.90300 16.26300 24.70800
C  46.61500 15.38600 24.83300
C  46.33200 15.54200 26.38100
C  47.70100 17.55600 23.85500
C  46.70800 13.97600 24.11000
C  46.95000 12.68700 24.99600
N  45.56100 15.38100 29.29100
C  44.74400 14.97800 28.25700
C  43.50900 14.44100 28.78300
C  43.53400 14.83200 30.17000
C  44.77100 15.42100 30.38100
C  42.43800 13.72500 27.98900
C  42.78500 14.88000 31.36400
O  41.62300 14.56800 31.53400
C  43.68700 15.58000 32.44500
C  42.89900 16.74500 32.87000
O  42.45600 17.64900 32.11500
O  42.53200 16.63600 34.16300
C  41.64400 17.71100 34.73000
H  49.65900 18.84800 32.10700
H  50.15000 17.32800 25.65600
H  44.50100 14.58800 26.13700
H  45.41000 17.81700 33.75900
H  48.37400 17.95700 33.90800
H  46.10100 20.01000 33.74500
H  47.34400 20.29200 32.54400
H  47.79700 20.28000 34.23900
H  47.41800 16.24600 35.15300
H  46.52000 15.20000 34.02200
H  45.93500 15.32600 36.40200
H  44.53800 15.48800 35.43300
H  52.24900 20.20600 30.26300
H  53.14800 18.71900 30.49800
H  51.77600 19.12000 31.55400
H  53.03400 20.49900 28.05400
H  53.95900 19.79000 26.80800
H  54.08800 19.04100 28.42000
H  48.77100 15.85100 24.19200
H  45.83800 15.92500 24.29100
H  48.25100 17.66200 22.92000
H  48.04700 18.36700 24.49700
H  46.67700 17.74500 23.53200
H  47.48700 13.99900 23.34800
H  45.76100 13.83000 23.59100
H  47.69100 12.12800 24.42500
H  46.04500 12.10800 25.18000
H  47.30500 12.96300 25.98900
H  42.65900 12.65700 27.97200
H  42.46600 14.13300 26.97900
H  41.42900 13.86600 28.37700
H  43.83500 14.81400 33.20700
H  41.05800 18.22500 33.96800
H  42.35200 18.45200 35.10000
H  40.96300 17.26200 35.45200
Mg 26.67000 49.98500 26.95100
C  24.79600 51.15600 29.70100
C  29.12600 49.24700 29.19500
C  28.52200 49.31400 24.25100
C  24.16000 51.22000 24.90500
N  26.87200 50.18800 29.18900
C  26.02700 50.64600 30.10000
C  26.42600 50.23200 31.55600
C  27.92900 49.69500 31.34800
C  28.01400 49.79400 29.82100
C  29.04300 50.53400 32.05500
C  25.41900 49.21600 32.12000
C  24.45500 49.73500 33.23400
H  24.37600 49.15000 34.56900
N  28.62700 49.46900 26.74700
C  29.49700 49.18300 27.78600
C  30.75900 48.80400 27.15300
C  30.62900 48.82500 25.74800
C  29.18900 49.19500 25.53300
C  31.94200 48.42600 27.95300
C  31.65200 48.63100 24.66700
O  31.33300 48.76800 23.45900
C  33.08400 48.17700 25.06200
N  26.37300 50.25600 24.84200
C  27.26000 49.78300 23.95200
C  26.63700 49.77000 22.50400
C  25.25600 50.44200 22.69200
C  25.23400 50.64400 24.23600
C  27.50500 50.39500 21.32800
C  24.18000 49.43100 22.23600
C  23.57300 49.76900 20.80300
N  24.85300 50.91000 27.18700
C  23.98800 51.45800 26.22400
C  22.85200 52.12500 26.85200
C  23.12500 51.95800 28.19500
C  24.32100 51.22700 28.33800
C  21.74900 52.85900 26.10800
C  22.63000 52.28400 29.53300
O  21.58700 52.85300 29.86400
C  23.61400 51.65700 30.52300
C  23.93200 52.69900 31.59800
O  24.77100 53.57200 31.41900
O  23.05300 52.64200 32.65100
C  23.04200 53.82000 33.48100
H  29.82300 48.77300 29.88900
H  29.19100 49.20600 23.39400
H  23.44500 51.62200 24.18400
H  26.46500 51.14400 32.15100
H  27.99200 48.67300 31.72000
H  28.55100 51.04000 32.88500
H  29.47400 51.27800 31.38400
H  29.86000 49.91600 32.42700
H  25.84200 48.31100 32.55500
H  24.73100 48.92100 31.32800
H  23.48200 49.54200 32.78100
H  24.49200 50.82000 33.33200
H  32.67500 49.21400 27.77900
H  32.27900 47.44800 27.60900
H  31.73900 48.43600 29.02400
H  33.20200 47.51700 25.92100
H  33.47100 49.15800 25.34000
H  33.67400 47.83000 24.21400
H  26.51900 48.75400 22.13000
H  25.20300 51.37700 22.13500
H  28.31100 50.89600 21.86400
H  26.83900 51.05400 20.77100
H  27.75700 49.61200 20.61300
H  23.39700 49.41500 22.99400
H  24.40500 48.36600 22.18100
H  23.48500 48.89600 20.15600
H  24.12000 50.60800 20.37400
H  22.58600 50.19700 20.97600
H  22.12200 53.76400 25.62900
H  20.87200 53.02800 26.73300
H  21.48300 52.19800 25.28300
H  22.95000 50.86100 30.85900
H  22.17000 53.80900 34.13500
H  22.92000 54.75200 32.92900
H  23.91900 53.93200 34.11800

