158

Mg 44.99500 2.38000 46.79700
C  43.25000 5.47700 46.14600
C  41.97600 0.82200 46.57000
C  46.59800 -0.46100 46.74900
C  47.90000 4.19100 46.40800
N  42.93000 3.06800 46.33900
C  42.40400 4.37500 46.19100
C  40.88100 4.44200 46.04700
C  40.53600 2.96300 46.60900
C  41.87900 2.23700 46.54200
C  39.78000 2.92100 48.02500
C  40.38500 4.58500 44.53600
C  39.42300 5.74700 44.36000
H  38.55400 5.69900 43.14700
N  44.35700 0.41700 46.72300
C  43.09100 -0.01800 46.75200
C  43.13200 -1.48300 46.83400
C  44.47200 -1.90400 46.70300
C  45.24500 -0.64200 46.65300
C  41.92900 -2.35300 46.93700
C  44.93100 -3.37400 46.69900
O  44.16300 -4.32000 46.58200
C  46.46900 -3.68900 46.72000
N  46.97100 1.99300 46.63600
C  47.37600 0.74000 46.71700
C  48.94700 0.61800 46.70700
C  49.39500 2.10500 46.47000
C  47.99300 2.84800 46.47200
C  49.51600 -0.05000 48.04500
C  50.17300 2.39400 45.11900
C  51.44100 3.24600 45.22200
N  45.57400 4.46000 46.43300
C  46.77300 4.99400 46.28900
C  46.66400 6.41100 46.30800
C  45.26500 6.72300 46.18200
C  44.65300 5.46300 46.27200
C  47.89000 7.34000 46.31800
C  44.20600 7.70200 45.96500
O  44.27000 8.94200 45.83800
C  42.82300 6.89200 46.07500
C  42.19200 7.33900 47.36500
O  42.73900 7.25400 48.45000
O  40.96000 7.84000 47.11000
C  40.13600 8.20100 48.29300
H  41.10300 0.20600 46.79700
H  47.23000 -1.35000 46.81100
H  48.83200 4.75700 46.47800
H  40.34500 5.13200 46.69900
H  39.85300 2.46700 45.91900
H  40.08800 3.69400 48.72800
H  40.06700 1.97600 48.48600
H  38.73000 2.98100 47.73900
H  39.81900 3.69200 44.27400
H  41.19200 4.74600 43.82100
H  40.12100 6.56500 44.17900
H  38.75300 5.85300 45.21300
H  41.25100 -1.77300 47.56300
H  42.02700 -3.37200 47.31200
H  41.41800 -2.38100 45.97500
H  46.99400 -3.30000 45.84800
H  46.70100 -4.75300 46.68400
H  46.89900 -3.31000 47.64800
H  49.28300 0.12500 45.79400
H  49.93200 2.51000 47.32800
H  50.12000 0.59900 48.67900
H  50.10900 -0.94700 47.86600
H  48.62000 -0.22900 48.63900
H  49.52200 2.89000 44.40000
H  50.46100 1.48200 44.59700
H  52.26200 2.63700 44.84300
H  51.58600 3.51100 46.27000
H  51.35900 4.17500 44.65900
H  48.51000 7.21500 45.43000
H  48.53200 6.99800 47.13000
H  47.58000 8.38200 46.39600
H  42.19500 7.12000 45.21400
H  40.71000 8.45000 49.18500
H  39.36200 7.50500 48.61500
H  39.80800 9.18400 47.95600
Mg -2.73500 34.50800 26.79500
C  -3.45700 32.63900 29.64700
C  -1.03000 36.77600 28.77500
C  -2.31000 36.52700 24.03400
C  -4.41000 32.27000 24.85100
N  -2.43700 34.70800 28.95900
C  -2.75700 33.82700 29.96800
C  -2.24100 34.29300 31.36400
C  -1.60400 35.69000 31.05500
C  -1.69500 35.76200 29.52800
C  -2.15200 36.88800 31.80100
C  -1.25700 33.20500 32.00000
C  -1.73600 32.59500 33.34500
H  -0.85100 32.67300 34.59200
N  -1.75400 36.38800 26.52600
C  -1.03800 37.11700 27.41300
C  -0.35900 38.19600 26.75100
C  -0.74800 38.17800 25.41300
C  -1.63300 36.99400 25.25700
C  0.65900 39.04200 27.47200
C  -0.43900 39.18500 24.29900
O  -0.82000 38.99200 23.16200
C  0.22700 40.49700 24.57700
N  -3.34200 34.47100 24.75200
C  -3.04000 35.37100 23.89800
C  -3.47600 34.87900 22.47600
C  -3.83700 33.39500 22.63900
C  -3.79300 33.29300 24.14000
C  -4.62600 35.79700 21.95900
C  -2.98500 32.35700 21.91100
C  -3.36500 30.87100 21.82300
N  -3.81000 32.83800 27.15100
C  -4.44100 31.97200 26.24600
C  -5.04200 30.86200 26.99200
C  -4.64000 31.01800 28.31100
C  -3.88600 32.24800 28.37300
C  -5.86700 29.83200 26.41500
C  -4.70900 30.45700 29.60400
O  -5.27700 29.47000 30.01500
C  -4.04300 31.53400 30.54800
C  -5.10500 32.10800 31.47000
O  -5.95000 32.93600 31.13200
O  -4.98900 31.53100 32.69600
C  -5.91600 32.02000 33.75300
H  -0.52700 37.46000 29.46300
H  -2.13400 37.12000 23.13400
H  -4.89100 31.54700 24.18800
H  -3.06900 34.49500 32.04400
H  -0.54900 35.50600 31.26100
H  -2.80900 36.53800 32.59800
H  -2.52900 37.68400 31.15900
H  -1.30800 37.39500 32.26800
H  -0.27400 33.64500 32.16700
H  -1.09900 32.41700 31.26300
H  -1.89200 31.52700 33.19200
H  -2.68300 33.09200 33.55300
H  0.71000 38.67400 28.49700
H  0.47500 40.11500 27.42600
H  1.54500 38.84700 26.86800
H  1.31200 40.46800 24.67200
H  -0.27000 40.79300 25.50100
H  -0.07900 41.24500 23.84600
H  -2.70100 35.12300 21.74900
H  -4.88100 33.21600 22.38300
H  -5.31100 36.21400 22.69700
H  -5.31200 35.08100 21.50600
H  -4.34400 36.48500 21.16200
H  -1.98300 32.34900 22.34100
H  -2.80400 32.53700 20.85200
H  -4.33700 30.73900 22.29800
H  -2.57800 30.32900 22.34700
H  -3.36500 30.50800 20.79600
H  -6.02800 30.16800 25.39100
H  -6.77900 29.82900 27.01200
H  -5.42900 28.83700 26.49200
H  -3.22800 31.06400 31.09800
H  -6.66700 32.75100 33.45400
H  -5.39500 32.65400 34.47100
H  -6.46900 31.16800 34.14900

