158

Mg 50.43900 46.21300 40.81000
C  47.28400 47.38900 39.96800
C  49.56200 43.11900 39.60700
C  53.53800 45.20100 41.34400
C  51.42800 49.57800 41.42000
N  48.66300 45.36400 39.97000
C  47.46500 46.04200 39.60000
C  46.45000 45.07900 38.96000
C  47.08500 43.74000 39.21600
C  48.55000 44.10300 39.60600
C  46.42300 42.88800 40.38700
C  46.15700 45.43100 37.43500
C  45.12700 44.50800 36.79200
H  45.68500 43.77700 35.54800
N  51.46200 44.40100 40.55300
C  50.86200 43.25800 40.11800
C  51.84800 42.17700 40.17300
C  53.00000 42.73800 40.72800
C  52.72800 44.15900 40.90800
C  51.55400 40.77400 39.81500
C  54.26800 41.95000 41.01900
O  54.33500 40.79400 40.67200
C  55.45700 42.52400 41.74400
N  52.29500 47.32500 41.14400
C  53.34400 46.57200 41.56200
C  54.51000 47.51900 41.88800
C  53.89100 48.92000 41.97300
C  52.45100 48.61900 41.49900
C  55.33000 46.99300 43.13400
C  54.54700 49.94000 40.98900
C  54.79800 51.22900 41.67600
N  49.48800 48.13000 40.77700
C  50.06200 49.37100 41.04000
C  49.01200 50.40900 40.86800
C  47.89600 49.62300 40.43000
C  48.25100 48.30700 40.42200
C  49.13400 51.88600 41.02300
C  46.49600 49.68900 40.02700
O  45.74100 50.63900 40.12400
C  46.15500 48.21300 39.55700
C  44.87300 47.69600 40.28800
O  44.79300 47.23100 41.41800
O  43.80100 47.97500 39.56100
C  42.45500 47.61100 40.02300
H  49.27500 42.11100 39.30100
H  54.60100 44.98600 41.46600
H  51.59300 50.61700 41.71200
H  45.54200 45.20800 39.55000
H  47.17400 43.19500 38.27600
H  45.79100 43.51900 41.01100
H  47.24600 42.56900 41.02600
H  45.85800 42.05500 39.96700
H  47.11300 45.56100 36.92700
H  45.61300 46.37200 37.35400
H  44.27800 45.14600 36.54500
H  44.70800 43.66200 37.33700
H  50.72500 40.78000 39.10800
H  51.27500 40.26300 40.73600
H  52.34300 40.18500 39.34700
H  54.95300 42.94200 42.61600
H  55.99200 43.29600 41.19100
H  56.09500 41.69000 42.03700
H  55.17100 47.47500 41.02300
H  53.72700 49.08400 43.03800
H  54.87400 46.13500 43.62700
H  55.58300 47.66700 43.95300
H  56.31800 46.61000 42.87800
H  53.89500 50.10500 40.13200
H  55.47100 49.53700 40.57400
H  54.74600 51.06300 42.75200
H  54.02700 51.91400 41.32200
H  55.76100 51.63300 41.36400
H  48.79400 52.17800 42.01600
H  48.64000 52.47300 40.24900
H  50.19400 52.10500 40.89900
H  46.11000 48.24200 38.46800
H  41.85900 47.45600 39.12300
H  41.92200 48.25400 40.72300
H  42.64200 46.63400 40.46900
Mg 5.53600 53.66200 41.31100
C  5.17800 50.12000 40.95700
C  8.79300 53.25800 40.28300
C  5.55100 56.76400 40.95600
C  1.98400 53.59500 41.94300
N  6.79000 51.92800 40.76100
C  6.52200 50.60500 40.59400
C  7.61900 49.80500 39.84700
C  8.81700 50.71900 40.09500
C  8.13500 52.07300 40.43400
C  9.85800 50.27300 41.15000
C  7.33600 49.45900 38.34900
C  6.51700 50.43500 37.48300
H  7.39700 51.22500 36.42600
N  7.03100 54.87500 40.77000
C  8.29100 54.55500 40.34800
C  9.00300 55.70900 40.01400
C  8.07900 56.85400 40.16100
C  6.80600 56.19800 40.61100
C  10.41700 55.62800 39.42800
C  8.40700 58.33600 39.75300
O  9.54500 58.67100 39.55600
C  7.33500 59.30100 39.68600
N  3.94600 54.93900 41.21900
C  4.27200 56.27800 41.20900
C  3.12200 57.20000 41.60100
C  1.94700 56.15600 41.75000
C  2.61500 54.78500 41.63200
C  3.27200 58.18900 42.84300
C  0.86600 56.38600 40.67400
C  -0.51500 56.01800 41.29600
N  3.94600 52.18800 41.57400
C  2.60100 52.37400 41.88300
C  2.05700 51.03200 42.17600
C  3.00800 50.19900 41.78900
C  4.14200 50.89800 41.34100
C  0.71900 50.66300 42.69600
C  3.25900 48.79900 41.57600
O  2.50000 47.82800 41.76700
C  4.70400 48.70300 41.09300
C  4.59200 47.92500 39.87600
O  3.81100 48.28000 38.95000
O  5.11800 46.62600 39.93200
C  4.68400 45.74300 38.81200
H  9.86800 53.25400 40.08800
H  5.56800 57.85400 40.90200
H  0.96300 53.86800 42.21800
H  7.79100 48.84400 40.33200
H  9.42900 50.87800 39.20700
H  9.36100 50.34700 42.11700
H  10.75600 50.88100 41.03800
H  10.08300 49.22500 40.95300
H  6.76800 48.53300 38.44900
H  8.30200 49.24300 37.89300
H  5.86400 51.16500 37.96000
H  5.88200 49.72000 36.95900
H  10.44400 55.59500 38.33900
H  10.98300 54.78100 39.81700
H  10.94300 56.53000 39.74100
H  7.76600 60.12400 39.11500
H  7.07500 59.63000 40.69200
H  6.49300 58.86200 39.15100
H  2.93300 57.88300 40.77300
H  1.50000 56.15900 42.74400
H  4.28200 58.20500 43.25400
H  2.62400 57.89000 43.66800
H  3.03900 59.16300 42.41400
H  0.99500 55.61300 39.91600
H  0.88600 57.36800 40.20100
H  -1.26300 56.80900 41.25800
H  -0.51600 55.60700 42.30600
H  -0.87500 55.16600 40.71900
H  0.14900 50.07600 41.97600
H  0.25000 51.53000 43.16100
H  0.99100 49.95800 43.48100
H  5.43200 48.30000 41.79700
H  4.84700 46.21200 37.84200
H  3.61200 45.55400 38.85700
H  5.29700 44.84100 38.81800

