158

Mg 1.04100 8.52200 27.44000
C  1.47500 11.09600 29.83400
C  1.43500 6.23300 29.80000
C  0.45800 6.16900 25.09500
C  0.86700 11.11700 25.03800
N  1.43000 8.68100 29.47900
C  1.34900 9.76100 30.27000
C  1.03600 9.40800 31.76700
C  1.46400 7.92000 31.76800
C  1.38600 7.57000 30.22300
C  2.79800 7.59400 32.42100
C  -0.47200 9.54200 32.13200
C  -0.72300 9.43200 33.74700
H  0.34400 8.85600 34.70600
N  0.89100 6.49400 27.45500
C  1.14100 5.66600 28.51500
C  0.90600 4.32800 28.25400
C  0.67100 4.25100 26.87400
C  0.61800 5.67700 26.40000
C  1.04900 3.21100 29.30000
C  0.49700 2.99500 25.94100
O  0.43900 3.09400 24.75100
C  0.78700 1.65500 26.50200
N  0.57100 8.64200 25.31200
C  0.52100 7.45800 24.57000
C  0.37800 7.86400 23.10600
C  0.05300 9.42100 23.14700
C  0.49600 9.81600 24.58000
C  1.75900 7.58200 22.42000
C  -1.54300 9.67900 22.92800
C  -2.01900 10.19400 21.57500
N  1.23500 10.61100 27.35100
C  1.22800 11.52300 26.36200
C  1.53900 12.85000 26.79100
C  1.67100 12.74600 28.15600
C  1.43500 11.36200 28.47500
C  1.51600 14.14800 26.00100
C  1.87800 13.46400 29.46000
O  2.15400 14.63100 29.74400
C  1.73400 12.36200 30.54800
C  2.77600 12.53900 31.59600
O  3.98200 12.29800 31.51100
O  2.19800 12.74700 32.80300
C  2.93100 12.64600 34.05000
H  1.47700 5.45300 30.56300
H  0.37300 5.42100 24.30400
H  0.72100 11.76800 24.17300
H  1.78800 9.93900 32.35000
H  0.76700 7.27100 32.30000
H  3.26100 6.98500 31.64500
H  2.69300 6.90900 33.26300
H  3.33500 8.53400 32.54800
H  -1.01000 8.75400 31.60500
H  -0.75700 10.53400 31.78200
H  -1.56500 8.74200 33.79900
H  -1.08400 10.41700 34.04100
H  2.03500 2.74700 29.29300
H  0.30300 2.44400 29.09300
H  0.74000 3.54500 30.29000
H  -0.14200 1.10300 26.64500
H  1.46000 1.61600 27.35800
H  1.36800 1.25100 25.67300
H  -0.26100 7.19800 22.52600
H  0.73100 9.87100 22.42200
H  1.62800 7.18800 21.41200
H  2.18400 6.74200 22.97000
H  2.44500 8.42100 22.30800
H  -1.72300 10.46000 23.66700
H  -2.04100 8.76700 23.25800
H  -1.28000 9.81000 20.87100
H  -2.22100 11.26000 21.47200
H  -2.87900 9.63400 21.20800
H  0.61400 14.22300 25.39400
H  2.30100 14.33800 25.26900
H  1.50100 15.03400 26.63600
H  0.85000 12.54100 31.16000
H  3.97600 12.90900 33.89000
H  2.99000 11.60500 34.36700
H  2.51200 13.23800 34.86300
Mg 41.02200 8.95100 29.37600
C  42.81500 10.07000 32.11700
C  38.39400 7.94500 31.44700
C  39.33900 7.69800 26.72000
C  43.82700 9.62700 27.41900
N  40.71900 8.95400 31.56500
C  41.52300 9.61600 32.45600
C  40.77600 9.66300 33.76600
C  39.48300 8.82500 33.58600
C  39.46400 8.55600 32.07200
C  39.52200 7.47000 34.39800
C  40.49100 11.09400 34.27500
C  39.90800 11.11200 35.71500
H  40.77800 11.72900 36.70800
N  39.16500 7.89800 29.12200
C  38.14200 7.69600 30.09000
C  36.93300 7.09000 29.53800
C  37.15900 7.07000 28.09600
C  38.64800 7.54500 27.90900
C  35.70600 6.67400 30.41100
C  36.12700 6.68800 26.95700
O  36.47300 6.54800 25.77900
C  34.74500 6.51600 27.29200
N  41.54500 8.50100 27.41100
C  40.68500 8.08400 26.49100
C  41.31600 7.99000 25.07100
C  42.56800 8.99900 25.28800
C  42.66700 9.04800 26.81500
C  41.62600 6.60700 24.53700
C  42.48800 10.40000 24.70400
C  43.43100 10.78400 23.53500
N  42.90800 9.78000 29.63000
C  43.99700 9.90500 28.74500
C  45.13500 10.49200 29.40900
C  44.61100 10.65200 30.72400
C  43.34300 10.10800 30.79800
C  46.45300 10.96500 28.75100
C  45.01100 11.07500 32.02000
O  45.97600 11.71100 32.36900
C  43.86300 10.74600 32.93900
C  44.28300 9.90900 34.10100
O  44.96800 8.88700 34.12100
O  43.82700 10.40000 35.26300
C  44.23300 9.64900 36.49700
H  37.58400 7.73200 32.14700
H  38.83000 7.35500 25.81700
H  44.59600 9.88300 26.68700
H  41.52000 9.17100 34.39300
H  38.53600 9.32700 33.78800
H  39.96800 6.70500 33.76200
H  38.46600 7.40900 34.66200
H  40.01500 7.59100 35.36300
H  39.67200 11.47400 33.66500
H  41.39500 11.69000 34.15800
H  39.59100 10.09100 35.92600
H  39.03600 11.76300 35.78500
H  34.73200 6.87400 29.96400
H  35.67400 6.99400 31.45300
H  35.71200 5.59200 30.28400
H  34.62100 5.65300 27.94700
H  34.18700 6.31100 26.37900
H  34.41500 7.49800 27.63000
H  40.58900 8.45000 24.40200
H  43.49200 8.52600 24.95600
H  42.69900 6.42200 24.58200
H  41.17900 6.57600 23.54300
H  41.09400 5.82700 25.08200
H  42.50500 11.21800 25.42500
H  41.53000 10.55600 24.20800
H  43.60900 9.81600 23.06600
H  44.36100 11.12300 23.99200
H  43.02200 11.60500 22.94700
H  46.28600 12.03000 28.59400
H  46.72500 10.42400 27.84500
H  47.26800 10.69200 29.42100
H  43.36200 11.60200 33.39200
H  44.36400 8.60500 36.21300
H  43.43800 9.85800 37.21400
H  45.16200 10.01000 36.93800

