158

Mg 43.85900 4.92500 47.00300
C  41.93700 7.80500 47.00300
C  40.94700 3.02800 47.06400
C  45.68200 2.24100 46.24000
C  46.70400 6.93800 46.96900
N  41.67500 5.39400 46.79800
C  41.15300 6.61500 46.97600
C  39.59700 6.61800 47.16800
C  39.38800 4.99300 47.24000
C  40.76800 4.43500 47.04700
C  38.79900 4.50300 48.53900
C  38.59300 7.32900 46.21500
C  39.17300 7.71800 44.86900
H  38.81500 6.87000 43.69900
N  43.43600 2.91500 46.68700
C  42.16900 2.31600 46.74900
C  42.29000 0.96600 46.39900
C  43.57900 0.74400 45.88900
C  44.32700 2.01200 46.23600
C  41.12000 0.02300 46.43300
C  44.19300 -0.56000 45.19800
O  43.60600 -1.65200 45.22200
C  45.41300 -0.45900 44.37600
N  45.97900 4.59100 46.76700
C  46.46700 3.32100 46.48200
C  47.94800 3.37200 46.13100
C  48.31300 4.94300 46.52300
C  46.92800 5.54000 46.76700
C  48.69900 2.26100 46.80800
C  49.42000 5.68100 45.69000
C  50.57800 6.22000 46.51800
N  44.31100 6.95400 47.11200
C  45.47700 7.62800 47.01400
C  45.23600 9.11400 46.95300
C  43.82300 9.17700 46.95500
C  43.35100 7.89500 47.02900
C  46.26500 10.17700 46.74200
C  42.72200 10.07100 46.97300
O  42.68000 11.27100 46.86800
C  41.37700 9.26000 47.06300
C  40.56900 9.67800 48.25200
O  40.65300 9.29000 49.41700
O  39.65700 10.66600 47.90600
C  38.88000 11.21000 48.98400
H  40.07000 2.39200 47.19300
H  46.27600 1.34900 46.03300
H  47.60800 7.54400 47.05700
H  39.42700 7.01300 48.17000
H  38.82200 4.66400 46.36800
H  38.06800 3.72600 48.31600
H  38.29300 5.26800 49.12800
H  39.56600 4.09700 49.19800
H  38.31800 8.27800 46.67500
H  37.70500 6.69500 46.21700
H  40.25700 7.61500 44.89700
H  38.81100 8.71700 44.62500
H  41.49300 -0.98100 46.63800
H  40.57900 0.05700 45.48700
H  40.43600 0.40500 47.19200
H  45.43600 -1.43200 43.88600
H  46.28600 -0.33600 45.01600
H  45.25900 0.30500 43.61300
H  48.08100 3.36600 45.04900
H  48.78100 4.83600 47.50100
H  48.76200 1.44200 46.09100
H  48.18100 1.89700 47.69600
H  49.70600 2.59500 47.05900
H  48.98600 6.57900 45.25100
H  49.86700 5.10100 44.88200
H  51.51500 5.69100 46.34000
H  50.50000 6.21200 47.60500
H  50.74600 7.26400 46.25500
H  46.35200 10.75300 47.66400
H  45.91200 10.77000 45.89900
H  47.22200 9.75000 46.44200
H  40.78100 9.40900 46.16300
H  39.50400 11.81400 49.64200
H  38.29700 10.39600 49.41400
H  38.21400 11.97100 48.57500
Mg 29.92900 57.74100 41.07500
C  27.09500 55.77300 40.14300
C  31.89000 55.26600 39.55200
C  32.46100 59.84700 41.38000
C  27.66300 60.34500 41.93100
N  29.57000 55.69400 40.05500
C  28.31200 55.09100 39.81400
C  28.45500 53.71400 39.21300
C  29.96800 53.63100 38.93300
C  30.52700 54.87200 39.60300
C  30.60400 52.21900 39.23200
C  27.53200 53.52900 37.90100
C  27.40900 54.79200 36.95200
H  27.73700 54.68300 35.47600
N  31.88300 57.52500 40.70200
C  32.50500 56.47600 40.07100
C  33.97300 56.75600 40.03300
C  34.14700 58.01000 40.59800
C  32.76500 58.55200 40.87900
C  34.91700 55.68800 39.60300
C  35.48700 58.68700 40.83100
O  36.51900 58.06800 40.57600
C  35.68800 60.13700 41.23800
N  30.03900 59.81800 41.56800
C  31.20600 60.40100 41.70700
C  31.04000 61.89700 41.82900
C  29.57300 62.05500 42.26100
C  29.02100 60.64300 41.87400
C  32.02100 62.70200 42.69800
C  28.88000 63.36700 41.63600
C  27.97600 64.22100 42.58800
N  27.82700 58.01600 41.07700
C  27.06100 59.12200 41.49900
C  25.66600 58.80900 41.25400
C  25.66500 57.45900 40.89000
C  26.98800 57.06000 40.72700
C  24.47900 59.71200 41.36700
C  24.76200 56.46600 40.46100
O  23.52100 56.45000 40.44400
C  25.64900 55.25900 39.94400
C  25.38200 54.15700 40.84600
O  25.73000 54.15500 42.03900
O  24.82000 53.08800 40.23300
C  24.57900 51.88100 41.07800
H  32.59800 54.57700 39.08600
H  33.30800 60.53600 41.34900
H  27.00700 61.20200 42.09700
H  28.19200 53.02000 40.01100
H  30.07000 53.71200 37.85100
H  30.19800 51.56600 38.45900
H  30.22800 51.80400 40.16800
H  31.68900 52.30100 39.18000
H  26.52000 53.29200 38.22700
H  27.87000 52.72400 37.24900
H  28.22300 55.42500 37.30400
H  26.49200 55.38200 36.93700
H  35.96900 55.97500 39.58500
H  34.66800 55.25800 38.63200
H  34.81800 54.87600 40.32300
H  35.36700 60.73600 40.38600
H  36.75200 60.37000 41.27800
H  35.17200 60.35600 42.17200
H  31.21600 62.31000 40.83600
H  29.67600 62.07800 43.34600
H  32.29100 63.65800 42.24900
H  32.97100 62.18100 42.81400
H  31.72600 62.86000 43.73500
H  28.21500 63.12200 40.80800
H  29.69200 63.97300 41.23400
H  27.02100 64.42800 42.10400
H  28.51200 65.14300 42.81000
H  27.70900 63.69500 43.50400
H  24.23500 60.13300 40.39200
H  24.66100 60.48300 42.11600
H  23.65700 59.05100 41.64200
H  25.46400 55.07700 38.88500
H  25.29200 51.07100 40.92300
H  23.58800 51.47000 40.88500
H  24.61900 52.01600 42.15900

