158

Mg 43.28400 3.54500 46.77400
C  41.60700 6.63300 47.14900
C  40.23400 2.06300 46.69400
C  44.81800 0.71600 45.72600
C  46.27400 5.22200 46.64900
N  41.17500 4.25300 46.92100
C  40.72100 5.52100 47.19500
C  39.19800 5.55400 47.32500
C  38.88400 4.08000 47.48400
C  40.17500 3.37300 46.99700
C  38.38100 3.68300 48.87100
C  38.40600 6.16600 46.14600
C  39.05000 6.12300 44.73300
H  38.20000 5.85400 43.47400
N  42.66700 1.64900 46.40600
C  41.30300 1.25200 46.39300
C  41.22700 -0.13200 46.07200
C  42.55000 -0.59100 45.74600
C  43.41500 0.61800 45.99300
C  39.93000 -0.80500 45.94100
C  42.84000 -1.97500 45.30000
O  42.04300 -2.91000 45.14700
C  44.29000 -2.24500 44.88900
N  45.33400 3.03000 46.40300
C  45.71100 1.74200 46.01700
C  47.24300 1.65300 45.82200
C  47.73800 3.07500 46.23800
C  46.39900 3.84800 46.45500
C  47.89400 0.40500 46.63600
C  48.68900 3.67300 45.21200
C  50.00100 4.06800 45.93000
N  43.85900 5.52000 46.77000
C  45.15700 6.00300 46.76400
C  45.02100 7.50500 46.88200
C  43.69000 7.75800 46.97600
C  42.99000 6.52800 46.93800
C  46.20000 8.40600 47.00000
C  42.70400 8.81300 47.09700
O  42.81600 10.08600 47.13000
C  41.37100 8.10600 47.24900
C  40.67600 8.56800 48.53100
O  40.98000 8.16300 49.65500
O  39.57700 9.36500 48.20700
C  38.63000 9.48400 49.33000
H  39.30200 1.49500 46.64200
H  45.32400 -0.22000 45.48000
H  47.19100 5.81500 46.62300
H  38.98000 6.05800 48.26600
H  38.10100 3.73800 46.80700
H  38.03300 4.49100 49.51300
H  39.23400 3.30100 49.43200
H  37.51500 3.02900 48.77100
H  38.29100 7.21300 46.42400
H  37.40700 5.76300 45.97900
H  39.78000 5.32900 44.57600
H  39.56200 7.08500 44.70400
H  40.10700 -1.85300 46.18300
H  39.52400 -0.49900 44.97700
H  39.31200 -0.59000 46.81300
H  44.88300 -2.42300 45.78600
H  44.71000 -1.50800 44.20300
H  44.21200 -3.09800 44.21500
H  47.36300 1.46300 44.75600
H  48.23900 2.93800 47.19600
H  47.50400 0.19800 47.63200
H  48.96200 0.28400 46.81600
H  47.62900 -0.51100 46.10800
H  48.39300 4.53700 44.61700
H  48.91600 2.93600 44.44100
H  49.84100 5.14300 46.01400
H  50.78300 3.84500 45.20500
H  50.20400 3.70400 46.93700
H  46.78500 8.36300 46.08100
H  46.84800 8.04200 47.79700
H  45.93900 9.46300 47.03800
H  40.75300 8.44600 46.41800
H  39.02400 10.12800 50.11600
H  38.16600 8.58000 49.72200
H  37.86500 10.16400 48.95600
Mg -11.75200 17.16000 42.03700
C  -8.56100 15.73200 41.65900
C  -10.54500 20.15500 40.78400
C  -14.85300 18.04200 41.49600
C  -12.88300 13.76700 42.44800
N  -9.74900 17.85100 41.32100
C  -8.60100 17.13800 41.29400
C  -7.43200 18.01400 40.77800
C  -8.09400 19.46800 41.05300
C  -9.57100 19.10800 40.97200
C  -7.75000 20.21600 42.31500
C  -7.13100 17.69200 39.32000
C  -5.71300 17.35800 38.99700
H  -5.01200 18.12100 37.89500
N  -12.56500 18.90900 41.36100
C  -11.91500 20.07200 41.01600
C  -12.86700 21.16000 40.85500
C  -14.14400 20.57200 40.97900
C  -13.87000 19.10500 41.27800
C  -12.48400 22.53900 40.39900
C  -15.49900 21.26900 40.90300
O  -15.62000 22.52000 40.78000
C  -16.79400 20.53900 40.92300
N  -13.58000 16.06500 41.99400
C  -14.72000 16.70400 41.80300
C  -15.96800 15.84800 41.98100
C  -15.40200 14.44200 42.28900
C  -13.86600 14.74600 42.33400
C  -16.97000 16.45300 42.98900
C  -15.86300 13.35200 41.26600
C  -16.79300 12.27100 41.78900
N  -10.87500 15.17500 42.22900
C  -11.50600 13.94000 42.49900
C  -10.41000 12.90800 42.67600
C  -9.23200 13.60000 42.37400
C  -9.59500 14.91700 42.10900
C  -10.61400 11.49100 42.96500
C  -7.81500 13.37700 42.27500
O  -7.05800 12.39800 42.42000
C  -7.32400 14.76700 41.73800
C  -6.36800 15.33900 42.65500
O  -6.68300 15.80400 43.72800
O  -5.08400 15.28100 42.20300
C  -4.03000 15.86400 43.16100
H  -10.09500 21.12700 40.57100
H  -15.89700 18.22800 41.23200
H  -13.03100 12.68700 42.38100
H  -6.60400 17.94200 41.48300
H  -7.76900 20.13700 40.25500
H  -6.81000 20.71600 42.08300
H  -7.53900 19.56800 43.16600
H  -8.52200 20.95600 42.52700
H  -7.43700 18.52600 38.68800
H  -7.76400 16.86600 38.99400
H  -5.65500 16.27300 38.91900
H  -5.09900 17.54800 39.87800
H  -12.41700 22.38300 39.32300
H  -11.48400 22.72700 40.79000
H  -13.18200 23.28000 40.78800
H  -17.54900 21.32100 41.01100
H  -16.80300 19.93800 41.83200
H  -16.88400 20.08100 39.93800
H  -16.49500 15.87800 41.02700
H  -15.64900 14.17800 43.31700
H  -17.99200 16.46300 42.61000
H  -16.71600 17.48600 43.22800
H  -16.99000 15.94500 43.95400
H  -14.99900 12.84800 40.83200
H  -16.39000 13.82400 40.43700
H  -17.06800 12.46000 42.82600
H  -16.31200 11.30000 41.90900
H  -17.75300 12.24400 41.27300
H  -9.89700 11.18500 43.72700
H  -10.69500 10.91800 42.04100
H  -11.61000 11.43400 43.40400
H  -6.80700 14.66700 40.78400
H  -4.00600 16.95000 43.25000
H  -3.11300 15.36000 42.85400
H  -4.29000 15.51100 44.15900

