158

Mg 48.83000 16.24300 28.33200
C  46.69000 15.81300 31.12500
C  50.87800 18.20700 30.27300
C  50.90600 16.48400 25.76000
C  46.35500 14.52600 26.41600
N  48.78500 16.83400 30.47200
C  47.86900 16.53000 31.43500
C  48.18600 17.25200 32.72600
C  49.39200 18.15900 32.27400
C  49.71600 17.73900 30.95100
C  49.19200 19.72400 32.46600
C  48.52400 16.20100 33.82500
C  48.60100 16.67000 35.24300
H  48.44900 18.16700 35.57000
N  50.62100 17.24700 28.02300
C  51.34600 17.97500 28.94500
C  52.62300 18.41300 28.40700
C  52.64200 17.85700 27.06300
C  51.34400 17.22800 26.83600
C  53.61300 19.30300 29.15000
C  53.76800 17.77700 26.01900
O  53.74700 17.23500 24.93900
C  55.06100 18.46200 26.40500
N  48.64100 15.51400 26.42700
C  49.66000 15.75300 25.50900
C  49.34100 15.11700 24.17400
C  48.04100 14.19700 24.46500
C  47.59600 14.80900 25.78900
C  49.15700 16.19100 23.11400
C  48.38300 12.69400 24.55400
C  47.57400 11.77700 23.69700
N  46.84800 15.39700 28.63300
C  45.94900 14.72800 27.80500
C  44.85900 14.23100 28.54500
C  45.01900 14.64700 29.81500
C  46.31200 15.29800 29.85300
C  43.76900 13.36300 27.93500
C  44.51100 14.64800 31.15800
O  43.44600 14.19300 31.55100
C  45.56800 15.37500 32.12000
C  44.84300 16.42400 32.78600
O  44.54600 17.50800 32.33600
O  44.38700 15.85500 33.96500
C  43.46800 16.72200 34.71200
H  51.56700 18.89900 30.76300
H  51.51600 16.49700 24.85400
H  45.81200 13.79800 25.80900
H  47.31300 17.84800 32.99000
H  50.30200 17.94200 32.83300
H  49.25100 20.40400 31.61600
H  49.75300 20.08400 33.32800
H  48.13800 19.84100 32.71900
H  49.48400 15.80800 33.49000
H  47.98900 15.25500 33.74000
H  49.55300 16.31700 35.63900
H  47.80100 16.19800 35.81400
H  54.66900 19.13900 28.93100
H  53.52100 19.32000 30.23600
H  53.31400 20.32800 28.93100
H  54.84100 19.49900 26.65800
H  55.74000 18.37000 25.55800
H  55.57500 17.98500 27.23900
H  50.12900 14.42200 23.88600
H  47.19400 14.48500 23.84200
H  49.79300 16.00000 22.25100
H  49.45100 17.16900 23.49400
H  48.08800 16.24000 22.90700
H  48.30300 12.37200 25.59300
H  49.46200 12.58800 24.44300
H  48.19900 11.10600 23.10900
H  46.91900 12.30500 23.00400
H  46.93700 11.14700 24.31800
H  44.11500 12.90900 27.00700
H  42.90800 13.99100 27.70900
H  43.56600 12.57200 28.65800
H  45.89900 14.77100 32.96600
H  42.73300 16.10400 35.22900
H  42.93400 17.41000 34.05600
H  44.10800 17.22100 35.44000
Mg 0.75100 43.92700 26.43400
C  2.89500 44.10800 29.35700
C  -1.82700 43.07200 28.68900
C  -1.24400 43.16800 23.80800
C  3.47400 44.34300 24.40900
N  0.66600 43.54200 28.80200
C  1.57100 43.90000 29.72900
C  0.95000 43.83800 31.15900
C  -0.45700 43.03100 30.94400
C  -0.56000 43.19900 29.36500
C  -0.44900 41.57100 31.38000
C  0.84200 45.21300 31.94700
C  1.01500 45.18100 33.45500
H  0.61700 43.84800 34.09600
N  -1.25800 43.46200 26.18000
C  -2.17900 43.22700 27.30500
C  -3.49300 43.20700 26.76600
C  -3.32400 43.14100 25.34600
C  -1.92300 43.27300 25.05400
C  -4.80200 43.10500 27.57500
C  -4.43700 43.00400 24.24500
O  -4.26300 43.14600 23.01400
C  -5.84300 42.83800 24.64300
N  1.07300 43.72400 24.45100
C  0.14300 43.35000 23.58500
C  0.69800 43.50400 22.14400
C  2.06700 44.22300 22.34400
C  2.21700 44.06400 23.82400
C  0.83500 42.15000 21.35600
C  2.05700 45.73600 21.95300
C  3.48200 46.17600 21.35600
N  2.77800 44.14600 26.77000
C  3.72800 44.32600 25.78800
C  5.04100 44.32400 26.41100
C  4.72500 44.26500 27.78300
C  3.34100 44.21100 27.99200
C  6.37900 44.29500 25.78400
C  5.30000 44.10200 29.11800
O  6.47300 44.11500 29.42300
C  4.11200 44.15500 30.25400
C  4.32300 43.01800 31.16800
O  4.62900 41.88300 30.88100
O  4.27600 43.46200 32.44300
C  4.63500 42.47000 33.48200
H  -2.62900 42.81500 29.38300
H  -1.86300 42.93000 22.94100
H  4.24400 44.59000 23.67500
H  1.67400 43.21400 31.68400
H  -1.17800 43.61200 31.51800
H  -0.93800 40.90100 30.67300
H  -1.09600 41.38200 32.23600
H  0.58700 41.37200 31.65400
H  -0.06900 45.68700 31.58200
H  1.61600 45.83100 31.49200
H  0.47900 45.96600 33.98700
H  2.08200 45.37900 33.55400
H  -4.51400 43.27900 28.61200
H  -5.53000 42.31700 27.38300
H  -5.48400 43.91500 27.31500
H  -6.11500 43.77900 25.12200
H  -6.03700 42.04500 25.36600
H  -6.51100 42.77700 23.78400
H  0.03900 44.15500 21.56900
H  2.91800 43.68500 21.92500
H  0.16500 41.41000 21.79300
H  1.88000 41.87100 21.22400
H  0.49100 42.25800 20.32800
H  1.86100 46.32500 22.84900
H  1.34400 45.94400 21.15500
H  3.91700 47.11800 21.69000
H  3.37800 46.28900 20.27700
H  4.21800 45.38100 21.47800
H  6.27600 43.60900 24.94300
H  7.14500 44.06200 26.52400
H  6.71700 45.22100 25.32000
H  4.16300 45.11600 30.76700
H  5.30000 41.69500 33.10000
H  3.72000 42.04700 33.89500
H  5.15600 42.99100 34.28500

