158

Mg 46.42700 45.27100 42.92900
C  42.99500 44.45700 42.92800
C  47.10100 42.02000 42.31300
C  49.65900 46.11700 42.54500
C  45.50900 48.73600 43.16800
N  45.13000 43.43300 42.45100
C  43.79400 43.31100 42.73200
C  43.36000 41.84700 42.56300
C  44.72700 41.05600 42.58800
C  45.68800 42.24000 42.47800
C  45.04900 40.14600 43.83900
C  42.52600 41.64500 41.29300
C  42.79700 42.49300 40.15600
H  42.43600 42.04200 38.68500
N  48.12500 44.22100 42.56700
C  48.22500 42.89600 42.32800
C  49.61500 42.49600 42.17000
C  50.35800 43.70300 42.21800
C  49.40800 44.74500 42.36200
C  50.11800 41.07100 41.86200
C  51.86400 43.84000 42.00800
O  52.49600 42.78300 41.82000
C  52.58600 45.25600 41.92600
N  47.40200 47.14900 42.67300
C  48.79000 47.18700 42.81300
C  49.36100 48.61700 42.88600
C  48.04600 49.47000 42.78100
C  46.90900 48.43400 42.94400
C  50.21100 48.77300 44.16500
C  47.89900 50.33600 41.50300
C  48.82300 51.59900 41.53600
N  44.69800 46.48400 43.02100
C  44.41000 47.80700 43.18800
C  42.98200 48.09900 43.39800
C  42.39200 46.76400 43.26200
C  43.44600 45.82000 43.04000
C  42.25900 49.36000 43.62700
C  41.17700 46.09000 43.22200
O  40.01300 46.43200 43.25000
C  41.54100 44.56300 43.17700
C  41.00900 43.90900 44.42400
O  40.18400 43.01500 44.33100
O  41.83000 44.17100 45.48100
C  41.79500 43.08900 46.46700
H  47.41600 40.97600 42.26200
H  50.67800 46.48200 42.68500
H  45.21000 49.78400 43.23600
H  42.67900 41.57200 43.36800
H  44.93800 40.40800 41.73700
H  45.88900 40.55300 44.40200
H  45.37800 39.21500 43.37800
H  44.13100 39.98100 44.40400
H  41.44700 41.70700 41.42800
H  42.73600 40.63400 40.94300
H  43.87400 42.63300 40.06500
H  42.30600 43.45200 40.31800
H  50.29500 41.09600 40.78600
H  49.35400 40.32600 42.08200
H  51.04700 40.83800 42.38100
H  52.12000 45.91100 41.18900
H  53.64700 45.04500 41.79300
H  52.47700 45.61900 42.94800
H  49.96500 48.92700 42.03300
H  47.85200 50.01700 43.70300
H  50.36900 49.78100 44.54700
H  51.20900 48.34400 44.07300
H  49.69400 48.22100 44.94900
H  46.90200 50.77400 41.46600
H  48.11300 49.74900 40.60900
H  49.50700 51.78900 40.70900
H  49.44900 51.55300 42.42800
H  48.19800 52.49100 41.56900
H  41.44600 49.59300 42.94000
H  43.04000 50.11400 43.72300
H  41.82100 49.29300 44.62200
H  40.96000 44.14200 42.35700
H  41.15500 43.39500 47.29400
H  42.84700 43.07000 46.75100
H  41.53200 42.08500 46.13400
Mg 30.13100 59.88400 39.95000
C  27.19700 58.23500 38.50300
C  31.98700 57.20600 38.93300
C  33.00800 61.78700 40.33600
C  28.28200 62.85400 39.93300
N  29.63300 57.97700 38.75200
C  28.40400 57.51500 38.35500
C  28.61000 56.23300 37.66800
C  30.00700 55.70300 38.13700
C  30.64500 57.07200 38.63400
C  30.15800 54.56800 39.05500
C  28.51300 56.36800 36.09500
C  27.44100 55.60400 35.33200
H  26.59700 56.44700 34.35700
N  32.17800 59.46000 39.86500
C  32.74600 58.33500 39.37300
C  34.20500 58.40100 39.45100
C  34.48800 59.64400 40.10900
C  33.15400 60.38600 40.13200
C  35.20400 57.38100 38.90100
C  35.89000 60.08300 40.57000
O  36.90100 59.49700 40.36100
C  36.04500 61.37900 41.36400
N  30.52400 61.97500 40.29000
C  31.80500 62.50200 40.28600
C  31.79200 64.04000 40.40700
C  30.24300 64.28700 40.65300
C  29.67100 62.99200 40.29300
C  32.67800 64.67800 41.48100
C  29.77000 65.46100 39.73800
C  29.09400 66.66100 40.41200
N  28.11800 60.47000 39.47700
C  27.51700 61.66700 39.62300
C  26.02800 61.47200 39.34900
C  25.93100 60.10900 39.01700
C  27.21400 59.59800 39.04500
C  24.97100 62.53700 39.38100
C  24.92400 59.08200 38.64500
O  23.71300 59.14800 38.64500
C  25.72300 57.85000 38.25200
C  25.31300 56.77200 39.17600
O  25.77000 56.50400 40.26300
O  24.20300 56.16100 38.54500
C  23.65800 55.00500 39.23400
H  32.64300 56.36200 38.71100
H  33.75100 62.58600 40.37900
H  27.72000 63.78600 40.01300
H  27.76100 55.66500 38.04800
H  30.64400 55.41500 37.30100
H  30.65100 53.72100 38.57800
H  29.12000 54.31700 39.27300
H  30.70800 54.65700 39.99200
H  29.45000 55.96600 35.71000
H  28.39100 57.40500 35.78400
H  26.78100 55.30700 36.14700
H  27.89300 54.76300 34.80600
H  35.70400 57.93800 38.10900
H  34.67300 56.57200 38.39800
H  35.90500 56.85500 39.54900
H  37.09600 61.51500 41.61700
H  35.35400 61.46600 42.20300
H  35.89500 62.21300 40.67900
H  32.20900 64.40800 39.47000
H  30.01000 64.45400 41.70500
H  33.51900 65.28700 41.14700
H  33.04900 63.92500 42.17700
H  32.09400 65.42600 42.01700
H  29.08200 65.07100 38.98800
H  30.63800 65.84200 39.20000
H  29.91900 67.36800 40.32800
H  28.89500 66.62100 41.48300
H  28.18100 66.92100 39.87700
H  24.20300 62.32700 38.63600
H  25.31000 63.55400 39.18600
H  24.38700 62.56000 40.30100
H  25.37900 57.61700 37.24400
H  22.82500 54.61900 38.64600
H  23.13200 55.19100 40.17100
H  24.36500 54.19900 39.43300

