158

Mg 1.70900 -1.29700 43.39800
C  5.10600 -0.25400 43.32200
C  0.96800 1.57900 41.72200
C  -1.42900 -2.42500 42.97700
C  2.82400 -4.47800 44.18400
N  2.88300 0.27400 42.53100
C  4.18700 0.59800 42.61700
C  4.62800 1.94300 42.00300
C  3.18600 2.56300 42.03000
C  2.27200 1.38000 42.07900
C  2.94200 3.73900 43.04500
C  5.15800 1.63600 40.52300
C  6.12700 2.72100 39.80000
H  5.52800 3.62000 38.65700
N  -0.02800 -0.48900 42.59100
C  -0.12400 0.71200 41.91700
C  -1.49000 0.91100 41.49200
C  -2.25400 -0.17900 41.98800
C  -1.25000 -1.08900 42.58100
C  -2.04800 2.20500 40.90300
C  -3.77100 -0.22800 42.13100
O  -4.50900 0.66100 41.70500
C  -4.49100 -1.34700 42.75800
N  0.84100 -3.18700 43.53500
C  -0.49700 -3.40200 43.31400
C  -0.80200 -4.92400 43.40400
C  0.48400 -5.45100 44.09700
C  1.46900 -4.29700 43.90500
C  -2.03300 -5.32600 44.16100
C  1.01300 -6.82900 43.66200
C  1.79300 -7.71800 44.71200
N  3.52700 -2.22400 43.71200
C  3.82100 -3.55400 43.98200
C  5.28800 -3.74300 44.04300
C  5.81400 -2.49400 43.88400
C  4.74200 -1.59400 43.61900
C  6.07100 -4.95500 44.47900
C  6.98800 -1.80300 43.90000
O  8.16200 -2.13500 44.11200
C  6.59500 -0.25000 43.42400
C  6.99000 0.57600 44.56300
O  6.77000 0.39400 45.71500
O  7.87100 1.50800 44.08500
C  8.66400 2.24700 45.10700
H  0.77400 2.56800 41.30000
H  -2.39500 -2.88000 42.74900
H  3.15600 -5.50800 44.32500
H  5.31900 2.61200 42.51400
H  3.11400 3.03200 41.04800
H  3.77200 4.43800 42.94700
H  2.86700 3.53900 44.11300
H  2.05600 4.32000 42.78600
H  4.34800 1.23500 39.91300
H  5.75500 0.73700 40.67100
H  7.04500 2.20700 39.51500
H  6.27900 3.44500 40.60100
H  -1.28700 2.97600 40.78200
H  -2.72000 2.59600 41.66700
H  -2.52500 1.91100 39.96800
H  -5.54500 -1.10000 42.88500
H  -4.02200 -1.43100 43.73800
H  -4.27900 -2.28400 42.24400
H  -0.73600 -5.31900 42.39000
H  0.32800 -5.47600 45.17500
H  -1.85300 -5.81200 45.12000
H  -2.55500 -6.19400 43.75600
H  -2.75300 -4.51300 44.24400
H  1.52200 -6.76500 42.70100
H  0.11600 -7.40400 43.43200
H  1.14000 -8.45700 45.17600
H  2.30000 -7.20800 45.53200
H  2.49700 -8.27200 44.09100
H  5.37400 -5.50200 45.11300
H  6.90900 -4.52200 45.02600
H  6.44800 -5.46600 43.59300
H  7.26700 -0.02300 42.59700
H  8.68700 3.32500 44.94700
H  9.64700 1.77900 45.05500
H  8.41900 2.12300 46.16200
Mg 35.74300 1.99900 30.51800
C  33.02700 3.09900 32.62100
C  37.77900 2.27000 33.01600
C  38.22100 1.25500 28.29300
C  33.50600 2.15800 27.74200
N  35.43300 2.73500 32.57000
C  34.28200 2.93000 33.27800
C  34.58100 3.07700 34.80100
C  36.13500 2.99700 34.77500
C  36.48000 2.66900 33.37000
C  36.94000 4.18400 35.30700
C  33.84900 1.95000 35.61800
C  33.69400 2.12800 37.09200
H  34.39000 3.33900 37.75400
N  37.77400 1.73000 30.64000
C  38.46000 1.80600 31.82300
C  39.72200 1.30200 31.63800
C  39.82800 0.94700 30.25300
C  38.56700 1.31100 29.64400
C  40.69500 1.17100 32.83300
C  41.04200 0.35200 29.54100
O  41.00200 0.08200 28.36000
C  42.33000 -0.04200 30.22600
N  35.80400 1.72500 28.33800
C  36.99000 1.42700 27.69000
C  36.82400 1.45900 26.15800
C  35.24200 1.66300 25.99800
C  34.80900 1.73800 27.46500
C  37.58300 2.65300 25.42700
C  34.51700 0.55800 25.11700
C  34.08700 -0.73500 25.88900
N  33.68600 2.40100 30.14700
C  32.94000 2.47800 29.03700
C  31.61700 2.95000 29.35400
C  31.59900 3.14400 30.69200
C  32.90200 2.90900 31.16400
C  30.55600 3.17700 28.26600
C  30.75500 3.62300 31.81400
O  29.59600 3.91900 31.87900
C  31.63800 3.61400 33.14700
C  31.68300 4.89500 33.78900
O  31.79700 5.94500 33.20700
O  31.35400 4.68900 35.09100
C  31.55200 5.91100 36.03900
H  38.44400 2.24500 33.88200
H  39.00500 0.93400 27.60400
H  32.97600 2.40800 26.82000
H  34.18500 4.06000 35.05500
H  36.39600 2.10800 35.35000
H  37.73200 3.76500 35.92800
H  36.30900 4.79700 35.95100
H  37.20700 4.86700 34.50000
H  34.45100 1.07200 35.38300
H  32.88500 1.81700 35.12700
H  33.87900 1.29300 37.76800
H  32.65800 2.43700 37.23200
H  41.47500 0.41700 32.73200
H  40.06100 1.03000 33.70800
H  41.24900 2.11000 32.85600
H  42.05800 -0.80600 30.95400
H  42.97800 0.77100 30.55300
H  43.04000 -0.52600 29.55600
H  37.00500 0.47100 25.73400
H  34.93700 2.63900 25.61900
H  38.35200 2.17900 24.81800
H  38.02900 3.38100 26.10500
H  37.02800 3.27900 24.72900
H  35.10600 0.29400 24.23900
H  33.63200 0.91100 24.58900
H  34.45300 -0.73400 26.91600
H  34.51600 -1.63400 25.44600
H  33.01500 -0.92800 25.92400
H  29.60900 3.54600 28.66100
H  30.38900 2.16400 27.90200
H  30.84400 3.91000 27.51200
H  31.35600 2.88300 33.90500
H  31.68000 5.50300 37.04200
H  30.58900 6.42200 36.00700
H  32.40700 6.50300 35.71300

