158

Mg 43.10900 41.74300 27.94700
C  42.31000 44.11100 30.42300
C  43.95000 39.56700 30.54700
C  44.35600 39.73800 25.67100
C  42.51700 44.21700 25.49200
N  42.92700 41.76700 30.15800
C  42.66500 42.84600 30.96300
C  42.57300 42.44500 32.41200
C  43.49000 41.25400 32.43200
C  43.41100 40.79000 30.96100
C  44.98700 41.44000 33.04300
C  41.15500 42.31800 33.08200
C  40.80100 43.35300 34.17300
H  40.39400 42.83500 35.58600
N  43.89000 39.82000 28.04400
C  44.12800 39.05500 29.23400
C  44.64700 37.77100 28.90700
C  44.84600 37.82100 27.49800
C  44.31100 39.11600 26.97300
C  44.93000 36.62300 29.94800
C  45.40300 36.73700 26.56200
O  45.42800 36.88900 25.32800
C  45.80700 35.36100 27.04500
N  43.53800 42.08700 25.85900
C  44.07400 41.00100 25.17500
C  44.19300 41.39600 23.67000
C  43.35000 42.66600 23.63800
C  43.12200 43.03300 25.06300
C  45.67300 41.43700 23.12300
C  41.98700 42.44800 22.85300
C  41.04300 41.35800 23.51100
N  42.53500 43.75500 27.88700
C  42.27500 44.61000 26.81000
C  41.73400 45.85000 27.27500
C  41.73000 45.71200 28.69500
C  42.23200 44.43700 28.97600
C  41.21200 46.92500 26.36000
C  41.37900 46.34000 29.95000
O  40.92000 47.41700 30.23100
C  41.61800 45.30900 31.10200
C  42.49100 46.05100 32.05800
O  43.62200 46.49700 31.82200
O  41.80200 46.38000 33.20900
C  42.49900 47.11200 34.18600
H  44.34900 38.86500 31.28300
H  44.82200 39.11900 24.90100
H  42.10600 44.86500 24.71500
H  43.11200 43.24500 32.92000
H  42.99600 40.40400 32.90100
H  45.67500 41.27300 32.21500
H  45.16100 40.73200 33.85300
H  45.17300 42.41700 33.48900
H  41.01500 41.24800 33.23500
H  40.51100 42.67500 32.27800
H  39.98400 44.00400 33.86100
H  41.64200 44.03300 34.30900
H  46.00100 36.49100 30.10100
H  44.62800 35.62300 29.63700
H  44.36300 36.80200 30.86200
H  46.41000 35.43600 27.95000
H  46.50400 35.01400 26.28300
H  44.91200 34.73900 27.04400
H  43.66500 40.64100 23.08800
H  43.87400 43.51900 23.20700
H  46.09900 42.43400 23.23600
H  45.69000 41.10000 22.08600
H  46.26500 40.76100 23.74000
H  42.21200 42.26500 21.80200
H  41.50600 43.42500 22.81800
H  40.70700 40.58400 22.82000
H  40.10900 41.72600 23.93400
H  41.65400 40.80500 24.22400
H  42.02900 47.34300 25.77100
H  40.72500 47.64600 27.01700
H  40.50300 46.56300 25.61500
H  40.67800 45.02500 31.57500
H  42.47200 46.51800 35.10000
H  42.04600 48.10100 34.25100
H  43.54600 47.33700 33.98300
Mg -11.74500 16.36300 41.69600
C  -8.78100 14.48700 41.49600
C  -10.20700 18.90300 39.95800
C  -14.87100 17.82500 41.26600
C  -13.32300 13.50100 42.86100
N  -9.74700 16.63600 40.78600
C  -8.70600 15.64900 40.75100
C  -7.53800 16.23900 39.97500
C  -7.92000 17.66400 39.65700
C  -9.32500 17.79500 40.23600
C  -7.01500 18.75500 40.31000
C  -7.14200 15.40700 38.70200
C  -5.63500 15.17100 38.50900
H  -5.02000 15.55000 37.07700
N  -12.39000 18.18600 40.90600
C  -11.59200 19.14100 40.28200
C  -12.40100 20.29500 39.95900
C  -13.74100 20.05700 40.44400
C  -13.72900 18.60500 40.90700
C  -11.91300 21.61600 39.35700
C  -14.81600 21.09800 40.48100
O  -14.48900 22.23000 40.10400
C  -16.24100 20.80800 40.90400
N  -13.87300 15.74900 42.09700
C  -14.96600 16.55600 41.87800
C  -16.22000 15.80100 42.17700
C  -15.71500 14.43000 42.76700
C  -14.19000 14.52300 42.57200
C  -17.29100 16.48400 43.10500
C  -16.34200 13.09700 42.29300
C  -16.98600 12.15800 43.34400
N  -11.20400 14.40900 42.30800
C  -11.93700 13.40300 42.74900
C  -11.13700 12.31200 43.11600
C  -9.81400 12.69600 42.77400
C  -9.90300 14.01600 42.19700
C  -11.67100 10.99100 43.54000
C  -8.45800 12.29800 42.72800
O  -7.83900 11.32800 43.21500
C  -7.72600 13.43600 41.89000
C  -6.79100 14.02900 42.80500
O  -6.80200 14.20300 44.02000
O  -5.67600 14.40500 42.07000
C  -4.65700 15.04400 42.86700
H  -9.81000 19.66300 39.28300
H  -15.84500 18.28100 41.07800
H  -13.87900 12.72600 43.39100
H  -6.78300 16.21600 40.76100
H  -7.95800 17.85900 38.58500
H  -6.46500 18.22700 41.08900
H  -7.64600 19.46100 40.84900
H  -6.42800 19.24900 39.53500
H  -7.38800 15.93600 37.78200
H  -7.66000 14.44900 38.66300
H  -5.58700 14.08700 38.61100
H  -4.98400 15.57800 39.28300
H  -12.54000 21.95900 38.53400
H  -10.90200 21.51200 38.96400
H  -11.87000 22.36000 40.15300
H  -16.20500 20.31600 41.87600
H  -16.54000 20.13700 40.09900
H  -16.93800 21.62800 40.73000
H  -16.56800 15.61700 41.16100
H  -15.68100 14.51800 43.85300
H  -18.25100 16.43200 42.59100
H  -17.07700 17.53600 43.29400
H  -17.37800 15.97500 44.06500
H  -15.52200 12.47700 41.93000
H  -17.16800 13.19900 41.59100
H  -17.18200 12.75100 44.23800
H  -16.40200 11.26800 43.57800
H  -17.99000 11.79500 43.12100
H  -12.18500 10.52700 42.69800
H  -12.29900 11.12300 44.42100
H  -10.84300 10.35400 43.85100
H  -7.30000 12.99900 40.98700
H  -4.85300 16.11100 42.75400
H  -3.72500 14.65300 42.45800
H  -4.57600 14.81400 43.92900

