158

Mg -1.06600 7.46800 26.20800
C  -0.01000 9.63000 28.72900
C  -0.90200 4.88600 28.43000
C  -1.59700 5.35900 23.63500
C  -0.59200 10.08300 23.98400
N  -0.28800 7.26000 28.32700
C  -0.15400 8.28200 29.20800
C  -0.41400 7.85800 30.64700
C  -0.30200 6.31400 30.53500
C  -0.45700 6.12900 29.03300
C  0.98400 5.61900 31.10100
C  -1.75200 8.40600 31.29500
C  -1.53500 8.99300 32.69200
H  -0.61700 8.19500 33.69300
N  -1.28900 5.41000 26.05900
C  -1.24500 4.49300 27.12800
C  -1.73200 3.20700 26.62500
C  -1.79600 3.28300 25.17000
C  -1.51000 4.69300 24.86800
C  -1.97000 2.00200 27.48900
C  -2.07100 2.18600 24.13000
O  -1.96000 2.44700 22.94500
C  -2.41400 0.70500 24.52500
N  -0.81000 7.54600 24.08000
C  -1.25000 6.62000 23.24700
C  -1.23100 7.10700 21.77400
C  -1.04000 8.67300 21.93300
C  -0.85500 8.81100 23.48500
C  -0.19100 6.41000 20.83100
C  -2.30100 9.52400 21.41500
C  -3.46200 10.00900 22.35700
N  -0.51000 9.49800 26.29900
C  -0.36100 10.41600 25.31200
C  -0.10700 11.67800 25.83100
C  0.08500 11.42800 27.26500
C  -0.17300 10.12300 27.40400
C  0.03700 12.94500 25.02600
C  0.37600 11.99200 28.53500
O  0.64200 13.12300 28.87400
C  0.26700 10.82600 29.61500
C  1.60200 10.75200 30.39000
O  2.70900 10.34700 30.00700
O  1.26300 11.17400 31.63000
C  2.27100 11.17400 32.65200
H  -1.03700 4.03200 29.09700
H  -1.81800 4.77600 22.73800
H  -0.54200 10.84700 23.20500
H  0.49700 8.20100 31.13700
H  -1.13900 5.84300 31.05100
H  0.75100 4.93800 31.92000
H  1.71400 6.40900 31.28200
H  1.43100 5.01700 30.31100
H  -2.45600 7.57400 31.32400
H  -2.24000 9.20900 30.74300
H  -2.51800 9.04100 33.16000
H  -1.20800 10.00500 32.45400
H  -1.51300 1.09400 27.09600
H  -3.04300 1.82600 27.56600
H  -1.57800 1.95100 28.50500
H  -3.02800 0.64000 25.42400
H  -1.53400 0.09900 24.74400
H  -2.90400 0.20500 23.69000
H  -2.20700 6.85500 21.35900
H  -0.13100 9.06400 21.47600
H  0.48500 7.18700 20.47400
H  -0.80500 5.88000 20.10300
H  0.32100 5.65100 21.42200
H  -2.76300 8.84200 20.70100
H  -1.85800 10.37500 20.89800
H  -4.45800 9.69300 22.04900
H  -3.46800 11.09900 22.36500
H  -3.24100 9.67100 23.36900
H  1.06200 13.30500 25.10800
H  -0.68500 13.55100 25.57200
H  -0.32200 13.03400 24.00000
H  -0.54700 10.96600 30.32600
H  3.31900 10.95000 32.44800
H  1.88500 10.37600 33.28600
H  2.32500 12.08100 33.25500
Mg 48.60400 35.51500 27.90500
C  46.58200 34.29200 30.49500
C  49.33000 38.19600 30.05700
C  50.11800 37.00000 25.36300
C  47.49800 33.02300 25.82500
N  48.15800 36.03400 30.06600
C  47.39200 35.31400 30.93200
C  47.40900 35.88000 32.41600
C  48.05500 37.30900 32.15600
C  48.58400 37.14900 30.73000
C  47.12100 38.61300 32.23300
C  48.14100 35.01600 33.55300
C  49.52800 35.37600 34.15400
H  49.60600 36.16300 35.49300
N  49.70700 37.30600 27.69400
C  49.77200 38.28000 28.70800
C  50.34400 39.52800 28.08000
C  50.46500 39.28200 26.71500
C  50.04400 37.82400 26.52500
C  50.55100 40.89000 28.84500
C  50.99700 40.14300 25.59200
O  50.97900 39.74200 24.40700
C  51.55200 41.47900 25.92400
N  48.90500 35.02400 25.98500
C  49.63600 35.70400 25.10300
C  49.78300 35.07400 23.72100
C  48.83100 33.85600 23.82100
C  48.28700 33.97500 25.28700
C  49.34300 35.93400 22.64400
C  49.41800 32.42700 23.51200
C  49.16400 32.05200 22.06300
N  47.36900 33.93500 28.06700
C  47.05600 33.00700 27.16000
C  46.05600 32.10700 27.69800
C  45.74300 32.68600 28.99400
C  46.63000 33.70300 29.20900
C  45.37000 31.03500 27.02300
C  44.98400 32.53800 30.19700
O  44.18200 31.71200 30.49500
C  45.48300 33.59900 31.25100
C  45.82600 32.87400 32.47300
O  46.66400 32.05000 32.52300
O  44.93400 33.21300 33.51300
C  45.47000 32.54100 34.77800
H  49.64700 39.06400 30.64000
H  50.53900 37.47200 24.47300
H  47.06100 32.33200 25.10100
H  46.37900 35.94200 32.76800
H  48.98200 37.42400 32.71800
H  47.22500 39.18200 31.30900
H  47.34400 39.17300 33.14100
H  46.06100 38.36100 32.25700
H  48.46800 34.02700 33.23100
H  47.40700 34.75300 34.31400
H  50.18100 35.88300 33.44400
H  50.10500 34.45700 34.26400
H  50.32800 41.68900 28.13800
H  51.62200 40.72700 28.96100
H  49.93700 40.95900 29.74300
H  50.74700 42.14100 26.24400
H  51.88500 41.90000 24.97600
H  52.28500 41.32600 26.71600
H  50.80300 34.73700 23.53900
H  47.91800 33.97800 23.23800
H  48.89900 36.81600 23.10500
H  48.72600 35.47200 21.87300
H  50.23200 36.38000 22.19800
H  48.98600 31.70200 24.20100
H  50.50500 32.44800 23.44000
H  49.03400 32.86900 21.35400
H  48.36700 31.32000 21.93100
H  50.03100 31.58800 21.59200
H  45.16500 30.20900 27.70500
H  45.90500 30.71800 26.12800
H  44.34800 31.31400 26.76400
H  44.68700 34.28900 31.53100
H  45.56600 31.45500 34.77600
H  44.83200 32.90100 35.58500
H  46.47300 32.89700 35.01500

