158

Mg 44.39800 4.72400 46.47800
C  42.02900 7.18500 46.02000
C  41.89900 2.35400 46.21600
C  46.73200 2.23700 46.35600
C  46.95100 7.15500 46.07100
N  42.19700 4.77300 46.04000
C  41.46400 5.93800 45.97700
C  39.98400 5.56300 45.97300
C  39.96600 4.06300 46.11400
C  41.44300 3.68400 46.09200
C  39.20200 3.70500 47.46500
C  39.27500 6.08900 44.76300
C  40.10000 6.02200 43.41100
H  39.18900 5.84000 42.17200
N  44.38400 2.58500 46.39300
C  43.21600 1.83000 46.33800
C  43.55000 0.41500 46.29300
C  44.96100 0.37300 46.54100
C  45.43900 1.79000 46.47600
C  42.50100 -0.72900 46.19600
C  45.76300 -0.91800 46.85100
O  45.23800 -1.98800 47.04800
C  47.21600 -0.94200 46.84600
N  46.55000 4.69000 46.01700
C  47.26200 3.55600 46.26600
C  48.72900 3.87500 46.12900
C  48.81200 5.39200 46.07900
C  47.35300 5.82300 45.92300
C  49.53900 3.25500 47.37100
C  49.68300 5.94400 44.89300
C  51.19600 5.85600 45.03300
N  44.55000 6.76800 46.22900
C  45.59900 7.62200 46.16400
C  45.12500 8.96600 46.18800
C  43.73100 8.85700 46.10700
C  43.46100 7.47700 46.16400
C  45.86800 10.24100 46.12800
C  42.48600 9.58800 45.91600
O  42.30400 10.77000 45.88800
C  41.35700 8.55700 45.94100
C  40.53200 8.86500 47.09500
O  40.78400 8.41400 48.20400
O  39.38100 9.51100 46.76800
C  38.47800 9.81100 47.92400
H  41.06200 1.66000 46.31500
H  47.52700 1.49000 46.39700
H  47.82800 7.79200 46.20200
H  39.48700 5.97600 46.85100
H  39.41800 3.61500 45.28500
H  38.47900 4.48500 47.70300
H  39.79500 3.73200 48.37900
H  38.70100 2.75100 47.29800
H  38.80100 7.03900 45.00800
H  38.38600 5.49300 44.55700
H  40.86300 5.24700 43.34900
H  40.65300 6.95800 43.32500
H  41.46500 -0.39400 46.14100
H  42.49300 -1.41100 47.04600
H  42.62900 -1.24400 45.24300
H  47.64900 -0.29300 47.60800
H  47.54900 -0.71700 45.83300
H  47.61700 -1.90100 47.17500
H  49.12900 3.30400 45.29100
H  49.11300 5.99300 46.93700
H  48.78300 2.96700 48.10300
H  50.03900 4.14200 47.75900
H  50.18500 2.42700 47.08000
H  49.58700 7.02600 44.80500
H  49.50400 5.20100 44.11600
H  51.55300 6.88500 44.99300
H  51.65100 5.26100 44.24100
H  51.48500 5.44200 45.99900
H  46.64800 10.10000 45.37900
H  46.24500 10.68500 47.04900
H  45.27500 11.03800 45.68000
H  40.75000 8.64200 45.03900
H  38.29900 8.84800 48.40200
H  37.55400 10.26800 47.56900
H  39.05800 10.46400 48.57600
Mg 27.40800 50.66700 26.64900
C  25.17900 51.69400 29.34300
C  29.74200 49.78800 28.80300
C  29.19500 49.85700 24.06000
C  24.80100 51.76000 24.51600
N  27.47800 50.94400 28.76800
C  26.41500 51.09300 29.70600
C  26.91700 50.81100 31.12000
C  28.40700 50.29200 30.95500
C  28.60900 50.30700 29.38400
C  29.45000 51.05300 31.69900
C  25.88600 50.01800 31.97800
C  26.40400 49.03400 33.05300
H  26.80500 49.62200 34.35800
N  29.19500 50.00000 26.51400
C  30.11500 49.78300 27.44800
C  31.39600 49.47700 26.89100
C  31.26700 49.51400 25.48900
C  29.83200 49.81900 25.30300
C  32.58900 49.00700 27.76900
C  32.29300 49.17000 24.48100
O  31.96200 49.21400 23.28600
C  33.64300 48.70800 24.88100
N  26.96700 50.78800 24.56900
C  27.92200 50.27000 23.68600
C  27.41100 50.28100 22.26600
C  25.92300 50.67400 22.45900
C  25.83300 51.05300 23.90300
C  28.27100 51.20400 21.37900
C  24.85600 49.55100 22.02900
C  25.10800 48.19600 22.65500
N  25.45700 51.62400 26.86000
C  24.60600 52.06000 25.84500
C  23.47500 52.70100 26.46100
C  23.63400 52.55600 27.83200
C  24.89700 51.92400 28.05500
C  22.41200 53.38600 25.62000
C  23.04700 52.89600 29.02600
O  21.99100 53.45400 29.19700
C  23.97600 52.31100 30.10600
C  24.41700 53.46300 31.03900
O  25.04200 54.44400 30.71000
O  24.06100 53.26500 32.33600
C  24.33500 54.26900 33.32200
H  30.38100 49.33800 29.56600
H  29.74700 49.56400 23.16400
H  23.99300 51.99900 23.82100
H  26.88800 51.76900 31.63900
H  28.51700 49.28000 31.34500
H  30.17700 50.40100 32.18500
H  29.05500 51.76600 32.42300
H  30.01900 51.61900 30.96200
H  25.39800 49.43000 31.20100
H  25.21100 50.66900 32.53300
H  27.23600 48.47300 32.62800
H  25.66100 48.25700 33.23100
H  33.05500 48.07100 27.46300
H  32.23200 48.95700 28.79700
H  33.33100 49.80500 27.77300
H  34.06400 49.32200 25.67800
H  34.25000 48.79700 23.98100
H  33.44900 47.73800 25.34000
H  27.62700 49.33400 21.77000
H  25.63000 51.55600 21.88900
H  27.59200 51.96000 20.98600
H  28.73300 50.56700 20.62500
H  29.06700 51.62800 21.99300
H  24.79300 49.39500 20.95200
H  23.87300 49.83500 22.40200
H  24.54200 48.06900 23.57800
H  26.12200 48.01800 23.01200
H  25.05400 47.41400 21.89700
H  22.00700 52.67300 24.90200
H  22.71700 54.29300 25.09700
H  21.58500 53.61700 26.29100
H  23.39800 51.61900 30.71900
H  24.83800 55.18600 33.01800
H  24.87600 53.79000 34.13800
H  23.41300 54.57700 33.81500

