158

Mg 47.44900 44.40600 42.23300
C  44.09900 43.60900 43.13000
C  48.00500 40.96400 41.96300
C  50.40300 45.08000 40.71200
C  46.42500 47.75600 41.62700
N  46.21400 42.58800 42.63600
C  44.88300 42.45000 42.96700
C  44.36100 40.96500 42.88600
C  45.73900 40.17400 42.77600
C  46.77500 41.32700 42.49500
C  45.97400 39.14200 43.88600
C  43.31000 40.78800 41.76600
C  43.68900 41.28300 40.33200
H  43.25400 40.49400 39.08400
N  48.99100 43.21400 41.47200
C  49.03800 41.84100 41.54200
C  50.38900 41.41400 41.24400
C  51.07800 42.56200 40.80300
C  50.16600 43.72300 40.93800
C  50.96200 40.02700 41.40500
C  52.60900 42.51900 40.41500
O  53.32500 41.55400 40.40400
C  53.24700 43.73900 39.86800
N  48.30600 46.15700 41.22300
C  49.58700 46.20900 40.85000
C  50.10200 47.58300 40.77000
C  48.76800 48.38600 40.67300
C  47.70900 47.40700 41.14800
C  51.02700 47.83300 41.94600
C  48.39600 48.83600 39.28800
C  48.97200 50.24700 38.98500
N  45.75100 45.56100 42.61500
C  45.43800 46.91600 42.25100
C  44.14000 47.20900 42.72500
C  43.52400 45.93200 43.01100
C  44.55700 44.90600 42.88600
C  43.40700 48.49500 42.47100
C  42.27000 45.26300 43.37300
O  41.08100 45.63400 43.49300
C  42.60900 43.79400 43.39800
C  42.07100 43.28000 44.70000
O  42.31100 43.72400 45.80800
O  41.29200 42.13400 44.44700
C  41.03800 41.25700 45.56200
H  48.26100 39.90400 41.90300
H  51.36900 45.52400 40.46200
H  46.14000 48.80600 41.53800
H  43.90100 40.68800 43.83400
H  45.67000 39.68700 41.80300
H  46.17600 38.22600 43.33000
H  45.05900 38.92300 44.43700
H  46.75200 39.48700 44.56800
H  42.38800 41.29300 42.05500
H  43.18500 39.70600 41.77600
H  44.77300 41.17300 40.28000
H  43.51400 42.35300 40.22200
H  50.36800 39.29800 41.95500
H  51.97100 40.01300 41.81800
H  51.20800 39.54200 40.46100
H  52.55900 44.31800 39.25100
H  54.13500 43.52900 39.27100
H  53.51500 44.39300 40.69800
H  50.72600 47.60100 39.87700
H  48.71600 49.21200 41.38100
H  50.62900 47.46100 42.89000
H  51.21400 48.90100 42.06500
H  51.99600 47.47500 41.59700
H  47.31800 48.91700 39.15100
H  48.88100 48.14200 38.60000
H  49.51700 50.14800 38.04600
H  49.51200 50.61600 39.85800
H  48.11400 50.89900 38.81900
H  43.72300 48.96800 41.54100
H  43.67600 49.15900 43.29200
H  42.32600 48.43100 42.59000
H  42.06500 43.30400 42.59100
H  41.87400 41.01600 46.21800
H  40.75500 40.36400 45.00500
H  40.13400 41.59400 46.06800
Mg 26.06700 49.57200 26.64300
C  23.83500 51.00400 28.83100
C  28.26400 49.18000 29.11600
C  28.34200 48.78100 24.14200
C  23.88800 50.58600 23.97900
N  26.07600 50.26900 28.79800
C  24.95700 50.61900 29.52900
C  25.04100 50.36900 31.01200
C  26.62600 50.04400 31.07300
C  27.07100 49.75900 29.58000
C  27.50600 51.17900 31.77200
C  24.08600 49.25000 31.60600
C  23.85800 49.17400 33.24000
H  24.63900 50.15200 34.07300
N  27.98500 49.09400 26.63500
C  28.76000 48.97900 27.79000
C  30.04100 48.47300 27.36900
C  30.11600 48.48500 25.94700
C  28.79700 48.83400 25.55000
C  31.12600 48.11900 28.47500
C  31.35700 48.22800 24.99000
O  31.37700 48.44300 23.78400
C  32.64300 47.86000 25.63300
N  26.01400 49.43000 24.46000
C  27.05900 49.04200 23.66100
C  26.68400 48.94600 22.14600
C  25.29400 49.61700 22.10200
C  25.00100 49.87000 23.61900
C  27.70000 49.63300 21.13300
C  24.17300 48.79500 21.38200
C  23.23700 49.56600 20.39700
N  24.21400 50.45300 26.34800
C  23.47100 50.87100 25.23200
C  22.30500 51.50700 25.68200
C  22.31300 51.43600 27.06100
C  23.56200 50.88600 27.41300
C  21.26400 52.00800 24.79500
C  21.65200 51.84200 28.26200
O  20.59700 52.40700 28.39800
C  22.52700 51.46200 29.47200
C  22.86400 52.74100 30.32600
O  23.53500 53.72500 30.01000
O  22.26900 52.58000 31.62800
C  22.60700 53.66400 32.53500
H  28.94100 48.87600 29.91600
H  28.97100 48.44400 23.31500
H  23.21300 50.81400 23.15100
H  24.94600 51.26900 31.61900
H  26.93200 49.14400 31.60600
H  28.01200 50.78200 32.65200
H  26.87400 51.96400 32.18800
H  28.20500 51.58300 31.04100
H  24.62300 48.36400 31.26700
H  23.16400 49.49000 31.07600
H  23.98100 48.16600 33.63500
H  22.80400 49.45000 33.21500
H  32.05400 48.56500 28.11700
H  31.41700 47.07000 28.41500
H  31.02600 48.55900 29.46700
H  33.35800 47.32000 25.01200
H  32.34700 47.11300 26.37000
H  33.16400 48.72500 26.04400
H  26.66800 47.87200 21.96000
H  25.38700 50.60600 21.65300
H  28.40300 50.35600 21.54500
H  27.12100 50.10900 20.34100
H  28.24800 48.85900 20.59600
H  23.69000 48.26500 22.20200
H  24.70200 48.13500 20.69400
H  23.26700 50.65500 20.43800
H  22.20100 49.24000 20.48600
H  23.48400 49.36700 19.35400
H  21.14400 51.41100 23.89100
H  21.51800 53.04600 24.57600
H  20.26400 51.96600 25.22600
H  21.98300 50.59900 29.85700
H  22.90200 54.56100 31.99100
H  23.42800 53.38100 33.19400
H  21.72900 53.86900 33.14700

