158

Mg 25.58800 0.12600 29.07400
C  27.34700 -0.22400 32.07000
C  22.68900 0.25500 30.97600
C  23.91000 0.61100 26.26500
C  28.46800 -0.51400 27.24200
N  25.05700 0.09500 31.35000
C  25.96000 -0.16900 32.33600
C  25.12200 -0.09800 33.68900
C  23.62500 -0.05000 33.27500
C  23.79100 0.04000 31.82300
C  22.68900 -1.24800 33.58200
C  25.43100 1.23300 34.45800
C  25.88800 1.02000 35.95000
H  25.68600 2.22100 36.87500
N  23.58600 0.37400 28.66800
C  22.56200 0.36300 29.54700
C  21.29000 0.54800 28.80900
C  21.64800 0.67400 27.45300
C  23.10200 0.56900 27.39800
C  19.94100 0.58000 29.43900
C  20.72900 0.84100 26.25400
O  21.14400 0.88200 25.13800
C  19.29100 0.88900 26.45400
N  26.03500 -0.26500 27.03000
C  25.26000 0.31400 26.08400
C  25.93000 0.43400 24.74300
C  27.31400 -0.20700 24.97500
C  27.25600 -0.36000 26.49700
C  25.18400 -0.05900 23.53100
C  28.58500 0.56100 24.45500
C  29.50400 -0.40300 23.57300
N  27.48500 -0.18200 29.49700
C  28.57500 -0.54600 28.67900
C  29.74800 -0.74800 29.50000
C  29.44100 -0.52700 30.87000
C  27.99500 -0.25100 30.77600
C  31.18400 -1.22000 29.00900
C  29.84700 -0.53800 32.25100
O  30.93300 -0.85100 32.77800
C  28.50100 -0.29000 33.09900
C  28.33500 -1.39900 34.13500
O  27.92400 -2.56400 33.85400
O  28.85500 -1.07000 35.38700
C  28.81400 -1.95300 36.53800
H  21.80000 0.34200 31.60400
H  23.43100 0.93400 25.33800
H  29.37300 -0.81500 26.70900
H  25.44600 -0.95400 34.28000
H  23.02900 0.83300 33.50300
H  22.77500 -1.79700 34.52000
H  22.75400 -2.03200 32.82700
H  21.68300 -0.84200 33.47300
H  24.56600 1.89700 34.46800
H  26.23700 1.74400 33.93200
H  26.93200 0.71400 35.89200
H  25.29000 0.25600 36.44800
H  19.95300 0.51300 30.52700
H  19.44700 -0.23500 28.91000
H  19.44300 1.48800 29.09700
H  18.98100 1.68600 27.13100
H  19.14900 -0.11000 26.86500
H  18.82900 0.96500 25.47000
H  25.99500 1.51300 24.59800
H  27.31200 -1.27100 24.73700
H  25.11100 0.77100 22.82900
H  24.23600 -0.52700 23.79800
H  25.69200 -0.89300 23.04700
H  29.17700 0.83800 25.32800
H  28.43300 1.46300 23.86300
H  28.92500 -1.05200 22.91500
H  30.18200 -1.03000 24.15200
H  30.14800 0.16900 22.90400
H  31.39700 -0.98400 27.96700
H  31.25100 -2.27500 29.27400
H  31.86900 -0.63100 29.61900
H  28.69600 0.53600 33.78300
H  28.60700 -3.01600 36.41600
H  28.07500 -1.60200 37.25800
H  29.67200 -1.89400 37.20800
Mg -2.37700 34.33000 26.90500
C  -3.15900 32.52100 29.68700
C  -0.67700 36.63600 28.82600
C  -1.78200 36.11500 24.06200
C  -4.06800 32.00600 24.97200
N  -2.01300 34.56900 29.00700
C  -2.32800 33.61400 29.96000
C  -1.87800 34.05000 31.35700
C  -1.30600 35.53300 31.12200
C  -1.21700 35.55000 29.59000
C  -2.19900 36.69100 31.67100
C  -0.98000 33.10100 32.17200
C  -1.42100 32.56800 33.57000
H  -0.34000 32.42400 34.68300
N  -1.45200 36.09200 26.47900
C  -0.79800 36.85000 27.37500
C  -0.21600 37.96800 26.66700
C  -0.63400 37.96400 25.33800
C  -1.33600 36.65400 25.24000
C  0.65300 38.90700 27.36300
C  -0.59000 39.03300 24.20200
O  -1.01300 38.90200 23.08100
C  -0.09100 40.33900 24.55100
N  -3.04300 34.19700 24.83700
C  -2.55400 35.02400 23.85100
C  -2.99400 34.61200 22.45700
C  -3.67800 33.24400 22.73000
C  -3.62600 33.10600 24.28300
C  -3.94000 35.67300 21.78000
C  -3.13500 32.16400 21.76900
C  -1.82200 31.58500 22.27900
N  -3.57600 32.75300 27.24900
C  -4.14100 31.79200 26.37200
C  -4.78600 30.69900 27.07500
C  -4.52900 31.05300 28.42500
C  -3.63300 32.13900 28.45200
C  -5.74000 29.65800 26.59000
C  -4.75300 30.57800 29.73300
O  -5.40500 29.63200 30.19800
C  -3.84500 31.53700 30.66700
C  -4.69900 32.25900 31.63100
O  -5.27900 33.31600 31.35400
O  -4.63900 31.67700 32.85900
C  -5.29500 32.43400 33.99300
H  -0.21300 37.39800 29.45600
H  -1.28000 36.37600 23.12900
H  -4.49700 31.26100 24.29900
H  -2.78400 34.18900 31.94700
H  -0.31800 35.53100 31.58100
H  -2.48500 37.44000 30.93200
H  -1.57100 37.08200 32.47100
H  -3.05100 36.32900 32.24500
H  0.00400 33.48900 32.43600
H  -0.88500 32.30200 31.43700
H  -1.73500 31.57400 33.25000
H  -2.36800 33.00700 33.88300
H  0.22500 39.89800 27.21000
H  1.62800 39.04200 26.89500
H  0.78900 38.79900 28.43900
H  0.98900 40.26200 24.67400
H  -0.55500 40.68700 25.47300
H  -0.27100 41.05600 23.75000
H  -2.05000 34.44100 21.93800
H  -4.72500 33.40900 22.47500
H  -4.22900 36.42900 22.51000
H  -4.82200 35.19200 21.35700
H  -3.33600 36.13300 20.99800
H  -3.03400 32.50700 20.74000
H  -3.87600 31.36500 21.74500
H  -1.73900 30.51500 22.08700
H  -1.51600 31.74600 23.31300
H  -1.00200 31.96600 21.67100
H  -5.43900 28.75300 27.11900
H  -5.66700 29.53800 25.50900
H  -6.70400 30.04500 26.92000
H  -3.18700 30.80500 31.13500
H  -4.65000 33.29300 34.17900
H  -5.51100 31.75500 34.81800
H  -6.24200 32.87700 33.68500

