158

Mg -13.50700 15.47000 41.81500
C  -10.51300 13.75100 41.54200
C  -12.08900 18.07200 40.07000
C  -16.57800 16.90700 41.32100
C  -14.86300 12.66500 43.42000
N  -11.56500 15.75600 40.84600
C  -10.47700 15.01400 40.91900
C  -9.29500 15.58000 40.09700
C  -9.70900 17.01100 39.89200
C  -11.24000 16.97000 40.26400
C  -8.86400 18.07500 40.51200
C  -8.99400 14.70700 38.82200
C  -7.54700 14.20900 38.58800
H  -6.75600 14.95800 37.47100
N  -14.20800 17.31600 40.87100
C  -13.45900 18.23900 40.22800
C  -14.31900 19.28600 39.71000
C  -15.63400 18.94000 40.03100
C  -15.53300 17.69500 40.82600
C  -13.75600 20.43400 38.85100
C  -16.88000 19.67500 39.56100
O  -16.85400 20.69600 38.90100
C  -18.30200 19.17500 39.81000
N  -15.43500 14.78000 42.19200
C  -16.53100 15.64100 41.95800
C  -17.82100 14.89600 42.41000
C  -17.24200 13.74300 43.33600
C  -15.76000 13.65700 42.93600
C  -18.94100 15.75500 43.09700
C  -18.04100 12.38300 43.29200
C  -17.74700 11.63100 42.00100
N  -12.86100 13.50000 42.41500
C  -13.51200 12.46700 43.05800
C  -12.64300 11.39100 43.24400
C  -11.39800 11.81800 42.69800
C  -11.58600 13.11200 42.22800
C  -12.93900 10.03200 43.85100
C  -9.98000 11.42600 42.45200
O  -9.34100 10.35400 42.61800
C  -9.34400 12.76800 41.75500
C  -8.20400 13.41000 42.61000
O  -8.29900 14.29700 43.45600
O  -6.96800 12.89100 42.18700
C  -5.81800 13.63700 42.64700
H  -11.58000 18.92100 39.61000
H  -17.54500 17.41400 41.30800
H  -15.29700 11.87400 44.03600
H  -8.49200 15.55700 40.83300
H  -9.61700 17.19700 38.82200
H  -8.62000 18.77700 39.71400
H  -7.89300 17.62300 40.71300
H  -9.31500 18.48100 41.41800
H  -9.36100 15.26200 37.95800
H  -9.68200 13.86200 38.80000
H  -7.49800 13.13300 38.42000
H  -6.85100 14.37900 39.40900
H  -14.11100 20.39300 37.82100
H  -12.67800 20.46100 38.69100
H  -14.02000 21.39700 39.28800
H  -18.40600 18.12800 39.52500
H  -18.98300 19.77100 39.20300
H  -18.56900 19.33900 40.85400
H  -18.13200 14.45200 41.46400
H  -17.31500 13.97000 44.39900
H  -19.23200 15.35600 44.06900
H  -19.86000 15.86900 42.52100
H  -18.54800 16.76300 43.22900
H  -19.06500 12.75700 43.27200
H  -17.70900 11.85100 44.18300
H  -18.70700 11.39800 41.54000
H  -17.35100 10.65200 42.27100
H  -17.31400 12.19700 41.17700
H  -13.35100 10.26900 44.83200
H  -12.01700 9.46300 43.73400
H  -13.71800 9.54300 43.26500
H  -8.93500 12.46500 40.79200
H  -6.04900 14.28300 43.49400
H  -5.47000 14.27500 41.83500
H  -5.06200 12.91800 42.96200
Mg -5.93500 24.86000 25.90300
C  -4.45900 26.01400 28.94100
C  -7.88300 22.85800 27.86500
C  -7.06300 23.54800 23.13700
C  -3.35300 26.58200 24.13900
N  -6.02800 24.34700 28.24000
C  -5.49700 25.09400 29.23700
C  -6.07600 24.77400 30.55800
C  -6.94000 23.46300 30.21600
C  -6.99000 23.59500 28.66200
C  -6.28500 22.09700 30.53800
C  -6.93900 25.98200 31.15900
C  -6.52200 26.36200 32.56800
H  -5.86200 25.31700 33.49800
N  -7.36500 23.41300 25.51200
C  -8.04700 22.67000 26.44400
C  -8.83500 21.76800 25.75600
C  -8.74100 21.97100 24.36600
C  -7.72200 23.06700 24.25800
C  -9.67100 20.67200 26.46300
C  -9.38200 21.33600 23.25600
O  -9.14200 21.70300 22.10300
C  -10.38400 20.22200 23.46200
N  -5.32600 25.08800 23.94500
C  -5.94900 24.40100 22.94900
C  -5.44500 24.83000 21.55600
C  -4.30100 25.79800 21.88500
C  -4.32300 25.83300 23.42400
C  -4.87800 23.62900 20.77300
C  -4.51400 27.24100 21.27900
C  -3.47800 27.58100 20.20200
N  -4.40100 26.10500 26.34500
C  -3.40000 26.70400 25.54300
C  -2.50800 27.45100 26.35700
C  -2.92600 27.26400 27.68800
C  -4.05000 26.43200 27.62600
C  -1.34200 28.35000 25.86700
C  -2.72600 27.60900 29.11200
O  -1.88200 28.33900 29.67300
C  -3.72600 26.78600 29.97400
C  -2.85700 25.98900 30.90300
O  -2.34700 24.90100 30.61400
O  -2.62500 26.66600 32.04100
C  -1.52600 26.32800 32.93500
H  -8.44600 22.09800 28.41100
H  -7.37600 23.12800 22.17900
H  -2.64000 27.10900 23.50100
H  -5.32900 24.49200 31.30000
H  -7.96800 23.44900 30.57600
H  -7.05700 21.55000 31.08000
H  -5.48600 22.30200 31.25000
H  -6.03900 21.54400 29.63100
H  -7.99700 25.72900 31.22100
H  -6.91800 26.83800 30.48500
H  -7.25200 26.81400 33.23800
H  -5.73500 27.07000 32.30700
H  -10.73500 20.89200 26.37100
H  -9.38700 20.58900 27.51200
H  -9.41900 19.71000 26.01900
H  -10.71200 20.06900 22.43400
H  -11.24800 20.63100 23.98600
H  -10.03900 19.27300 23.87300
H  -6.18600 25.36600 20.96300
H  -3.35000 25.30800 21.67500
H  -5.21000 23.71500 19.73800
H  -5.30600 22.72200 21.19900
H  -3.79300 23.52500 20.78300
H  -4.48900 28.06400 21.99300
H  -5.44100 27.36300 20.72000
H  -2.72500 26.79600 20.13400
H  -2.99900 28.54300 20.37900
H  -4.00100 27.61800 19.24600
H  -1.68200 29.34800 25.59300
H  -0.85400 27.98100 24.96400
H  -0.80500 28.39300 26.81500
H  -4.23300 27.56300 30.54700
H  -0.73000 27.04800 32.74700
H  -1.15100 25.32900 32.71200
H  -1.85000 26.37800 33.97400

