158

Mg -1.71500 34.08300 27.05100
C  -3.57900 32.28200 29.35600
C  -0.24600 35.86100 29.67300
C  -0.24500 36.21400 24.78200
C  -3.35900 32.61000 24.44200
N  -1.99700 34.24400 29.17300
C  -2.73000 33.25400 29.90100
C  -2.50400 33.41200 31.38600
C  -1.57400 34.65200 31.43000
C  -1.24600 34.92000 30.01300
C  -2.26600 35.81200 32.13000
C  -1.89300 32.06800 31.84400
C  -2.59900 31.41200 32.99000
H  -2.04200 31.41600 34.45600
N  -0.23300 35.70500 27.20000
C  0.27600 36.19400 28.39400
C  1.32300 37.13300 28.04500
C  1.25300 37.31200 26.58700
C  0.18900 36.44400 26.14800
C  2.21200 37.83000 29.14500
C  2.06600 38.29300 25.75100
O  1.86900 38.43600 24.57800
C  3.02100 39.11200 26.36200
N  -1.86300 34.46300 24.93200
C  -1.22700 35.40200 24.28700
C  -1.72100 35.56300 22.81100
C  -2.50400 34.25600 22.60000
C  -2.62300 33.74400 24.05500
C  -2.56400 36.83600 22.53500
C  -1.64500 33.22600 21.78000
C  -2.44000 32.65100 20.60000
N  -3.05500 32.65400 26.86000
C  -3.60800 32.10000 25.75200
C  -4.49400 31.02000 26.15200
C  -4.54800 31.13000 27.53900
C  -3.65500 32.09100 27.92800
C  -5.24400 30.14600 25.23500
C  -5.08200 30.47300 28.69000
O  -5.86800 29.51600 28.78000
C  -4.52000 31.25000 29.95800
C  -5.75700 31.81900 30.63400
O  -6.65800 32.36400 30.05600
O  -5.88200 31.39700 32.00800
C  -6.80900 32.14000 32.91500
H  0.17700 36.31700 30.57000
H  0.28900 36.88500 24.10600
H  -3.80100 32.20900 23.52800
H  -3.50900 33.56800 31.77900
H  -0.63100 34.61100 31.97500
H  -1.83100 36.74900 31.78200
H  -2.01300 35.67800 33.18100
H  -3.33500 35.74600 31.93000
H  -0.88700 32.21700 32.23600
H  -1.83300 31.28700 31.08600
H  -2.76900 30.37600 32.69600
H  -3.58000 31.87200 33.10700
H  2.00800 37.61700 30.19400
H  2.14200 38.91800 29.17200
H  3.26200 37.61000 28.95100
H  3.78900 38.53000 26.87100
H  2.39900 39.67300 27.05900
H  3.46500 39.86300 25.70700
H  -0.85400 35.66100 22.15800
H  -3.52800 34.35600 22.23900
H  -3.59700 36.63700 22.24800
H  -1.99100 37.30700 21.73600
H  -2.53400 37.49800 23.40000
H  -1.35800 32.37700 22.40100
H  -0.68500 33.67500 21.52800
H  -2.33900 33.30500 19.73400
H  -3.51600 32.60600 20.76800
H  -1.92100 31.70400 20.45500
H  -4.73100 29.71000 24.37800
H  -6.10700 30.67700 24.83400
H  -5.60000 29.21300 25.67200
H  -3.88200 30.58000 30.53400
H  -6.25000 32.79400 33.58500
H  -7.55900 31.55500 33.44700
H  -7.38700 32.91100 32.40500
Mg -5.33700 25.11200 26.06600
C  -3.82500 26.28600 29.02600
C  -7.29600 23.02200 27.97400
C  -6.06200 23.30300 23.20600
C  -3.23200 27.12200 24.26000
N  -5.42300 24.56700 28.27000
C  -4.78900 25.30300 29.26200
C  -5.54500 25.06500 30.61000
C  -6.37500 23.78100 30.22900
C  -6.38500 23.76200 28.73200
C  -5.88500 22.50200 30.89200
C  -6.42800 26.33700 31.02700
C  -6.23500 26.64700 32.51000
H  -5.70000 25.59100 33.47800
N  -6.60900 23.52400 25.64100
C  -7.36800 22.79600 26.57700
C  -8.19500 21.91800 25.86000
C  -7.87300 21.94800 24.46500
C  -6.84200 22.96700 24.40100
C  -9.27400 21.06100 26.50000
C  -8.46300 21.11300 23.27100
O  -8.26300 21.39300 22.09500
C  -9.30400 19.97900 23.66600
N  -4.78900 25.16200 23.98400
C  -5.14600 24.32100 23.02900
C  -4.41700 24.67000 21.70200
C  -3.52600 25.98100 22.05000
C  -3.91600 26.13800 23.53800
C  -3.74000 23.51800 20.83500
C  -3.74000 27.19300 21.03900
C  -5.15800 27.77100 21.31000
N  -3.91700 26.52100 26.48600
C  -3.22200 27.32800 25.64100
C  -2.38100 28.21200 26.33600
C  -2.59500 27.81400 27.69900
C  -3.50900 26.76800 27.74600
C  -1.46400 29.30400 25.75800
C  -2.24400 28.12300 29.07000
O  -1.51700 28.97300 29.49200
C  -3.12100 27.13200 29.96400
C  -2.22700 26.31100 30.80300
O  -1.51900 25.37800 30.36700
O  -2.25700 26.81000 32.07000
C  -1.12600 26.37700 32.84400
H  -7.86100 22.39200 28.66400
H  -6.16700 22.68500 22.31200
H  -2.58000 27.79500 23.69900
H  -4.67000 24.81700 31.21100
H  -7.38700 23.79100 30.63200
H  -4.98300 22.62800 31.49100
H  -5.68600 21.80300 30.08000
H  -6.59300 22.05400 31.58900
H  -7.46500 26.13800 30.75500
H  -6.06600 27.17400 30.43000
H  -7.19000 27.02600 32.87600
H  -5.54900 27.48500 32.63800
H  -10.30000 21.11400 26.13400
H  -9.50700 21.29200 27.54000
H  -9.05500 19.99400 26.54200
H  -9.50500 19.47700 22.72000
H  -10.29800 20.29700 23.97900
H  -8.86800 19.28200 24.38200
H  -5.18000 25.01700 21.00500
H  -2.47900 25.68800 21.97000
H  -3.84000 22.59200 21.40000
H  -2.68400 23.72100 20.65300
H  -4.17600 23.44400 19.83900
H  -3.60600 26.75700 20.04900
H  -3.06700 28.02700 21.23300
H  -5.80600 27.11200 21.88900
H  -5.67400 27.93200 20.36300
H  -5.04400 28.79300 21.66900
H  -2.05700 30.14300 25.39500
H  -0.79600 28.98100 24.95900
H  -0.72000 29.47100 26.53800
H  -3.78700 27.73800 30.57700
H  -1.17300 26.95900 33.76500
H  -0.19700 26.67600 32.35800
H  -1.19600 25.30400 33.02000

