158

Mg 40.72500 9.02400 29.71000
C  42.72900 10.10300 32.33000
C  38.77200 7.35400 31.91100
C  39.25000 7.67200 27.20000
C  43.27300 10.29200 27.49900
N  40.78900 8.76900 31.89100
C  41.60700 9.43800 32.74200
C  41.04200 9.35900 34.11900
C  40.07600 8.15000 34.05200
C  39.84600 8.07300 32.52200
C  40.68300 6.80400 34.60900
C  40.23600 10.71400 34.61600
C  40.12500 10.76100 36.18100
H  41.23900 11.46800 36.96900
N  39.02100 7.76700 29.55200
C  38.31100 7.26100 30.59900
C  37.13600 6.61900 30.06400
C  37.25000 6.73100 28.64300
C  38.53200 7.42300 28.42400
C  36.05200 6.00800 30.92000
C  36.27000 6.29900 27.57000
O  36.42300 6.50700 26.38800
C  34.96800 5.67300 27.99500
N  41.28800 8.77500 27.69800
C  40.41900 8.25100 26.81800
C  40.75900 8.52200 25.33800
C  41.98800 9.46100 25.50500
C  42.24900 9.50500 26.99300
C  40.87100 7.27200 24.50400
C  41.71500 10.83100 24.90700
C  40.87100 11.73300 25.82100
N  42.55900 10.01900 29.82900
C  43.47900 10.40100 28.89500
C  44.59800 11.04400 29.58100
C  44.29100 11.01500 30.94000
C  43.09600 10.33300 31.02400
C  45.80700 11.79800 29.02500
C  44.77100 11.41500 32.22200
O  45.73300 12.04300 32.52900
C  43.73500 10.83400 33.20900
C  44.41800 10.05000 34.21600
O  44.55500 8.81700 34.20700
O  44.91800 10.89100 35.19300
C  45.59900 10.27800 36.26500
H  38.14900 6.83900 32.64600
H  38.82400 7.11200 26.36600
H  43.91600 10.76000 26.75000
H  41.87900 9.22900 34.80500
H  39.19000 8.30100 34.67000
H  41.74900 6.70600 34.39900
H  40.31600 5.91800 34.09200
H  40.51700 6.51600 35.64700
H  39.20800 10.72200 34.25300
H  40.76200 11.55100 34.15800
H  40.18300 9.72000 36.50200
H  39.17700 11.20300 36.48800
H  35.90900 4.95700 30.66800
H  35.05300 6.43900 30.85800
H  36.29200 5.90500 31.97900
H  35.03100 4.68300 28.44600
H  34.25300 5.59800 27.17500
H  34.57700 6.38000 28.72600
H  39.91300 9.02600 24.87000
H  42.92300 9.02100 25.15700
H  40.16800 7.17500 23.67700
H  40.77700 6.40700 25.16100
H  41.85400 7.43700 24.06500
H  41.14600 10.75200 23.98100
H  42.65000 11.34700 24.68600
H  40.66100 11.31100 26.80300
H  39.83700 11.86600 25.50100
H  41.37900 12.67900 26.00800
H  45.62000 12.06600 27.98500
H  46.71000 11.19800 29.13500
H  45.91300 12.67900 29.65900
H  43.27600 11.69600 33.69300
H  46.37400 9.65200 35.82200
H  44.87500 9.90400 36.98900
H  46.14400 10.99500 36.87700
Mg 26.81300 50.69400 26.75400
C  24.73200 51.55700 29.64600
C  29.14100 49.55300 28.94100
C  28.58900 49.67000 24.10000
C  24.35700 51.94100 24.76900
N  26.77500 50.39900 29.06500
C  25.85600 50.80200 29.99700
C  26.21400 50.40100 31.43300
C  27.74700 50.00400 31.16300
C  27.95500 50.00600 29.63500
C  28.83000 50.80000 31.91800
C  25.36300 49.27100 32.19500
C  24.77300 49.50000 33.55400
H  25.78500 49.94000 34.60000
N  28.58200 49.72100 26.58600
C  29.43100 49.35900 27.60500
C  30.57700 48.68700 27.09700
C  30.53000 48.78000 25.66500
C  29.20200 49.38400 25.41100
C  31.68200 48.26800 28.02000
C  31.51200 48.40600 24.53900
O  31.31300 48.74500 23.35800
C  32.87200 47.94800 24.88600
N  26.53500 50.71400 24.70900
C  27.39600 50.27500 23.74800
C  26.86400 50.58500 22.36000
C  25.43200 50.88200 22.60500
C  25.40100 51.21100 24.09800
C  27.67000 51.71700 21.63300
C  24.30000 49.90100 22.19400
C  23.11800 50.48900 21.45500
N  25.04400 51.69700 27.06000
C  24.11900 52.19000 26.12800
C  22.88300 52.69300 26.80400
C  23.14800 52.54500 28.15300
C  24.42400 51.88500 28.26900
C  21.68000 53.24100 26.08900
C  22.57000 52.77200 29.49800
O  21.60700 53.37100 29.79400
C  23.57100 52.12400 30.46600
C  23.97900 53.16100 31.50400
O  24.76800 54.01200 31.25600
O  23.22900 52.93100 32.61600
C  23.61700 53.69500 33.80500
H  29.83100 49.14700 29.68300
H  29.15600 49.35600 23.22200
H  23.58600 52.24300 24.05700
H  26.16300 51.31900 32.01900
H  27.90400 48.93600 31.31700
H  28.44500 50.96900 32.92300
H  29.11700 51.73100 31.42900
H  29.73400 50.19100 31.95600
H  25.89200 48.32000 32.14000
H  24.45100 49.19300 31.60400
H  24.34200 48.57300 33.93200
H  23.98100 50.24900 33.58900
H  32.34800 47.52300 27.58300
H  31.28100 47.90900 28.96800
H  32.13900 49.23600 28.22300
H  33.51800 48.04000 24.01200
H  32.82100 46.89000 25.14300
H  33.24600 48.47000 25.76700
H  27.07000 49.69900 21.76000
H  25.02800 51.79700 22.17100
H  28.44800 52.04800 22.32200
H  27.07200 52.57100 21.31600
H  28.34400 51.41800 20.83000
H  23.80600 49.43500 23.04600
H  24.74700 49.05800 21.66600
H  23.03300 49.89700 20.54400
H  23.31300 51.48300 21.05200
H  22.19100 50.55900 22.02400
H  20.96300 53.63000 26.81100
H  21.14600 52.59600 25.39100
H  22.15700 53.96500 25.42900
H  23.10600 51.27900 30.97200
H  22.71500 53.76500 34.41300
H  23.95500 54.72000 33.65400
H  24.38900 53.15000 34.34700

