158

Mg 48.96800 44.80100 43.01200
C  45.75700 45.69000 41.96300
C  48.58900 41.82700 41.53700
C  52.33900 44.55600 43.19800
C  49.39600 48.19700 44.02700
N  47.31100 43.91500 41.98200
C  46.12800 44.38500 41.59500
C  45.24300 43.35500 40.80000
C  46.12500 42.09400 40.93500
C  47.41000 42.60900 41.55800
C  45.42500 40.91900 41.66500
C  44.91300 43.75200 39.34700
C  43.51900 43.33800 38.81700
H  43.43100 42.09500 37.88900
N  50.23700 43.30500 42.65900
C  49.87300 42.07300 42.06200
C  51.04900 41.30000 41.81800
C  52.18100 42.13600 42.13600
C  51.61900 43.36900 42.76800
C  50.97200 39.84600 41.28400
C  53.63400 41.79500 41.77200
O  54.00400 40.68700 41.35700
C  54.73300 42.83400 42.03000
N  50.71700 46.30700 43.46800
C  51.99800 45.86600 43.51900
C  52.90500 46.91600 44.03600
C  51.91400 48.05700 44.39600
C  50.58000 47.51200 43.96900
C  54.01000 46.54200 45.11000
C  52.21400 49.49700 43.99300
C  52.78000 50.44200 45.08300
N  47.78100 46.60100 43.21100
C  48.06600 47.80000 43.72000
C  46.85100 48.58000 43.79200
C  45.89800 47.77900 43.11500
C  46.58200 46.58400 42.75000
C  46.78600 50.00200 44.14600
C  44.49400 47.74700 42.55800
O  43.55300 48.54400 42.59500
C  44.53100 46.45300 41.65900
C  43.29500 45.65300 41.93100
O  42.48200 45.28300 41.13500
O  43.14000 45.46300 43.26500
C  41.85500 44.89000 43.76900
H  48.36900 40.81700 41.18300
H  53.41800 44.42700 43.30200
H  49.48700 49.19200 44.46700
H  44.31500 43.12500 41.32400
H  46.38700 41.68300 39.96000
H  44.37900 40.96400 41.96800
H  45.90000 40.74200 42.63000
H  45.59100 40.03300 41.05200
H  45.59300 43.25800 38.65300
H  44.96000 44.83900 39.28000
H  42.97800 44.10500 38.26400
H  42.93600 43.03800 39.68800
H  51.12000 39.78300 40.20600
H  50.02800 39.34700 41.50500
H  51.64200 39.12400 41.74900
H  54.47400 43.78100 41.55500
H  55.60800 42.48400 41.48200
H  54.82400 42.82600 43.11600
H  53.49400 47.16800 43.15400
H  51.84200 48.06400 45.48400
H  53.81200 45.56300 45.54500
H  53.92100 47.10400 46.04000
H  55.06000 46.50300 44.82100
H  51.33900 49.95400 43.52900
H  52.86400 49.39200 43.12400
H  52.10300 51.28400 45.23200
H  53.75900 50.75200 44.71700
H  53.02100 50.03300 46.06400
H  45.73300 50.28300 44.13700
H  47.15200 50.61300 43.32100
H  47.25500 50.20100 45.11000
H  44.42000 46.79000 40.62800
H  41.74600 45.24100 44.79500
H  41.76200 43.81400 43.62700
H  41.05100 45.30900 43.16300
Mg 48.22500 34.66100 26.49300
C  46.32800 33.17000 29.20200
C  48.53800 37.47200 28.41300
C  49.57900 36.11500 23.83800
C  46.98300 32.07400 24.43100
N  47.62700 35.16200 28.66000
C  46.90300 34.40800 29.50200
C  46.86900 35.12400 30.82900
C  47.16300 36.61600 30.44800
C  47.85800 36.39800 29.09500
C  45.94500 37.64000 30.41400
C  47.89800 34.55400 31.81600
C  47.37200 34.39600 33.18300
H  46.49400 35.53900 33.69600
N  49.07500 36.45100 26.23500
C  49.22100 37.46400 27.14600
C  50.08200 38.50400 26.58800
C  50.33000 38.15200 25.26400
C  49.65400 36.86000 25.09800
C  50.53200 39.59700 27.42700
C  51.04800 38.87600 24.19600
O  51.24900 38.41600 23.06300
C  51.55900 40.22000 24.55400
N  48.25200 34.22400 24.33600
C  48.86600 34.97300 23.45800
C  48.88200 34.34300 22.11900
C  48.00700 33.08800 22.24800
C  47.75600 33.05300 23.75400
C  48.32700 35.32000 20.98700
C  48.64100 31.84000 21.63800
C  47.63100 30.82500 21.08900
N  47.03900 32.95100 26.71800
C  46.63500 31.99100 25.78300
C  45.77100 30.95900 26.49900
C  45.70000 31.42000 27.81000
C  46.45500 32.62200 27.91000
C  45.13400 29.67500 25.96900
C  45.13400 31.03900 29.09000
O  44.45900 30.09800 29.50700
C  45.40400 32.29200 29.93900
C  45.78700 31.86700 31.27200
O  46.84900 31.41900 31.63000
O  44.69600 31.98300 32.06300
C  44.90800 31.34200 33.33500
H  48.51000 38.42000 28.95500
H  50.03400 36.50500 22.92500
H  46.58300 31.25000 23.83700
H  45.81000 34.96700 31.03100
H  47.86500 37.11600 31.11500
H  45.09300 37.27500 30.98700
H  45.70300 37.64800 29.35100
H  46.23000 38.60800 30.82500
H  48.74000 35.24400 31.75200
H  48.29300 33.60500 31.45100
H  48.17400 34.37900 33.92200
H  46.89000 33.41800 33.17700
H  50.58400 39.36100 28.49000
H  49.88000 40.46900 27.48300
H  51.53200 39.88800 27.10700
H  50.99200 40.70600 25.34800
H  51.44400 40.85600 23.67700
H  52.59700 40.05300 24.84100
H  49.93400 34.08400 21.99700
H  46.99500 33.25300 21.87900
H  47.64200 34.84500 20.28500
H  49.20300 35.68200 20.44900
H  47.71100 35.91100 21.66500
H  49.18300 31.37900 22.46400
H  49.38800 32.09300 20.88600
H  47.66000 30.96400 20.00800
H  46.60100 31.04300 21.36900
H  47.84300 29.79700 21.38200
H  44.75100 29.04700 26.77400
H  45.82600 29.09700 25.35700
H  44.25000 29.93700 25.38800
H  44.43700 32.78900 30.02000
H  43.94500 31.18300 33.82100
H  45.57800 32.02800 33.85300
H  45.33900 30.34300 33.28000

