158

Mg -2.40200 17.70000 25.55200
C  -2.58300 15.56700 28.36800
C  -2.88100 20.47100 27.54900
C  -2.57100 19.60800 22.86300
C  -2.54200 14.77300 23.54200
N  -2.69700 17.93000 27.70300
C  -2.85200 16.95400 28.66900
C  -3.15700 17.59000 30.12300
C  -3.53400 19.09500 29.71600
C  -2.99400 19.21800 28.28700
C  -5.05300 19.32600 29.64700
C  -1.91900 17.47400 31.09800
C  -2.21300 17.95800 32.49100
H  -1.36900 17.38200 33.64600
N  -2.47700 19.80500 25.26100
C  -2.50000 20.78400 26.22400
C  -2.32500 22.08800 25.60400
C  -2.00300 21.79100 24.26400
C  -2.38900 20.38500 24.05300
C  -2.23200 23.32900 26.40900
C  -1.47700 22.70300 23.20300
O  -1.20500 22.35000 22.07200
C  -1.04600 24.14700 23.49700
N  -2.56800 17.24100 23.60700
C  -2.62000 18.24300 22.64500
C  -2.68500 17.72500 21.20600
C  -2.60800 16.20100 21.45200
C  -2.57500 16.06700 22.93700
C  -3.84400 18.18300 20.38900
C  -1.41800 15.53600 20.65000
C  0.02400 15.88300 21.00900
N  -2.47700 15.62900 25.84900
C  -2.49500 14.58000 24.93300
C  -2.37300 13.32500 25.64100
C  -2.37700 13.65300 26.99300
C  -2.54200 15.09700 27.06800
C  -2.26400 11.95400 24.99000
C  -2.37100 13.07000 28.33000
O  -2.25400 11.94000 28.70700
C  -2.50600 14.28500 29.25400
C  -1.18400 14.28800 30.00300
O  -0.20200 14.78200 29.52700
O  -1.26800 13.71600 31.23000
C  -0.09600 13.74800 32.15400
H  -3.13600 21.37900 28.09700
H  -2.59200 20.28400 22.00600
H  -2.44400 13.90200 22.89000
H  -4.07100 17.10800 30.46700
H  -3.09600 19.87100 30.34300
H  -5.55200 18.51700 30.18000
H  -5.37300 19.34400 28.60500
H  -5.38300 20.23400 30.15100
H  -1.11100 18.09100 30.70600
H  -1.57600 16.44200 31.17600
H  -3.28600 17.89300 32.67400
H  -2.01200 19.02100 32.36300
H  -2.23500 23.13500 27.48100
H  -3.13900 23.89600 26.19900
H  -1.35200 23.92700 26.17200
H  -0.16900 24.06400 24.13800
H  -1.81400 24.75800 23.97100
H  -0.74200 24.56400 22.53700
H  -1.81800 18.04500 20.62800
H  -3.51000 15.71000 21.08600
H  -3.43300 18.96400 19.75000
H  -4.59400 18.50400 21.11200
H  -4.11400 17.31700 19.78400
H  -1.60000 15.93000 19.65100
H  -1.52700 14.46200 20.80000
H  0.11300 16.26600 22.02600
H  0.42200 16.60700 20.29800
H  0.55000 14.93900 21.15000
H  -3.22400 11.44300 24.91600
H  -1.62600 11.35000 25.63500
H  -1.70100 11.96900 24.05700
H  -3.26000 14.28100 30.04100
H  -0.04400 12.74000 32.56500
H  -0.19600 14.45700 32.97600
H  0.79900 13.97300 31.57300
Mg 15.64400 51.10300 26.48500
C  17.91300 50.47500 29.14100
C  13.38200 52.09000 28.74200
C  13.55200 51.24200 23.96000
C  18.19400 50.04200 24.19900
N  15.77400 51.41000 28.67600
C  16.74700 51.01000 29.60000
C  16.35400 51.27100 31.02500
C  14.79100 51.57700 30.87500
C  14.59900 51.66300 29.34600
C  13.96700 50.34200 31.41100
C  17.15200 52.43900 31.62700
C  17.88000 52.13600 32.94700
H  17.00700 51.53900 34.00500
N  13.77500 51.65000 26.35400
C  12.99800 52.09400 27.38500
C  11.60700 52.27600 26.86000
C  11.64600 52.00300 25.48400
C  13.05400 51.61700 25.21800
C  10.51000 52.65500 27.82900
C  10.48900 52.15300 24.42500
O  10.61700 51.83400 23.22700
C  9.10200 52.43900 24.94400
N  15.88500 50.78200 24.30200
C  14.81900 50.84400 23.49200
C  15.14400 50.39400 22.05200
C  16.65800 50.00700 22.20300
C  16.98100 50.32300 23.66500
C  14.24800 49.33800 21.35000
C  17.58100 50.89000 21.26700
C  18.61800 50.10500 20.53300
N  17.49100 50.27600 26.58000
C  18.42900 49.96800 25.63100
C  19.68900 49.52600 26.20500
C  19.51700 49.64100 27.59500
C  18.17200 50.15100 27.78100
C  20.97300 49.01400 25.44100
C  20.12600 49.49300 28.87500
O  21.23900 49.19100 29.25000
C  19.06200 49.92000 29.94000
C  18.63500 48.73000 30.70400
O  17.98000 47.84500 30.22100
O  19.10900 48.83300 32.01200
C  18.58800 47.83200 32.94600
H  12.66000 52.31400 29.52900
H  12.88100 51.08300 23.11200
H  19.00500 49.69700 23.55500
H  16.47800 50.42800 31.70500
H  14.40800 52.49900 31.31300
H  13.57400 49.79400 30.55500
H  13.18400 50.73100 32.06100
H  14.59000 49.63200 31.95600
H  16.43300 53.23200 31.83300
H  17.86200 53.01400 31.03200
H  18.43500 52.98600 33.34300
H  18.58600 51.35400 32.66400
H  10.14200 51.76600 28.34200
H  9.70700 53.25900 27.40700
H  10.94200 53.22300 28.65400
H  8.96100 53.50500 25.12100
H  8.76900 51.87100 25.81300
H  8.37000 52.13400 24.19600
H  15.01100 51.24900 21.39000
H  16.72000 48.94100 21.98300
H  13.85600 48.63000 22.08000
H  14.80800 48.85300 20.55100
H  13.38500 49.86600 20.94600
H  17.98700 51.73000 21.83000
H  16.98100 51.42500 20.53100
H  18.60000 50.49500 19.51500
H  18.42700 49.03500 20.62400
H  19.52900 50.34800 21.07900
H  21.13900 49.81400 24.72000
H  20.78000 48.08400 24.90600
H  21.78800 48.85200 26.14600
H  19.33500 50.68700 30.66500
H  17.50200 47.90300 32.89000
H  18.92000 47.83200 33.98400
H  18.75000 46.80200 32.62800

