158

Mg 44.41100 5.03800 47.25700
C  42.10900 7.93000 46.90000
C  41.52500 3.01800 46.76000
C  46.37600 2.47500 46.98400
C  46.95700 7.19100 46.55400
N  42.06600 5.45500 47.00100
C  41.45100 6.65200 46.86100
C  39.95400 6.40700 46.61900
C  39.76200 4.85900 46.92300
C  41.24500 4.42100 46.88200
C  38.86900 4.47200 48.17000
C  39.53200 6.78500 45.20300
C  38.42300 7.80300 45.09400
H  37.60700 7.78700 43.81400
N  43.99500 3.02100 47.18800
C  42.81800 2.35300 46.90600
C  43.12400 0.97700 46.71700
C  44.52800 0.71400 46.77300
C  45.00300 2.07600 47.09300
C  42.04200 -0.13100 46.59100
C  45.27200 -0.63500 46.58600
O  44.73200 -1.64300 46.23700
C  46.82000 -0.82600 46.58900
N  46.42400 4.87300 46.75400
C  47.06300 3.69100 46.81300
C  48.56700 3.89800 47.00000
C  48.75500 5.37700 46.49200
C  47.29500 5.89400 46.64100
C  49.05500 3.59200 48.46800
C  49.34900 5.64000 45.01700
C  50.82500 5.99700 44.98100
N  44.57900 7.13200 47.03100
C  45.72200 7.85300 46.75600
C  45.39700 9.32500 46.74800
C  44.04800 9.38500 46.89900
C  43.54100 8.04700 46.93600
C  46.36100 10.42900 46.61500
C  42.85300 10.27600 46.99200
O  42.84100 11.52900 46.95700
C  41.62600 9.38500 46.95900
C  40.70500 9.58500 48.12300
O  40.59300 8.84900 49.11600
O  39.97700 10.66600 47.86300
C  38.88200 10.99500 48.70900
H  40.69900 2.31300 46.64900
H  47.15100 1.70800 46.93400
H  47.84600 7.80200 46.38100
H  39.37000 6.98900 47.33300
H  39.27400 4.21700 46.18900
H  39.54000 4.54200 49.02600
H  38.54400 3.43500 48.09400
H  38.04900 5.18200 48.28900
H  39.19800 5.93000 44.61400
H  40.46600 7.11500 44.74900
H  38.76700 8.79000 45.40300
H  37.77100 7.43300 45.88500
H  41.95900 -0.78400 47.45900
H  42.31700 -0.77400 45.75500
H  40.99300 0.13800 46.46300
H  47.02600 -1.82700 46.21000
H  47.32900 -0.53100 47.50700
H  47.22900 -0.22100 45.77900
H  49.06000 3.15100 46.37900
H  49.33800 5.93400 47.22500
H  48.12700 3.47900 49.03000
H  49.59800 4.46800 48.82100
H  49.69200 2.71200 48.37800
H  48.66500 6.40900 44.65800
H  49.30600 4.75700 44.37900
H  51.07500 6.54000 44.07000
H  51.31500 5.02500 44.92400
H  51.14900 6.48400 45.90200
H  47.35100 10.15400 46.97900
H  45.95700 11.31100 47.11200
H  46.48700 10.82900 45.60900
H  41.08600 9.66200 46.05300
H  38.99600 12.03700 49.00700
H  38.55000 10.46900 49.60400
H  37.91800 11.00300 48.20000
Mg 40.62600 9.65800 29.43600
C  42.40400 10.96500 32.22800
C  38.35100 8.34000 31.53100
C  39.26800 8.11200 26.82700
C  43.37800 10.50100 27.50200
N  40.55100 9.39600 31.66600
C  41.22000 10.20000 32.53500
C  40.68300 9.96100 33.93900
C  39.63100 8.78500 33.75000
C  39.38100 8.91800 32.22400
C  40.23200 7.40300 34.08000
C  40.01300 11.26000 34.60600
C  39.52700 11.02000 36.01900
H  40.01900 12.08800 36.95800
N  38.88100 8.57500 29.16400
C  38.07900 8.18500 30.17600
C  36.88500 7.49800 29.59600
C  37.07600 7.51100 28.16900
C  38.44900 8.02300 27.97600
C  35.74300 6.88100 30.40000
C  36.12900 7.10500 27.01000
O  36.54200 7.03600 25.83100
C  34.65400 6.74500 27.32300
N  41.31800 9.16900 27.55900
C  40.52000 8.62900 26.59300
C  41.25700 8.39200 25.23900
C  42.39400 9.47200 25.45800
C  42.36800 9.72000 26.92600
C  41.85100 6.94400 25.13400
C  42.22100 10.73000 24.62300
C  41.55800 11.94300 25.26400
N  42.49300 10.62300 29.72600
C  43.48100 10.97700 28.83100
C  44.56700 11.74400 29.45000
C  44.11300 11.80400 30.77900
C  42.84600 11.12800 30.89700
C  45.93200 12.16400 28.83800
C  44.54400 12.26400 32.09700
O  45.56000 12.86600 32.41800
C  43.37700 11.76600 33.09500
C  44.03900 10.91800 34.13100
O  44.57200 9.88200 33.95300
O  43.93800 11.52700 35.37600
C  44.30800 10.66900 36.50900
H  37.54400 8.04400 32.20400
H  38.73300 7.67900 25.97900
H  44.21200 10.89000 26.91400
H  41.42300 9.52800 34.61200
H  38.70800 8.97300 34.29900
H  40.12000 7.15700 35.13600
H  41.30800 7.56000 34.00500
H  39.95600 6.58700 33.41300
H  39.11900 11.51900 34.03900
H  40.72200 12.07800 34.47000
H  39.81000 10.00300 36.29300
H  38.44600 11.04100 35.88800
H  35.44100 5.88400 30.08000
H  34.84900 7.50100 30.47400
H  35.97700 6.71200 31.45100
H  34.05100 6.66400 26.42000
H  34.32400 7.60600 27.90400
H  34.52000 6.01800 28.12400
H  40.64200 8.59300 24.36200
H  43.36500 9.03700 25.22300
H  41.50000 6.43400 26.03100
H  42.93800 6.85900 25.15400
H  41.39100 6.50200 24.25100
H  41.69000 10.49600 23.70000
H  43.27300 10.93300 24.42200
H  40.89900 11.69500 26.09600
H  40.94500 12.28700 24.43100
H  42.28700 12.66200 25.63600
H  46.27100 12.90900 29.55700
H  45.95500 12.62700 27.85100
H  46.62300 11.33100 28.70700
H  42.90700 12.55600 33.68100
H  43.94200 9.64300 36.46600
H  43.91200 11.14800 37.40500
H  45.38600 10.58500 36.64800

