158

Mg 16.33600 51.28800 27.08200
C  18.42400 50.32100 29.70000
C  13.99900 52.25600 29.40500
C  14.49200 52.49800 24.62300
C  18.85200 50.27000 24.78600
N  16.32200 51.42600 29.33800
C  17.23200 50.89000 30.16000
C  16.80400 51.14400 31.60400
C  15.25100 51.18900 31.55100
C  15.14100 51.60000 29.98500
C  14.62200 49.80200 31.89000
C  17.55100 52.37900 32.24400
C  17.77500 52.46600 33.70400
H  16.93000 51.60400 34.61800
N  14.45900 52.26800 27.00900
C  13.71300 52.66500 28.07700
C  12.65200 53.50200 27.57300
C  12.68800 53.50500 26.10900
C  13.86700 52.69400 25.88900
C  11.63400 54.14100 28.43900
C  11.77900 54.02400 25.03500
O  11.99200 53.93300 23.83900
C  10.53100 54.87800 25.38100
N  16.56100 51.14800 24.93100
C  15.68500 51.79000 24.15600
C  16.13100 51.76300 22.65300
C  17.67600 51.49000 22.88000
C  17.72100 50.89700 24.26900
C  15.39800 50.67900 21.70400
C  18.71800 52.66700 22.81700
C  19.93900 52.36400 21.92400
N  18.26000 50.41000 27.14600
C  19.18900 50.06800 26.14400
C  20.34800 49.38300 26.82000
C  20.12400 49.58300 28.21300
C  18.83300 50.15500 28.33300
C  21.57800 48.73200 26.25100
C  20.72000 49.37000 29.53000
O  21.79000 48.79900 29.78400
C  19.62600 49.77400 30.55300
C  19.29000 48.65100 31.41500
O  18.87600 47.53100 30.95600
O  19.33400 48.90600 32.69500
C  18.94600 47.80700 33.55200
H  13.13800 52.47100 30.04100
H  13.94300 52.75700 23.71500
H  19.70900 49.97800 24.17500
H  17.12400 50.22400 32.09300
H  14.83100 51.97300 32.18000
H  15.37300 49.02400 32.02800
H  14.13800 49.47900 30.96800
H  13.99400 49.82800 32.78000
H  16.90800 53.21500 31.97200
H  18.49100 52.56500 31.72500
H  17.73500 53.49800 34.05300
H  18.80800 52.12900 33.79700
H  12.02200 55.13400 28.66600
H  11.65700 53.72400 29.44600
H  10.61600 54.11000 28.05100
H  10.75100 55.52500 26.22900
H  9.81000 54.10200 25.64200
H  10.15200 55.54900 24.61000
H  16.08100 52.75500 22.20300
H  18.07400 50.61000 22.37500
H  15.85100 49.68800 21.69900
H  15.31600 51.20100 20.75100
H  14.37700 50.39200 21.95600
H  19.10800 52.82000 23.82300
H  18.28200 53.57400 22.39900
H  19.89600 51.36500 21.49100
H  20.84000 52.34300 22.53700
H  20.04400 53.15600 21.18200
H  21.34500 48.55300 25.20200
H  21.83200 47.87600 26.87600
H  22.24900 49.58800 26.31900
H  20.00800 50.58500 31.17300
H  17.86000 47.78700 33.64300
H  19.32400 48.19800 34.49800
H  19.46100 46.89100 33.26500
Mg -12.04800 16.86200 41.81600
C  -8.82900 15.42000 41.45400
C  -10.83200 19.81500 40.52200
C  -15.22400 17.96300 41.78900
C  -13.25300 13.59500 42.14800
N  -10.01100 17.46100 40.96100
C  -8.83000 16.66700 40.98000
C  -7.66500 17.52200 40.41300
C  -8.26300 18.98100 40.35300
C  -9.81800 18.77800 40.56900
C  -7.60600 20.08400 41.20700
C  -7.16700 16.95700 39.00800
C  -5.69900 17.33000 38.58800
H  -5.47300 17.80800 37.09700
N  -12.91000 18.64900 41.26600
C  -12.25000 19.76400 40.77100
C  -13.15900 20.82100 40.57400
C  -14.36800 20.34900 41.05100
C  -14.22900 18.94000 41.40000
C  -12.84600 22.22300 39.96800
C  -15.60700 21.22700 41.12800
O  -15.72300 22.36900 40.74500
C  -16.93800 20.69900 41.66600
N  -13.93700 15.89100 41.84000
C  -15.07400 16.57500 42.05000
C  -16.35800 15.71700 42.03900
C  -15.69700 14.36100 42.28800
C  -14.23200 14.56400 42.01100
C  -17.52600 16.06400 42.99800
C  -16.26100 13.26300 41.33800
C  -16.45000 11.69900 41.86500
N  -11.21500 14.95900 42.11000
C  -11.85500 13.74000 42.22300
C  -10.81300 12.65500 42.22600
C  -9.61300 13.32400 42.06400
C  -9.94100 14.70200 41.86300
C  -11.03300 11.19500 42.24300
C  -8.17900 13.07200 42.02800
O  -7.52100 12.05400 42.05700
C  -7.63100 14.50200 41.68600
C  -6.75100 14.94300 42.81400
O  -7.10700 14.89200 44.01400
O  -5.57300 15.32700 42.32200
C  -4.50600 15.56400 43.32300
H  -10.35700 20.79200 40.41200
H  -16.27400 18.26100 41.81800
H  -13.76800 12.64900 42.32600
H  -6.82900 17.55300 41.11200
H  -8.07100 19.32600 39.33700
H  -7.24900 20.77500 40.44300
H  -6.79600 19.64500 41.79000
H  -8.30600 20.62100 41.84700
H  -7.89400 17.32500 38.28300
H  -7.19000 15.87600 38.87300
H  -5.14600 16.40300 38.74000
H  -5.28000 17.97000 39.36400
H  -13.39800 22.41600 39.04900
H  -11.77700 22.17600 39.76100
H  -13.11900 22.91200 40.76700
H  -17.60000 21.52700 41.92100
H  -16.75800 20.21200 42.62500
H  -17.50300 20.07500 40.97500
H  -16.83800 15.69500 41.06100
H  -15.73100 14.03200 43.32700
H  -17.35500 16.95600 43.60100
H  -17.71900 15.26500 43.71300
H  -18.46900 16.33000 42.52000
H  -15.70900 13.12100 40.40800
H  -17.27500 13.51800 41.03200
H  -17.46900 11.34400 41.70700
H  -16.23200 11.64800 42.93200
H  -15.81600 11.14800 41.17100
H  -11.65300 10.99600 43.11800
H  -10.12300 10.59700 42.28400
H  -11.60800 10.94300 41.35200
H  -7.04400 14.32400 40.78600
H  -4.91400 16.35300 43.95500
H  -3.59100 15.90100 42.83600
H  -4.36400 14.61600 43.84300

