158

Mg 16.83000 51.72800 26.25200
C  18.43100 50.20700 28.90800
C  14.60800 53.19000 28.37600
C  15.06300 52.79400 23.59800
C  19.03900 50.09600 24.12100
N  16.49400 51.44000 28.35900
C  17.26200 50.85900 29.29300
C  16.87700 51.28800 30.68500
C  15.49800 52.01300 30.48100
C  15.57100 52.32300 28.96300
C  14.27300 51.18200 30.78700
C  17.88200 52.27800 31.42900
C  17.98200 52.12200 32.91800
H  17.01100 51.20600 33.63900
N  15.03700 52.81700 26.05500
C  14.26900 53.39800 27.07100
C  13.16300 54.23400 26.54500
C  13.32000 54.12700 25.10400
C  14.50200 53.22900 24.89300
C  12.23300 55.04200 27.33800
C  12.46700 54.76000 24.03200
O  12.59200 54.40500 22.79300
C  11.27100 55.71600 24.38300
N  17.00900 51.46800 24.20300
C  16.22200 51.98800 23.31400
C  16.64200 51.66800 21.89400
C  18.12600 51.30100 22.05500
C  18.02600 50.83000 23.52600
C  15.71000 50.54900 21.19500
C  19.10200 52.54400 21.98600
C  20.38900 52.27000 21.19200
N  18.49800 50.37200 26.43800
C  19.33200 49.82000 25.51500
C  20.39800 49.15800 26.15600
C  20.13000 49.28700 27.51800
C  18.89200 49.99700 27.58700
C  21.56000 48.42700 25.49500
C  20.62600 49.06000 28.90700
O  21.68800 48.61800 29.29600
C  19.48500 49.53000 29.84900
C  19.04600 48.41700 30.68200
O  18.72800 47.31400 30.25700
O  19.17900 48.70400 31.99400
C  18.92400 47.59400 32.89400
H  13.95800 53.86300 28.93800
H  14.48200 53.05000 22.70900
H  19.86400 49.83500 23.45600
H  16.63400 50.40800 31.28100
H  15.45000 52.92500 31.07600
H  14.49200 50.37600 31.48800
H  14.00100 50.67900 29.85900
H  13.54500 51.89300 31.17900
H  17.57100 53.30800 31.25500
H  18.86600 52.30000 30.96200
H  17.92900 53.07500 33.44500
H  19.01800 51.84200 33.11400
H  11.26100 54.92900 26.85600
H  12.47200 56.10500 27.32800
H  12.19400 54.66400 28.35900
H  11.57000 56.51900 25.05700
H  10.51900 55.05000 24.80600
H  10.84600 56.25200 23.53500
H  16.62300 52.59000 21.31300
H  18.29100 50.52100 21.31200
H  14.64600 50.64300 21.41600
H  16.12900 49.65200 21.65200
H  15.95000 50.50800 20.13300
H  19.39700 52.89700 22.97400
H  18.50100 53.30500 21.48700
H  20.26100 52.68500 20.19200
H  20.67200 51.22100 21.27900
H  21.16700 52.87200 21.66200
H  21.41600 48.41500 24.41500
H  21.54300 47.38700 25.82200
H  22.55000 48.83600 25.69800
H  19.89300 50.31200 30.48900
H  17.84100 47.47400 32.94500
H  19.24200 48.05900 33.82700
H  19.48700 46.68400 32.68800
Mg -2.73700 35.25500 26.30300
C  -4.14700 33.64500 29.12300
C  -1.04700 37.41700 28.40800
C  -1.57900 36.95700 23.58800
C  -4.37300 33.04900 24.22400
N  -2.59800 35.44300 28.56600
C  -3.31200 34.73600 29.46500
C  -2.81600 35.14500 30.90700
C  -1.96900 36.45500 30.59700
C  -1.81700 36.42600 29.08200
C  -2.55600 37.76400 31.18100
C  -2.10000 33.97100 31.69800
C  -2.67000 33.60700 33.13000
H  -1.80600 33.66100 34.39800
N  -1.57800 36.94100 26.05500
C  -0.95500 37.67500 27.05700
C  -0.15200 38.64700 26.48200
C  -0.16100 38.46900 25.10200
C  -1.20800 37.47700 24.83800
C  0.52900 39.72000 27.35500
C  0.78500 39.10000 24.09800
O  0.66100 38.94800 22.89600
C  1.92100 39.89100 24.53800
N  -3.00200 35.06700 24.22800
C  -2.35000 35.86200 23.32600
C  -2.66300 35.46800 21.86900
C  -3.43900 34.06400 22.07200
C  -3.59700 34.02300 23.58700
C  -3.59800 36.62500 21.31600
C  -2.61100 32.85100 21.38000
C  -1.97300 31.71400 22.24600
N  -3.98600 33.72600 26.55300
C  -4.61300 32.87700 25.59500
C  -5.36800 31.90400 26.26300
C  -5.27700 32.23400 27.59600
C  -4.35100 33.27600 27.75600
C  -6.19300 30.77400 25.71400
C  -5.66100 31.73100 28.87000
O  -6.33500 30.71900 29.11500
C  -5.02000 32.69300 29.89200
C  -6.03200 33.35000 30.61300
O  -6.51700 34.42900 30.39100
O  -6.09300 32.71000 31.79900
C  -6.69300 33.41800 32.98400
H  -0.52500 38.05400 29.12600
H  -1.17600 37.52000 22.74400
H  -4.74800 32.26200 23.56600
H  -3.73500 35.27100 31.47900
H  -1.02800 36.30200 31.12600
H  -3.49200 37.64900 31.72700
H  -2.73400 38.37500 30.29700
H  -1.73500 38.10000 31.81500
H  -1.06400 34.23400 31.91100
H  -1.98200 33.03100 31.15800
H  -3.05100 32.58700 33.07000
H  -3.59400 34.13600 33.36100
H  0.15700 39.98800 28.34400
H  0.61600 40.64400 26.78300
H  1.48800 39.20100 27.35100
H  2.48200 39.51700 25.39400
H  1.54700 40.90400 24.68500
H  2.62300 39.96700 23.70700
H  -1.80500 35.32700 21.21200
H  -4.41300 34.10700 21.58400
H  -3.06300 37.52600 21.01600
H  -4.48900 36.77900 21.92500
H  -3.98700 36.21400 20.38500
H  -1.92900 33.38900 20.72000
H  -3.29200 32.34100 20.69800
H  -0.99700 31.60100 21.77300
H  -2.51400 30.77200 22.15900
H  -1.76400 32.02100 23.27100
H  -6.03100 29.86000 26.28500
H  -5.90200 30.56000 24.68600
H  -7.23700 31.05900 25.84200
H  -4.33300 32.08500 30.48000
H  -7.15200 34.38900 32.79600
H  -6.10600 33.48900 33.90000
H  -7.49300 32.70100 33.16700

