158

Mg -1.54200 17.22000 26.59000
C  -1.55800 14.85200 29.26600
C  -2.46500 19.51900 29.01600
C  -2.33200 19.30100 24.13800
C  -1.51600 14.65700 24.36400
N  -1.92600 17.20400 28.95800
C  -1.81900 16.11200 29.78800
C  -2.30300 16.47200 31.24400
C  -2.78600 17.95000 31.06400
C  -2.38800 18.27000 29.60500
C  -4.39400 18.06000 31.25800
C  -1.11900 16.23400 32.19000
C  -0.61300 17.40800 33.11400
H  0.29700 17.00500 34.26100
N  -2.11600 19.14100 26.62500
C  -2.35100 19.98300 27.71200
C  -2.65300 21.28300 27.24800
C  -2.56000 21.26900 25.87700
C  -2.35400 19.85500 25.49400
C  -2.82200 22.48100 28.29600
C  -2.72600 22.41500 24.84100
O  -2.57700 22.28100 23.63300
C  -3.05800 23.81200 25.34100
N  -1.71600 17.04400 24.58600
C  -2.14200 18.01500 23.75400
C  -2.45100 17.47800 22.33400
C  -1.59300 16.14500 22.41900
C  -1.49600 15.96000 23.88400
C  -3.92700 17.28600 21.91900
C  -0.12400 16.26000 21.77800
C  0.05700 15.56600 20.44100
N  -1.44400 15.23200 26.75700
C  -1.46500 14.31700 25.72500
C  -1.32800 12.99200 26.29100
C  -1.29800 13.18900 27.64200
C  -1.45200 14.50500 27.90000
C  -1.28200 11.64600 25.55500
C  -1.20800 12.44100 28.80100
O  -0.98100 11.24600 29.00000
C  -1.53300 13.41300 29.87500
C  -0.59000 13.29400 30.99700
O  0.61500 13.46700 30.96800
O  -1.25600 12.92800 32.15200
C  -0.45800 12.65200 33.34000
H  -2.76800 20.26700 29.75200
H  -2.61800 19.94700 23.30500
H  -1.36200 13.91600 23.57600
H  -3.17300 15.89000 31.54900
H  -2.16000 18.65300 31.61200
H  -4.87800 17.18200 31.68600
H  -4.78700 18.13900 30.24400
H  -4.77300 18.92100 31.80800
H  -0.22900 15.98800 31.61100
H  -1.40100 15.33000 32.73000
H  -1.47400 17.91900 33.54500
H  -0.18600 18.13100 32.41800
H  -2.40500 23.41800 27.92800
H  -2.39300 22.33900 29.28800
H  -3.89300 22.67000 28.37500
H  -3.96700 23.78000 25.94100
H  -3.34600 24.38500 24.45900
H  -2.17700 24.26700 25.79300
H  -2.12300 18.12200 21.51800
H  -2.06700 15.35000 21.84300
H  -4.42200 17.49600 22.86700
H  -4.14600 16.26100 21.62100
H  -4.26800 18.12100 21.30600
H  0.62400 15.82400 22.44000
H  0.11100 17.29500 21.53200
H  1.03400 15.79900 20.01800
H  -0.72500 15.80300 19.72000
H  0.05700 14.47700 20.49700
H  -0.54100 11.40000 24.79500
H  -2.25200 11.49300 25.08100
H  -1.29000 10.76100 26.19100
H  -2.48700 13.05300 30.25800
H  -0.34300 11.58200 33.51800
H  -0.91800 13.04300 34.24800
H  0.50100 13.16100 33.43800
Mg 9.02900 3.32900 27.32000
C  10.48500 1.84600 30.19600
C  7.68700 5.71700 29.15900
C  7.66000 4.58300 24.42500
C  10.09800 0.58800 25.52100
N  8.97100 3.64900 29.47600
C  9.72400 3.02100 30.50400
C  9.44300 3.63600 31.91900
C  8.34600 4.72400 31.44300
C  8.32000 4.71300 29.91000
C  7.00900 4.73600 32.14800
C  10.68800 4.12500 32.68300
C  10.46200 5.27000 33.66400
H  11.18100 5.17600 35.00700
N  7.82500 4.95000 26.85700
C  7.45700 5.89100 27.74200
C  6.74800 6.97400 27.03700
C  6.78200 6.64100 25.66600
C  7.40300 5.35500 25.59500
C  6.36900 8.26900 27.79900
C  6.38100 7.56200 24.51600
O  6.38000 7.14500 23.34400
C  5.79800 8.96600 24.74500
N  8.89300 2.68700 25.21800
C  8.36400 3.37100 24.23100
C  8.54900 2.61500 22.87100
C  9.33300 1.39500 23.32700
C  9.47400 1.59700 24.80200
C  7.23200 2.38900 22.14600
C  10.77800 1.38000 22.64500
C  11.02200 0.26700 21.56500
N  10.14600 1.59000 27.65300
C  10.50700 0.51600 26.84200
C  11.24600 -0.48600 27.54500
C  11.24700 0.06000 28.85800
C  10.49800 1.22600 28.87200
C  11.93400 -1.71800 27.03000
C  11.75400 -0.24000 30.22200
O  12.42600 -1.17300 30.59800
C  11.25200 0.89500 31.15000
C  10.37600 0.32100 32.24200
O  9.31200 -0.26200 32.07300
O  10.71300 0.79200 33.45300
C  9.90600 0.34200 34.58200
H  7.21400 6.54800 29.68600
H  7.19800 5.02000 23.53800
H  10.36800 -0.32300 24.98300
H  9.03700 2.78500 32.46500
H  8.60400 5.73600 31.75500
H  6.38800 5.52100 31.71700
H  7.22200 4.98700 33.18700
H  6.45900 3.79600 32.09900
H  11.52800 4.31200 32.01500
H  11.09900 3.34500 33.32400
H  9.39200 5.46300 33.74100
H  10.83900 6.18600 33.20900
H  6.50400 8.35300 28.87800
H  5.30700 8.44100 27.62800
H  6.94600 9.09300 27.38000
H  6.59000 9.68800 24.94400
H  5.01700 9.02700 25.50400
H  5.38500 9.08900 23.74400
H  9.20200 3.33900 22.38500
H  8.86100 0.43000 23.14300
H  7.07500 1.31000 22.12100
H  7.17200 2.75600 21.12100
H  6.42900 2.82600 22.73900
H  11.55300 1.18100 23.38500
H  10.94300 2.26800 22.03500
H  10.85000 0.53900 20.52400
H  10.39900 -0.59300 21.81200
H  12.07100 -0.03000 21.55200
H  11.55800 -1.93800 26.03100
H  11.54100 -2.52000 27.65400
H  13.01200 -1.63500 26.89400
H  12.09200 1.37200 31.65500
H  9.86100 1.13400 35.32900
H  10.36300 -0.57600 34.95400
H  8.88000 0.01800 34.40900

