158

Mg 24.12000 -5.71400 45.23500
C  26.46700 -3.63900 43.97100
C  21.83700 -4.35500 43.24400
C  22.26900 -8.57500 45.58700
C  26.67900 -7.35200 47.07200
N  24.14900 -4.12800 43.89400
C  25.17800 -3.34100 43.53800
C  24.78600 -2.30500 42.45300
C  23.21600 -2.27700 42.66200
C  23.00300 -3.67700 43.27000
C  22.64200 -1.16100 43.53300
C  25.29500 -2.79300 41.01500
C  26.13400 -1.87600 40.11400
H  25.77600 -1.93000 38.62800
N  22.26200 -6.39400 44.53000
C  21.39800 -5.62300 43.77200
C  20.22000 -6.35100 43.49000
C  20.34000 -7.59500 44.17300
C  21.64700 -7.61000 44.80600
C  19.04300 -5.76300 42.80400
C  19.31200 -8.70500 44.18000
O  18.29400 -8.58700 43.48400
C  19.47600 -9.94600 44.94600
N  24.52800 -7.80100 46.10900
C  23.50100 -8.65600 46.22500
C  23.85200 -9.77000 47.27900
C  25.22100 -9.29300 47.92300
C  25.48300 -8.02900 47.02700
C  22.69200 -10.01700 48.31000
C  26.33300 -10.31700 47.86100
C  26.99100 -10.62200 49.22800
N  26.18800 -5.60400 45.51200
C  27.13500 -6.29200 46.30100
C  28.47600 -5.78100 46.08300
C  28.27300 -4.76700 45.16200
C  26.89500 -4.65900 44.88200
C  29.70600 -6.20000 46.93100
C  28.87500 -3.66300 44.38800
O  30.08400 -3.30300 44.40300
C  27.76000 -2.95200 43.54000
C  27.91400 -1.49100 43.86000
O  28.54800 -0.66100 43.25000
O  27.22700 -1.24500 45.04900
C  27.39100 0.14700 45.50100
H  21.05100 -3.91300 42.62800
H  21.66200 -9.48200 45.62300
H  27.48400 -7.68400 47.73100
H  25.19200 -1.33500 42.73900
H  22.75000 -2.18500 41.68000
H  23.43100 -0.48000 43.84900
H  22.09200 -1.57300 44.37900
H  21.97800 -0.61800 42.86000
H  24.45300 -3.23700 40.48500
H  25.88700 -3.69700 41.15500
H  27.16700 -2.19200 40.25800
H  25.92300 -0.85600 40.43500
H  18.65200 -6.46700 42.06900
H  19.24400 -4.79200 42.35200
H  18.25900 -5.62900 43.54900
H  20.31900 -10.55600 44.62100
H  18.63000 -10.60800 44.76600
H  19.37600 -9.62000 45.98100
H  24.04400 -10.68700 46.72300
H  25.09000 -8.91600 48.93700
H  22.20400 -10.97400 48.12500
H  21.94700 -9.22300 48.37100
H  23.16400 -10.24500 49.26500
H  27.01600 -9.96800 47.08700
H  25.97400 -11.24000 47.40700
H  26.20800 -10.95000 49.91200
H  27.47300 -9.69900 49.55000
H  27.61400 -11.51500 49.17000
H  30.21500 -7.04800 46.47300
H  29.34600 -6.51300 47.91100
H  30.39200 -5.38300 47.15100
H  27.97100 -3.02000 42.47300
H  26.70300 0.37000 46.31700
H  27.35800 0.97600 44.79400
H  28.38600 0.20500 45.94300
Mg -0.16300 44.35900 26.18400
C  2.00300 44.19400 28.97000
C  -2.78400 43.94500 28.30200
C  -2.03500 43.72100 23.40300
C  2.71500 44.46100 24.15300
N  -0.29900 44.03600 28.39100
C  0.63900 44.21800 29.32500
C  0.02900 44.00300 30.72800
C  -1.46700 43.90800 30.43600
C  -1.50900 43.94900 28.90500
C  -2.20000 42.67800 31.02700
C  0.45900 45.17900 31.68200
C  1.28600 44.94000 32.97300
H  0.67900 43.79500 33.91400
N  -2.20700 44.06700 25.90500
C  -3.09300 43.93800 26.90900
C  -4.42600 43.73300 26.34600
C  -4.24500 43.62000 24.94500
C  -2.76700 43.80100 24.66700
C  -5.65800 43.78100 27.26200
C  -5.29700 43.33500 23.88400
O  -4.96500 43.27000 22.68300
C  -6.65900 43.06400 24.22300
N  0.27100 44.10900 24.11000
C  -0.64900 43.80300 23.16100
C  -0.03600 43.58600 21.67200
C  1.39400 43.95500 22.04200
C  1.49100 44.30100 23.51000
C  -0.21200 42.09200 21.33000
C  1.93600 45.19800 21.20400
C  1.59500 46.50500 21.75400
N  1.90700 44.45500 26.43300
C  2.94100 44.42300 25.50100
C  4.21700 44.28900 26.21800
C  3.88300 44.24100 27.59300
C  2.47400 44.31300 27.66100
C  5.63900 44.27400 25.68400
C  4.49700 44.02400 28.86700
O  5.63100 43.79200 29.20200
C  3.28900 43.99000 29.87100
C  3.32400 42.69900 30.60900
O  2.97100 41.63700 30.19300
O  3.90900 42.88900 31.85600
C  4.13900 41.71800 32.76500
H  -3.55600 43.80900 29.06200
H  -2.68000 43.59700 22.53000
H  3.56400 44.61700 23.48400
H  0.54000 43.16100 31.19600
H  -2.05800 44.78200 30.71200
H  -3.23200 42.96000 31.23100
H  -1.68400 42.45600 31.96200
H  -2.28600 41.78800 30.40400
H  -0.40800 45.79700 31.91800
H  1.09400 45.83100 31.08200
H  1.40600 45.79900 33.63400
H  2.33100 44.69700 32.78200
H  -5.66100 42.82100 27.77700
H  -6.58300 43.98000 26.72000
H  -5.56600 44.64300 27.92300
H  -7.20300 42.78300 23.32200
H  -7.18300 43.86000 24.75200
H  -6.70500 42.24800 24.94500
H  -0.54500 44.31300 21.03900
H  2.07000 43.14100 21.78300
H  -0.60300 41.52200 22.17300
H  0.76100 41.64200 21.13600
H  -0.97100 41.99800 20.55400
H  1.51900 45.23600 20.19700
H  3.02200 45.20700 21.10800
H  2.47800 46.94600 22.21600
H  0.75000 46.45400 22.44100
H  1.28200 47.21000 20.98400
H  5.73500 44.03500 24.62500
H  6.27400 43.53000 26.16600
H  5.95800 45.27600 25.97000
H  3.43700 44.78500 30.60200
H  3.74700 41.92600 33.76100
H  5.21800 41.70200 32.92000
H  3.84700 40.74100 32.38000

