158

Mg 23.87200 -5.37800 47.03400
C  25.90200 -2.90000 45.55400
C  21.35400 -4.24500 44.80700
C  22.23000 -8.11600 47.57100
C  26.77000 -6.61900 48.57000
N  23.79900 -3.84800 45.29700
C  24.69400 -2.89500 44.92400
C  24.16100 -1.87100 43.98800
C  22.62000 -2.08300 44.12900
C  22.56000 -3.51700 44.82200
C  21.73300 -1.07200 44.88300
C  24.66800 -1.88300 42.52800
C  24.95200 -0.46200 42.02000
H  25.39300 -0.30500 40.59300
N  22.00800 -6.10200 46.34900
C  21.16800 -5.46600 45.46400
C  19.96100 -6.21800 45.36500
C  20.09600 -7.34100 46.15700
C  21.45300 -7.21900 46.75700
C  18.86500 -5.84700 44.44700
C  19.00800 -8.36300 46.47500
O  17.92200 -8.31700 45.94600
C  19.24900 -9.38100 47.52800
N  24.42800 -7.09200 47.87500
C  23.55700 -8.07200 48.08900
C  24.19900 -9.32700 48.81200
C  25.45200 -8.74300 49.34600
C  25.58700 -7.38300 48.51400
C  23.42900 -9.99900 49.97800
C  26.74800 -9.64600 49.18500
C  27.64700 -9.78800 50.38900
N  25.91600 -4.80600 47.22100
C  26.97800 -5.39300 47.92700
C  28.20800 -4.53800 47.83800
C  27.77100 -3.54200 46.89800
C  26.39300 -3.78200 46.51100
C  29.46100 -4.92500 48.44400
C  28.22600 -2.36500 46.18300
O  29.33000 -1.80400 46.19800
C  27.08700 -1.95400 45.23200
C  26.75000 -0.51300 45.53600
O  26.31000 -0.12300 46.59800
O  27.29600 0.33800 44.54400
C  27.13900 1.77300 44.70000
H  20.51600 -3.70600 44.36100
H  21.75800 -9.06500 47.83400
H  27.53700 -6.82700 49.31800
H  24.43100 -0.90800 44.42200
H  22.11100 -2.20600 43.17300
H  22.40200 -0.33800 45.33200
H  21.17300 -1.62700 45.63500
H  21.05100 -0.53600 44.22300
H  23.99300 -2.41700 41.85900
H  25.65100 -2.35300 42.55900
H  25.84200 -0.23800 42.60800
H  24.12500 0.22800 42.19200
H  18.44200 -6.78100 44.07800
H  19.18600 -5.17500 43.65100
H  18.07000 -5.34700 45.00000
H  18.35100 -9.97700 47.68700
H  19.61500 -8.91000 48.44000
H  20.03200 -10.01100 47.10300
H  24.45900 -10.05600 48.04500
H  25.24100 -8.30200 50.32000
H  22.76300 -9.22000 50.34900
H  24.06100 -10.31900 50.80700
H  22.82000 -10.81000 49.57900
H  27.24400 -9.21900 48.31400
H  26.48400 -10.66000 48.88600
H  28.63300 -10.14100 50.08600
H  27.27200 -10.49700 51.12700
H  27.70500 -8.84600 50.93500
H  30.28000 -4.23600 48.23800
H  29.71700 -5.93900 48.13700
H  29.30300 -4.82100 49.51700
H  27.44500 -1.95400 44.20200
H  27.64800 2.21400 43.84200
H  27.63000 2.10800 45.61300
H  26.12300 2.15300 44.58900
Mg 40.38600 9.54900 29.64100
C  42.61300 10.67300 32.10900
C  38.25700 8.36000 32.08600
C  38.63800 8.00800 27.19600
C  42.94800 9.98600 27.28300
N  40.51400 9.48200 31.87800
C  41.47700 10.06400 32.65300
C  41.01500 10.07800 34.13200
C  39.72900 9.13800 34.10500
C  39.46600 8.90800 32.57900
C  39.80700 7.81900 34.87100
C  40.80700 11.59300 34.62900
C  40.13200 11.80000 36.02800
H  41.06400 12.27000 37.09800
N  38.62400 8.52600 29.62000
C  37.88800 8.11200 30.73200
C  36.64600 7.48000 30.29100
C  36.67100 7.46800 28.84900
C  38.01900 8.04300 28.50100
C  35.61700 6.89800 31.30000
C  35.70300 6.90100 27.93800
O  35.88000 6.81900 26.70800
C  34.42300 6.21900 28.31000
N  40.71800 9.04100 27.53800
C  39.83300 8.36600 26.77200
C  40.32800 8.09000 25.28100
C  41.70500 8.90800 25.36100
C  41.80500 9.29300 26.82900
C  40.55500 6.61400 24.85600
C  41.75200 10.07500 24.36600
C  41.11000 11.46000 24.80800
N  42.29000 10.21600 29.60700
C  43.20500 10.33500 28.59500
C  44.42800 10.87500 29.10500
C  44.18500 11.18800 30.42400
C  42.94400 10.68400 30.73900
C  45.73100 11.29100 28.30300
C  44.73300 11.81700 31.59600
O  45.76700 12.49500 31.72700
C  43.75200 11.61200 32.69600
C  44.33700 10.98600 33.90800
O  44.48300 9.75900 33.97400
O  44.69100 11.84700 34.91800
C  45.23700 11.30300 36.15600
H  37.45000 8.07300 32.76300
H  38.08900 7.41400 26.46200
H  43.63300 10.25100 26.47500
H  41.72200 9.66800 34.85300
H  38.85000 9.65200 34.49500
H  40.38500 8.01600 35.77400
H  40.30300 7.10800 34.21000
H  38.78200 7.49900 35.06200
H  40.33700 12.16400 33.82800
H  41.80000 12.03500 34.71400
H  39.86400 10.76800 36.25400
H  39.25800 12.45000 35.98200
H  35.28100 5.91300 30.97800
H  34.73200 7.52500 31.18800
H  35.96000 6.77200 32.32700
H  33.58000 6.46900 27.66600
H  34.03100 6.61100 29.24900
H  34.58600 5.17000 28.55800
H  39.64000 8.58500 24.59600
H  42.57600 8.27700 25.18100
H  41.60300 6.33400 24.96500
H  40.23500 6.43100 23.83000
H  40.04200 5.93100 25.53300
H  41.21100 9.84100 23.44900
H  42.81400 10.18700 24.14700
H  41.84800 12.22900 25.03600
H  40.35300 11.30000 25.57600
H  40.54800 11.86000 23.96400
H  45.38000 11.65800 27.33800
H  46.30000 10.37700 28.12800
H  46.22300 12.11900 28.81300
H  43.32800 12.56500 33.01600
H  46.18800 10.77000 36.14500
H  44.50700 10.65200 36.63600
H  45.29500 12.05100 36.94700

