158

Mg 44.69300 5.92400 47.74200
C  42.49000 8.66500 47.25000
C  41.94300 3.81800 46.92100
C  46.72100 3.38800 47.53700
C  47.30400 8.22000 47.98900
N  42.49600 6.21700 47.17500
C  41.84600 7.48200 47.05000
C  40.33400 7.30800 46.68800
C  40.14400 5.77200 46.71700
C  41.60600 5.19700 46.93900
C  39.06300 5.11200 47.59300
C  39.96200 8.02400 45.35900
C  41.13500 7.90000 44.24100
H  40.69100 7.56900 42.81200
N  44.36900 3.76600 47.45900
C  43.18200 3.14900 47.22400
C  43.44600 1.69700 47.17600
C  44.85300 1.51900 47.39400
C  45.39300 2.92900 47.51800
C  42.43000 0.66100 46.86200
C  45.59200 0.14800 47.23700
O  44.93900 -0.79300 46.88200
C  47.13100 0.04000 47.36800
N  46.69400 5.81300 47.92900
C  47.29800 4.68300 47.79600
C  48.84200 4.80100 47.84000
C  49.03400 6.34400 47.86500
C  47.64600 6.85200 48.03700
C  49.55400 3.96200 48.99600
C  49.87200 6.88600 46.63500
C  49.06700 6.83300 45.31600
N  44.88000 7.90500 47.73000
C  45.98100 8.75600 47.87100
C  45.63900 10.17700 47.70000
C  44.22600 10.17200 47.55200
C  43.85800 8.77200 47.45400
C  46.49000 11.34100 47.63500
C  43.01200 11.04400 47.43400
O  42.88800 12.25400 47.46500
C  41.87300 10.08400 47.27700
C  40.78300 10.36200 48.38000
O  40.71300 9.72100 49.40200
O  39.81600 11.27300 47.97400
C  38.57400 11.33500 48.76300
H  41.11800 3.14500 46.67700
H  47.44500 2.60300 47.31000
H  48.05200 9.01600 48.00700
H  39.60900 7.79300 47.34200
H  40.01900 5.45900 45.68100
H  38.18800 5.76000 47.65500
H  39.35400 4.73800 48.57400
H  38.82700 4.28800 46.92000
H  39.64400 9.03200 45.62700
H  39.04400 7.63800 44.91600
H  41.70500 7.00500 44.49100
H  41.76500 8.78600 44.16300
H  42.76500 0.27600 45.89900
H  41.54800 1.20000 46.51400
H  42.14900 -0.14200 47.54300
H  47.34900 -0.99400 47.09900
H  47.37500 0.23600 48.41300
H  47.63900 0.69600 46.66200
H  49.11800 4.30200 46.91100
H  49.62400 6.68700 48.71500
H  49.99000 3.06600 48.55400
H  48.86100 3.80000 49.82100
H  50.38200 4.57200 49.35700
H  50.71100 6.21000 46.46300
H  50.29000 7.88100 46.79100
H  48.95400 7.83500 44.90200
H  48.13000 6.29800 45.47200
H  49.52200 6.18100 44.56900
H  47.33700 11.36200 48.32200
H  45.86200 12.23200 47.63500
H  46.92100 11.28100 46.63600
H  41.32000 10.27200 46.35700
H  38.16200 12.33800 48.64900
H  38.85300 11.07100 49.78300
H  37.76000 10.68300 48.44600
Mg 26.46500 49.36800 26.21300
C  24.44700 50.44100 28.99100
C  28.83500 48.52400 28.47600
C  28.29500 48.65700 23.54700
C  24.07000 50.85200 24.10500
N  26.58500 49.51900 28.52500
C  25.67200 49.94000 29.43400
C  26.16900 49.64800 30.89200
C  27.64600 49.09400 30.71700
C  27.72900 49.14600 29.13000
C  28.75600 49.93200 31.36400
C  25.27600 48.57600 31.68900
C  24.76600 49.19500 32.97800
H  25.71900 49.86000 33.93700
N  28.31700 48.66600 25.97800
C  29.12300 48.32300 27.06300
C  30.28600 47.61900 26.48900
C  30.20500 47.70800 25.02700
C  28.88000 48.39900 24.79100
C  31.46600 47.13800 27.44800
C  31.04200 47.11800 23.95300
O  30.87400 47.40100 22.77700
C  32.24000 46.32100 24.24800
N  26.24200 49.75700 24.17400
C  27.17300 49.26900 23.27100
C  26.62500 49.34700 21.88500
C  25.24900 50.11200 22.00800
C  25.19100 50.21300 23.54300
C  27.52300 49.93700 20.78400
C  24.13900 49.24900 21.40700
C  23.58900 49.68700 20.06900
N  24.62600 50.32400 26.48000
C  23.78500 50.89100 25.52800
C  22.66500 51.43100 26.17100
C  22.82700 51.23400 27.56300
C  24.07400 50.60300 27.68900
C  21.54300 52.05600 25.49000
C  22.22900 51.53700 28.88200
O  21.15900 52.02200 29.24900
C  23.25800 50.98100 29.89500
C  23.60900 52.14000 30.78100
O  24.48300 52.94400 30.54800
O  22.86900 52.15100 31.92000
C  23.31700 53.10300 32.91700
H  29.49100 48.06700 29.22000
H  28.84400 48.37200 22.64700
H  23.35200 51.31500 23.42600
H  26.19000 50.58400 31.45100
H  27.70100 48.08500 31.12600
H  29.19900 50.50100 30.54700
H  29.44800 49.19400 31.77000
H  28.41500 50.63400 32.12500
H  25.73000 47.61300 31.92400
H  24.30800 48.50400 31.19300
H  24.36900 48.29800 33.45400
H  23.98500 49.91800 32.74600
H  31.48800 47.66400 28.40200
H  32.39600 47.42800 26.95900
H  31.44200 46.04900 27.49600
H  32.51300 45.56500 23.51200
H  31.92200 45.73300 25.10800
H  32.95200 47.06300 24.61100
H  26.44700 48.30100 21.63400
H  25.28900 51.09300 21.53500
H  28.39100 50.47200 21.16700
H  26.90500 50.66400 20.25800
H  27.84300 49.15200 20.09900
H  23.21100 49.19800 21.97700
H  24.42200 48.20800 21.24600
H  24.19000 50.57500 19.87400
H  22.53200 49.95600 20.07900
H  23.91400 48.96400 19.32100
H  21.38200 51.47100 24.58400
H  21.87400 53.08900 25.39200
H  20.67600 52.06700 26.15000
H  22.98400 50.18200 30.58400
H  23.43100 54.11200 32.52000
H  24.34400 52.83600 33.16600
H  22.64800 53.00300 33.77100

