158

Mg 1.74400 -3.42000 44.39700
C  5.17500 -2.78500 44.13200
C  0.97700 -0.90100 42.27800
C  -1.42200 -4.67300 44.10900
C  2.74300 -6.41600 46.15700
N  2.98800 -2.08200 43.28700
C  4.36000 -1.91100 43.38700
C  4.76700 -0.70200 42.39900
C  3.38100 0.00900 42.24400
C  2.34900 -1.05900 42.58200
C  3.28900 1.40300 43.05200
C  5.46900 -1.32300 41.07000
C  7.03500 -1.08000 40.97300
H  7.53100 -0.58800 39.59900
N  -0.04000 -2.78400 43.48200
C  -0.15700 -1.71200 42.61900
C  -1.54700 -1.53200 42.14200
C  -2.30400 -2.54700 42.73600
C  -1.24600 -3.40300 43.51300
C  -1.93900 -0.47000 41.19900
C  -3.76200 -2.81500 42.52500
O  -4.40700 -2.05700 41.84800
C  -4.49000 -3.87800 43.17700
N  0.82600 -5.31700 44.94500
C  -0.54900 -5.41900 44.89800
C  -1.06100 -6.55200 45.74600
C  0.26300 -7.19600 46.37400
C  1.36200 -6.24000 45.81100
C  -2.14800 -6.32700 46.88200
C  0.58700 -8.67200 45.85900
C  0.99400 -9.69500 46.94100
N  3.62100 -4.49000 45.04500
C  3.82600 -5.57800 45.75900
C  5.22000 -5.78400 45.90200
C  5.79000 -4.60700 45.35400
C  4.75000 -3.89800 44.80200
C  5.87700 -6.94400 46.67300
C  7.03200 -3.96400 45.21000
O  8.16700 -4.15000 45.59800
C  6.71200 -2.71400 44.25500
C  7.12200 -1.51200 44.90300
O  8.19200 -0.92800 44.59800
O  6.24900 -0.95800 45.84900
C  6.77100 0.27200 46.46000
H  0.63400 0.02400 41.81100
H  -2.44000 -5.06900 44.10500
H  3.02600 -7.29900 46.73500
H  5.45400 0.05000 42.78600
H  3.32000 0.27500 41.18900
H  3.44900 2.19000 42.31500
H  4.05200 1.51300 43.82200
H  2.35600 1.36200 43.61300
H  4.92600 -0.98300 40.18700
H  5.21500 -2.38000 41.15500
H  7.52400 -2.04400 41.11400
H  7.46400 -0.44500 41.74800
H  -1.67200 -0.66900 40.16100
H  -1.46000 0.43300 41.57600
H  -2.97700 -0.14900 41.27900
H  -4.36600 -3.80400 44.25700
H  -4.09900 -4.82900 42.81300
H  -5.55600 -3.80900 42.96100
H  -1.53700 -7.20600 45.01500
H  0.28600 -7.13200 47.46100
H  -1.85200 -5.48900 47.51200
H  -2.50200 -7.11900 47.54100
H  -2.99500 -6.06800 46.24500
H  1.27900 -8.69700 45.01800
H  -0.36500 -8.96000 45.41400
H  0.71300 -9.33300 47.93000
H  2.05400 -9.93200 46.85700
H  0.58500 -10.69400 46.78700
H  6.91500 -6.90600 46.34400
H  5.37900 -7.87700 46.40900
H  5.71000 -6.58400 47.68800
H  7.17200 -2.71500 43.26700
H  6.20400 0.75000 47.25900
H  6.82700 1.08300 45.73300
H  7.81400 0.20000 46.76900
Mg 27.89200 51.02000 26.36400
C  25.85100 52.07100 28.94900
C  30.23400 50.04600 28.63600
C  29.78900 49.99700 23.80900
C  25.50300 52.27500 24.16800
N  27.99600 51.11000 28.50100
C  27.04700 51.55000 29.43900
C  27.51500 51.25000 30.86100
C  28.99200 50.88800 30.63900
C  29.04900 50.57500 29.12300
C  30.01400 51.88200 31.25000
C  26.73500 50.13100 31.57900
C  26.14500 50.39000 32.94600
H  25.71900 49.15200 33.80400
N  29.77300 50.11200 26.25600
C  30.57700 49.77700 27.31800
C  31.85500 49.34700 26.76900
C  31.73500 49.42200 25.34500
C  30.42000 49.92600 25.07300
C  32.99400 48.96900 27.63300
C  32.80700 49.13000 24.32600
O  32.55400 49.14000 23.13700
C  34.18200 48.65500 24.78400
N  27.66800 51.12900 24.26100
C  28.51300 50.47400 23.45700
C  27.96800 50.42400 22.03300
C  26.53400 50.99200 22.19000
C  26.54400 51.51800 23.62000
C  28.89900 51.20000 21.04600
C  25.34200 49.98500 21.96900
C  24.22900 50.60100 21.09700
N  26.06800 51.99700 26.46000
C  25.16900 52.41200 25.49000
C  24.01600 53.00300 26.04100
C  24.25200 52.84600 27.40600
C  25.52200 52.23500 27.62500
C  22.82500 53.71900 25.30600
C  23.64300 53.12700 28.68700
O  22.61400 53.71800 29.02900
C  24.69400 52.63200 29.76300
C  24.98300 53.78300 30.67200
O  26.02200 54.41700 30.65200
O  23.96900 53.80200 31.70000
C  24.20000 54.92300 32.61200
H  30.94800 49.67700 29.37500
H  30.28300 49.52200 22.95900
H  24.67600 52.45300 23.47700
H  27.27300 52.09200 31.50900
H  29.20600 49.89100 31.02700
H  30.76000 51.31500 31.80800
H  29.56900 52.53800 31.99800
H  30.44100 52.58900 30.53800
H  27.37400 49.25600 31.70100
H  25.92400 49.74100 30.96400
H  25.16900 50.85800 32.82200
H  26.82300 51.00900 33.53400
H  33.21200 47.92600 27.40100
H  32.62700 49.00300 28.65800
H  33.83200 49.66700 27.61500
H  34.83800 48.73100 23.91700
H  34.00800 47.61600 25.06500
H  34.63000 49.19400 25.61900
H  27.88800 49.38900 21.70200
H  26.51600 51.90800 21.59900
H  28.39300 52.14800 20.86600
H  29.05600 50.69100 20.09500
H  29.81400 51.35700 21.61700
H  24.89800 49.72100 22.92900
H  25.60900 49.02600 21.52400
H  24.51800 50.36000 20.07400
H  24.17300 51.68800 21.16700
H  23.24300 50.24900 21.39900
H  22.32100 54.47500 25.90900
H  22.16500 52.91100 24.98900
H  23.18600 54.25300 24.42700
H  24.29000 51.87000 30.42900
H  23.23900 55.00700 33.11900
H  24.62300 55.80200 32.12500
H  25.02000 54.70100 33.29500

