158

Mg -2.42900 17.02000 26.14100
C  -2.84200 14.72900 28.74100
C  -2.94700 19.61800 28.31400
C  -2.23000 19.15900 23.53200
C  -2.55300 14.37900 23.80600
N  -2.69400 17.12100 28.31900
C  -2.79400 16.07900 29.19600
C  -2.78500 16.56900 30.69900
C  -2.90400 18.16000 30.49900
C  -2.92600 18.34300 28.95500
C  -4.13400 18.82200 31.12200
C  -1.46700 16.13000 31.48500
C  -0.99400 16.81500 32.77200
H  -0.53200 15.96100 33.97200
N  -2.63100 19.04800 25.98600
C  -2.73600 19.99200 27.00700
C  -2.78200 21.33800 26.47400
C  -2.57200 21.13100 25.13300
C  -2.39400 19.73300 24.80100
C  -3.03800 22.63500 27.24000
C  -2.44500 22.17400 24.02200
O  -2.31700 22.02100 22.79200
C  -2.43700 23.57800 24.43300
N  -2.36800 16.76400 23.97400
C  -2.32900 17.82500 23.11600
C  -2.28300 17.37600 21.66400
C  -2.67100 15.86500 21.78400
C  -2.46000 15.66700 23.27100
C  -3.15500 18.05900 20.67800
C  -2.04500 14.87900 20.72300
C  -2.96500 14.26100 19.65800
N  -2.58100 14.99300 26.18800
C  -2.59300 13.99100 25.17700
C  -2.93600 12.69200 25.72500
C  -3.00300 12.89200 27.14500
C  -2.78200 14.29400 27.35100
C  -3.19100 11.49100 24.95600
C  -3.25900 12.28500 28.39800
O  -3.57700 11.14300 28.64400
C  -3.07600 13.42300 29.44500
C  -1.93600 13.09000 30.26300
O  -0.75400 13.36600 29.95300
O  -2.32900 12.46500 31.38800
C  -1.27300 12.08500 32.35700
H  -3.03200 20.38100 29.09100
H  -2.17000 19.76700 22.62800
H  -2.86100 13.59800 23.10700
H  -3.62800 16.13700 31.24000
H  -1.99900 18.60900 30.90900
H  -5.05300 18.82800 30.53700
H  -3.85100 19.82700 31.43500
H  -4.42200 18.39800 32.08400
H  -0.59400 16.19000 30.83500
H  -1.53300 15.08200 31.77600
H  -1.84600 17.42400 33.07500
H  -0.21200 17.45700 32.36800
H  -3.28400 22.39300 28.27400
H  -3.85900 23.20500 26.80400
H  -2.11700 23.21700 27.26200
H  -3.46100 23.75500 24.76100
H  -2.15500 24.25700 23.62800
H  -1.81300 23.79700 25.29900
H  -1.29100 17.44600 21.21700
H  -3.75000 15.83100 21.63300
H  -3.56900 17.41000 19.90600
H  -2.65800 18.82500 20.08300
H  -3.96500 18.55200 21.21700
H  -1.49300 14.02100 21.10800
H  -1.33900 15.47900 20.14800
H  -3.98100 14.58200 19.89000
H  -2.77400 13.18800 19.63700
H  -2.84900 14.73100 18.68100
H  -3.81300 10.75300 25.46400
H  -2.20100 11.08500 24.74800
H  -3.73100 11.80700 24.06300
H  -3.93400 13.47000 30.11400
H  -1.21500 10.99900 32.42900
H  -1.52300 12.63900 33.26200
H  -0.29400 12.49800 32.11300
Mg 25.20400 0.94700 29.79900
C  27.15900 0.70400 32.63300
C  22.46200 1.09900 31.96000
C  23.19500 0.62300 27.15800
C  28.07000 0.35200 27.77100
N  24.89800 1.03600 31.99100
C  25.88100 1.03400 32.98900
C  25.33100 1.24100 34.38800
C  23.84400 1.29800 34.15000
C  23.70800 1.09200 32.58000
C  22.83400 0.37600 34.96900
C  26.06300 2.27800 35.26200
C  26.56100 1.73400 36.63200
H  26.52300 2.62200 37.92000
N  23.08900 0.77200 29.56700
C  22.17500 0.96800 30.59900
C  20.85000 0.96700 29.95500
C  21.02200 0.74100 28.54300
C  22.49900 0.65600 28.33700
C  19.58200 1.13700 30.77900
C  19.94000 0.56500 27.48900
O  20.18100 0.26200 26.31300
C  18.50400 0.95900 27.81000
N  25.71200 0.75400 27.68900
C  24.62600 0.65900 26.87800
C  25.13100 0.44500 25.41600
C  26.68700 0.27800 25.56700
C  26.87800 0.60300 27.05500
C  24.40700 -0.71700 24.68700
C  27.63900 1.29300 24.73000
C  28.21500 0.83600 23.40900
N  27.15500 0.52400 30.11900
C  28.21600 0.34800 29.21300
C  29.39800 0.09900 29.98800
C  29.02700 0.22500 31.32600
C  27.65400 0.50900 31.33900
C  30.76000 -0.22100 29.45400
C  29.57700 0.25600 32.58600
O  30.72700 0.01300 32.95000
C  28.30300 0.39400 33.56400
C  28.23600 -0.94300 34.31200
O  27.77900 -1.99100 33.83200
O  28.59800 -0.79600 35.61400
C  28.49000 -1.85600 36.59100
H  21.65200 1.22100 32.68200
H  22.50800 0.50200 26.31800
H  28.91100 0.02800 27.15500
H  25.33000 0.30300 34.94400
H  23.43500 2.26000 34.46000
H  22.10200 1.00500 35.47600
H  23.32700 -0.25500 35.70900
H  22.40900 -0.40100 34.33300
H  25.43000 3.14800 35.43400
H  26.97800 2.53300 34.72700
H  27.59800 1.50200 36.38800
H  26.02600 0.80100 36.81100
H  18.97700 0.24700 30.60500
H  19.04900 2.07400 30.62000
H  19.63100 1.10800 31.86700
H  18.00900 0.35800 28.57300
H  17.93600 0.84200 26.88800
H  18.56200 2.00900 28.09800
H  24.88000 1.37500 24.90500
H  26.98600 -0.75900 25.41600
H  23.68500 -1.13800 25.38700
H  25.09300 -1.54200 24.49300
H  23.85200 -0.36300 23.81800
H  28.48100 1.65600 25.31900
H  27.15100 2.26400 24.64100
H  27.79100 -0.11100 23.07600
H  29.25600 0.51300 23.40000
H  28.07200 1.55500 22.60300
H  31.13000 -0.90600 30.21700
H  31.43300 0.63600 29.42800
H  30.75400 -0.80000 28.53000
H  28.44900 1.16200 34.32300
H  28.66000 -2.81900 36.10800
H  27.44800 -1.86500 36.91200
H  29.18900 -1.74700 37.42000

