158

Mg 24.37000 -4.95900 45.86400
C  26.58700 -2.50800 44.51400
C  22.00600 -3.74300 43.67500
C  22.62500 -7.81200 46.33800
C  27.24500 -6.44200 47.41900
N  24.34200 -3.31100 44.23400
C  25.34500 -2.46800 43.85500
C  24.93200 -1.60800 42.61200
C  23.37000 -1.76600 42.69200
C  23.20600 -2.99200 43.58800
C  22.56000 -0.57400 43.32500
C  25.46000 -2.18700 41.27500
C  26.17700 -1.18400 40.38600
H  25.66000 -1.05500 38.95200
N  22.51200 -5.62600 45.27600
C  21.63800 -4.92300 44.41600
C  20.36700 -5.64700 44.48300
C  20.59800 -6.82400 45.11100
C  21.99800 -6.85400 45.57300
C  19.13900 -5.12000 43.84800
C  19.43400 -7.88300 45.35700
O  18.26000 -7.65300 45.14600
C  19.73900 -9.29800 45.87200
N  24.92400 -6.84200 46.70700
C  23.91000 -7.80000 46.86700
C  24.53100 -9.05900 47.55400
C  25.90200 -8.46100 48.06000
C  26.08700 -7.19500 47.34900
C  23.71900 -9.78200 48.66000
C  27.15300 -9.41700 47.76100
C  28.28300 -9.63400 48.75700
N  26.53700 -4.53600 46.04800
C  27.52300 -5.21200 46.69500
C  28.74600 -4.45100 46.64800
C  28.43400 -3.38600 45.75900
C  27.08100 -3.50200 45.40100
C  29.99900 -4.78300 47.31000
C  28.92100 -2.26700 45.08300
O  30.05400 -1.81600 45.05300
C  27.83400 -1.63700 44.31500
C  27.57700 -0.17200 44.61200
O  26.98900 0.24900 45.57100
O  28.26000 0.63200 43.67500
C  28.13400 2.09600 43.74100
H  21.20400 -3.38200 43.02900
H  22.21800 -8.82200 46.41800
H  28.08000 -6.80500 48.02300
H  25.29000 -0.60200 42.83300
H  22.86300 -2.04800 41.77000
H  23.26600 0.17300 43.69000
H  22.05500 -0.88600 44.23900
H  21.80400 -0.23700 42.61600
H  24.65900 -2.67800 40.72200
H  26.06400 -3.04500 41.57100
H  27.25500 -1.34100 40.40200
H  26.03900 -0.16500 40.74800
H  18.52400 -5.93100 43.45800
H  19.37700 -4.43400 43.03500
H  18.59200 -4.55600 44.60300
H  20.01000 -9.25900 46.92700
H  20.67700 -9.65300 45.44600
H  18.99400 -10.07900 45.72400
H  24.76100 -9.66000 46.67500
H  25.87500 -8.34300 49.14300
H  22.82300 -10.30900 48.33300
H  23.31000 -9.03300 49.33900
H  24.30000 -10.42600 49.32000
H  27.65100 -9.20300 46.81600
H  26.65000 -10.37400 47.62200
H  29.21000 -9.46200 48.20900
H  28.13800 -10.59700 49.24600
H  28.18600 -8.81100 49.46500
H  30.27300 -5.80200 47.03400
H  29.80800 -4.68100 48.37900
H  30.82200 -4.12400 47.03200
H  28.00800 -1.66200 43.23900
H  28.17600 2.33900 42.67900
H  28.82700 2.62400 44.39600
H  27.17100 2.34000 44.19200
Mg -0.70100 44.04500 26.33400
C  1.74400 43.74800 28.77400
C  -3.17900 43.83300 28.77000
C  -3.02700 43.87900 23.88100
C  1.75200 44.23400 23.90400
N  -0.67300 43.95900 28.53600
C  0.48400 43.78700 29.35100
C  0.05200 43.64800 30.79900
C  -1.47700 43.56600 30.67900
C  -1.79900 43.84200 29.20900
C  -2.15300 42.35100 31.37100
C  0.49000 44.96900 31.45400
C  0.13400 45.18700 32.87700
H  -0.12000 44.04700 33.84300
N  -2.80800 43.83900 26.35100
C  -3.62900 43.80700 27.43600
C  -4.95900 43.72000 27.00700
C  -4.98500 43.73100 25.58600
C  -3.58800 43.72500 25.17500
C  -6.11000 43.67200 27.98800
C  -6.15000 43.67300 24.61100
O  -6.03800 43.75300 23.36100
C  -7.64200 43.59600 25.12700
N  -0.64400 43.91000 24.20600
C  -1.72300 43.90400 23.43300
C  -1.41900 44.08000 21.98200
C  0.10400 44.48100 21.98400
C  0.48100 44.19600 23.46100
C  -1.59900 42.83900 21.08700
C  0.24300 45.96600 21.63900
C  1.62500 46.35800 21.05400
N  1.34700 44.05600 26.26600
C  2.23200 44.10800 25.23800
C  3.62000 44.00200 25.72500
C  3.42300 43.76200 27.10100
C  2.05300 43.83300 27.38800
C  4.84900 44.33900 25.01500
C  4.20100 43.56800 28.30700
O  5.39300 43.39600 28.51400
C  3.16200 43.63000 29.45700
C  3.24500 42.41300 30.30700
O  2.79900 41.30500 29.93100
O  3.80500 42.71200 31.52800
C  4.20800 41.56600 32.39600
H  -3.91900 43.59300 29.53700
H  -3.74200 43.77500 23.06200
H  2.50300 44.28900 23.11300
H  0.59400 42.86900 31.33500
H  -1.84500 44.46300 31.17700
H  -2.85100 41.79400 30.74600
H  -2.72600 42.69300 32.23300
H  -1.46000 41.57400 31.69200
H  -0.07900 45.72900 30.91900
H  1.55700 45.18700 31.40400
H  -0.72600 45.85600 32.86900
H  1.02600 45.72400 33.19900
H  -6.78600 44.45700 27.65000
H  -5.87200 43.89500 29.02800
H  -6.48700 42.65100 27.92700
H  -8.36600 43.32000 24.36000
H  -7.73600 44.62300 25.48000
H  -7.78300 42.82600 25.88600
H  -2.06800 44.88900 21.64700
H  0.60100 43.81400 21.28000
H  -1.28000 41.87800 21.49000
H  -1.07400 43.02700 20.15000
H  -2.65600 42.71100 20.85300
H  0.22900 46.60300 22.52300
H  -0.56800 46.30900 20.99600
H  2.39400 46.33000 21.82600
H  1.54700 47.31600 20.53900
H  1.89500 45.74000 20.19800
H  4.89200 43.63900 24.18000
H  5.74600 44.19700 25.61800
H  4.69000 45.37300 24.70700
H  3.37400 44.54200 30.01400
H  5.23500 41.62900 32.75400
H  4.11200 40.59000 31.91900
H  3.58900 41.59000 33.29300

