158

Mg 43.78000 42.64800 26.22000
C  42.63200 44.82400 28.90500
C  45.03600 40.59900 28.51700
C  44.61700 40.57700 23.75800
C  42.79700 45.10200 23.90300
N  43.79900 42.75200 28.51700
C  43.25600 43.67400 29.35800
C  43.37600 43.18400 30.87100
C  44.30000 41.90200 30.66900
C  44.42000 41.67000 29.16500
C  45.67300 42.04600 31.42100
C  41.99000 42.92000 31.52300
C  41.63800 43.66200 32.84300
H  42.68900 43.55000 34.02300
N  44.76700 40.92400 26.13000
C  45.24800 40.25100 27.17300
C  46.09900 39.08700 26.74300
C  45.85000 38.98200 25.35800
C  45.04700 40.18000 25.00100
C  46.97900 38.32100 27.69600
C  46.41600 37.96800 24.31500
O  46.27400 38.10100 23.09400
C  47.09800 36.86300 24.89200
N  43.78400 42.86800 24.21500
C  44.13600 41.85100 23.34500
C  44.00800 42.27600 21.87900
C  43.07400 43.51000 22.02700
C  43.19500 43.83500 23.48600
C  45.36700 42.57600 21.15700
C  41.53100 43.20100 21.62100
C  41.03400 41.67800 21.88600
N  42.90700 44.54800 26.32900
C  42.65600 45.45900 25.31800
C  42.10300 46.64600 25.85500
C  42.13800 46.41500 27.21600
C  42.65900 45.16500 27.49000
C  41.49100 47.79900 25.17100
C  41.76000 46.97200 28.44600
O  41.26600 48.08700 28.63100
C  42.01800 45.94500 29.60100
C  43.01000 46.62400 30.54100
O  44.22800 46.63800 30.58400
O  42.31700 47.33100 31.51900
C  43.11800 47.94500 32.53600
H  45.42000 39.91000 29.27200
H  44.74700 39.83800 22.96400
H  42.33300 45.77600 23.18100
H  43.85900 44.04100 31.34000
H  43.84800 40.96600 30.99600
H  46.50700 42.16500 30.73000
H  45.70000 41.15800 32.05200
H  45.65200 42.89700 32.10200
H  41.81600 41.85300 31.66600
H  41.29700 43.22500 30.73900
H  40.71100 43.15800 33.11700
H  41.52600 44.74500 32.78500
H  46.60500 37.33100 27.95600
H  47.07200 38.88800 28.62300
H  47.97000 38.15300 27.27600
H  46.93700 36.06200 24.17100
H  46.58600 36.52000 25.79100
H  48.11500 37.23800 25.01200
H  43.47800 41.45000 21.40400
H  43.37700 44.31200 21.35200
H  45.22000 42.08600 20.19400
H  46.23200 42.17100 21.68100
H  45.47900 43.65500 21.05000
H  41.53300 43.33700 20.54000
H  40.82000 43.84900 22.13600
H  40.84800 41.14600 20.95300
H  40.15500 41.60000 22.52600
H  41.71700 41.07100 22.48000
H  41.99300 48.05100 24.23700
H  41.41700 48.63900 25.86200
H  40.50000 47.48300 24.84500
H  41.07200 45.60900 30.02700
H  43.73300 47.15500 32.96700
H  42.49400 48.31800 33.34800
H  43.69000 48.71600 32.02000
Mg 27.38400 50.60500 27.06400
C  24.84100 51.22600 29.50600
C  29.44100 49.73800 29.50900
C  29.50700 49.57500 24.62000
C  25.10800 51.64800 24.73500
N  27.06200 50.33600 29.22700
C  26.01000 50.70700 30.01000
C  26.39400 50.47400 31.51900
C  27.91000 50.13100 31.46700
C  28.14100 50.00500 29.93900
C  28.85000 51.16300 32.16000
C  25.40200 49.38900 32.10500
C  24.56200 49.80700 33.37600
H  24.53900 48.90300 34.58200
N  29.28000 49.93100 27.04700
C  29.92600 49.64800 28.20500
C  31.30700 49.27100 27.88300
C  31.40800 49.19900 26.39700
C  30.06700 49.55600 25.92300
C  32.39300 48.94700 28.85300
C  32.48900 48.67900 25.55800
O  32.41300 48.83000 24.35400
C  33.80800 48.16400 26.01800
N  27.27800 50.55700 24.94000
C  28.30500 50.06300 24.11200
C  27.91400 50.05300 22.62600
C  26.59400 50.94700 22.66500
C  26.26500 51.08400 24.18100
C  28.95300 50.47400 21.50700
C  25.43300 50.52700 21.74100
C  24.29500 49.75600 22.32600
N  25.48700 51.40500 27.05900
C  24.68400 51.74000 26.03100
C  23.42700 52.32600 26.45600
C  23.46800 52.18500 27.84400
C  24.67300 51.55900 28.11600
C  22.33100 53.05600 25.60800
C  22.76000 52.41600 29.11500
O  21.75200 53.07500 29.42900
C  23.64900 51.75800 30.21300
C  23.82100 52.80100 31.30600
O  24.52700 53.81800 31.17200
O  22.96600 52.65000 32.32700
C  23.00700 53.58100 33.46800
H  30.11300 49.47500 30.32900
H  30.28800 49.29000 23.91200
H  24.46200 52.02700 23.94000
H  26.28900 51.42800 32.03600
H  27.94600 49.17000 31.98000
H  29.83200 51.05200 31.70100
H  28.83500 50.95500 33.23000
H  28.44100 52.16800 32.05900
H  25.87000 48.44900 32.39600
H  24.64000 49.03500 31.41100
H  23.52100 50.08800 33.21400
H  25.00000 50.73100 33.75300
H  32.33500 47.88000 29.07100
H  32.31800 49.57900 29.73800
H  33.35500 49.04200 28.34900
H  34.32700 48.92600 26.59800
H  34.48300 47.71800 25.28800
H  33.46300 47.37800 26.69000
H  27.62900 49.00400 22.54900
H  26.92400 51.92900 22.32800
H  29.51400 49.63900 21.08700
H  29.57700 51.34100 21.72300
H  28.43200 50.92400 20.66200
H  25.87300 49.89200 20.97200
H  25.07400 51.47700 21.34500
H  23.95700 49.03200 21.58500
H  23.55800 50.50600 22.61400
H  24.64300 49.22800 23.21300
H  22.21000 54.03700 26.06800
H  21.33200 52.63200 25.50700
H  22.66400 53.25500 24.58900
H  23.10800 50.92500 30.66200
H  23.72900 53.17500 34.17600
H  22.07200 53.64300 34.02500
H  23.36000 54.59200 33.26200

