158

Mg 40.37300 9.89800 29.00900
C  42.32700 11.18100 31.68400
C  38.11000 8.67900 31.35000
C  38.67600 8.47700 26.55600
C  43.04600 10.60300 26.86100
N  40.32200 9.72300 31.27800
C  41.15100 10.56400 32.08300
C  40.55100 10.52100 33.56600
C  39.41900 9.52000 33.42300
C  39.17600 9.34300 31.95300
C  39.71300 8.14300 34.19500
C  40.11300 11.96600 34.01700
C  40.44500 12.39600 35.48000
H  40.50100 13.94000 35.76700
N  38.62400 8.71700 28.90900
C  37.83600 8.34500 29.98400
C  36.74600 7.47900 29.47100
C  36.80000 7.58400 28.08400
C  38.03700 8.30000 27.77200
C  35.57400 7.02800 30.25800
C  35.77600 7.18100 26.97500
O  35.95500 7.45300 25.86700
C  34.44900 6.53900 27.42200
N  40.73900 9.72600 27.03500
C  39.89800 9.01800 26.24400
C  40.50800 8.74100 24.85300
C  41.92000 9.38900 24.90000
C  41.93100 9.93600 26.34700
C  40.57600 7.28400 24.33400
C  42.19100 10.53000 23.86700
C  41.82100 11.95200 24.27400
N  42.23600 10.80600 29.18000
C  43.23400 11.06600 28.25300
C  44.41700 11.77600 28.82100
C  44.05600 11.90500 30.12700
C  42.74000 11.23200 30.33200
C  45.68400 12.04600 28.14300
C  44.45500 12.34600 31.41400
O  45.53000 12.85000 31.77900
C  43.34700 12.01600 32.43400
C  43.92700 11.44700 33.63100
O  44.26600 10.30000 33.86100
O  43.88800 12.43100 34.59700
C  44.06200 11.83300 35.92200
H  37.41100 8.53000 32.17700
H  38.31100 7.82300 25.76100
H  43.98100 10.70800 26.30700
H  41.29200 10.14000 34.26800
H  38.55700 10.06400 33.81000
H  40.75400 8.04600 34.50200
H  39.63100 7.50200 33.31700
H  39.02000 7.81100 34.96800
H  39.04700 12.12800 33.86200
H  40.61100 12.66100 33.34000
H  41.46300 12.06600 35.68800
H  39.79000 11.82100 36.13500
H  35.80800 7.19800 31.30900
H  35.41900 5.95000 30.22000
H  34.67000 7.56500 29.96900
H  33.70900 7.20100 27.87000
H  34.56300 5.76600 28.18100
H  33.95200 6.03200 26.59500
H  39.91300 9.28500 24.12000
H  42.76100 8.70000 24.83000
H  40.08200 7.36600 23.36500
H  40.02700 6.65500 25.03400
H  41.57000 6.84200 24.39800
H  41.61400 10.36500 22.95800
H  43.27500 10.47800 23.76400
H  41.24100 12.52700 23.55200
H  42.69800 12.50900 24.60400
H  41.13800 11.89800 25.12200
H  45.87100 13.10400 28.32700
H  45.74700 12.13800 27.05900
H  46.45300 11.45500 28.64000
H  42.93100 13.00900 32.60700
H  45.05500 11.39500 36.02100
H  43.37100 11.00500 36.08000
H  43.99700 12.65800 36.63100
Mg -11.73500 37.74800 42.74100
C  -9.54000 35.17300 41.88700
C  -9.46300 39.95600 41.16000
C  -13.89500 40.02100 43.24100
C  -14.08000 35.24400 43.82500
N  -9.74300 37.56700 41.55500
C  -9.05100 36.40100 41.42000
C  -7.83600 36.64300 40.55800
C  -7.65100 38.15800 40.65800
C  -9.03900 38.62100 41.19600
C  -6.49800 38.78700 41.56000
C  -7.98500 35.99200 39.12100
C  -7.15000 36.59000 37.99800
H  -6.50600 35.59400 37.00200
N  -11.73100 39.71000 42.23000
C  -10.67800 40.42400 41.69200
C  -11.10900 41.83500 41.71900
C  -12.41000 41.90800 42.30600
C  -12.67900 40.48600 42.65100
C  -10.20000 42.95700 41.21000
C  -13.16500 43.12700 42.55700
O  -12.68100 44.20400 42.18600
C  -14.60300 43.24600 43.01700
N  -13.87800 37.63000 43.21400
C  -14.44000 38.79400 43.54900
C  -15.75200 38.59700 44.35300
C  -15.65700 37.04400 44.68400
C  -14.51600 36.60000 43.81600
C  -16.03600 39.43500 45.61300
C  -16.99600 36.21400 44.54100
C  -17.39900 35.42200 45.82400
N  -11.92500 35.67900 42.83400
C  -12.86800 34.80000 43.37000
C  -12.36100 33.43200 43.31800
C  -11.01000 33.53000 42.83500
C  -10.77900 34.92700 42.48600
C  -13.15900 32.17200 43.60400
C  -9.86000 32.78600 42.52600
O  -9.54200 31.61200 42.78200
C  -8.82800 33.80800 41.89100
C  -7.52700 33.85100 42.68400
O  -7.27500 34.63800 43.58300
O  -6.66900 32.90800 42.20500
C  -5.33200 32.86400 42.82000
H  -8.80300 40.68600 40.68700
H  -14.56300 40.81300 43.58900
H  -14.75700 34.49700 44.24500
H  -7.01200 36.09300 41.01400
H  -7.54300 38.56600 39.65300
H  -6.90600 39.26000 42.45300
H  -5.97300 39.57600 41.02300
H  -5.87200 37.95700 41.88800
H  -9.05900 35.97100 38.93600
H  -7.74800 34.92800 39.13200
H  -6.32500 37.04600 38.54500
H  -7.70300 37.39500 37.51400
H  -9.15800 42.63900 41.23300
H  -10.27000 43.94500 41.66600
H  -10.37000 43.17500 40.15500
H  -15.18300 42.47200 42.51400
H  -14.99100 44.17500 42.59800
H  -14.65900 43.10500 44.09600
H  -16.61000 38.80400 43.71300
H  -15.30300 36.91400 45.70700
H  -16.81400 40.16200 45.38100
H  -15.13900 40.00700 45.85200
H  -16.47600 38.89300 46.45000
H  -16.72100 35.56800 43.70700
H  -17.85300 36.81500 44.23500
H  -16.61100 35.60200 46.55400
H  -17.47900 34.34500 45.67300
H  -18.38800 35.78700 46.10100
H  -12.73600 31.42800 42.93000
H  -14.20900 32.32100 43.35100
H  -13.05400 31.89500 44.65300
H  -8.49000 33.48200 40.90700
H  -4.62100 32.41400 42.12800
H  -5.28100 32.24300 43.71500
H  -4.94600 33.84700 43.08900

