158

Mg 26.39800 0.13400 29.04800
C  28.11800 0.08000 32.26800
C  23.51100 0.78800 30.76600
C  24.73800 -0.07400 26.23400
C  29.24200 -1.05800 27.59900
N  25.94300 0.30800 31.28900
C  26.78100 0.34700 32.42600
C  26.02000 0.82300 33.68100
C  24.48300 0.89400 33.15000
C  24.58400 0.64700 31.59100
C  23.54800 -0.11500 33.90100
C  26.57100 2.13500 34.21300
C  26.02100 2.64100 35.54900
H  27.09100 2.81100 36.69900
N  24.33300 0.36300 28.54600
C  23.35200 0.66900 29.42900
C  22.09400 0.66700 28.74900
C  22.35700 0.45400 27.35800
C  23.83800 0.20600 27.30900
C  20.73800 1.02100 29.33100
C  21.51100 0.48400 26.11400
O  21.94200 0.24500 25.01800
C  20.08000 0.75400 26.26000
N  26.95000 -0.49000 27.20400
C  26.11100 -0.36000 26.16600
C  26.79000 -0.61500 24.83100
C  28.20400 -1.05900 25.26800
C  28.10100 -0.95800 26.81200
C  26.11400 -1.64700 23.89600
C  29.34100 -0.21800 24.57300
C  29.72600 -0.58300 23.14500
N  28.28700 -0.41800 29.74700
C  29.32700 -0.82100 28.99100
C  30.51600 -0.97300 29.81800
C  30.11500 -0.63400 31.14800
C  28.71300 -0.33500 31.01700
C  31.83300 -1.54300 29.30200
C  30.51500 -0.46500 32.53400
O  31.58000 -0.57100 33.09200
C  29.19800 0.07700 33.24100
C  28.88500 -0.91200 34.32000
O  28.60300 -2.10800 34.12500
O  28.94100 -0.25400 35.54600
C  28.87400 -1.08500 36.70200
H  22.67600 1.03500 31.42500
H  24.29500 -0.10600 25.23700
H  30.18900 -1.38900 27.16600
H  26.10100 0.07900 34.47400
H  24.14900 1.91400 33.34000
H  23.10500 0.36700 34.77200
H  24.24400 -0.85900 34.28900
H  22.77000 -0.47700 33.22900
H  26.40800 2.94500 33.50300
H  27.65500 2.14200 34.33000
H  25.20300 2.02100 35.91600
H  25.61700 3.63500 35.35800
H  20.51600 2.06900 29.13100
H  20.97100 0.99200 30.39600
H  19.88300 0.42300 29.01800
H  19.57700 0.77600 25.29300
H  20.04500 1.78300 26.61800
H  19.59400 -0.01700 26.85900
H  26.77900 0.38900 24.40600
H  28.36400 -2.12100 25.08300
H  25.23000 -1.97000 24.44400
H  26.81100 -2.39700 23.52000
H  25.74900 -1.07700 23.04100
H  30.34600 -0.26800 24.99200
H  29.08100 0.84000 24.57700
H  30.78400 -0.84200 23.09200
H  29.57200 0.31100 22.54100
H  29.18400 -1.43600 22.73700
H  31.59200 -2.22100 28.48300
H  32.27900 -2.00600 30.18200
H  32.51900 -0.77400 28.94700
H  29.40500 1.09400 33.57500
H  29.87100 -1.26400 37.10400
H  28.32400 -2.01600 36.56700
H  28.34500 -0.56600 37.50100
Mg 26.67000 50.45600 27.04300
C  24.52900 51.22600 29.73400
C  28.95600 49.57800 29.34300
C  28.73000 49.89200 24.53900
C  24.20000 51.68900 24.87800
N  26.67300 50.30700 29.35300
C  25.67200 50.62900 30.19400
C  26.05000 50.17800 31.62600
C  27.51100 49.76400 31.48500
C  27.77300 49.96900 29.99100
C  28.64200 50.48500 32.27900
C  25.03200 49.19500 32.34400
C  24.17200 49.74100 33.44400
H  24.36300 49.19300 34.85300
N  28.59900 49.94300 26.95200
C  29.35600 49.53000 28.00800
C  30.67800 49.06500 27.50700
C  30.67300 49.33800 26.10600
C  29.33200 49.79900 25.79400
C  31.66100 48.43700 28.39300
C  31.80700 48.97300 25.20200
O  31.69600 49.05300 23.94100
C  33.01300 48.40800 25.68500
N  26.39700 50.62400 25.05700
C  27.41600 50.22400 24.14800
C  26.84200 50.25900 22.69600
C  25.41000 50.81300 22.86000
C  25.30700 51.06700 24.32800
C  27.59000 50.95400 21.57100
C  24.26600 49.89900 22.26300
C  23.84100 50.47300 20.88000
N  24.79300 51.40600 27.25900
C  23.92000 51.90800 26.26400
C  22.68000 52.24900 26.85900
C  22.89500 52.06100 28.26000
C  24.18900 51.57500 28.41200
C  21.45500 52.61700 26.15800
C  22.24900 52.18500 29.51800
O  21.11700 52.60800 29.84100
C  23.32100 51.65500 30.55500
C  23.66900 52.79900 31.43400
O  24.30800 53.78200 31.07100
O  23.08500 52.68300 32.59900
C  23.26000 53.77300 33.60200
H  29.63500 49.34300 30.16500
H  29.33200 49.65600 23.65900
H  23.43900 52.03400 24.17600
H  26.10700 51.17800 32.05700
H  27.52900 48.68600 31.64700
H  29.25600 49.68400 32.69100
H  28.22000 51.12700 33.05100
H  29.23700 51.11500 31.61700
H  25.67100 48.40500 32.74000
H  24.39700 48.81700 31.54300
H  23.11100 49.57100 33.26100
H  24.40400 50.80600 33.46300
H  32.49900 49.11300 28.56300
H  32.03800 47.48000 28.03000
H  31.25600 48.04700 29.32700
H  33.74300 48.39600 24.87600
H  32.71900 47.43200 26.07000
H  33.31600 49.11700 26.45700
H  26.90400 49.17700 22.57800
H  25.36500 51.79700 22.39400
H  28.56000 51.40000 21.79300
H  26.95900 51.64800 21.01500
H  27.72600 50.05900 20.96400
H  23.47700 49.89200 23.01600
H  24.55500 48.86200 22.09400
H  24.23400 51.48300 20.76200
H  22.75300 50.53500 20.85000
H  24.18400 49.78200 20.11000
H  21.46500 52.20900 25.14700
H  21.36200 53.69700 26.05200
H  20.69900 52.17800 26.81000
H  22.83900 50.80600 31.03900
H  23.97300 54.55900 33.35300
H  23.72000 53.09500 34.32100
H  22.38300 54.34300 33.91000

