158

Mg 43.89700 5.43800 47.25800
C  41.87300 8.26000 46.69500
C  41.20300 3.42400 46.47800
C  46.05300 2.79200 47.12500
C  46.66000 7.50000 46.86500
N  41.71900 5.80400 46.57100
C  41.12700 7.03300 46.68300
C  39.68700 6.87700 46.47800
C  39.41400 5.34800 46.47700
C  40.86000 4.77400 46.55500
C  38.48300 4.75400 47.60100
C  39.04700 7.63900 45.31200
C  39.82800 7.70500 44.00700
H  39.24800 7.00500 42.74000
N  43.59000 3.36900 47.08100
C  42.46000 2.71900 46.71900
C  42.68800 1.33600 46.52100
C  44.01900 1.12400 46.92700
C  44.64700 2.45200 47.06100
C  41.68600 0.34900 46.11700
C  44.69200 -0.26300 47.09100
O  44.07400 -1.26200 46.96600
C  46.21300 -0.44600 47.41900
N  46.03400 5.21700 47.06500
C  46.66500 4.00800 47.14900
C  48.19400 4.11300 47.44000
C  48.37400 5.61900 47.04500
C  46.92200 6.16300 46.96300
C  48.61700 3.58000 48.86200
C  49.21300 5.89200 45.77900
C  48.98500 4.96100 44.54400
N  44.25500 7.42600 47.04300
C  45.40800 8.12700 46.81300
C  45.15400 9.57200 46.72200
C  43.74000 9.63700 46.78600
C  43.29000 8.32400 46.87900
C  46.16100 10.74100 46.66900
C  42.64200 10.58600 46.78500
O  42.63700 11.78700 46.62400
C  41.39900 9.65400 46.75600
C  40.62000 9.91900 47.92000
O  40.41200 9.25500 48.88400
O  40.07700 11.15500 47.70300
C  38.94600 11.41000 48.66100
H  40.36800 2.80800 46.13700
H  46.71300 1.92500 47.20400
H  47.56900 8.10500 46.83500
H  39.22100 7.27600 47.38000
H  38.96300 5.01300 45.54300
H  37.85200 3.95700 47.20800
H  37.96400 5.62700 47.99800
H  39.06100 4.34400 48.43000
H  38.91200 8.69600 45.53900
H  38.03800 7.23500 45.23300
H  40.86500 7.41400 44.17400
H  39.92000 8.77000 43.79300
H  42.10300 -0.27100 45.32400
H  40.72300 0.76100 45.81500
H  41.51900 -0.36800 46.92100
H  46.87600 -0.02900 46.66100
H  46.49400 -1.49900 47.40500
H  46.37800 0.00800 48.39600
H  48.77000 3.46100 46.78400
H  48.80100 6.16500 47.88600
H  47.84000 3.03100 49.39400
H  48.88200 4.49300 49.39500
H  49.54200 3.01600 48.75000
H  50.24200 5.83500 46.13300
H  49.04500 6.90800 45.42200
H  48.66900 5.51500 43.66000
H  48.20400 4.22300 44.72900
H  49.92900 4.44100 44.38300
H  46.63400 11.10100 47.58200
H  45.55300 11.56600 46.29900
H  46.90900 10.44700 45.93300
H  40.80600 9.91500 45.87900
H  38.29000 10.54000 48.66700
H  38.32700 12.18500 48.20900
H  39.16600 11.82700 49.64400
Mg -10.74700 38.34600 41.74300
C  -8.93900 35.60500 40.78500
C  -8.33200 40.43700 40.16900
C  -12.91800 40.90800 41.98600
C  -13.39500 36.12700 42.72900
N  -8.93300 38.01800 40.58700
C  -8.43000 36.80400 40.23800
C  -7.15400 36.94100 39.46100
C  -6.79700 38.45200 39.46200
C  -8.10300 39.04600 40.13000
C  -5.53900 38.92100 40.24700
C  -7.30600 36.34400 38.02400
C  -6.23800 35.26000 37.65400
H  -5.18700 35.61700 36.59500
N  -10.55600 40.40300 41.35400
C  -9.57200 41.06900 40.63900
C  -9.88300 42.49800 40.51700
C  -11.09700 42.72300 41.16100
C  -11.55600 41.31500 41.61900
C  -8.89900 43.49200 39.96300
C  -11.81500 44.14700 41.32800
O  -11.39100 45.15300 40.79600
C  -13.02200 44.23900 42.22000
N  -12.91500 38.40900 42.12500
C  -13.51300 39.64500 42.26900
C  -15.02500 39.46000 42.63800
C  -15.09600 37.91900 42.92200
C  -13.72400 37.45100 42.55900
C  -15.70900 40.42500 43.73600
C  -16.28700 37.20700 42.19300
C  -16.18500 36.94700 40.66200
N  -11.04500 36.22600 41.85600
C  -12.19800 35.52200 42.34600
C  -11.71700 34.14400 42.57800
C  -10.37400 34.10500 41.97400
C  -10.07900 35.39900 41.54400
C  -12.48000 33.00600 43.20900
C  -9.19300 33.26600 41.60700
O  -8.96200 32.06800 41.81000
C  -8.28300 34.20300 40.75500
C  -6.89400 34.20900 41.34500
O  -5.91100 33.52700 40.95800
O  -6.77300 35.19700 42.32900
C  -5.40000 35.44900 42.75200
H  -7.65400 41.03900 39.56000
H  -13.69300 41.67700 41.97000
H  -14.08100 35.42000 43.20000
H  -6.25600 36.55200 39.94200
H  -6.65700 38.92200 38.48800
H  -5.68900 39.93800 40.60800
H  -4.63400 38.90100 39.64000
H  -5.47700 38.30000 41.14000
H  -7.21400 37.16000 37.30700
H  -8.34000 36.06500 37.82500
H  -6.87000 34.41600 37.37700
H  -5.71200 34.99100 38.57000
H  -9.03400 44.40300 40.54500
H  -9.02200 43.57600 38.88300
H  -7.96800 42.96300 40.16400
H  -12.96900 43.52200 43.04000
H  -13.91400 44.03300 41.62900
H  -13.07500 45.25500 42.61100
H  -15.63700 39.77700 41.79300
H  -15.14000 37.92300 44.01100
H  -16.35800 39.90500 44.44100
H  -16.37400 41.14100 43.25200
H  -15.02500 40.91400 44.42900
H  -17.18400 37.80500 42.35300
H  -16.50900 36.28900 42.73900
H  -16.44800 37.89000 40.18300
H  -16.86000 36.13400 40.39700
H  -15.19500 36.59300 40.37500
H  -12.12800 32.01500 42.92400
H  -13.55300 32.98600 43.01800
H  -12.32200 33.06300 44.28600
H  -8.38100 33.90400 39.71200
H  -4.84900 34.52000 42.90000
H  -5.36100 35.94200 43.72300
H  -4.92000 36.07600 42.00100

