158

Mg 46.91300 24.77700 28.70400
C  47.71900 27.19200 31.17800
C  45.76900 22.77500 31.22000
C  46.41700 22.45900 26.51400
C  48.26000 26.87900 26.26500
N  46.76400 24.97300 30.87900
C  47.07800 26.02600 31.69200
C  46.83700 25.81900 33.17500
C  46.32600 24.35800 33.20000
C  46.34500 23.93700 31.69800
C  47.22100 23.26700 33.88600
C  45.69800 26.73700 33.72400
C  45.77200 27.28800 35.14300
H  46.01800 26.40700 36.35900
N  46.13100 22.90800 28.78100
C  45.68100 22.26300 29.90300
C  45.18500 20.94200 29.54200
C  45.32100 20.83100 28.13600
C  45.94000 22.06900 27.72400
C  44.63600 19.87000 30.52100
C  44.79800 19.66100 27.22700
O  45.06400 19.63200 26.06000
C  44.10000 18.51700 27.86000
N  47.47200 24.62700 26.57400
C  47.00600 23.59100 25.88900
C  47.22500 23.78300 24.38500
C  47.55700 25.28300 24.30500
C  47.74300 25.67100 25.83600
C  48.29100 22.80300 23.92200
C  46.54100 26.28500 23.64300
C  45.04800 25.93200 23.60400
N  47.80100 26.63600 28.63000
C  48.30500 27.37900 27.57400
C  48.81600 28.67000 28.08500
C  48.62100 28.62300 29.50100
C  48.02800 27.36000 29.77800
C  49.32600 29.69900 27.23400
C  48.78000 29.38300 30.78800
O  49.25900 30.50000 30.97700
C  48.19600 28.42400 31.90200
C  49.31500 28.22400 32.91800
O  50.38800 27.60000 32.72600
O  48.96200 28.74900 34.10300
C  49.84200 28.59000 35.26600
H  45.43600 22.15400 32.05500
H  46.14700 21.64400 25.83900
H  48.68400 27.61800 25.58200
H  47.68600 26.13900 33.77800
H  45.33800 24.14600 33.61000
H  47.81300 23.87300 34.57200
H  47.76000 22.50200 33.32800
H  46.61500 22.66400 34.56200
H  44.76000 26.18500 33.67900
H  45.59900 27.56700 33.02400
H  44.76400 27.67600 35.29400
H  46.38000 28.18400 35.27500
H  45.06400 18.87000 30.44800
H  43.55900 19.70000 30.52200
H  44.77000 20.14000 31.56800
H  44.80800 17.82300 28.31300
H  43.57300 17.94700 27.09500
H  43.29400 18.69500 28.57200
H  46.37100 23.47300 23.78400
H  48.50200 25.41300 23.77700
H  48.40400 22.06000 24.71100
H  49.22500 23.26000 23.59300
H  47.92500 22.30300 23.02600
H  46.93400 26.46900 22.64300
H  46.67900 27.20300 24.21300
H  44.79100 25.04200 24.17900
H  44.77300 25.68400 22.57900
H  44.39400 26.70200 24.01300
H  49.08100 29.58800 26.17800
H  50.38900 29.70800 27.47700
H  48.94500 30.67700 27.52700
H  47.42000 28.90500 32.49700
H  50.31000 29.54800 35.49300
H  50.59400 27.87400 34.93500
H  49.28100 28.15800 36.09500
Mg 9.58100 47.41500 27.59200
C  7.32400 47.28000 30.29500
C  11.99100 48.28400 29.89000
C  11.83600 47.72500 25.01500
C  7.03700 47.13200 25.33500
N  9.63500 47.89500 29.85500
C  8.63000 47.67700 30.75000
C  9.08100 47.92600 32.16700
C  10.52000 48.31000 32.00500
C  10.73800 48.19100 30.49800
C  10.97900 49.65600 32.62700
C  8.82600 46.81000 33.09600
C  9.81400 46.55600 34.27000
H  9.32700 45.65600 35.42400
N  11.58100 48.00100 27.43400
C  12.41200 48.22100 28.50400
C  13.73700 48.40300 28.02600
C  13.70000 48.24900 26.64600
C  12.35300 48.01900 26.29600
C  14.94600 48.70400 28.91500
C  14.84300 48.49900 25.65000
O  14.74100 48.46000 24.46600
C  16.25000 48.79700 26.16100
N  9.49500 47.53000 25.41400
C  10.51000 47.46800 24.61800
C  10.09200 47.33800 23.15300
C  8.49500 47.22100 23.23800
C  8.31700 47.28200 24.70800
C  10.64900 48.40000 22.19700
C  7.92700 45.87100 22.65400
C  7.60800 45.90300 21.10700
N  7.58200 47.15100 27.76100
C  6.63100 47.14500 26.75500
C  5.32800 47.03500 27.38300
C  5.57700 46.98600 28.76100
C  6.96600 47.20700 28.91600
C  4.05200 46.80900 26.76800
C  4.93900 46.84000 30.04600
O  3.72300 46.72000 30.31700
C  6.06300 46.89800 31.08100
C  6.15400 45.52400 31.69400
O  6.70900 44.52200 31.21800
O  5.61000 45.61200 32.96800
C  5.68600 44.35000 33.78100
H  12.73800 48.73400 30.54600
H  12.52400 47.74600 24.16700
H  6.25900 47.07600 24.57100
H  8.47300 48.75200 32.53700
H  11.09500 47.54900 32.53300
H  10.12000 50.20400 33.01300
H  11.52500 50.22900 31.87700
H  11.62900 49.37500 33.45600
H  8.63300 45.83400 32.65000
H  7.94500 47.09300 33.67300
H  9.95500 47.54900 34.69700
H  10.77500 46.16500 33.93900
H  14.61200 48.52100 29.93600
H  15.22400 49.74900 28.78500
H  15.78000 48.03400 28.70100
H  16.89000 49.10200 25.33400
H  16.73500 47.88700 26.51500
H  16.24900 49.65200 26.83800
H  10.47100 46.42200 22.69900
H  8.03300 48.08400 22.75700
H  11.29000 48.99400 22.84800
H  9.82500 48.93600 21.72700
H  11.22900 47.93300 21.40000
H  7.01800 45.58600 23.18500
H  8.70100 45.11900 22.80600
H  7.80400 46.90200 20.71500
H  6.58400 45.62200 20.86100
H  8.26500 45.17600 20.63000
H  3.51100 47.64400 27.21400
H  3.60300 45.84100 26.99100
H  4.06200 46.92400 25.68400
H  5.77700 47.66900 31.79600
H  6.30200 43.60300 33.27900
H  4.64100 44.05300 33.86300
H  5.94500 44.60000 34.81000

