158

Mg -2.28900 16.64500 25.66100
C  -2.52300 14.50500 28.39800
C  -4.07500 18.92500 27.49500
C  -2.23600 18.68100 23.03000
C  -1.40700 13.89300 23.57800
N  -3.06300 16.71600 27.76600
C  -2.96500 15.74300 28.75000
C  -3.54500 16.23000 30.11300
C  -4.30700 17.49800 29.70700
C  -3.78100 17.75200 28.23300
C  -5.83200 17.15500 29.54500
C  -2.39900 16.50000 31.14700
C  -2.41400 15.69000 32.46400
H  -2.52500 16.42000 33.80200
N  -2.82600 18.65400 25.42800
C  -3.60000 19.40100 26.24900
C  -3.73100 20.72000 25.70500
C  -3.15400 20.70600 24.35700
C  -2.67700 19.29100 24.23500
C  -4.39600 21.85700 26.46000
C  -3.11000 21.78600 23.35900
O  -2.55500 21.62300 22.26100
C  -3.65200 23.29800 23.58300
N  -1.88600 16.26800 23.57900
C  -1.84900 17.36900 22.73400
C  -1.28000 16.98900 21.35600
C  -1.00000 15.45600 21.53600
C  -1.35700 15.15400 23.03900
C  -2.27700 17.11100 20.16500
C  0.43900 15.22800 21.15600
C  1.49600 15.71200 22.28500
N  -2.07700 14.60700 25.87200
C  -1.81000 13.57900 24.91900
C  -1.94700 12.29300 25.57200
C  -2.12500 12.59700 26.94500
C  -2.26100 13.99900 27.06900
C  -1.88200 10.96100 24.95000
C  -2.30000 12.06700 28.30700
O  -2.31400 10.91800 28.65900
C  -2.49800 13.28700 29.26600
C  -1.38700 13.23300 30.17000
O  -0.30400 13.77000 30.05300
O  -1.71600 12.38900 31.16200
C  -0.84000 12.21000 32.32500
H  -4.80200 19.49900 28.07400
H  -2.14800 19.39200 22.20600
H  -1.21500 13.11300 22.83900
H  -4.30800 15.52200 30.43800
H  -4.20300 18.36100 30.36500
H  -6.01200 16.46100 28.72400
H  -6.42100 18.06100 29.40800
H  -6.24300 16.91200 30.52500
H  -2.42000 17.55000 31.43900
H  -1.37800 16.30700 30.81800
H  -1.45200 15.19000 32.57400
H  -3.18900 14.92800 32.54200
H  -5.48600 21.85200 26.42800
H  -4.03100 22.88200 26.38500
H  -4.06500 21.78700 27.49600
H  -3.44700 24.04400 22.81500
H  -3.09100 23.68600 24.43300
H  -4.71000 23.43800 23.80200
H  -0.40000 17.62500 21.25400
H  -1.67900 14.84800 20.93700
H  -3.23500 17.36600 20.62000
H  -2.42900 16.25300 19.51000
H  -1.84000 17.96100 19.64100
H  0.82700 15.76600 20.29200
H  0.44700 14.16600 20.91100
H  0.98400 15.91500 23.22500
H  1.99000 16.60600 21.90400
H  2.27200 14.95900 22.41900
H  -0.82700 10.71300 24.83300
H  -2.33500 11.03300 23.96100
H  -2.29500 10.30700 25.71700
H  -3.39800 13.26300 29.88000
H  0.02800 11.60500 32.06400
H  -1.26400 11.69600 33.18800
H  -0.47400 13.20200 32.58900
Mg -6.08100 25.70600 26.35600
C  -4.14900 27.27300 28.88100
C  -7.07300 23.38200 28.78500
C  -7.55200 24.00800 23.96000
C  -4.48600 27.72900 24.03900
N  -5.56200 25.29700 28.54600
C  -4.95800 26.21900 29.34300
C  -5.45500 25.99200 30.80700
C  -5.99300 24.53100 30.79500
C  -6.28100 24.39100 29.30800
C  -4.97500 23.42500 31.35900
C  -6.42600 27.08400 31.31100
C  -6.63000 27.08400 32.83600
H  -5.81700 26.07000 33.65900
N  -7.16900 23.95600 26.36900
C  -7.47600 23.16600 27.43800
C  -8.29400 22.01400 26.97500
C  -8.53300 22.16200 25.57300
C  -7.77400 23.40400 25.24600
C  -8.90600 20.95500 27.95000
C  -9.31300 21.27700 24.56100
O  -9.44100 21.55700 23.36200
C  -9.99800 20.01200 25.01900
N  -6.16700 25.91800 24.36600
C  -6.87000 25.12000 23.49100
C  -6.86100 25.65900 22.01700
C  -5.60500 26.56800 22.01700
C  -5.33100 26.74000 23.57400
C  -6.90600 24.55900 20.89000
C  -5.84800 27.98700 21.41300
C  -5.25000 28.12500 20.00500
N  -4.60400 27.20500 26.38000
C  -4.08200 27.97900 25.37100
C  -3.12700 28.95800 25.94100
C  -3.17100 28.71100 27.32400
C  -4.06800 27.65000 27.51400
C  -2.18800 29.91900 25.36900
C  -2.60400 29.11900 28.58200
O  -1.86300 29.99800 28.97300
C  -3.14900 28.11900 29.69800
C  -1.92700 27.38800 30.21700
O  -1.34500 26.41400 29.66400
O  -1.78500 27.75300 31.54500
C  -1.03900 26.83400 32.42300
H  -7.47500 22.75100 29.58000
H  -8.12800 23.38600 23.27200
H  -3.90100 28.31800 23.33000
H  -4.53700 26.18400 31.36200
H  -6.91200 24.53400 31.38100
H  -4.69500 22.88800 30.45300
H  -5.56300 22.78700 32.01900
H  -4.06000 23.78800 31.82700
H  -7.35700 26.88900 30.77800
H  -6.15200 27.99200 30.77400
H  -7.70400 27.08000 33.02400
H  -6.39800 28.06600 33.24800
H  -9.98100 20.90000 27.77800
H  -8.66000 21.11400 28.99900
H  -8.52600 19.96200 27.70900
H  -10.72500 20.22500 25.80200
H  -9.32100 19.19600 25.27300
H  -10.58500 19.59400 24.20100
H  -7.77200 26.24000 21.87400
H  -4.81200 26.01500 21.51300
H  -7.93000 24.39400 20.55200
H  -6.60100 23.58300 21.27000
H  -6.19900 24.90400 20.13600
H  -5.50700 28.77600 22.08300
H  -6.91700 28.18100 21.32700
H  -4.87900 27.13500 19.73900
H  -4.35600 28.71500 20.20500
H  -5.91500 28.42300 19.19400
H  -2.62700 30.91500 25.31900
H  -1.71300 29.64100 24.42900
H  -1.34000 30.10100 26.03100
H  -3.68600 28.57700 30.52900
H  -0.00700 27.17700 32.49000
H  -1.03900 25.83000 31.99700
H  -1.59000 26.92600 33.35900

