158

Mg 35.14300 3.15100 30.30100
C  32.91400 3.91700 32.73100
C  37.67500 2.87200 32.80100
C  37.56800 2.65700 27.93700
C  32.77100 3.61900 27.81600
N  35.20400 3.38800 32.48800
C  34.12500 3.72900 33.26400
C  34.53000 3.84100 34.76700
C  36.13100 3.92400 34.64200
C  36.37100 3.35500 33.22100
C  36.64200 5.37500 34.90600
C  34.02600 2.62800 35.50800
C  33.65400 2.85700 36.93500
H  34.29300 4.03800 37.80200
N  37.29500 2.71300 30.39000
C  38.08700 2.56000 31.53400
C  39.35600 2.12700 31.08700
C  39.43800 2.15300 29.71700
C  38.05900 2.51100 29.25800
C  40.31900 1.60700 32.18800
C  40.62700 1.73800 28.76300
O  40.52400 1.89500 27.58200
C  41.89900 1.23500 29.50900
N  35.26800 3.28100 28.20200
C  36.26100 2.88000 27.44900
C  35.93300 2.93500 25.92700
C  34.36400 2.86700 25.92300
C  34.09100 3.25900 27.38800
C  36.63400 4.03800 25.16500
C  33.92900 1.35700 25.82500
C  33.60000 0.94500 24.38100
N  33.24900 3.55400 30.18500
C  32.35200 3.75700 29.10400
C  31.01600 4.15000 29.61100
C  31.14500 4.09000 31.00400
C  32.55100 3.82000 31.34300
C  29.89700 4.42100 28.69900
C  30.42900 4.39300 32.21800
O  29.24300 4.53400 32.42600
C  31.54200 4.30500 33.36900
C  31.50800 5.64300 33.86700
O  31.63700 6.70000 33.25700
O  31.09700 5.71100 35.18200
C  30.85600 7.00600 35.90300
H  38.40100 2.73900 33.60600
H  38.26700 2.48400 27.11500
H  31.99300 3.44000 27.07100
H  34.09600 4.73700 35.21100
H  36.67000 3.27900 35.33600
H  35.77600 6.01400 34.73800
H  37.44200 5.68600 34.23400
H  36.98100 5.54100 35.92900
H  34.67200 1.79600 35.22600
H  33.01200 2.44800 35.15100
H  34.08000 2.04000 37.51700
H  32.56900 2.90700 37.02800
H  41.12700 0.99600 31.78500
H  39.80100 0.98200 32.91600
H  40.85300 2.39900 32.71300
H  42.29100 1.92500 30.25600
H  42.65500 1.19600 28.72500
H  41.66600 0.22400 29.84300
H  36.43400 2.03300 25.57500
H  33.81800 3.46000 25.19000
H  35.92000 4.52200 24.50000
H  37.43000 3.55700 24.59600
H  37.18700 4.78600 25.73400
H  32.96200 1.24900 26.31600
H  34.60600 0.59100 26.20400
H  33.91500 1.76500 23.73500
H  32.56700 0.67500 24.16300
H  34.23200 0.07900 24.18300
H  29.02800 4.61800 29.32700
H  29.73000 3.52000 28.11000
H  30.07900 5.35900 28.17500
H  31.39100 3.59500 34.18200
H  29.86100 7.09800 36.33800
H  31.09100 7.90900 35.34000
H  31.54500 7.07000 36.74600
Mg -9.93100 39.09600 39.47700
C  -9.16900 35.84100 38.84600
C  -6.72300 40.04100 38.35400
C  -11.02400 42.25800 39.44800
C  -13.30700 38.11800 40.30300
N  -8.20000 38.08000 38.67100
C  -8.08400 36.68300 38.54700
C  -6.60800 36.29800 38.12000
C  -5.82700 37.65800 38.22900
C  -7.00000 38.66300 38.44300
C  -4.67700 37.69900 39.27900
C  -6.58500 35.63900 36.73000
C  -7.12300 36.47700 35.52100
H  -8.21100 35.84000 34.61900
N  -9.03800 40.83900 38.89000
C  -7.71500 41.05700 38.53100
C  -7.58000 42.50700 38.27100
C  -8.80100 43.17500 38.42800
C  -9.68500 42.07000 38.97600
C  -6.21700 43.10700 37.89300
C  -9.00600 44.70600 38.15300
O  -8.24300 45.31800 37.45300
C  -10.43000 45.35200 38.50100
N  -11.94200 40.07600 40.02200
C  -12.04600 41.39800 39.94900
C  -13.49900 41.88500 40.31300
C  -14.18200 40.54400 40.72700
C  -13.12200 39.49000 40.35000
C  -13.65300 42.96500 41.44200
C  -15.55000 40.21500 40.09100
C  -16.81900 40.86300 40.66400
N  -11.06800 37.41200 39.52100
C  -12.44100 37.12000 39.83800
C  -12.66600 35.69100 39.82500
C  -11.40300 35.18700 39.38300
C  -10.46800 36.23600 39.17400
C  -13.81400 34.89100 40.16400
C  -10.75000 33.93300 38.92900
O  -11.18300 32.82100 38.74500
C  -9.26800 34.29700 38.58100
C  -8.40900 33.48800 39.46900
O  -8.55200 33.30600 40.68100
O  -7.35800 32.93400 38.72800
C  -6.50900 32.06300 39.49800
H  -5.70100 40.39800 38.21800
H  -11.25700 43.31300 39.61000
H  -14.27000 37.73000 40.64200
H  -6.23300 35.67900 38.93400
H  -5.39300 37.78000 37.23700
H  -3.82900 38.22100 38.83500
H  -4.38200 36.70700 39.62000
H  -4.94000 38.35800 40.10700
H  -7.16100 34.71400 36.69500
H  -5.55500 35.31500 36.58500
H  -6.26400 36.71100 34.89200
H  -7.61300 37.38900 35.86000
H  -6.16200 44.06100 38.41600
H  -6.06300 43.22300 36.82000
H  -5.41100 42.47000 38.25600
H  -10.51000 45.48500 39.58000
H  -11.10100 44.65900 37.99300
H  -10.53600 46.31900 38.00900
H  -13.98200 42.21900 39.39500
H  -14.35300 40.57000 41.80300
H  -14.17900 43.88200 41.17700
H  -12.58900 43.07300 41.65100
H  -14.08500 42.60500 42.37600
H  -15.68100 39.13400 40.11100
H  -15.36200 40.38000 39.03000
H  -16.63000 41.44400 41.56700
H  -17.46100 40.05300 41.01200
H  -17.33100 41.34900 39.83500
H  -13.75700 33.94500 39.62400
H  -14.67700 35.49400 39.88100
H  -13.83400 34.61500 41.21800
H  -9.23600 34.01800 37.52800
H  -5.86400 32.73200 40.06700
H  -5.95700 31.40100 38.83000
H  -7.16900 31.47600 40.13800

