158

Mg 2.32800 -1.45200 43.89200
C  5.72400 -0.83200 43.38700
C  1.68300 1.49300 42.23200
C  -0.80200 -2.45000 44.05100
C  3.33800 -4.81600 45.00600
N  3.57300 0.20200 43.07800
C  4.92100 0.21100 42.95300
C  5.39600 1.57800 42.44100
C  4.05200 2.44000 42.40100
C  3.05100 1.25000 42.44600
C  3.84400 3.49600 43.58600
C  6.07300 1.59700 40.98300
C  5.45100 0.70200 39.90400
H  5.03400 1.48300 38.68800
N  0.71000 -0.63400 43.15000
C  0.57200 0.58600 42.51800
C  -0.81300 0.68900 42.07200
C  -1.57200 -0.22000 42.85800
C  -0.55700 -1.17300 43.41200
C  -1.41000 1.87000 41.26500
C  -3.01000 -0.29000 42.88000
O  -3.69500 0.52500 42.30300
C  -3.79400 -1.34000 43.54000
N  1.41000 -3.38800 44.46300
C  0.06000 -3.44500 44.39500
C  -0.39600 -4.86800 44.77500
C  0.93400 -5.66800 45.01500
C  1.94100 -4.54500 44.81500
C  -1.35300 -4.87300 46.04200
C  1.08500 -6.97300 44.17200
C  1.52400 -8.17500 44.98000
N  4.13500 -2.65300 44.21800
C  4.34300 -3.89700 44.73700
C  5.77600 -3.98900 44.88100
C  6.31500 -2.88300 44.23700
C  5.29500 -2.05800 43.90500
C  6.46300 -5.24300 45.44700
C  7.58000 -2.31000 43.77400
O  8.71700 -2.68600 43.80500
C  7.27800 -0.92400 43.19800
C  7.94100 0.11000 44.03200
O  8.73900 0.91100 43.56600
O  7.29800 0.28800 45.24700
C  7.39700 1.68800 45.81400
H  1.36900 2.36200 41.65100
H  -1.79800 -2.84600 44.26100
H  3.79500 -5.70200 45.45200
H  6.12400 2.16200 43.00400
H  3.94800 3.00800 41.47700
H  3.11900 3.05400 44.27000
H  3.22800 4.34200 43.28100
H  4.79900 3.69700 44.07000
H  7.10200 1.26100 41.10800
H  6.09500 2.62300 40.61600
H  4.63600 0.14900 40.37100
H  6.19400 -0.07000 39.70100
H  -1.88800 1.41100 40.39900
H  -0.62200 2.47900 40.82200
H  -2.06500 2.52700 41.83700
H  -3.37000 -1.47800 44.53400
H  -3.69200 -2.25200 42.95200
H  -4.84300 -1.04900 43.59900
H  -0.92200 -5.24100 43.89600
H  0.96000 -5.99000 46.05600
H  -1.41600 -5.81300 46.59200
H  -2.34700 -4.50000 45.79900
H  -0.90400 -4.10300 46.66900
H  1.85800 -6.92900 43.40500
H  0.11900 -7.29900 43.78700
H  1.01900 -9.09300 44.67900
H  1.38600 -8.14600 46.06100
H  2.59800 -8.27400 44.82500
H  7.35100 -4.92400 45.99300
H  6.77600 -5.86400 44.60800
H  5.77400 -5.65600 46.18400
H  7.63700 -0.96700 42.17000
H  7.96900 1.72600 46.74100
H  6.34300 1.83800 46.05100
H  7.71500 2.41100 45.06400
Mg 17.27700 -1.62500 27.17800
C  16.14000 0.23100 29.98000
C  19.07100 -3.64400 29.18700
C  18.59900 -3.14100 24.40000
C  15.54600 0.60500 25.14700
N  17.37900 -1.79100 29.38700
C  16.90300 -0.89200 30.28500
C  17.43300 -1.26200 31.66900
C  18.57000 -2.26800 31.31300
C  18.38200 -2.60700 29.87400
C  19.99100 -1.75300 31.75500
C  16.34700 -1.61300 32.76100
C  16.66800 -1.25500 34.23800
H  18.07100 -0.82600 34.70400
N  18.44100 -3.28300 26.85400
C  19.03600 -4.03000 27.85300
C  19.50200 -5.27700 27.16100
C  19.48000 -5.06500 25.75000
C  18.83500 -3.77300 25.61900
C  20.07600 -6.35900 28.04900
C  19.83400 -6.01000 24.66700
O  19.48700 -5.83800 23.47300
C  20.66300 -7.14300 24.91600
N  17.17700 -1.15900 25.15000
C  17.88700 -1.92400 24.15400
C  17.73700 -1.26100 22.80000
C  16.55000 -0.30100 23.04200
C  16.33200 -0.32800 24.54600
C  19.05200 -0.48000 22.35600
C  15.33300 -0.64000 22.20700
C  15.17100 0.21400 20.98400
N  16.06500 0.13000 27.44900
C  15.33100 0.86000 26.49800
C  14.50000 1.80700 27.22600
C  14.86800 1.70100 28.60600
C  15.78500 0.60100 28.67600
C  13.61600 2.70900 26.59200
C  14.68500 2.18300 29.92600
O  13.88000 3.02200 30.25400
C  15.52700 1.28500 30.92300
C  16.50400 2.21100 31.67500
O  17.64700 2.46000 31.28400
O  16.02600 2.55600 32.86200
C  16.97400 3.16400 33.82000
H  19.62000 -4.25500 29.90600
H  19.05700 -3.38300 23.43800
H  15.05000 1.36100 24.53600
H  17.87600 -0.37200 32.11300
H  18.49300 -3.21200 31.85300
H  19.92500 -0.69700 32.01600
H  20.60100 -1.90500 30.86400
H  20.32300 -2.18200 32.70100
H  16.14900 -2.68200 32.67700
H  15.42100 -1.09400 32.51500
H  16.37500 -2.21900 34.65400
H  15.99500 -0.46300 34.56800
H  21.16000 -6.31300 28.15600
H  19.70100 -7.32100 27.69800
H  19.64700 -6.20100 29.03800
H  20.11300 -7.96600 25.37300
H  21.45300 -6.71600 25.53400
H  21.12100 -7.51700 24.00100
H  17.44200 -1.99400 22.04900
H  16.82600 0.71900 22.77300
H  19.72500 -0.56600 23.20900
H  18.71900 0.48700 21.97900
H  19.34200 -1.01600 21.45300
H  14.41500 -0.56400 22.79000
H  15.24500 -1.66400 21.84600
H  16.06000 0.74000 20.63600
H  14.36300 0.93500 21.11000
H  14.93200 -0.30600 20.05700
H  12.63900 2.36300 26.92900
H  13.66700 2.61400 25.50700
H  13.75600 3.72000 26.97400
H  14.83700 0.85900 31.65200
H  17.21800 4.15100 33.42800
H  17.93400 2.64800 33.79800
H  16.59600 3.04100 34.83500

