158

Mg 44.32000 3.18200 48.20200
C  42.11300 5.79900 47.37600
C  41.58500 1.05000 47.58400
C  46.42200 0.56700 48.14600
C  47.08400 5.44400 47.67700
N  42.06700 3.45800 47.41300
C  41.37700 4.59500 47.37700
C  39.87800 4.29100 46.99700
C  39.72600 2.81900 47.38500
C  41.22900 2.37900 47.41000
C  38.98500 2.55600 48.78000
C  39.61300 4.63800 45.50900
C  38.68600 5.80600 45.20900
H  39.03100 6.79400 44.01600
N  44.03400 1.04700 48.11600
C  42.84800 0.38100 47.88500
C  43.16200 -1.00700 47.88900
C  44.51500 -1.20100 47.97700
C  45.08600 0.15600 48.09600
C  42.10900 -2.02500 47.70500
C  45.34100 -2.49800 47.94100
O  44.80500 -3.60700 47.80600
C  46.81900 -2.55400 48.16100
N  46.39400 3.09900 48.07300
C  47.03800 1.89000 48.11600
C  48.59600 2.01600 47.87700
C  48.82800 3.54400 47.99300
C  47.37100 4.06100 47.89700
C  49.43000 1.27900 48.94300
C  49.86900 4.17400 47.06300
C  51.05100 3.24300 46.53900
N  44.57400 5.23100 47.70200
C  45.76400 6.06300 47.61000
C  45.27700 7.39400 47.38000
C  43.89200 7.31600 47.26500
C  43.54000 5.96200 47.43600
C  46.33400 8.51400 47.08800
C  42.82000 8.17600 47.04400
O  42.76500 9.42900 46.98100
C  41.57400 7.18900 47.07700
C  40.70000 7.74700 48.16000
O  40.70500 7.29000 49.29400
O  39.88400 8.75200 47.64500
C  38.66800 9.01900 48.47200
H  40.72600 0.40200 47.39900
H  47.28200 -0.10500 48.09400
H  47.89600 6.16100 47.53600
H  39.34100 4.98200 47.64600
H  39.24500 2.10800 46.71400
H  38.67900 3.46000 49.30800
H  39.72500 2.04000 49.39200
H  38.22900 1.77300 48.71800
H  39.20700 3.77300 44.98500
H  40.61300 4.69900 45.08100
H  38.55000 6.41400 46.10300
H  37.75100 5.36400 44.86200
H  41.17400 -1.64300 47.29600
H  41.99500 -2.61400 48.61500
H  42.32100 -2.83400 47.00500
H  47.42900 -2.05300 47.41000
H  47.10100 -3.60700 48.17400
H  47.03500 -2.16000 49.15400
H  48.93100 1.81700 46.85900
H  49.16000 3.75700 49.00900
H  48.81800 1.02800 49.80900
H  50.21500 1.91500 49.35200
H  49.93200 0.45800 48.43200
H  50.32200 4.97800 47.64300
H  49.39100 4.68200 46.22600
H  51.33900 2.59500 47.36700
H  51.95900 3.78700 46.27800
H  50.72000 2.75400 45.62300
H  47.22900 8.19500 46.55400
H  46.59200 9.00300 48.02700
H  45.82300 9.26300 46.48300
H  41.10600 7.33100 46.10200
H  38.53100 8.66800 49.49500
H  37.81500 8.54700 47.98600
H  38.36800 10.06600 48.42400
Mg -1.18500 34.66900 26.51900
C  -2.58700 32.90600 29.37800
C  -0.09400 37.04900 28.80200
C  -0.31900 36.35400 23.91600
C  -2.79000 32.31500 24.62400
N  -1.42600 34.94100 28.90100
C  -1.88500 34.09700 29.81700
C  -1.71100 34.68700 31.22000
C  -0.87200 35.92100 30.97100
C  -0.80500 35.99200 29.43200
C  -1.45100 37.23700 31.56000
C  -1.01200 33.69400 32.16800
C  -1.56700 33.49700 33.56500
H  -0.78000 33.19500 34.85200
N  -0.29700 36.36200 26.41300
C  0.09800 37.23100 27.42000
C  0.84000 38.33800 26.82100
C  0.90400 38.15400 25.42300
C  0.06800 36.95200 25.20500
C  1.58200 39.34200 27.68400
C  1.61600 39.08100 24.39200
O  1.33200 38.96700 23.20700
C  2.42900 40.34300 24.76700
N  -1.67400 34.46200 24.54600
C  -1.08700 35.21300 23.59200
C  -1.51600 34.79900 22.19500
C  -2.08100 33.37100 22.51600
C  -2.28100 33.43500 24.00200
C  -2.55400 35.66500 21.51700
C  -1.24000 32.13000 21.99400
C  0.05600 31.75900 22.76000
N  -2.45900 32.91100 26.86400
C  -3.04700 32.15800 25.95600
C  -3.84200 31.10900 26.56500
C  -3.66800 31.36400 27.92800
C  -2.87600 32.51800 28.07700
C  -4.52300 30.04200 25.81200
C  -3.93100 30.79100 29.19600
O  -4.36300 29.67900 29.54000
C  -3.38200 31.83100 30.21100
C  -4.44900 32.48300 30.94600
O  -5.34200 33.14600 30.52000
O  -4.36000 32.10900 32.27000
C  -5.35300 32.73700 33.19900
H  0.36800 37.85200 29.38000
H  -0.06200 36.94800 23.03600
H  -3.05300 31.53400 23.90700
H  -2.67100 34.99900 31.63200
H  0.16900 35.72900 31.23200
H  -1.90500 37.82500 30.76300
H  -0.69500 37.76900 32.13700
H  -2.19200 37.02900 32.33100
H  0.02900 33.91700 32.40400
H  -0.92500 32.75500 31.62200
H  -2.39600 32.79200 33.51100
H  -2.09400 34.42800 33.77300
H  2.65900 39.26100 27.53300
H  1.31300 39.36900 28.74000
H  1.16100 40.28700 27.33900
H  1.67700 41.06500 25.08500
H  2.93600 40.69700 23.86900
H  3.15500 40.18400 25.56400
H  -0.61500 34.64000 21.60300
H  -3.06800 33.20100 22.08600
H  -2.17100 35.94100 20.53400
H  -2.54000 36.60800 22.06400
H  -3.50100 35.15300 21.34800
H  -0.72500 32.40300 21.07300
H  -1.87900 31.27400 21.77400
H  0.12700 32.30700 23.70000
H  0.97200 31.95500 22.20300
H  0.10100 30.69300 22.98300
H  -4.18000 30.05900 24.77700
H  -5.60500 30.17700 25.83400
H  -4.23500 29.12900 26.33300
H  -2.71700 31.27000 30.86800
H  -4.91700 33.30900 34.01800
H  -5.83700 31.86600 33.64000
H  -6.03600 33.42300 32.69800

