158

Mg -10.06600 37.32300 42.33600
C  -7.91600 34.81500 41.53100
C  -7.94900 39.71200 41.30100
C  -12.55400 39.79100 42.68700
C  -12.58800 34.96600 42.84000
N  -8.12300 37.24500 41.58300
C  -7.43200 36.10300 41.22900
C  -6.07700 36.47800 40.65900
C  -5.97000 38.04400 40.72800
C  -7.44300 38.38000 41.28300
C  -4.79500 38.67200 41.56700
C  -5.91900 35.95100 39.20000
C  -4.50100 35.57700 38.78600
H  -4.05200 35.99900 37.31800
N  -10.22400 39.48500 42.01700
C  -9.19500 40.24800 41.62500
C  -9.53900 41.57800 41.50500
C  -10.81400 41.67700 42.15000
C  -11.24700 40.24700 42.36000
C  -8.62900 42.62200 40.92500
C  -11.61600 42.94300 42.48000
O  -11.08800 44.04000 42.18800
C  -12.93700 42.96000 43.25400
N  -12.21300 37.40500 42.81500
C  -12.98200 38.47600 42.77100
C  -14.44300 38.13300 42.86100
C  -14.51500 36.61300 42.84600
C  -13.00300 36.31000 42.79600
C  -15.11200 38.67200 44.17800
C  -15.35300 36.01500 41.72800
C  -16.18700 34.74000 42.11800
N  -10.21000 35.29900 42.40100
C  -11.23300 34.46000 42.71100
C  -10.75100 33.10300 42.73700
C  -9.45500 33.21200 42.15000
C  -9.20900 34.57200 42.05900
C  -11.42400 31.86100 43.16000
C  -8.39200 32.47800 41.57700
O  -8.28900 31.30500 41.24400
C  -7.27600 33.47000 41.24000
C  -6.00500 33.21800 42.09400
O  -5.05800 32.49000 41.75000
O  -5.99800 33.96100 43.25100
C  -4.73600 34.07500 44.03800
H  -7.23000 40.47500 40.99700
H  -13.28200 40.60500 42.66900
H  -13.40800 34.24500 42.81300
H  -5.33900 36.10100 41.36700
H  -5.85000 38.56200 39.77700
H  -3.92600 38.01900 41.64800
H  -5.14800 38.96500 42.55600
H  -4.38200 39.49100 40.97800
H  -6.27600 36.76500 38.56800
H  -6.50700 35.04100 39.07800
H  -4.36800 34.49900 38.87200
H  -3.77500 36.04900 39.44800
H  -8.60200 42.75800 39.84400
H  -7.59700 42.38600 41.18400
H  -8.83800 43.62200 41.30500
H  -13.08800 43.92300 43.74000
H  -12.87700 42.30300 44.12200
H  -13.69600 42.63400 42.54300
H  -14.91700 38.46600 41.93800
H  -14.93800 36.21900 43.77000
H  -14.44100 39.17900 44.87100
H  -15.67800 37.90600 44.70900
H  -15.87100 39.38600 43.85900
H  -14.79400 35.72400 40.83900
H  -16.06300 36.77700 41.40800
H  -17.24800 34.89800 41.92800
H  -16.07400 34.48900 43.17300
H  -15.83100 33.98000 41.42300
H  -11.33600 31.75000 44.24100
H  -11.00400 31.05100 42.56300
H  -12.50200 31.99600 43.08000
H  -7.05300 33.43100 40.17400
H  -3.89700 33.78000 43.40700
H  -4.84900 33.49900 44.95600
H  -4.42200 35.10700 44.19300
Mg -1.37900 33.58700 26.50300
C  -3.19000 31.98200 29.10500
C  -0.22700 35.81500 29.01400
C  0.04700 35.50500 24.18800
C  -3.29400 31.91800 24.17700
N  -1.62600 33.76000 28.80300
C  -2.34700 32.96600 29.67900
C  -2.28200 33.42100 31.06800
C  -1.42900 34.74200 30.98900
C  -1.09000 34.81000 29.50000
C  -2.20500 35.95500 31.52700
C  -1.63700 32.37800 32.08700
C  -2.33600 32.39300 33.54400
H  -1.37200 32.17800 34.72400
N  -0.21000 35.35100 26.61000
C  0.20100 36.09500 27.65800
C  1.14400 37.09200 27.25100
C  1.17100 37.10900 25.84100
C  0.30000 35.97700 25.49500
C  1.81300 38.06300 28.23300
C  1.86100 38.12000 24.92100
O  1.77100 38.10400 23.73400
C  2.73400 39.13200 25.56000
N  -1.72800 33.82000 24.49500
C  -0.86700 34.53600 23.73900
C  -1.12000 34.28900 22.23600
C  -2.03700 32.95700 22.26000
C  -2.36000 32.91400 23.70100
C  -1.85900 35.47500 21.55400
C  -1.42000 31.64900 21.68400
C  -0.95400 30.47700 22.65000
N  -2.82800 32.12200 26.53000
C  -3.60300 31.58300 25.53900
C  -4.50200 30.58100 26.13100
C  -4.33800 30.68600 27.50800
C  -3.38700 31.61800 27.72700
C  -5.50500 29.90700 25.40200
C  -4.84300 30.18000 28.73900
O  -5.71800 29.39500 29.08700
C  -3.99200 30.93500 29.86600
C  -5.00900 31.50300 30.72600
O  -5.55000 32.58200 30.74700
O  -5.18600 30.59000 31.73400
C  -5.96900 30.95700 32.97800
H  0.14300 36.51200 29.76900
H  0.59100 36.03700 23.40500
H  -3.69200 31.26500 23.39800
H  -3.30200 33.67300 31.35800
H  -0.44600 34.68900 31.45700
H  -1.58300 36.48000 32.25200
H  -3.08500 35.64800 32.09300
H  -2.52800 36.68800 30.78900
H  -0.64300 32.71200 32.38400
H  -1.52700 31.38400 31.65400
H  -3.08800 31.60500 33.50900
H  -2.90300 33.31300 33.68400
H  1.98200 37.56000 29.18500
H  1.18400 38.94700 28.34100
H  2.84800 38.35700 28.05900
H  3.64900 38.72300 25.98800
H  2.20700 39.73000 26.30300
H  3.18400 39.76700 24.79700
H  -0.16300 34.21800 21.71800
H  -3.02400 33.04200 21.80600
H  -1.47500 35.74200 20.56900
H  -2.00000 36.32800 22.21800
H  -2.86300 35.07300 21.42600
H  -0.42200 31.86000 21.29900
H  -1.99200 31.33500 20.81100
H  -0.61700 30.88300 23.60400
H  -0.00400 30.11800 22.25400
H  -1.63400 29.63300 22.76300
H  -5.04600 28.98600 25.04200
H  -5.79200 30.54000 24.56400
H  -6.38800 29.69500 26.00400
H  -3.41500 30.21400 30.44400
H  -6.93500 31.30500 32.61100
H  -5.49500 31.78600 33.50400
H  -6.21900 30.10800 33.61400

