158

Mg 24.23600 1.89700 29.72900
C  26.59500 1.51600 32.20700
C  21.77800 2.24600 32.09900
C  22.02700 2.10400 27.22700
C  26.75300 1.01800 27.26500
N  24.22200 1.86200 31.81500
C  25.26000 1.74400 32.69800
C  24.83200 1.95800 34.06800
C  23.30400 2.02900 34.00900
C  23.08400 1.92100 32.54800
C  22.56900 1.03200 34.96600
C  25.52300 3.19100 34.73500
C  25.74900 3.12000 36.22000
H  25.07200 4.19900 37.13800
N  22.18300 2.02500 29.71100
C  21.29600 2.30400 30.80300
C  20.00400 2.57000 30.28400
C  19.99200 2.39100 28.82600
C  21.45000 2.19100 28.47000
C  18.87400 3.10500 31.08300
C  18.87000 2.30300 27.81100
O  19.01600 2.28600 26.61700
C  17.52900 2.46300 28.21900
N  24.34000 1.49500 27.52900
C  23.31100 1.84800 26.74500
C  23.66400 1.90500 25.26200
C  25.19500 1.63100 25.31200
C  25.47900 1.30100 26.82500
C  22.77600 1.03400 24.28600
C  26.07100 2.75300 24.71100
C  26.31800 4.06000 25.52200
N  26.25700 1.31800 29.70700
C  27.09800 0.96000 28.68400
C  28.40800 0.83200 29.21700
C  28.20700 0.90400 30.63700
C  26.91000 1.25000 30.85100
C  29.65800 0.68800 28.38400
C  28.83200 0.89700 31.90800
O  29.99000 0.56500 32.10800
C  27.85800 1.35900 32.99600
C  27.77000 0.22900 33.94900
O  27.46000 -0.89300 33.62000
O  28.14200 0.60900 35.21700
C  28.22200 -0.41900 36.24900
H  21.17600 2.53700 32.96200
H  21.32200 2.48600 26.48600
H  27.58700 0.98300 26.56100
H  25.07500 0.98700 34.49900
H  22.98200 3.01800 34.33400
H  22.19100 0.16500 34.42500
H  21.82200 1.56500 35.55500
H  23.37100 0.74400 35.64600
H  24.98200 4.08600 34.42700
H  26.46600 3.39900 34.23100
H  26.81000 3.08100 36.46800
H  25.33500 2.15300 36.50400
H  19.09500 2.97100 32.14200
H  17.95000 2.57800 30.84600
H  18.82800 4.17600 30.88300
H  17.37600 3.38800 28.77500
H  17.38500 1.57300 28.83200
H  16.87600 2.35600 27.35300
H  23.53000 2.94000 24.94800
H  25.50300 0.72400 24.79300
H  21.91500 0.58800 24.78500
H  23.30800 0.27900 23.70800
H  22.39500 1.80200 23.61200
H  25.61800 2.99200 23.74900
H  27.06100 2.34500 24.50500
H  26.16900 3.85600 26.58200
H  25.74500 4.91200 25.15600
H  27.37400 4.32600 25.48300
H  29.61500 -0.27000 27.86600
H  30.50500 0.79100 29.06200
H  29.70300 1.51100 27.67100
H  28.17600 2.23800 33.55500
H  28.42800 -1.40600 35.83300
H  27.37300 -0.38100 36.93200
H  29.13100 -0.26200 36.83000
Mg 47.79400 16.80500 28.66500
C  45.93900 16.37500 31.71700
C  50.18200 18.57700 30.48000
C  48.96500 18.06600 25.79000
C  44.91200 15.67600 26.94300
N  48.01200 17.26100 30.91500
C  47.19200 16.99400 31.95800
C  47.81500 17.38700 33.25600
C  48.99500 18.39100 32.80900
C  49.10900 18.04400 31.27900
C  48.91100 19.84300 33.19700
C  48.20700 16.02100 33.97500
C  48.26600 16.02500 35.56200
H  47.94100 17.30300 36.42000
N  49.51100 17.85900 28.21500
C  50.43500 18.36600 29.14000
C  51.60000 18.89100 28.32900
C  51.23700 18.87900 26.92200
C  49.86100 18.24900 26.90600
C  52.88800 19.39500 29.02500
C  52.01100 19.38900 25.71000
O  51.53100 19.45000 24.57100
C  53.42700 19.58700 25.85600
N  46.94500 16.82700 26.64800
C  47.74900 17.33900 25.65500
C  47.09500 17.17100 24.32700
C  45.99600 16.08200 24.64600
C  45.88700 16.22200 26.17400
C  46.45200 18.51300 23.76000
C  46.47400 14.66900 24.29000
C  45.44900 13.90600 23.42600
N  45.89800 16.04800 29.24700
C  44.80300 15.73600 28.38100
C  43.65900 15.39600 29.13400
C  44.06600 15.57200 30.45000
C  45.47300 16.02500 30.49200
C  42.31200 14.83500 28.58900
C  43.60900 15.51600 31.79400
O  42.51700 15.21700 32.30400
C  44.79600 16.01300 32.69200
C  44.18600 17.11300 33.40800
O  44.06200 18.31500 33.06100
O  43.71700 16.55600 34.63200
C  42.92800 17.54300 35.36500
H  51.00500 19.10700 30.96300
H  49.35400 18.47900 24.85700
H  44.06800 15.14700 26.49500
H  47.17500 17.90200 33.97300
H  49.96100 18.10300 33.22300
H  49.74100 19.83600 33.90400
H  47.96400 20.03700 33.70000
H  49.21900 20.56900 32.44500
H  49.25900 15.77300 33.83300
H  47.60000 15.20000 33.59400
H  49.26600 15.69300 35.83800
H  47.71100 15.14600 35.88900
H  52.91000 20.48400 29.06300
H  53.77300 19.05500 28.48700
H  52.95300 18.99000 30.03500
H  53.49100 20.35400 26.62800
H  53.80500 19.90900 24.88600
H  53.91000 18.70100 26.27000
H  47.73900 16.82900 23.51600
H  45.03300 16.27500 24.17400
H  46.63700 19.24800 24.54300
H  45.39500 18.31600 23.58200
H  46.79300 18.81300 22.76900
H  46.59900 14.07300 25.19400
H  47.39500 14.66100 23.70700
H  44.99300 14.64200 22.76300
H  44.65200 13.53600 24.07000
H  45.81400 13.04900 22.86000
H  42.46800 13.78100 28.35700
H  41.92200 15.50400 27.82200
H  41.67700 14.75700 29.47100
H  45.12000 15.18200 33.31900
H  42.38500 17.13600 36.21800
H  42.08600 18.06400 34.90800
H  43.60100 18.36400 35.61000

