158

Mg 25.01700 1.27900 29.73500
C  27.11100 1.05500 32.54300
C  22.36800 1.31200 31.83600
C  23.07700 1.41300 27.01900
C  27.77700 0.81100 27.69000
N  24.80900 1.17100 31.92300
C  25.74300 1.17300 32.90500
C  25.19000 1.32700 34.30500
C  23.64400 1.24600 34.05900
C  23.56800 1.12500 32.51900
C  22.82000 0.29800 34.90100
C  25.71800 2.56600 35.02300
C  26.51900 2.41900 36.32000
H  26.24100 3.42400 37.47200
N  22.98300 1.25700 29.52100
C  22.04200 1.37800 30.47500
C  20.76500 1.62300 29.85300
C  20.96100 1.75100 28.43100
C  22.38400 1.44200 28.21100
C  19.43200 1.69800 30.55800
C  19.99200 2.15500 27.33900
O  20.39200 2.30300 26.14700
C  18.51200 2.39200 27.66800
N  25.36400 1.04600 27.67100
C  24.35500 1.14800 26.78300
C  24.85600 1.15100 25.29700
C  26.48800 1.10200 25.46600
C  26.56400 0.96700 26.98500
C  24.28400 -0.05300 24.48100
C  27.25800 2.27100 24.84400
C  27.06400 3.73500 25.42700
N  27.05400 0.92400 30.01400
C  28.03700 0.78900 29.07900
C  29.29700 0.59600 29.75500
C  29.06000 0.70600 31.14700
C  27.64500 0.93900 31.26500
C  30.64500 0.31800 29.14500
C  29.59200 0.60100 32.52500
O  30.72000 0.32000 32.92900
C  28.36300 1.01000 33.52200
C  28.24600 -0.11200 34.51500
O  27.75100 -1.21700 34.25400
O  28.76400 0.29700 35.69500
C  28.97400 -0.88300 36.57000
H  21.56400 1.45600 32.56100
H  22.47700 1.62000 26.13000
H  28.63300 0.80700 27.01300
H  25.37500 0.40600 34.85800
H  23.21100 2.22800 34.25100
H  23.43900 -0.27000 35.59500
H  22.36600 -0.42300 34.22200
H  22.02000 0.78700 35.45700
H  24.85700 3.21200 35.19400
H  26.33400 3.13800 34.32900
H  27.55000 2.59100 36.00900
H  26.60400 1.38300 36.64800
H  19.61700 1.15700 31.48600
H  18.63900 1.13500 30.06600
H  19.09600 2.72900 30.65900
H  18.36400 3.13700 28.45000
H  17.96600 1.46900 27.86100
H  18.15300 2.90200 26.77400
H  24.63200 2.14400 24.90700
H  26.87700 0.19700 24.99800
H  24.96900 -0.83500 24.15300
H  23.82800 0.33600 23.57000
H  23.51300 -0.47200 25.12700
H  26.79500 2.30400 23.85800
H  28.32700 2.06600 24.78000
H  26.53400 3.62100 26.37200
H  26.43800 4.22900 24.68400
H  27.93000 4.35500 25.65700
H  30.62900 0.85200 28.19500
H  30.61500 -0.72700 28.83800
H  31.52800 0.47400 29.76500
H  28.45200 1.98100 34.00900
H  28.03400 -1.14400 37.05700
H  29.64900 -0.68200 37.40200
H  29.49800 -1.70700 36.08500
Mg 27.02100 51.27600 25.26000
C  25.08600 52.05200 28.09600
C  29.38700 49.99900 27.43400
C  28.92100 50.58900 22.52000
C  24.55800 52.48900 23.29600
N  27.25900 51.22900 27.57800
C  26.30300 51.48700 28.48600
C  26.77100 51.12400 29.90900
C  28.23200 50.64900 29.68300
C  28.37200 50.58700 28.15000
C  29.45100 51.46200 30.31500
C  25.93300 50.01400 30.56100
C  25.48600 50.24300 32.05800
H  26.54100 50.62300 33.12900
N  28.90000 50.59900 25.03900
C  29.67400 49.95500 26.01200
C  30.88200 49.43800 25.44900
C  30.81700 49.74600 24.04600
C  29.52300 50.42400 23.79400
C  31.93600 48.77200 26.22200
C  31.87100 49.47800 22.97900
O  31.83300 49.96900 21.88400
C  33.04800 48.64400 23.28700
N  26.83100 51.56900 23.16400
C  27.66900 51.06400 22.21800
C  27.18200 51.23500 20.81200
C  25.81000 51.95300 21.05800
C  25.63400 51.99200 22.60300
C  28.09300 51.99800 19.79400
C  24.54600 51.41000 20.29800
C  23.50800 50.50500 21.04400
N  25.21300 52.19900 25.57900
C  24.30500 52.57400 24.64500
C  23.16600 53.18300 25.32300
C  23.33600 52.92400 26.66500
C  24.68500 52.31000 26.78900
C  21.98900 53.80600 24.60100
C  22.83500 53.10500 28.01400
O  21.81500 53.63400 28.43800
C  23.87900 52.43600 29.01900
C  24.28800 53.40500 30.02100
O  25.20600 54.16500 29.86900
O  23.61100 53.13700 31.13600
C  24.07700 53.65000 32.41900
H  30.13200 49.57700 28.11100
H  29.50100 50.39800 21.61400
H  23.73700 52.88000 22.69200
H  26.77700 52.04000 30.49900
H  28.47700 49.62000 29.94400
H  30.12100 51.78400 29.51800
H  30.07400 50.75000 30.85700
H  29.01500 52.24300 30.93800
H  26.49200 49.08100 30.49900
H  25.07400 49.73200 29.95200
H  24.82400 49.41300 32.30400
H  24.81600 51.10100 32.00200
H  32.10900 47.72400 25.97600
H  31.74500 48.76500 27.29500
H  32.86100 49.30500 26.00200
H  33.77400 49.13500 23.93600
H  33.54500 48.28500 22.38600
H  32.69700 47.75500 23.81100
H  27.06800 50.22700 20.41300
H  25.82400 53.03100 20.89500
H  27.48000 52.71600 19.24900
H  28.44000 51.27200 19.05900
H  28.99600 52.44700 20.21000
H  24.90200 50.83300 19.44400
H  24.06400 52.29700 19.88500
H  23.90800 50.01500 21.93200
H  23.21100 49.76200 20.30400
H  22.59000 51.03300 21.30100
H  21.04800 53.77800 25.15100
H  21.83700 53.29300 23.65200
H  22.16500 54.86100 24.39200
H  23.47400 51.57000 29.54300
H  24.05500 52.88500 33.19400
H  23.42900 54.46200 32.75200
H  25.10000 54.02400 32.44100

