158

Mg 1.76100 -2.19500 43.58200
C  5.11600 -1.26400 43.48600
C  0.92600 0.66800 41.92000
C  -1.34000 -3.40900 43.22500
C  2.69000 -5.33200 44.94200
N  2.88500 -0.51300 42.71000
C  4.23000 -0.44400 42.74300
C  4.68200 0.89300 42.03900
C  3.31500 1.64400 41.80600
C  2.32400 0.59400 42.21900
C  3.12000 3.02200 42.55000
C  5.62400 0.72700 40.82700
C  6.58600 1.90800 40.60300
H  6.36800 2.76300 39.32500
N  0.07400 -1.49000 42.75800
C  -0.09100 -0.29800 42.14300
C  -1.46600 -0.16600 41.72100
C  -2.14600 -1.33100 42.09200
C  -1.11800 -2.14200 42.69400
C  -2.06000 1.02300 41.04200
C  -3.63200 -1.59900 41.80400
O  -4.23900 -0.66100 41.32000
C  -4.32100 -2.91500 42.03800
N  0.87600 -4.16100 43.83300
C  -0.46300 -4.31800 43.76300
C  -0.93800 -5.75600 44.09500
C  0.40800 -6.35100 44.72800
C  1.38500 -5.17300 44.51200
C  -2.22400 -5.94000 44.92000
C  0.89000 -7.74500 44.32800
C  1.30100 -8.64300 45.49000
N  3.51600 -3.16200 44.21700
C  3.72900 -4.37200 44.78500
C  5.18600 -4.48000 45.08300
C  5.67600 -3.27400 44.68000
C  4.62500 -2.50800 44.10800
C  5.85500 -5.72000 45.65900
C  6.90200 -2.49400 44.65800
O  7.97600 -2.76500 45.12100
C  6.63900 -1.14500 43.82700
C  6.86400 0.06000 44.69800
O  6.52400 0.19400 45.82500
O  7.53100 0.98300 43.94200
C  7.71500 2.32200 44.45400
H  0.67800 1.62900 41.46600
H  -2.35300 -3.80700 43.30800
H  2.90700 -6.21300 45.55000
H  5.20300 1.45600 42.81300
H  3.22500 1.83600 40.73700
H  2.23400 3.54500 42.19000
H  3.94500 3.71400 42.37900
H  2.99000 2.82700 43.61500
H  4.90000 0.66200 40.01400
H  6.33500 -0.09600 40.89600
H  7.60800 1.53400 40.55000
H  6.42200 2.55800 41.46300
H  -2.51600 0.87100 40.06400
H  -1.29200 1.79400 40.97800
H  -2.79400 1.34700 41.78000
H  -5.27300 -2.87300 41.50900
H  -4.47900 -3.18400 43.08200
H  -3.67600 -3.66800 41.58400
H  -1.18700 -6.08500 43.08700
H  0.29600 -6.35400 45.81200
H  -2.83500 -6.69900 44.43100
H  -2.71700 -4.96800 44.91700
H  -2.05400 -6.31600 45.92900
H  1.74400 -7.69500 43.65100
H  0.05000 -8.07600 43.71700
H  0.77900 -9.57700 45.28300
H  1.04000 -8.26700 46.47900
H  2.37900 -8.80200 45.52600
H  5.71200 -6.56900 44.99100
H  5.27400 -6.01800 46.53200
H  6.92000 -5.59400 45.85100
H  7.24700 -1.21200 42.92500
H  7.51700 2.49200 45.51300
H  6.94200 2.93300 43.98800
H  8.70000 2.67300 44.15000
Mg 1.08100 43.29400 26.47600
C  3.30500 43.17300 29.14200
C  -1.36500 42.40300 28.64000
C  -0.89500 42.88600 23.72300
C  3.77400 43.75600 24.26400
N  0.95000 42.91200 28.70200
C  2.00000 42.91700 29.54700
C  1.63000 42.64200 31.02900
C  0.20400 42.13500 30.79300
C  -0.16700 42.55400 29.31900
C  -0.10200 40.71000 31.16000
C  1.62800 43.96500 31.87900
C  1.38200 43.93000 33.38400
H  1.11100 42.60100 34.09600
N  -0.87800 42.86500 26.20500
C  -1.69600 42.50800 27.24200
C  -3.01800 42.27300 26.69300
C  -2.92200 42.55100 25.24500
C  -1.51000 42.78600 25.00300
C  -4.10800 41.64100 27.48900
C  -3.99400 42.42900 24.13300
O  -3.81800 42.52300 22.89900
C  -5.46300 42.08600 24.56000
N  1.41900 43.23200 24.29400
C  0.45200 43.08000 23.33700
C  0.95000 43.26400 21.86500
C  2.40500 43.76100 22.13200
C  2.59200 43.56000 23.65200
C  0.81400 41.93600 20.98300
C  2.71200 45.26300 21.73700
C  4.02800 45.44700 20.92300
N  3.09900 43.57600 26.62200
C  4.07900 43.76500 25.69000
C  5.32200 43.91300 26.34800
C  5.08400 43.63800 27.63200
C  3.70000 43.47400 27.80900
C  6.63200 44.14900 25.65400
C  5.77200 43.49000 28.92700
O  6.93100 43.48600 29.19400
C  4.58900 43.16200 29.89800
C  4.85200 41.91300 30.61200
O  5.20500 40.92800 30.04100
O  4.66300 42.10300 31.97100
C  5.21300 41.21000 33.02200
H  -2.14100 41.97600 29.27700
H  -1.61500 42.84500 22.90300
H  4.67400 44.04100 23.71500
H  2.23400 41.88200 31.52400
H  -0.46300 42.79800 31.34500
H  0.73000 40.20900 31.65500
H  -0.27000 40.18400 30.22000
H  -1.05000 40.59900 31.68600
H  0.91800 44.68700 31.47500
H  2.63300 44.36500 31.74600
H  0.44300 44.48000 33.45700
H  2.14600 44.54400 33.86000
H  -5.07400 41.56800 26.98900
H  -4.19000 42.22300 28.40700
H  -3.84700 40.61600 27.75300
H  -5.90400 42.60600 25.41100
H  -5.37300 41.06900 24.93900
H  -6.15000 42.05900 23.71400
H  0.33600 44.07600 21.47500
H  3.09800 43.03100 21.71500
H  0.80900 41.09800 21.68000
H  1.76300 41.86900 20.45200
H  -0.09000 41.98900 20.37600
H  2.75400 45.88200 22.63300
H  1.93800 45.50300 21.00800
H  4.48800 44.46600 20.79900
H  4.53200 46.28600 21.40200
H  3.83300 45.86400 19.93500
H  7.34300 44.42700 26.43200
H  6.60300 44.96600 24.93300
H  7.05300 43.24400 25.21500
H  4.35800 43.98300 30.57600
H  4.43200 40.67400 33.56100
H  5.70900 41.80700 33.78700
H  5.92000 40.54600 32.52500

