158

Mg 6.49700 53.88600 41.51900
C  5.72000 50.47800 41.31100
C  9.63900 53.08900 40.32000
C  7.05200 57.10500 41.03500
C  3.14400 54.46900 42.51000
N  7.50500 51.98900 40.84400
C  6.97800 50.73200 40.71700
C  8.00200 49.70600 40.18000
C  9.33500 50.51800 40.13400
C  8.80600 51.96800 40.45800
C  10.58900 50.02700 41.00400
C  7.50100 49.23700 38.73900
C  8.09100 49.87500 37.49300
H  7.45200 49.47400 36.21100
N  8.09200 54.98600 40.70500
C  9.27600 54.46400 40.34100
C  10.13800 55.53100 39.95800
C  9.39600 56.68000 40.19100
C  8.13500 56.32000 40.65000
C  11.62100 55.25900 39.59200
C  9.91600 58.07600 39.87900
O  11.07700 58.15500 39.39300
C  9.14300 59.36500 40.10500
N  5.19600 55.49300 41.44400
C  5.76600 56.73400 41.39700
C  4.59800 57.72000 41.66100
C  3.32300 56.93200 42.07000
C  3.87300 55.48700 41.87500
C  4.96100 58.74700 42.80500
C  2.00500 57.31900 41.36800
C  1.59200 56.34600 40.26000
N  4.72400 52.78500 41.93000
C  3.48600 53.13200 42.42900
C  2.71200 51.89000 42.79000
C  3.55900 50.86100 42.38500
C  4.78900 51.39500 41.89400
C  1.36500 51.81600 43.34100
C  3.58500 49.47700 42.34700
O  2.78800 48.60700 42.76800
C  4.90100 49.13800 41.55200
C  4.53300 48.56600 40.23600
O  3.83400 49.10000 39.39800
O  5.02800 47.32600 40.15000
C  4.60000 46.58100 39.02500
H  10.68900 52.84000 40.15300
H  7.14800 58.19300 41.06000
H  2.22200 54.83000 42.97000
H  8.02300 48.81000 40.80100
H  9.85800 50.54500 39.17800
H  10.72600 50.77900 41.78200
H  11.48600 49.90000 40.39700
H  10.47500 49.07400 41.52100
H  6.42900 49.37100 38.59100
H  7.78600 48.18800 38.65600
H  9.12200 49.52100 37.47000
H  8.11800 50.95900 37.60900
H  11.65100 54.35900 38.97700
H  12.17300 54.98500 40.49000
H  12.21500 56.07600 39.18200
H  8.22200 59.34000 39.52300
H  9.71300 60.20600 39.71300
H  8.85300 59.47800 41.15000
H  4.48600 58.19200 40.68500
H  3.03300 57.02900 43.11700
H  5.09000 59.77500 42.46400
H  5.90100 58.32500 43.16100
H  4.18400 58.77500 43.56800
H  2.22700 58.32400 41.01000
H  1.16900 57.48800 42.04700
H  1.98400 55.33000 40.29600
H  1.92900 56.83000 39.34300
H  0.50500 56.35000 40.33100
H  0.82500 52.71200 43.03600
H  1.36500 51.94800 44.42300
H  0.75500 50.95100 43.08100
H  5.44100 48.36600 42.10000
H  5.03200 46.97500 38.10500
H  3.53300 46.46100 38.84100
H  4.94200 45.54800 39.09100
Mg 0.80700 43.62000 25.82100
C  2.93100 43.56100 28.67100
C  -1.69000 42.63400 27.89300
C  -1.05000 43.12700 23.07700
C  3.68900 43.95700 23.70400
N  0.66200 43.12500 28.07000
C  1.59600 43.39600 29.05300
C  0.89400 43.30300 30.48500
C  -0.58700 43.05700 30.12400
C  -0.52300 42.90900 28.61400
C  -1.22200 41.76900 30.74200
C  1.18200 44.53800 31.37300
C  0.97800 44.39800 32.94900
H  0.80500 43.04700 33.62100
N  -1.11200 42.94000 25.52200
C  -1.93700 42.54500 26.54200
C  -3.29400 42.24100 25.99700
C  -3.12100 42.33800 24.57800
C  -1.71900 42.78300 24.34900
C  -4.44200 41.84500 26.84700
C  -4.19900 42.14500 23.48300
O  -3.86100 42.16200 22.33900
C  -5.66100 41.86900 23.82500
N  1.26900 43.70300 23.75300
C  0.26200 43.44000 22.84200
C  0.92500 43.40000 21.39700
C  2.35000 43.90500 21.56400
C  2.46800 43.90300 23.13100
C  0.73500 42.14700 20.56800
C  2.56000 45.27200 20.98300
C  1.90000 46.53100 21.77200
N  2.94700 43.79900 26.07100
C  3.87500 43.91000 25.09100
C  5.21100 43.94400 25.81500
C  4.84900 43.72900 27.14800
C  3.48800 43.70500 27.30600
C  6.57800 44.07500 25.21600
C  5.43800 43.44600 28.41900
O  6.62100 43.27000 28.71600
C  4.23600 43.51600 29.48500
C  4.09200 42.34900 30.40800
O  3.34500 41.40800 30.45700
O  5.07800 42.43000 31.36800
C  5.17000 41.42700 32.44200
H  -2.58900 42.35100 28.44500
H  -1.60800 43.01900 22.14400
H  4.57200 43.92900 23.06300
H  1.25100 42.46100 31.08000
H  -1.11100 43.99400 30.31200
H  -2.23000 42.05600 31.04000
H  -0.81500 41.48000 31.71100
H  -1.07200 40.93500 30.05600
H  0.51200 45.36300 31.13100
H  2.23400 44.75300 31.18700
H  0.24500 45.13800 33.27100
H  1.87600 44.83800 33.38100
H  -5.22100 41.39600 26.23000
H  -4.98400 42.66800 27.31300
H  -4.13700 41.09500 27.57700
H  -6.26200 41.93000 22.91800
H  -6.05600 42.67000 24.45000
H  -5.72900 40.85900 24.22800
H  0.32800 44.11300 20.82900
H  2.99100 43.13800 21.12900
H  -0.00800 41.54500 21.09100
H  1.70500 41.66500 20.44900
H  0.55100 42.23900 19.49700
H  2.09100 45.37200 20.00500
H  3.58200 45.57300 20.75300
H  1.98900 46.36900 22.84600
H  0.85400 46.71700 21.53000
H  2.43700 47.45500 21.55600
H  7.18300 44.79200 25.77000
H  6.55800 44.44700 24.19100
H  7.14600 43.15100 25.10900
H  4.41100 44.33600 30.18200
H  4.23600 41.42500 33.00300
H  5.96800 41.79000 33.08900
H  5.39300 40.45400 32.00400

