158

Mg -10.95500 38.57100 41.67600
C  -9.48000 35.38900 41.10800
C  -8.24300 39.89400 40.15600
C  -12.52600 41.53400 41.67000
C  -13.91300 36.96700 42.67400
N  -9.07100 37.72100 40.75400
C  -8.63100 36.44100 40.69400
C  -7.20000 36.27900 40.25800
C  -6.80100 37.76200 39.99700
C  -8.08200 38.53000 40.38600
C  -5.51700 38.18500 40.73500
C  -7.23200 35.46000 38.92600
C  -6.08600 34.41800 38.81200
H  -5.11300 34.80100 37.73000
N  -10.39800 40.44700 41.08900
C  -9.16800 40.77700 40.63000
C  -9.09100 42.20200 40.41900
C  -10.34500 42.74100 40.77800
C  -11.16800 41.61300 41.23300
C  -7.88300 42.90700 39.83100
C  -10.73500 44.16500 40.87300
O  -9.94600 45.10200 40.65300
C  -12.14700 44.60900 41.21000
N  -13.01000 39.11400 41.83900
C  -13.32700 40.40400 41.86800
C  -14.75100 40.63900 42.38900
C  -15.19600 39.18100 42.79000
C  -13.94900 38.30800 42.41300
C  -14.84700 41.73700 43.52500
C  -16.38800 38.60700 41.96200
C  -17.56600 38.13800 42.85600
N  -11.64900 36.61700 41.86400
C  -12.85400 36.08100 42.32900
C  -12.68200 34.66100 42.56900
C  -11.40400 34.34300 42.06700
C  -10.79500 35.58700 41.70100
C  -13.73100 33.76300 43.04900
C  -10.42200 33.24900 41.75900
O  -10.53000 32.06100 42.03400
C  -9.22000 33.86300 41.08400
C  -8.01500 33.28500 41.69200
O  -7.40700 32.32900 41.24900
O  -7.66100 33.96700 42.86700
C  -6.37100 33.57900 43.55400
H  -7.46400 40.46100 39.64100
H  -13.09300 42.46200 41.77100
H  -14.79400 36.54600 43.16300
H  -6.54900 35.84400 41.01700
H  -6.64300 37.95000 38.93500
H  -4.79700 37.37000 40.66400
H  -5.63400 38.38100 41.80000
H  -4.96500 39.03800 40.34100
H  -7.01400 36.08500 38.06000
H  -8.23000 35.05300 38.76500
H  -6.46600 33.43900 38.51900
H  -5.44200 34.45800 39.69000
H  -7.85200 43.90700 40.26500
H  -7.85700 43.08900 38.75700
H  -6.96200 42.43700 40.17800
H  -12.58900 44.43200 42.19000
H  -12.78100 44.14800 40.45400
H  -12.22500 45.66600 40.95400
H  -15.31000 41.03900 41.54300
H  -15.45300 39.19800 43.84900
H  -14.00000 42.04000 44.14100
H  -15.62300 41.34800 44.18300
H  -15.13200 42.68100 43.05900
H  -16.01300 37.77800 41.36200
H  -16.73600 39.35900 41.25400
H  -17.55800 38.36100 43.92300
H  -17.75300 37.06400 42.85900
H  -18.51700 38.56200 42.53200
H  -14.00100 33.94500 44.08900
H  -13.35600 32.74100 42.98600
H  -14.63900 33.81700 42.44900
H  -9.13500 33.49900 40.06000
H  -6.39200 33.84800 44.61000
H  -5.53000 34.12900 43.13100
H  -6.27800 32.49400 43.52500
Mg -5.89200 24.64500 26.44800
C  -4.35600 25.84500 29.28900
C  -8.01900 22.70600 28.45200
C  -6.70200 22.87700 23.65300
C  -3.48600 26.45400 24.52800
N  -6.03600 24.18700 28.59800
C  -5.34500 24.85800 29.57500
C  -5.86800 24.51700 30.98300
C  -6.90500 23.33400 30.64900
C  -7.12700 23.51900 29.15100
C  -6.14100 21.97200 31.02700
C  -6.59500 25.73700 31.68700
C  -6.29400 26.01100 33.13500
H  -5.85500 24.83300 34.02800
N  -7.22600 23.13100 26.09300
C  -8.06000 22.50200 27.05100
C  -8.98600 21.66800 26.33100
C  -8.63700 21.65600 24.92900
C  -7.47300 22.59900 24.83700
C  -10.15500 20.98800 27.06800
C  -9.21400 20.87800 23.73100
O  -8.76100 20.95800 22.60200
C  -10.44800 20.06200 23.88000
N  -5.09600 24.60900 24.43000
C  -5.65900 23.78100 23.45700
C  -4.83900 23.92000 22.12500
C  -4.25600 25.34000 22.35400
C  -4.25000 25.48000 23.85500
C  -3.89300 22.77500 21.79000
C  -4.88400 26.57700 21.66800
C  -3.85200 27.41400 20.76400
N  -4.31300 26.02500 26.75200
C  -3.44700 26.68500 25.90500
C  -2.44400 27.46900 26.69800
C  -2.86900 27.25400 28.04700
C  -3.92400 26.28200 28.02400
C  -1.50000 28.57900 26.28000
C  -2.59700 27.63600 29.51600
O  -1.88000 28.49000 30.09600
C  -3.55900 26.64400 30.28500
C  -2.81300 25.81300 31.19600
O  -2.07500 24.95700 30.90600
O  -3.09500 26.24400 32.47400
C  -2.14400 25.80600 33.55700
H  -8.71100 22.10300 29.04500
H  -7.07200 22.65600 22.65000
H  -2.77200 26.96200 23.87600
H  -5.01600 24.14500 31.55200
H  -7.87900 23.43300 31.12800
H  -5.92400 21.42500 30.10900
H  -6.90300 21.38500 31.54100
H  -5.31800 22.06700 31.73600
H  -7.66200 25.52500 31.74600
H  -6.52300 26.65700 31.10700
H  -7.07300 26.59900 33.62000
H  -5.49400 26.75100 33.13300
H  -11.07900 21.54400 26.91100
H  -9.99300 20.78100 28.12600
H  -10.40000 19.98600 26.71700
H  -10.74500 19.75300 22.87800
H  -11.18000 20.76900 24.27000
H  -10.47000 19.24200 24.59800
H  -5.51300 23.89200 21.27000
H  -3.19600 25.27400 22.10800
H  -2.96000 23.20300 21.42300
H  -4.29000 21.99900 21.13500
H  -3.61200 22.39100 22.77100
H  -5.17600 27.21700 22.50000
H  -5.69200 26.21900 21.02900
H  -3.78800 28.37700 21.27100
H  -4.20900 27.44200 19.73500
H  -2.84400 27.01700 20.64800
H  -0.54500 28.32800 26.74200
H  -1.77800 29.63000 26.35900
H  -1.38300 28.46400 25.20200
H  -4.23800 27.22300 30.91000
H  -2.34800 24.73900 33.64800
H  -2.37700 26.35800 34.46800
H  -1.13000 25.91000 33.17000

