158

Mg 9.12100 3.66400 27.89200
C  10.62700 2.23700 30.77500
C  7.35000 5.74000 29.97900
C  7.82100 4.98700 25.28000
C  10.77400 1.22900 25.93100
N  8.84000 3.72800 30.18200
C  9.63400 3.17200 31.18100
C  9.46100 3.86000 32.56200
C  8.30400 4.86900 32.22200
C  8.17900 4.80100 30.68200
C  6.92500 4.77600 32.97800
C  10.75500 4.65300 33.08100
C  11.33800 4.09300 34.47400
H  11.71400 5.20900 35.49200
N  7.74000 5.19900 27.65600
C  7.10000 5.93300 28.61100
C  6.18800 6.86200 27.96700
C  6.28100 6.68400 26.57200
C  7.34000 5.59300 26.45000
C  5.32500 7.78500 28.82400
C  5.62200 7.30500 25.35200
O  5.95900 6.97000 24.20700
C  4.45200 8.28000 25.58800
N  9.43300 3.22500 25.81600
C  8.59500 3.89400 24.96700
C  8.82600 3.32300 23.49100
C  9.75400 2.08000 23.76800
C  10.04800 2.21300 25.26900
C  7.46300 2.88700 22.79400
C  11.04300 2.20200 22.97100
C  11.26100 1.03200 21.94900
N  10.32700 2.00200 28.18800
C  10.96100 1.14100 27.29100
C  11.85800 0.35100 28.04300
C  11.71600 0.78900 29.35800
C  10.79500 1.76000 29.45300
C  12.56500 -0.82800 27.48400
C  12.30000 0.48800 30.67200
O  13.05000 -0.36600 31.08100
C  11.57300 1.49100 31.65700
C  10.77400 0.64000 32.65700
O  9.80600 -0.08400 32.52100
O  11.37900 0.96300 33.86700
C  10.63300 0.42400 35.00100
H  6.95800 6.55600 30.59000
H  7.40300 5.42800 24.37300
H  11.27500 0.50700 25.28400
H  9.24800 3.04200 33.25100
H  8.51400 5.90600 32.48400
H  6.03600 4.80100 32.34700
H  6.88600 5.53700 33.75700
H  6.99200 3.80600 33.47200
H  10.64800 5.72500 33.24900
H  11.56200 4.44100 32.38000
H  12.20200 3.46000 34.27500
H  10.56900 3.47600 34.94100
H  5.80000 8.76600 28.82900
H  5.23800 7.41500 29.84600
H  4.35900 7.85100 28.32300
H  3.63900 7.94500 26.23200
H  4.05800 8.56800 24.61300
H  4.91500 9.12200 26.10300
H  9.26200 4.06800 22.82500
H  9.17500 1.17600 23.58300
H  6.61000 2.93100 23.47200
H  7.53300 1.85400 22.45200
H  7.24400 3.48200 21.90800
H  11.87600 2.32300 23.66400
H  10.94900 3.10500 22.36800
H  11.39200 1.45300 20.95200
H  10.32600 0.48600 21.82400
H  11.98100 0.23300 22.12600
H  13.61200 -0.83100 27.78700
H  12.44900 -0.93200 26.40600
H  12.14000 -1.75600 27.86700
H  12.26600 2.10600 32.23200
H  10.27900 -0.59000 34.81700
H  9.76700 1.03100 35.26400
H  11.31300 0.32500 35.84800
Mg 0.42200 44.20200 25.30800
C  2.66400 43.89900 27.93500
C  -2.04400 42.90800 27.34300
C  -1.72700 44.11300 22.68200
C  3.02700 44.92500 23.21300
N  0.37900 43.48900 27.48400
C  1.38000 43.52300 28.34600
C  0.85800 43.29600 29.82300
C  -0.68000 42.87700 29.57900
C  -0.80300 43.09700 28.03200
C  -1.06100 41.43000 30.01500
C  0.89800 44.58700 30.68500
C  1.46000 44.40100 32.09500
H  1.30500 43.03000 32.81700
N  -1.60400 43.68100 25.08600
C  -2.44100 43.15200 26.03100
C  -3.75800 42.89700 25.45600
C  -3.66700 43.32000 24.09000
C  -2.30500 43.75300 23.87800
C  -4.89100 42.44800 26.35200
C  -4.76600 43.30700 23.02400
O  -4.67300 43.76700 21.87200
C  -6.13100 42.67100 23.33700
N  0.62900 44.36600 23.20700
C  -0.46000 44.48200 22.36800
C  0.00900 44.83500 20.91300
C  1.53300 45.09500 21.09800
C  1.77500 44.82800 22.59800
C  -0.45300 43.79400 19.90100
C  2.06500 46.43100 20.54500
C  1.76900 47.77600 21.38300
N  2.48700 44.39800 25.51900
C  3.43500 44.67600 24.52900
C  4.78000 44.60000 25.15800
C  4.48100 44.54600 26.52300
C  3.09600 44.23800 26.64000
C  6.08300 44.75100 24.48600
C  5.04900 44.26800 27.74400
O  6.25700 44.13200 28.00500
C  3.88700 44.05700 28.77200
C  4.26500 42.83800 29.47200
O  3.96000 41.68100 29.10300
O  4.75100 43.08900 30.65200
C  5.24700 41.93100 31.45000
H  -2.75000 42.30100 27.91400
H  -2.42300 44.20800 21.84600
H  3.79100 45.19600 22.48200
H  1.29500 42.41700 30.29700
H  -1.43700 43.56400 29.95900
H  -1.44900 41.39700 31.03300
H  -0.12500 40.88400 30.13100
H  -1.78700 40.83500 29.46100
H  -0.10900 44.97300 30.84000
H  1.57700 45.22800 30.12300
H  1.05100 45.26700 32.61700
H  2.53000 44.54700 31.94800
H  -5.02000 41.36600 26.32700
H  -5.84800 42.86200 26.03600
H  -4.83600 42.83300 27.37000
H  -6.06200 41.73300 23.88800
H  -6.73300 42.55600 22.43600
H  -6.58100 43.39600 24.01600
H  -0.30300 45.83100 20.59600
H  2.11600 44.35200 20.55400
H  0.29100 43.03900 19.64900
H  -0.70300 44.28400 18.96000
H  -1.38600 43.30000 20.17200
H  1.67900 46.65600 19.55100
H  3.14900 46.35200 20.47000
H  1.32200 47.57600 22.35700
H  1.04000 48.35300 20.81500
H  2.72000 48.30000 21.47600
H  6.87600 44.89300 25.22000
H  6.00800 45.51000 23.70800
H  6.21700 43.74200 24.09600
H  3.85600 44.84700 29.52200
H  5.93500 41.41200 30.78300
H  4.44500 41.30400 31.83700
H  5.78200 42.32100 32.31600

