158

Mg 49.20200 47.45100 43.43000
C  45.85100 47.38000 42.81400
C  49.47400 44.35900 41.80400
C  52.59500 47.70000 43.55000
C  48.94200 50.75400 44.47600
N  47.80700 46.04400 42.29500
C  46.49000 46.23900 42.26300
C  45.79400 45.06900 41.55700
C  46.96400 43.99400 41.47600
C  48.15400 44.80000 41.88100
C  46.77200 42.73000 42.24700
C  45.15600 45.45100 40.13900
C  43.64800 45.34000 39.86900
H  43.17000 45.21300 38.40800
N  50.83800 46.12600 42.79000
C  50.71500 44.91600 42.15900
C  52.04700 44.33100 41.98200
C  52.95900 45.28700 42.45900
C  52.17500 46.47300 42.99000
C  52.21200 42.98100 41.30700
C  54.46400 45.14200 42.45400
O  54.95800 44.26200 41.75700
C  55.48300 46.09100 43.15700
N  50.56700 48.98100 43.90900
C  51.88700 48.83700 43.86300
C  52.61100 49.99400 44.55400
C  51.46000 51.07400 44.64100
C  50.21800 50.20200 44.33700
C  53.14900 49.48000 45.87500
C  51.65700 52.35800 43.74200
C  51.88400 53.73500 44.38600
N  47.68600 48.84000 43.77500
C  47.69100 50.11800 44.20600
C  46.27500 50.55600 44.29800
C  45.52500 49.51800 43.82600
C  46.43600 48.51700 43.43200
C  45.90500 51.94900 44.76000
C  44.18100 48.99600 43.63100
O  43.08300 49.45300 43.89900
C  44.31000 47.69000 42.78500
C  43.52300 46.57500 43.31800
O  43.79600 45.91700 44.31000
O  42.32400 46.50800 42.66100
C  41.52600 45.31300 42.87700
H  49.67900 43.38700 41.34900
H  53.68300 47.78900 43.57900
H  48.82000 51.74100 44.92800
H  45.04600 44.60500 42.20100
H  47.03900 43.68000 40.43500
H  47.36400 42.77200 43.16200
H  47.27500 41.91500 41.72700
H  45.78400 42.52300 42.65900
H  45.68000 44.94100 39.33000
H  45.35600 46.51000 39.97500
H  43.25300 46.30500 40.18700
H  43.15600 44.68200 40.58500
H  52.26000 43.17800 40.23600
H  51.41600 42.30400 41.61700
H  53.16700 42.49600 41.50800
H  55.52900 47.07600 42.69100
H  56.49300 45.68500 43.21500
H  55.03200 46.16300 44.14600
H  53.34700 50.41200 43.86700
H  51.44600 51.30000 45.70700
H  52.54800 49.55900 46.78100
H  54.06600 50.05600 46.00000
H  53.32600 48.41600 45.72300
H  50.69700 52.52600 43.25500
H  52.39300 52.13200 42.97100
H  51.07100 54.43100 44.18000
H  52.86100 54.14100 44.12500
H  51.90200 53.39400 45.42100
H  46.00200 52.03300 45.84300
H  44.85400 52.08800 44.50700
H  46.51200 52.71700 44.28200
H  43.93500 47.94700 41.79400
H  42.18500 44.47000 43.09000
H  40.97100 45.00200 41.99200
H  40.83200 45.43400 43.70900
Mg -11.45100 38.75600 42.48100
C  -10.14200 35.63400 41.65900
C  -8.95500 40.13900 40.71900
C  -13.19200 41.65000 42.56000
C  -14.52900 36.96200 43.24700
N  -9.76700 37.93800 41.33600
C  -9.39000 36.66700 41.17700
C  -8.13000 36.59600 40.33100
C  -7.53700 37.99000 40.37500
C  -8.87700 38.75200 40.81000
C  -6.29700 38.19300 41.17800
C  -8.41300 35.97300 38.94100
C  -7.60600 34.82000 38.57200
H  -6.61400 35.00200 37.39500
N  -11.00600 40.69000 41.84700
C  -9.88500 41.06400 41.20800
C  -9.95800 42.48900 41.00300
C  -11.17200 42.96800 41.55200
C  -11.87300 41.75900 42.03900
C  -8.88500 43.22600 40.16700
C  -11.67100 44.49300 41.56800
O  -10.90900 45.33800 41.06100
C  -12.93800 44.92600 42.14500
N  -13.51500 39.17200 42.86300
C  -13.89600 40.45800 42.96500
C  -15.32100 40.54500 43.51700
C  -15.77600 39.09400 43.62800
C  -14.55400 38.31800 43.21400
C  -15.44900 41.49200 44.74700
C  -16.92600 38.54800 42.75300
C  -18.13200 37.90200 43.40300
N  -12.20800 36.70800 42.70700
C  -13.38100 36.15100 43.08900
C  -13.21700 34.67900 43.09700
C  -11.95700 34.45400 42.52100
C  -11.42300 35.69800 42.22500
C  -14.14100 33.58900 43.59300
C  -11.15200 33.45300 42.00200
O  -11.33000 32.23700 42.02300
C  -9.78400 34.18700 41.48600
C  -8.61000 33.78400 42.37700
O  -7.63300 33.13100 42.01800
O  -8.76200 34.45600 43.60500
C  -7.49100 34.32300 44.45600
H  -8.06100 40.52700 40.22600
H  -13.84500 42.51500 42.68600
H  -15.39700 36.45400 43.67200
H  -7.39200 35.97100 40.83500
H  -7.28200 38.31900 39.36800
H  -5.68400 38.94500 40.68100
H  -5.87900 37.20800 41.38300
H  -6.66900 38.61300 42.11200
H  -8.15500 36.71900 38.18900
H  -9.47600 35.75700 38.83900
H  -8.34700 34.07200 38.29100
H  -7.13300 34.36100 39.44000
H  -9.04800 43.00500 39.11200
H  -7.94600 42.72900 40.40900
H  -8.80700 44.29400 40.37000
H  -13.78100 44.58600 41.54300
H  -13.01400 46.00400 42.29000
H  -13.03200 44.56300 43.16900
H  -15.87000 41.08700 42.74600
H  -15.88800 38.90100 44.69500
H  -14.54600 42.09300 44.85400
H  -15.77100 41.11000 45.71600
H  -16.24900 42.13800 44.38500
H  -16.43500 37.93000 42.00100
H  -17.30600 39.37500 42.15400
H  -18.16100 37.85400 44.49200
H  -18.26900 36.88900 43.02700
H  -19.04400 38.45000 43.16600
H  -14.52700 33.12800 42.68400
H  -14.91700 34.08600 44.17600
H  -13.63300 32.83300 44.19100
H  -9.54100 34.03800 40.43400
H  -7.63100 33.40500 45.02600
H  -7.36800 35.06100 45.24900
H  -6.57100 34.28400 43.87200

