158

Mg 48.84000 45.43400 42.90000
C  45.40600 45.45800 41.66700
C  48.90200 41.99400 41.98100
C  52.17900 45.41600 43.17400
C  48.87100 48.87700 42.71400
N  47.39600 43.90900 41.82100
C  46.00000 44.16000 41.50200
C  45.25600 42.88700 41.19000
C  46.38800 41.80800 41.25900
C  47.67300 42.57000 41.76400
C  46.11800 40.62700 42.29200
C  44.46300 42.95000 39.79300
C  45.24400 43.29300 38.50100
H  45.44600 42.32200 37.29300
N  50.30500 43.87700 42.76800
C  50.11400 42.54600 42.42000
C  51.34000 41.88500 42.71600
C  52.30500 42.81000 43.16900
C  51.60600 44.15100 43.03600
C  51.59500 40.41800 42.43900
C  53.78000 42.64000 43.63800
O  54.18800 41.47800 43.63800
C  54.77700 43.62900 44.26000
N  50.32400 46.95800 42.74800
C  51.61900 46.65300 43.14000
C  52.36500 48.00900 43.26600
C  51.40100 49.05200 42.60100
C  50.15400 48.27600 42.70300
C  52.78100 48.39100 44.77200
C  51.70600 49.37200 41.13700
C  52.30100 50.68100 40.74200
N  47.44400 46.88800 42.48400
C  47.62500 48.21300 42.59700
C  46.27100 48.86100 42.48000
C  45.46200 47.76700 41.98000
C  46.16200 46.58200 42.06200
C  45.90800 50.33300 42.60200
C  44.13400 47.47900 41.60800
O  43.13500 48.23300 41.58600
C  44.05500 46.02800 41.29100
C  42.81700 45.44900 41.91500
O  41.79600 44.98200 41.36100
O  42.94300 45.41100 43.27100
C  41.70900 45.24800 44.06400
H  48.92700 40.90500 41.89700
H  53.26600 45.33900 43.24000
H  48.85200 49.96800 42.77200
H  44.52900 42.78400 41.99600
H  46.66800 41.37600 40.29800
H  46.81000 40.80700 43.11500
H  46.22100 39.62200 41.88400
H  45.13500 40.69200 42.75900
H  43.60700 43.57900 40.03800
H  44.11600 41.94300 39.56100
H  46.23700 43.69800 38.69700
H  44.68100 44.16200 38.15900
H  51.61000 39.78500 43.32600
H  52.48600 40.17500 41.85900
H  50.78900 39.92100 41.90000
H  55.50700 43.22200 44.96000
H  54.12900 44.29900 44.82400
H  55.30200 44.18400 43.48100
H  53.32400 47.83400 42.77800
H  51.33700 49.98800 43.15600
H  53.86500 48.28600 44.82600
H  52.29800 47.74500 45.50400
H  52.52100 49.39400 45.10900
H  50.91200 49.14800 40.42400
H  52.42900 48.65400 40.75100
H  53.37600 50.53700 40.63100
H  52.06000 51.41700 41.50900
H  51.82800 51.12600 39.86700
H  44.90400 50.57000 42.25000
H  46.55200 50.97900 42.00600
H  46.03200 50.65500 43.63500
H  43.99600 46.00900 40.20300
H  41.34600 44.22200 44.01700
H  40.95000 45.96600 43.75400
H  42.01700 45.55700 45.06400
Mg 30.37100 58.20700 38.95700
C  27.82000 56.05400 38.22000
C  32.63600 55.59400 38.02800
C  32.99800 60.47700 38.83200
C  28.10400 60.81100 39.14900
N  30.25700 56.09900 38.12300
C  29.05300 55.40800 38.01100
C  29.30400 53.92200 37.60200
C  30.88800 53.79400 37.99500
C  31.33200 55.26500 38.03000
C  31.12700 53.00000 39.29300
C  29.08000 53.61300 36.11900
C  29.34900 54.69400 35.03800
H  28.14700 55.13900 34.09300
N  32.49000 58.05400 38.54300
C  33.19200 56.86500 38.23900
C  34.59400 57.23400 38.24200
C  34.73500 58.63200 38.50400
C  33.36600 59.10900 38.62600
C  35.63500 56.20200 38.11500
C  36.09100 59.35200 38.66400
O  37.22000 58.80800 38.63800
C  36.17900 60.92000 38.88700
N  30.58100 60.38000 38.85500
C  31.76600 61.03000 39.00900
C  31.53800 62.50800 39.14400
C  29.97600 62.61900 39.06500
C  29.46200 61.18100 39.05000
C  32.21100 63.30200 40.27300
C  29.40600 63.40300 37.86300
C  29.30900 64.92500 38.12500
N  28.38400 58.36600 38.91600
C  27.60600 59.47500 38.99700
C  26.19900 59.03500 38.99000
C  26.19800 57.69600 38.70900
C  27.56200 57.36100 38.61400
C  25.04900 59.90700 39.14600
C  25.40300 56.53500 38.42200
O  24.19900 56.37000 38.26000
C  26.51800 55.35000 38.19500
C  26.33100 54.44100 39.33700
O  26.86500 54.51200 40.41300
O  25.47900 53.42800 38.95100
C  24.98800 52.56100 40.01400
H  33.36400 54.79600 37.86100
H  33.78600 61.22400 38.94200
H  27.41700 61.64500 39.30600
H  28.74000 53.18500 38.17300
H  31.41300 53.20500 37.24300
H  30.26700 52.74600 39.91100
H  31.88400 53.36200 39.98900
H  31.66900 52.09900 39.00600
H  28.02800 53.33500 36.05100
H  29.69900 52.75900 35.84500
H  30.14200 54.21200 34.46600
H  29.84800 55.60400 35.37200
H  35.38600 55.55000 37.27800
H  35.54000 55.65400 39.05200
H  36.66500 56.54200 38.00500
H  35.65200 61.10900 39.82200
H  35.76600 61.49600 38.05900
H  37.18700 61.33100 38.94800
H  31.84700 62.96000 38.20200
H  29.66100 63.01500 40.03000
H  32.91600 64.05400 39.91800
H  32.86000 62.69100 40.90000
H  31.46800 63.76400 40.92300
H  28.41100 63.02300 37.63100
H  30.01100 63.18300 36.98300
H  29.86800 65.09200 39.04600
H  28.24500 65.16300 38.14000
H  29.82800 65.48300 37.34600
H  24.17900 59.37600 38.76000
H  25.19700 60.82700 38.58100
H  24.98100 60.13000 40.21100
H  26.37400 54.80000 37.26400
H  25.82400 52.34500 40.67900
H  24.75400 51.54700 39.68900
H  24.10000 52.86000 40.57200

