158

Mg 40.77500 7.90100 29.70300
C  42.42400 9.40900 32.53300
C  38.43900 6.81400 31.93100
C  39.38900 6.35000 27.06600
C  43.56100 8.89100 27.71600
N  40.56600 8.11400 31.96500
C  41.18800 8.80100 32.88400
C  40.48700 8.84300 34.23100
C  39.28400 7.96300 34.01200
C  39.48300 7.50400 32.57900
C  39.21900 6.69900 34.98400
C  40.05400 10.30000 34.59600
C  39.31200 10.48900 35.87400
H  40.01600 11.25800 36.98900
N  39.11100 6.76200 29.54500
C  38.29100 6.42600 30.55700
C  37.10500 5.68000 29.95700
C  37.40700 5.52300 28.55800
C  38.71300 6.22300 28.33800
C  35.93000 5.23300 30.87600
C  36.64300 4.76300 27.51500
O  37.13100 4.35200 26.50900
C  35.24200 4.35100 27.87700
N  41.45700 7.60800 27.73100
C  40.65900 6.90900 26.80500
C  41.39700 6.81100 25.44800
C  42.62500 7.84500 25.64700
C  42.59200 8.06600 27.17600
C  41.85000 5.32200 25.05500
C  42.63800 9.13900 24.80200
C  41.37400 10.06800 24.81800
N  42.50900 8.93900 29.89700
C  43.53400 9.26500 29.01500
C  44.50900 10.06500 29.67100
C  44.14300 10.17000 31.03800
C  42.89800 9.50000 31.13800
C  45.89500 10.55400 29.08200
C  44.49700 10.69800 32.34800
O  45.38100 11.45000 32.60600
C  43.35400 10.29200 33.34200
C  43.83200 9.73500 34.58000
O  44.28200 8.60600 34.61400
O  43.71300 10.62400 35.65300
C  43.72700 9.99600 36.96800
H  37.71600 6.51200 32.69200
H  38.79700 5.94700 26.24100
H  44.25100 9.41400 27.05000
H  41.17400 8.51200 35.00900
H  38.35000 8.52600 34.02600
H  39.83900 6.92500 35.85200
H  39.68100 5.89500 34.41100
H  38.19100 6.66800 35.34500
H  39.38800 10.68200 33.82200
H  40.89800 10.99000 34.58700
H  38.90200 9.65200 36.43800
H  38.46000 11.15500 35.73500
H  34.95300 5.60100 30.56100
H  36.10200 5.59900 31.88800
H  35.89900 4.14400 30.85200
H  34.69200 5.23300 28.20500
H  35.38400 3.73200 28.76300
H  34.74300 3.88000 27.02900
H  40.79200 7.08400 24.58400
H  43.52400 7.40300 25.21800
H  41.54800 5.20200 24.01500
H  41.38700 4.63400 25.76300
H  42.92700 5.22200 25.18900
H  42.67200 8.85000 23.75100
H  43.61000 9.59500 24.98900
H  40.65700 9.67600 25.53900
H  40.82400 10.04700 23.87700
H  41.78800 11.06300 24.97700
H  46.34300 9.90100 28.33300
H  46.57400 10.62200 29.93200
H  45.82800 11.54600 28.63600
H  42.91800 11.25900 33.59200
H  44.43500 9.18600 37.13900
H  42.72000 9.61700 37.14200
H  43.97600 10.73400 37.73100
Mg 46.90500 44.50600 42.41100
C  43.41500 44.06700 42.28200
C  47.14500 41.01100 42.31100
C  50.07900 44.81100 41.79800
C  46.32900 47.99000 41.74800
N  45.35400 42.76200 42.20000
C  44.03200 42.80100 42.21700
C  43.45200 41.38300 42.03500
C  44.63900 40.54700 42.59900
C  45.80700 41.48700 42.33400
C  44.60300 40.06500 44.06600
C  42.88300 41.09100 40.60800
C  43.57700 41.81900 39.37200
H  44.41100 41.03700 38.39000
N  48.40000 43.15400 42.17100
C  48.32400 41.75900 42.17500
C  49.68500 41.14300 42.09300
C  50.58300 42.22800 41.80900
C  49.70800 43.49900 42.02000
C  49.96100 39.59800 42.05100
C  52.07200 42.13000 41.53500
O  52.62300 41.01600 41.36700
C  52.96800 43.34300 41.60500
N  48.05700 46.21400 41.84700
C  49.39900 46.01200 41.80700
C  50.03500 47.38500 41.57900
C  48.86700 48.43500 41.53600
C  47.66400 47.51900 41.64100
C  51.16800 47.64300 42.59600
C  48.76900 49.26700 40.28900
C  49.41500 50.65300 40.28700
N  45.21900 45.87300 42.17900
C  45.15900 47.21600 41.93500
C  43.75200 47.58700 41.80500
C  43.01700 46.33200 41.91000
C  43.96400 45.34100 42.16200
C  43.22100 48.98700 41.59400
C  41.72800 45.77800 41.93500
O  40.59400 46.27900 41.99000
C  41.94900 44.19700 42.06600
C  41.21100 43.90000 43.33500
O  40.11600 43.30100 43.39900
O  41.95300 44.13500 44.46400
C  41.42800 43.65400 45.75600
H  47.22000 39.96300 42.60700
H  51.11100 44.97300 41.48000
H  46.15700 49.04700 41.53300
H  42.62300 41.16900 42.71000
H  44.82200 39.70600 41.92900
H  45.18300 40.67800 44.75600
H  45.09400 39.09200 44.04500
H  43.55000 39.89900 44.29200
H  41.80100 41.19200 40.68700
H  43.04600 40.01800 40.50100
H  44.22300 42.64900 39.65600
H  42.81200 42.37000 38.82600
H  49.62800 39.25700 41.07000
H  49.48600 39.00800 42.83400
H  51.04000 39.46700 42.14400
H  52.79200 43.98400 40.74100
H  54.01400 43.05800 41.72300
H  52.66700 43.82900 42.53400
H  50.49000 47.33500 40.58900
H  48.90400 49.10700 42.39400
H  52.11600 47.55800 42.06500
H  51.15100 46.97300 43.45500
H  51.13100 48.63100 43.05600
H  47.80200 49.27700 39.78500
H  49.35200 48.81300 39.48800
H  48.79200 51.40200 39.79700
H  50.39000 50.68500 39.80200
H  49.76400 50.90000 41.28900
H  44.01200 49.72700 41.47000
H  42.54100 49.13100 42.43300
H  42.72100 48.87600 40.63200
H  41.58600 43.67500 41.18100
H  40.92900 42.70600 45.55400
H  40.70800 44.38600 46.12300
H  42.28200 43.60700 46.43100

