158

Mg -2.30200 17.74000 27.74000
C  -2.40400 15.73700 30.56100
C  -2.93100 20.48600 29.73700
C  -2.25400 19.49300 24.98100
C  -2.48300 14.74000 25.77500
N  -2.67200 18.04000 29.94200
C  -2.48700 17.09700 30.95900
C  -2.68500 17.76700 32.36200
C  -3.05000 19.23300 32.02000
C  -2.86700 19.28800 30.48600
C  -4.33900 19.87200 32.54900
C  -1.73000 17.39100 33.47600
C  -1.55500 18.36300 34.68600
H  -1.18700 17.74600 36.06000
N  -2.32500 19.69400 27.39000
C  -2.58100 20.67300 28.33900
C  -2.51600 21.91900 27.67800
C  -2.30500 21.73500 26.28400
C  -2.31700 20.25100 26.16700
C  -2.83100 23.25700 28.37900
C  -2.10800 22.69200 25.14400
O  -1.88000 22.26300 23.97100
C  -2.06400 24.12500 25.40500
N  -2.30200 17.17100 25.66000
C  -2.26100 18.09700 24.70500
C  -2.39800 17.49900 23.30700
C  -2.22100 15.99600 23.67100
C  -2.44500 15.94600 25.13600
C  -3.70600 17.75200 22.56500
C  -0.88800 15.38900 23.10900
C  0.39400 15.92600 23.85900
N  -2.40900 15.65000 28.01000
C  -2.47300 14.58300 27.15700
C  -2.55400 13.36700 27.83300
C  -2.50000 13.73100 29.17600
C  -2.41700 15.18000 29.26100
C  -2.83100 12.03700 27.30100
C  -2.45300 13.27000 30.58900
O  -2.43900 12.13900 31.02900
C  -2.33500 14.57700 31.51100
C  -1.04000 14.51900 32.30000
O  -0.02700 15.07900 31.94000
O  -1.23500 14.00800 33.54300
C  -0.06900 14.00300 34.38800
H  -3.20800 21.36700 30.32000
H  -2.04400 20.06200 24.07300
H  -2.51100 13.83100 25.17000
H  -3.65800 17.33600 32.60000
H  -2.23700 19.85100 32.40100
H  -5.11700 20.07100 31.81200
H  -4.03300 20.86200 32.88800
H  -4.67800 19.11300 33.25400
H  -0.80600 17.54900 32.92000
H  -1.85600 16.35100 33.78000
H  -2.44600 18.99100 34.68900
H  -0.73700 19.04700 34.46100
H  -1.87400 23.60500 28.76900
H  -3.46600 23.11600 29.25400
H  -3.31400 23.95200 27.69200
H  -3.07100 24.51300 25.56500
H  -1.64000 24.60500 24.52400
H  -1.38400 24.36500 26.22200
H  -1.58600 17.83600 22.66200
H  -3.03700 15.36300 23.32200
H  -3.49800 18.57500 21.88100
H  -4.53100 18.11500 23.17900
H  -4.05900 16.89900 21.98500
H  -0.73800 15.73400 22.08600
H  -0.94500 14.30200 23.16000
H  1.07400 15.07400 23.86700
H  0.22600 16.21500 24.89600
H  0.78900 16.71200 23.21500
H  -3.59400 12.10100 26.52500
H  -3.27200 11.44500 28.10200
H  -1.96000 11.62600 26.78900
H  -3.20100 14.63600 32.16900
H  0.44500 14.95600 34.51100
H  0.68800 13.32900 33.98800
H  -0.48900 13.46300 35.23600
Mg 26.93500 50.46700 25.61200
C  24.86100 51.71300 28.07500
C  29.24100 49.81100 27.94700
C  28.82100 49.30200 23.14400
C  24.63700 51.84400 23.16800
N  27.02500 50.86600 27.78500
C  26.00600 51.19500 28.61100
C  26.30200 50.98000 30.14600
C  27.82700 50.49500 29.95600
C  28.09700 50.44800 28.46000
C  28.82600 51.43000 30.62300
C  25.41300 49.85500 30.61100
C  25.81100 49.30100 32.03200
H  24.96200 49.66500 33.20100
N  28.76900 49.74200 25.62200
C  29.62000 49.49400 26.65900
C  30.83400 48.80200 26.17200
C  30.77100 48.63000 24.78600
C  29.41800 49.21300 24.44100
C  31.93500 48.36800 27.14000
C  31.74800 48.00100 23.79000
O  31.49800 47.93000 22.62200
C  33.04200 47.33800 24.33900
N  26.67400 50.50300 23.50300
C  27.61900 49.91200 22.72500
C  27.02900 49.68600 21.31200
C  26.00400 50.79000 21.21300
C  25.72100 51.13800 22.67500
C  28.02600 49.59400 20.11600
C  24.67200 50.39400 20.50800
C  23.83600 49.37700 21.17900
N  25.14600 51.55800 25.54000
C  24.34200 52.05200 24.54300
C  23.17000 52.71100 25.13500
C  23.35800 52.56900 26.48000
C  24.53200 51.89900 26.72500
C  22.04100 53.41200 24.48100
C  22.78400 52.90100 27.76500
O  21.75300 53.52000 27.97400
C  23.62900 52.28500 28.80800
C  24.07300 53.26000 29.82300
O  24.93000 54.12500 29.64500
O  23.39200 53.02200 31.05600
C  23.70500 53.99100 32.14300
H  29.94000 49.53500 28.73900
H  29.45500 48.87400 22.36400
H  23.90100 52.31200 22.51100
H  26.17500 51.85200 30.78800
H  27.93200 49.46900 30.30700
H  28.41200 52.26000 31.19500
H  29.45100 51.87800 29.85100
H  29.38200 50.73700 31.25500
H  25.50700 49.09100 29.83900
H  24.39100 50.23100 30.65700
H  26.79600 49.67900 32.30800
H  25.90700 48.23000 31.85700
H  31.97000 47.27900 27.11900
H  31.64200 48.69800 28.13700
H  32.95500 48.73700 27.02800
H  33.40800 48.12100 25.00300
H  33.71100 47.08800 23.51500
H  32.72000 46.41900 24.82900
H  26.56600 48.71700 21.50100
H  26.34300 51.68700 20.69600
H  28.38800 48.56700 20.06200
H  28.90100 50.19100 20.37500
H  27.66000 50.01600 19.18000
H  24.97200 50.02100 19.52900
H  24.01200 51.24100 20.32500
H  24.26000 49.06800 22.13500
H  23.81100 48.53900 20.48200
H  22.81600 49.67100 21.43000
H  21.80600 52.86700 23.56700
H  22.26700 54.47600 24.41200
H  21.25500 53.34500 25.23300
H  23.03200 51.58000 29.38800
H  22.92100 54.02800 32.89900
H  23.67200 55.04900 31.88500
H  24.74200 53.82100 32.43300

