158

Mg -1.80500 17.18600 27.15400
C  -2.13800 14.99100 29.78800
C  -2.44200 19.77300 29.36000
C  -1.83500 19.33600 24.47400
C  -1.71400 14.56300 24.93800
N  -2.49300 17.28600 29.29600
C  -2.29300 16.27000 30.21100
C  -2.42200 16.76100 31.69500
C  -2.54200 18.31500 31.52700
C  -2.46900 18.49200 29.95000
C  -3.80400 18.97400 32.28200
C  -1.28900 16.30600 32.72400
C  -0.86800 17.10700 33.92100
H  -0.49900 16.30200 35.12700
N  -2.03500 19.30400 26.99200
C  -2.24900 20.17300 28.03200
C  -2.32500 21.46200 27.46200
C  -2.06900 21.43200 26.06900
C  -1.97300 19.94300 25.74800
C  -2.49300 22.63800 28.28300
C  -1.98900 22.51800 24.96500
O  -2.00600 22.15900 23.77600
C  -2.07900 23.95000 25.36400
N  -2.02900 16.96600 25.03600
C  -1.88600 18.00300 24.17700
C  -1.70300 17.52300 22.77100
C  -1.35100 16.00500 22.95600
C  -1.79900 15.80100 24.36700
C  -2.93800 17.81300 21.89100
C  0.13800 15.54000 22.57800
C  1.37500 16.23500 23.37700
N  -1.81400 15.16300 27.25000
C  -1.80700 14.18000 26.28000
C  -1.83900 12.85300 26.86800
C  -1.94100 13.13300 28.25400
C  -1.93600 14.51500 28.42400
C  -1.82900 11.61100 26.17200
C  -2.03700 12.52600 29.59200
O  -1.88200 11.35800 29.91800
C  -2.11500 13.67800 30.59100
C  -0.83500 13.58800 31.38300
O  0.28000 13.99600 31.05600
O  -1.12000 13.10900 32.64200
C  0.02500 13.20800 33.58600
H  -2.48600 20.60600 30.06400
H  -1.72300 19.88700 23.53800
H  -1.58400 13.83000 24.13900
H  -3.32800 16.19800 31.91700
H  -1.65800 18.76200 31.98100
H  -3.54000 19.89400 32.80300
H  -4.32200 18.24100 32.90100
H  -4.60300 19.27900 31.60500
H  -0.45200 16.02800 32.08300
H  -1.70600 15.36900 33.09500
H  -1.71700 17.69200 34.27300
H  0.07600 17.61200 33.71500
H  -2.74200 22.29900 29.28800
H  -3.38400 23.14700 27.91400
H  -1.70900 23.39400 28.28500
H  -3.03800 24.02100 25.87900
H  -2.02500 24.58000 24.47600
H  -1.34100 24.28900 26.09100
H  -0.80500 17.99200 22.36700
H  -1.97700 15.29200 22.42000
H  -3.54900 18.58200 22.36400
H  -3.40800 16.83300 21.80100
H  -2.61500 18.15000 20.90600
H  0.34200 15.78000 21.53500
H  0.22300 14.45300 22.55100
H  1.85000 17.00400 22.76800
H  2.15000 15.51000 23.62400
H  0.92600 16.57800 24.31000
H  -1.38300 11.76300 25.18900
H  -2.87700 11.44900 25.92000
H  -1.42200 10.77000 26.73400
H  -2.84000 13.76200 31.40100
H  0.65600 14.06400 33.34800
H  0.70600 12.38000 33.38600
H  -0.21600 13.23900 34.64900
Mg 25.18700 1.06600 28.97300
C  27.24900 0.75900 31.73100
C  22.53000 1.80700 31.27100
C  23.21600 1.73600 26.48700
C  27.76300 0.20700 26.76700
N  24.89900 1.11200 31.14900
C  25.93000 1.16200 32.06200
C  25.50500 1.56300 33.46600
C  24.03000 1.84000 33.25400
C  23.79800 1.66400 31.75600
C  22.95900 0.91700 33.97100
C  26.31300 2.75400 34.10600
C  26.73100 2.75700 35.59300
H  26.06800 3.77800 36.51700
N  23.15200 1.45700 28.90500
C  22.23300 1.69400 29.91500
C  20.90400 1.90700 29.33400
C  21.13200 2.08600 27.91000
C  22.55900 1.72400 27.72700
C  19.62200 2.05000 30.25400
C  20.10400 2.45100 26.87500
O  20.30600 2.31900 25.65600
C  18.69000 3.01600 27.11900
N  25.41200 0.83100 26.89700
C  24.42600 1.24700 26.07200
C  24.84600 1.31000 24.56600
C  26.36500 0.96100 24.69800
C  26.52800 0.61800 26.17400
C  24.19300 0.25700 23.71800
C  27.40900 1.95000 24.10600
C  27.75200 3.18100 25.02200
N  27.11200 0.42100 29.20800
C  28.08700 0.10000 28.19100
C  29.30300 -0.10800 28.89800
C  29.02100 0.11800 30.28100
C  27.69100 0.52600 30.36800
C  30.60100 -0.45300 28.29900
C  29.62600 0.07600 31.62100
O  30.71900 -0.19400 31.99900
C  28.44700 0.56400 32.58000
C  28.29600 -0.46100 33.65700
O  27.44100 -1.30400 33.53600
O  28.95500 -0.22300 34.80200
C  28.49700 -0.97400 35.97700
H  21.66800 1.99800 31.91400
H  22.69800 1.92400 25.54400
H  28.54500 0.12600 26.00800
H  25.53800 0.67000 34.09100
H  23.90700 2.89100 33.51500
H  22.65000 0.10200 33.31600
H  22.18600 1.63800 34.23600
H  23.36200 0.48300 34.88600
H  25.75700 3.66600 33.89100
H  27.17400 2.99800 33.48500
H  27.80900 2.79000 35.75300
H  26.41300 1.76800 35.92300
H  19.45100 3.09600 30.50900
H  19.75200 1.41700 31.13200
H  18.78100 1.68400 29.66500
H  18.74000 3.55700 28.06400
H  17.95100 2.21400 27.10600
H  18.35400 3.57600 26.24600
H  24.60700 2.29700 24.17100
H  26.68400 -0.01600 24.33400
H  24.83400 -0.36900 23.09800
H  23.65100 0.74200 22.90600
H  23.40200 -0.21400 24.30200
H  26.93800 2.49000 23.28500
H  28.34700 1.48900 23.79700
H  27.14500 3.20000 25.92800
H  27.71400 4.11500 24.46300
H  28.78700 3.10800 25.35700
H  30.27000 -1.04500 27.44500
H  31.15800 -1.14000 28.93500
H  31.28700 0.37700 28.13000
H  28.82000 1.49400 33.01100
H  27.44800 -0.70700 36.10000
H  29.09100 -0.89200 36.88700
H  28.48500 -2.02700 35.69600

