158

Mg 9.03200 4.10400 27.08400
C  9.90800 2.26300 29.91900
C  6.88500 5.99800 28.89100
C  7.76000 5.33300 24.13600
C  10.89300 1.71800 25.17000
N  8.40100 4.04800 29.15500
C  9.11400 3.41000 30.23800
C  8.62300 3.82600 31.61000
C  7.54100 4.97900 31.14800
C  7.59500 5.01300 29.57500
C  6.13000 4.77400 31.75600
C  9.65300 4.31300 32.66500
C  8.96400 5.07500 33.85900
H  9.75300 5.18800 35.19300
N  7.42100 5.43100 26.55400
C  6.70700 6.16200 27.48900
C  5.95500 7.09900 26.79900
C  6.28200 6.96900 25.41100
C  7.19000 5.89600 25.32000
C  4.99700 8.06400 27.52800
C  5.85200 7.90400 24.25800
O  6.18800 7.74500 23.08100
C  5.05600 9.03500 24.52600
N  9.30000 3.54900 24.96900
C  8.68500 4.30700 24.00800
C  9.20500 3.84400 22.62100
C  10.23000 2.73400 22.91300
C  10.20500 2.69200 24.46200
C  8.07800 3.48800 21.63800
C  11.69600 3.05400 22.24900
C  12.55300 4.04500 23.06900
N  10.35600 2.43100 27.46100
C  10.95800 1.54500 26.58400
C  11.67300 0.49400 27.28900
C  11.38400 0.74300 28.69000
C  10.46300 1.90200 28.69700
C  12.47500 -0.66200 26.67000
C  11.39600 0.26100 30.05800
O  11.90600 -0.73600 30.47100
C  10.64800 1.32900 30.92000
C  9.78200 0.61500 31.88700
O  8.63500 0.27800 31.67500
O  10.36600 0.75100 33.11700
C  9.58100 0.42800 34.27200
H  6.54600 6.65000 29.69800
H  7.35200 5.62700 23.16700
H  11.44600 1.00800 24.55300
H  8.17700 2.93300 32.04900
H  7.85400 6.01000 31.30600
H  5.89600 5.73000 32.22400
H  6.03200 4.05300 32.56800
H  5.46300 4.47800 30.94600
H  10.38700 4.99000 32.22800
H  9.99700 3.33400 32.99800
H  7.96500 4.66500 34.00800
H  8.91900 6.07800 33.43400
H  5.03400 7.91000 28.60600
H  4.04100 7.75500 27.10700
H  5.29500 9.10900 27.44300
H  5.54500 9.57500 25.33700
H  4.15200 8.50900 24.83400
H  4.99300 9.70100 23.66500
H  9.77800 4.69600 22.25500
H  9.92100 1.72600 22.63600
H  7.07500 3.61400 22.04500
H  8.19400 2.49200 21.21100
H  8.14300 4.10800 20.74300
H  11.46200 3.50400 21.28400
H  12.22300 2.11500 22.08100
H  13.46800 3.55000 23.39600
H  12.08000 4.40900 23.98100
H  12.93200 4.90100 22.50900
H  12.86000 -0.37700 25.69100
H  11.86700 -1.55500 26.52800
H  13.30000 -0.99700 27.29900
H  11.38700 1.92200 31.45900
H  10.02500 0.98800 35.09500
H  9.52400 -0.60100 34.62600
H  8.55200 0.76600 34.14400
Mg 16.54500 52.50700 26.02000
C  18.19900 51.11100 28.97400
C  13.90400 53.24500 28.05900
C  14.88500 53.32400 23.25800
C  19.29500 51.36900 24.25400
N  16.13600 52.12800 28.30100
C  16.91400 51.63300 29.32900
C  16.25100 51.79500 30.72600
C  14.80400 52.38200 30.31400
C  14.94700 52.62200 28.74500
C  13.46500 51.55800 30.69300
C  17.03000 52.77500 31.64400
C  16.43800 52.82900 33.09500
H  15.18800 52.02700 33.56300
N  14.64400 53.23400 25.66400
C  13.69900 53.47100 26.63100
C  12.55700 54.13700 26.07100
C  12.84400 54.22400 24.64100
C  14.21500 53.60600 24.44600
C  11.43100 54.74700 26.87300
C  12.02000 54.68800 23.37900
O  12.48800 54.66000 22.22700
C  10.64800 55.26600 23.52700
N  17.01400 52.32800 24.08400
C  16.14600 52.76500 23.11300
C  16.83400 52.64600 21.78400
C  18.27700 52.15800 22.15700
C  18.25900 52.02000 23.62500
C  15.98200 51.70500 20.89700
C  19.48500 53.07400 21.64000
C  19.33600 54.57000 21.81600
N  18.27300 51.37100 26.43700
C  19.27100 50.99200 25.63400
C  20.23300 50.12300 26.26200
C  19.85100 50.23600 27.58600
C  18.69300 50.99400 27.65100
C  21.40500 49.42800 25.66900
C  20.37200 49.92100 28.90400
O  21.41600 49.46600 29.34200
C  19.25900 50.47600 29.94200
C  18.64100 49.30300 30.65900
O  18.49800 48.17400 30.19600
O  18.30600 49.62700 31.95700
C  17.95900 48.50100 32.81900
H  13.00900 53.53600 28.61400
H  14.40800 53.49500 22.29000
H  20.00000 50.91100 23.55700
H  16.17600 50.81000 31.18800
H  14.56900 53.34900 30.75900
H  12.98200 51.15400 29.80400
H  12.72800 52.23500 31.12500
H  13.66900 50.73600 31.37900
H  16.94600 53.76400 31.19400
H  18.06600 52.45400 31.74500
H  16.29500 53.87600 33.36200
H  17.31900 52.52900 33.66300
H  11.07400 55.68600 26.45000
H  11.76800 54.90900 27.89600
H  10.56000 54.10000 26.98300
H  10.61500 56.16000 24.15100
H  9.97200 54.43600 23.73500
H  10.37500 55.53800 22.50800
H  16.77400 53.62700 21.31300
H  18.49800 51.18800 21.71200
H  16.07300 50.67400 21.23900
H  16.35800 51.81900 19.88000
H  14.93900 52.02100 20.91300
H  19.55200 52.90300 20.56500
H  20.40100 52.82600 22.17700
H  18.95600 55.21800 21.02600
H  20.28000 54.98500 22.16600
H  18.61600 54.74600 22.61500
H  21.19900 49.02900 24.67600
H  21.76000 48.61900 26.30700
H  22.11400 50.24500 25.53900
H  19.82400 51.14200 30.59400
H  16.92400 48.25600 32.58000
H  17.90100 48.79200 33.86800
H  18.67500 47.68300 32.73300

