158

Mg 7.88900 3.20500 27.84500
C  9.41300 1.62300 30.64400
C  6.31900 5.38900 30.17300
C  6.33400 4.76800 25.28400
C  8.95000 0.63200 25.85200
N  7.85200 3.44000 30.15400
C  8.61300 2.70500 31.01500
C  8.41200 3.26200 32.49800
C  7.36300 4.37600 32.32700
C  7.12600 4.40100 30.81600
C  6.06200 4.27900 33.13100
C  9.77800 3.71100 33.14300
C  9.92200 3.49800 34.69000
H  10.49700 4.61200 35.55300
N  6.58800 4.84300 27.75800
C  6.13100 5.59100 28.79500
C  5.38200 6.68400 28.22100
C  5.23200 6.46200 26.83000
C  6.02900 5.25600 26.59000
C  4.84000 7.78700 29.11000
C  4.65000 7.35900 25.72600
O  4.72200 7.11500 24.52100
C  4.01900 8.61600 26.07100
N  7.53500 2.64600 25.90400
C  7.07500 3.50800 24.96900
C  7.38200 3.20100 23.48600
C  8.02200 1.72500 23.75200
C  8.23600 1.65300 25.25400
C  6.05100 3.31100 22.67100
C  9.32500 1.60900 22.89800
C  10.55200 2.43400 23.39100
N  8.92000 1.42400 28.14100
C  9.18400 0.41100 27.29800
C  9.87400 -0.65500 27.99500
C  10.07400 -0.11200 29.27200
C  9.40800 1.05800 29.30900
C  10.57300 -1.83600 27.51700
C  10.75000 -0.36100 30.52700
O  11.48800 -1.25100 30.89700
C  10.25900 0.71700 31.43600
C  9.47600 0.13700 32.52000
O  8.49400 -0.55800 32.34300
O  10.15300 0.32400 33.73200
C  9.35300 -0.18400 34.86700
H  5.85900 6.13500 30.82400
H  6.06100 5.48100 24.50300
H  9.29400 -0.22900 25.27500
H  7.96300 2.44100 33.05800
H  7.79700 5.31700 32.66900
H  5.23900 3.86700 32.54600
H  5.77200 5.28100 33.44700
H  6.11700 3.64300 34.01500
H  9.89000 4.77300 32.92800
H  10.53400 3.10000 32.65000
H  10.64800 2.70300 34.86300
H  8.94800 3.24500 35.11000
H  5.40600 7.96800 30.02400
H  3.77200 7.67000 29.29700
H  4.90600 8.72700 28.56200
H  3.32000 8.44600 26.89000
H  3.54900 8.81800 25.10800
H  4.82400 9.29500 26.35400
H  8.11700 3.84700 23.00700
H  7.37800 0.88000 23.50800
H  5.16600 3.50300 23.27800
H  5.94400 2.34700 22.17500
H  6.04100 4.03200 21.85400
H  9.10100 1.95400 21.88900
H  9.54300 0.54200 22.84300
H  11.13200 1.80500 24.06700
H  10.25100 3.33800 23.92000
H  11.10900 2.78100 22.52000
H  11.59000 -1.69200 27.15300
H  9.97100 -2.36400 26.77800
H  10.67300 -2.56400 28.32200
H  11.13800 1.20800 31.85300
H  9.24600 -1.26800 34.91200
H  8.35700 0.23700 34.99900
H  9.80800 0.09500 35.81700
Mg 25.11600 1.43000 29.35100
C  27.40600 1.34300 32.00100
C  22.63900 1.38800 31.57200
C  22.85800 1.68100 26.82100
C  27.71500 0.95600 27.14100
N  25.15400 1.52500 31.54400
C  26.07600 1.50000 32.43400
C  25.60100 1.54900 33.93100
C  24.12200 1.39900 33.70000
C  23.88700 1.46700 32.15600
C  23.40900 0.27000 34.49500
C  26.18100 2.67600 34.77100
C  25.21500 3.21500 35.86000
H  25.98900 3.68100 37.05000
N  23.00900 1.48300 29.23600
C  22.17000 1.44500 30.26100
C  20.77900 1.42200 29.76600
C  20.81700 1.58100 28.38900
C  22.22000 1.70500 28.06300
C  19.56500 1.35900 30.67000
C  19.68500 1.62900 27.39900
O  19.97100 1.78400 26.24700
C  18.15600 1.44600 27.71200
N  25.28100 1.28000 27.35600
C  24.23800 1.57500 26.51600
C  24.70600 1.67100 25.01900
C  26.24000 1.57800 25.19200
C  26.44600 1.25000 26.63700
C  24.02600 0.62100 23.99500
C  27.12200 2.64900 24.56400
C  27.34800 3.99400 25.40100
N  27.15500 1.15900 29.48100
C  28.10700 1.03400 28.49400
C  29.38200 0.85800 29.06900
C  29.19300 1.05700 30.42200
C  27.78000 1.19100 30.65400
C  30.56500 0.45200 28.28000
C  29.78000 1.14500 31.72200
O  30.95300 0.87300 31.97700
C  28.66800 1.29900 32.79000
C  28.76700 0.16700 33.84300
O  28.16000 -0.87200 33.69400
O  29.47800 0.59100 34.92900
C  29.52300 -0.35800 36.07400
H  21.82400 1.30500 32.29400
H  22.26900 1.60600 25.90400
H  28.41000 0.97300 26.29800
H  25.97600 0.62400 34.37000
H  23.53200 2.24200 34.06000
H  22.81200 0.72700 35.28400
H  24.18800 -0.36400 34.91800
H  22.75700 -0.31500 33.84700
H  26.41300 3.46000 34.05100
H  27.17500 2.49700 35.17900
H  24.46800 2.49000 36.18200
H  24.61700 4.07300 35.55300
H  19.20000 2.35500 30.92000
H  19.96000 0.88100 31.56700
H  18.77900 0.72700 30.25800
H  17.99100 0.48800 28.20500
H  17.56300 1.57500 26.80700
H  17.96400 2.24900 28.42400
H  24.62900 2.69500 24.65200
H  26.54800 0.61700 24.77900
H  24.87800 0.09600 23.56400
H  23.42400 1.22500 23.31700
H  23.39600 -0.08900 24.53100
H  26.58300 2.94900 23.66500
H  28.14500 2.32800 24.37000
H  26.87700 3.85800 26.37500
H  26.81900 4.76600 24.84100
H  28.38000 4.27000 25.61700
H  31.17700 1.35300 28.26900
H  30.39400 0.04500 27.28300
H  31.13200 -0.35600 28.74400
H  28.71900 2.27000 33.28100
H  29.64200 -1.37100 35.68900
H  28.63600 -0.23600 36.69500
H  30.36600 -0.18500 36.74300

