158

Mg 35.79100 48.83600 25.05300
C  35.92900 46.83100 28.01700
C  34.10500 51.14300 26.81000
C  35.34500 50.54100 22.24100
C  37.38500 46.21900 23.27800
N  34.95200 48.88700 27.12100
C  35.23700 48.03100 28.17500
C  34.84600 48.64100 29.50000
C  34.12500 49.92700 29.07200
C  34.43100 50.00000 27.57800
C  32.55000 50.00300 29.24900
C  36.04700 49.03400 30.40700
C  35.82400 48.83000 31.90300
H  34.44800 48.56100 32.44100
N  34.87300 50.64400 24.61500
C  34.25300 51.47200 25.49300
C  33.77300 52.62800 24.75200
C  34.06900 52.44000 23.34900
C  34.84900 51.21300 23.36300
C  33.06500 53.82200 25.48300
C  33.79500 53.23300 22.19000
O  34.20100 53.03700 21.01500
C  33.01000 54.49500 22.38400
N  36.30200 48.40700 23.13000
C  35.99900 49.29200 22.16300
C  36.49900 48.82500 20.71400
C  37.34800 47.51100 21.10400
C  37.00800 47.36100 22.58500
C  35.50100 48.58200 19.66100
C  38.82900 47.50000 20.76200
C  39.84000 48.19800 21.80100
N  36.47200 46.93100 25.48100
C  37.10700 45.96200 24.66000
C  37.50000 44.79500 25.47100
C  37.08900 45.10500 26.77000
C  36.43700 46.33500 26.72300
C  38.17700 43.57100 24.91300
C  37.11000 44.59600 28.13900
O  37.48000 43.51700 28.61700
C  36.38300 45.73900 29.09300
C  35.24800 45.11700 29.78000
O  34.08100 45.05100 29.34800
O  35.60800 44.63300 30.94500
C  34.47900 44.20700 31.87100
H  33.61800 51.96000 27.34800
H  35.26000 50.98300 21.24600
H  37.96700 45.45600 22.75800
H  34.12600 48.07800 30.09400
H  34.64900 50.81800 29.41900
H  32.23200 48.97900 29.45000
H  32.00900 50.30300 28.35200
H  32.41900 50.71100 30.06700
H  36.30400 50.08300 30.25300
H  36.86100 48.34800 30.17200
H  36.12800 49.66400 32.53400
H  36.46700 48.02200 32.25000
H  33.63000 54.75400 25.46000
H  32.75600 53.64300 26.51300
H  32.08900 54.11300 25.09400
H  32.54500 54.99200 21.53300
H  33.58100 55.14000 23.05200
H  32.04100 54.28600 22.83800
H  37.21000 49.54100 20.30400
H  36.92200 46.65500 20.58200
H  36.02900 48.38200 18.72900
H  35.04800 49.55400 19.46900
H  34.78500 47.79400 19.89500
H  38.93500 48.12200 19.87300
H  38.99800 46.44500 20.54600
H  39.36200 49.00000 22.36300
H  40.54700 48.66700 21.11700
H  40.33200 47.46100 22.43500
H  37.66500 43.06600 24.09300
H  38.00600 42.87800 25.73700
H  39.21900 43.81400 24.70400
H  37.11300 46.09800 29.81900
H  34.39000 44.78500 32.79200
H  34.62100 43.17200 32.18100
H  33.50600 44.28100 31.38600
Mg 6.43600 53.20400 40.73800
C  5.90500 49.65100 40.29300
C  9.63800 52.64800 39.57700
C  6.62400 56.44500 40.44500
C  3.01500 53.41400 41.31800
N  7.59200 51.32300 39.85900
C  7.21000 49.98700 39.90700
C  8.44400 49.01800 39.76800
C  9.63500 50.03600 39.87100
C  8.91300 51.42900 39.64600
C  10.23400 49.92600 41.28500
C  8.46100 48.15500 38.49900
C  8.35500 48.89600 37.19400
H  7.48600 48.19500 36.09800
N  7.95100 54.43300 40.00200
C  9.18600 54.03000 39.63400
C  9.90600 55.18800 39.28900
C  9.02500 56.33300 39.45100
C  7.78800 55.79300 40.03200
C  11.40600 55.17000 38.97500
C  9.38500 57.74600 39.10000
O  10.52100 57.98100 38.65700
C  8.54300 58.99600 39.25400
N  4.99200 54.67500 40.83400
C  5.39300 55.95600 40.81600
C  4.18400 56.94000 41.02900
C  3.04900 55.95600 41.18700
C  3.68300 54.59000 40.97400
C  4.38900 57.88200 42.32800
C  1.92800 56.26700 40.14600
C  0.58300 56.75300 40.74300
N  4.81800 51.82500 40.97400
C  3.49700 52.04600 41.17800
C  2.71400 50.85600 41.39300
C  3.67600 49.89200 41.06100
C  4.90000 50.50000 40.74800
C  1.22500 50.68400 41.73000
C  3.83200 48.42700 40.96400
O  3.06100 47.53400 41.08500
C  5.32000 48.26600 40.39400
C  5.18000 47.61500 39.05300
O  4.75200 48.03100 37.98400
O  5.45700 46.35900 39.24400
C  5.08100 45.37300 38.20900
H  10.71000 52.47000 39.68700
H  6.77000 57.52300 40.53900
H  2.02600 53.43700 41.78100
H  8.55400 48.26900 40.55200
H  10.27400 49.97100 38.99100
H  11.16400 49.39700 41.07500
H  9.59100 49.38400 41.97900
H  10.57900 50.90900 41.60400
H  7.65600 47.44400 38.68500
H  9.42800 47.65100 38.48200
H  9.31800 49.19400 36.78200
H  7.88200 49.84900 37.43000
H  11.45200 55.24200 37.88800
H  11.82200 54.23000 39.33900
H  11.96500 56.01400 39.37900
H  8.87700 59.87800 38.70800
H  8.47600 59.34000 40.28600
H  7.54300 58.96700 38.82200
H  4.19600 57.51600 40.10400
H  2.66000 55.92900 42.20500
H  5.38200 57.76200 42.76100
H  3.74400 57.71900 43.19200
H  4.35700 58.91500 41.98100
H  1.61400 55.39700 39.56900
H  2.08800 56.99800 39.35400
H  0.82800 57.67600 41.26700
H  0.12100 56.01800 41.40300
H  -0.10600 56.98100 39.93000
H  0.74800 51.32300 40.98600
H  1.17900 51.11000 42.73200
H  0.81300 49.68500 41.58900
H  5.92000 47.67600 41.08800
H  5.96800 44.85600 37.84400
H  4.58900 45.78800 37.33000
H  4.51800 44.53200 38.61400

