158

Mg 16.82900 -1.22100 28.54200
C  15.82600 0.53400 31.30900
C  18.96200 -2.96600 30.57200
C  18.18300 -2.59600 25.77100
C  14.95600 0.86500 26.48200
N  17.32000 -1.14000 30.72700
C  16.82400 -0.43000 31.65000
C  17.31500 -0.81500 33.04700
C  18.63900 -1.60000 32.75100
C  18.36400 -1.88900 31.30600
C  20.06200 -1.10100 33.13600
C  16.28900 -1.39800 34.02000
C  16.31800 -0.77300 35.44600
H  17.61600 -0.22100 35.93000
N  18.28600 -2.68500 28.28700
C  19.06300 -3.34800 29.21900
C  19.99500 -4.25700 28.47000
C  19.68400 -4.21500 27.10800
C  18.69100 -3.14000 26.97800
C  21.06300 -5.13800 29.22900
C  20.26800 -5.07600 25.90400
O  19.89600 -5.07800 24.72700
C  21.39800 -6.02400 26.13800
N  16.55600 -0.98400 26.37900
C  17.25100 -1.61000 25.48100
C  16.86200 -1.18400 24.06800
C  15.69600 -0.25700 24.27800
C  15.75000 -0.04200 25.80200
C  18.09500 -0.60600 23.16800
C  14.26700 -0.70600 23.85000
C  14.02300 -0.66800 22.34200
N  15.67300 0.37500 28.74100
C  14.93200 1.09500 27.85000
C  14.07200 2.10400 28.55200
C  14.38600 1.83600 29.90300
C  15.37400 0.81100 29.98500
C  13.12400 3.17300 27.93000
C  14.07700 2.20100 31.29700
O  13.20800 2.98900 31.70700
C  14.98600 1.44000 32.20000
C  15.88200 2.41200 32.82100
O  16.93200 2.76400 32.39300
O  15.25800 2.90000 33.94600
C  16.11800 3.80500 34.75600
H  19.69000 -3.56400 31.12500
H  18.55500 -3.05900 24.85500
H  14.48300 1.62200 25.85300
H  17.72600 0.09500 33.48700
H  18.44900 -2.52100 33.30200
H  20.57500 -0.78800 32.22600
H  20.61700 -1.88400 33.65400
H  19.93300 -0.24100 33.79300
H  16.33500 -2.48300 34.11100
H  15.30800 -1.29700 33.55500
H  16.02400 -1.50600 36.19700
H  15.58800 0.03200 35.36800
H  21.21600 -4.86700 30.27400
H  21.99300 -4.81300 28.76400
H  20.86600 -6.20800 29.17200
H  22.34200 -5.50900 26.31700
H  21.51600 -6.59100 25.21400
H  21.11700 -6.71200 26.93500
H  16.46200 -2.11700 23.67100
H  15.96600 0.68700 23.80600
H  18.59100 -1.44900 22.68700
H  18.85900 -0.22700 23.84800
H  17.61200 0.09800 22.49000
H  13.54900 0.00600 24.25600
H  14.07600 -1.76000 24.05100
H  13.37100 0.13800 22.00500
H  13.67900 -1.64700 22.00700
H  14.95700 -0.45300 21.82500
H  13.61600 3.56600 27.04000
H  12.96600 4.06800 28.53200
H  12.20400 2.66800 27.63500
H  14.39400 0.92200 32.95500
H  16.02100 3.52000 35.80300
H  15.81200 4.83400 34.57100
H  17.16600 3.67600 34.48600
Mg 1.50900 42.58000 25.38200
C  2.48000 42.96200 28.78400
C  -1.71100 41.73000 26.46700
C  0.59300 41.94000 22.15300
C  4.68400 43.36800 24.43600
N  0.61700 42.24600 27.48500
C  1.13300 42.54000 28.70600
C  0.07200 42.30800 29.88000
C  -1.19800 41.76800 29.09800
C  -0.78400 41.98500 27.54100
C  -1.60900 40.28400 29.35100
C  -0.27700 43.57200 30.76300
C  0.15500 43.48900 32.22800
H  -0.88500 43.52500 33.40600
N  -0.33000 41.99700 24.46900
C  -1.50700 41.71500 25.10000
C  -2.51700 41.46900 24.00400
C  -1.82100 41.56300 22.74000
C  -0.49000 41.91600 23.06600
C  -3.96700 41.20100 24.37400
C  -2.35500 41.41300 21.35800
O  -1.73300 41.61200 20.35100
C  -3.70500 40.76900 21.20000
N  2.48300 42.63900 23.60100
C  1.92500 42.25100 22.42200
C  2.95000 42.25400 21.28600
C  4.25600 42.68800 21.98900
C  3.75500 43.01700 23.46700
C  3.08100 40.83000 20.60500
C  5.03200 43.79900 21.23700
C  4.39300 45.20600 21.05700
N  3.29200 43.01100 26.35700
C  4.53000 43.30100 25.87200
C  5.42600 43.50800 26.93800
C  4.67100 43.36800 28.05300
C  3.33700 43.09700 27.70100
C  6.85100 43.80700 26.86400
C  4.74500 43.47700 29.44500
O  5.74400 43.64900 30.18500
C  3.31000 43.15300 29.99700
C  3.31400 41.93500 30.75100
O  3.28300 40.79500 30.30800
O  3.25800 42.20700 32.09700
C  3.40900 41.13000 33.09600
H  -2.67100 41.39700 26.86700
H  0.35900 41.65000 21.12600
H  5.72000 43.47900 24.11100
H  0.43400 41.48100 30.49000
H  -2.11000 42.35400 29.21200
H  -1.15800 39.96100 30.28900
H  -1.22100 39.69000 28.52300
H  -2.69000 40.13900 29.33500
H  -1.35600 43.70300 30.84200
H  0.07500 44.45300 30.22700
H  0.68600 44.43000 32.37000
H  0.78500 42.60000 32.27300
H  -4.17200 40.22500 24.81400
H  -4.70600 41.35600 23.58900
H  -4.21300 41.97800 25.09800
H  -3.90000 39.82000 21.70100
H  -3.72200 40.56300 20.12900
H  -4.47100 41.49400 21.47300
H  2.81800 42.89000 20.41100
H  4.87800 41.79400 22.02900
H  3.61200 40.22300 21.33900
H  3.67100 40.99900 19.70400
H  2.08000 40.49100 20.33900
H  5.25600 43.45000 20.22900
H  5.93400 43.96300 21.82700
H  3.37700 45.35700 21.41900
H  4.44500 45.46300 19.99800
H  4.98100 45.96600 21.57200
H  7.15200 44.60300 27.54600
H  7.05200 44.06100 25.82300
H  7.31000 42.88600 27.22200
H  2.99300 43.86400 30.75900
H  2.67900 41.27700 33.89200
H  4.40500 41.18900 33.53300
H  3.35400 40.08000 32.80600

