158

Mg 35.93600 0.42800 29.49100
C  33.59100 1.55200 31.91400
C  38.27100 0.20600 32.10000
C  38.30000 -0.04700 27.13700
C  33.58200 1.18800 27.00200
N  35.86800 0.89400 31.72000
C  34.83100 1.30600 32.48600
C  35.28200 1.39600 33.94600
C  36.78100 1.00800 34.00400
C  36.99700 0.64900 32.55100
C  37.89500 1.93800 34.55400
C  34.33900 0.60300 34.92100
C  33.57000 1.36600 36.00600
H  34.31800 2.57200 36.58300
N  37.94900 -0.01100 29.60600
C  38.75800 -0.03100 30.76300
C  40.07800 -0.25200 30.37700
C  40.12200 -0.41200 28.92400
C  38.77800 -0.11300 28.51300
C  41.22800 -0.30000 31.36100
C  41.25000 -0.80200 28.04800
O  41.04400 -1.07400 26.83700
C  42.69400 -0.96900 28.61400
N  35.95900 0.53300 27.40400
C  37.03900 0.24700 26.65800
C  36.77700 0.33900 25.16800
C  35.24800 0.54500 25.12600
C  34.90500 0.80300 26.58600
C  37.39200 1.53300 24.42600
C  34.33300 -0.43400 24.26200
C  33.63400 -1.60200 25.00600
N  33.92400 1.00400 29.44300
C  33.15500 1.29900 28.35700
C  31.88600 1.65600 28.88000
C  31.96500 1.80400 30.22300
C  33.24900 1.44600 30.53200
C  30.60700 1.91700 27.99600
C  31.30100 2.12200 31.48200
O  30.08500 2.31900 31.61600
C  32.33800 1.99600 32.71700
C  32.53200 3.31900 33.38800
O  33.48400 4.01400 33.14100
O  31.43100 3.70400 34.05300
C  31.52000 5.12000 34.59000
H  38.89900 0.09400 32.98600
H  38.99500 -0.10100 26.29600
H  32.86500 1.20200 26.17800
H  35.16700 2.44000 34.23900
H  36.80500 0.11800 34.63300
H  38.59200 1.25300 35.03500
H  37.71200 2.58300 35.41300
H  38.39200 2.37900 33.69000
H  34.80200 -0.26300 35.39400
H  33.57700 0.14600 34.29000
H  33.55900 0.69500 36.86600
H  32.51900 1.59800 35.83400
H  40.79600 -0.57400 32.32400
H  41.90200 0.55600 31.40600
H  41.89000 -1.14500 31.17300
H  42.74600 -1.88600 29.20100
H  42.98200 0.00400 29.01200
H  43.37300 -1.03100 27.76400
H  37.11000 -0.52400 24.59100
H  34.93700 1.47600 24.65100
H  38.25400 1.19600 23.85100
H  37.74600 2.25200 25.16600
H  36.67100 1.95100 23.72300
H  34.86100 -0.72300 23.35300
H  33.46500 0.14500 23.94800
H  34.01300 -2.57300 24.68600
H  32.58700 -1.82900 24.80500
H  33.84100 -1.52400 26.07400
H  30.37000 0.99400 27.46600
H  30.92000 2.60700 27.21300
H  29.70000 2.07900 28.57800
H  31.89800 1.23500 33.36100
H  32.43700 5.35600 35.13000
H  30.76200 5.16900 35.37100
H  31.47300 5.72800 33.68600
Mg 25.91200 50.27600 26.41900
C  23.59300 51.52400 28.70600
C  28.04700 49.54900 29.04500
C  28.14800 49.52000 24.11700
C  23.70100 51.53500 23.79400
N  25.79000 50.55300 28.67200
C  24.72000 51.07800 29.39600
C  24.94800 50.84900 30.89700
C  26.37900 50.47600 30.88600
C  26.81600 50.18600 29.42100
C  27.40800 51.32300 31.72000
C  23.96600 49.82200 31.56900
C  24.16400 49.37100 33.03800
H  24.68700 50.36100 34.08100
N  27.83400 49.52000 26.51500
C  28.53700 49.22400 27.69000
C  29.83800 48.64300 27.29900
C  29.82800 48.64700 25.86800
C  28.57600 49.27200 25.41200
C  30.88500 48.21500 28.36000
C  30.94800 48.09300 24.92900
O  30.77700 48.01500 23.66500
C  32.29700 47.49900 25.45200
N  25.78600 50.24400 24.22000
C  26.90100 49.98000 23.53200
C  26.60000 50.22400 22.02300
C  25.12200 50.70700 21.98800
C  24.85800 50.83500 23.43700
C  27.55500 51.06800 21.33400
C  23.99500 49.82400 21.40000
C  23.05100 50.62500 20.35200
N  23.91200 51.31500 26.22200
C  23.18800 51.68000 25.12700
C  21.99000 52.27800 25.56300
C  22.11000 52.25300 26.94300
C  23.28900 51.67000 27.30800
C  20.87100 52.83200 24.74900
C  21.40000 52.58800 28.19200
O  20.36200 53.15200 28.41600
C  22.32300 52.14500 29.34900
C  22.72500 53.20500 30.19800
O  23.48100 54.10500 29.90700
O  22.27600 52.95900 31.44300
C  22.35600 54.17600 32.41200
H  28.66100 49.28800 29.90900
H  28.79100 49.23800 23.28100
H  23.05600 51.93400 23.00900
H  24.99000 51.80400 31.42100
H  26.42100 49.50800 31.38600
H  27.82700 52.09700 31.07700
H  28.23900 50.81100 32.20500
H  26.88400 51.88700 32.49200
H  24.05800 48.92200 30.96100
H  22.97700 50.22100 31.34000
H  24.67800 48.41100 33.01600
H  23.10800 49.36000 33.31100
H  31.11300 47.16300 28.18900
H  30.48700 48.34300 29.36700
H  31.73900 48.89000 28.41700
H  32.97900 48.26900 25.81200
H  32.57100 46.84200 24.62700
H  32.09200 46.78100 26.24600
H  26.79000 49.25600 21.56100
H  25.07100 51.69400 21.52900
H  28.44700 51.27500 21.92600
H  27.17400 52.08500 21.24400
H  27.95000 50.66500 20.40100
H  23.29100 49.33600 22.07400
H  24.46700 48.97700 20.90100
H  22.81900 49.99000 19.49800
H  23.60200 51.52100 20.06600
H  22.15700 50.89000 20.91700
H  20.32600 53.52700 25.38800
H  20.24700 52.01200 24.39400
H  21.34200 53.42100 23.96200
H  21.86100 51.33900 29.91800
H  22.36500 55.08200 31.80600
H  23.24400 54.04700 33.03100
H  21.49500 54.12500 33.07800

