158

Mg 54.15500 24.87500 44.89000
C  51.65400 27.16600 43.97400
C  52.26300 22.41700 43.36100
C  56.80700 23.04300 45.02900
C  56.13600 27.71800 45.94700
N  52.24100 24.84000 43.71200
C  51.37300 25.87200 43.55000
C  50.21700 25.38200 42.76100
C  50.18000 23.85900 43.05700
C  51.64400 23.65700 43.36500
C  49.21100 23.50300 44.21100
C  50.18400 25.68100 41.18600
C  51.60100 25.90000 40.53800
H  52.13100 24.69300 39.77600
N  54.45900 22.93600 44.30300
C  53.58300 22.10900 43.69000
C  54.23400 20.85200 43.50200
C  55.55700 20.92600 44.04700
C  55.65500 22.30600 44.56100
C  53.55100 19.66800 42.72600
C  56.60100 19.85700 43.98800
O  56.45900 18.86000 43.30000
C  58.00200 19.86500 44.70300
N  56.22400 25.27800 45.49600
C  57.16100 24.32500 45.43300
C  58.49900 24.80300 45.94500
C  58.27000 26.34300 45.98900
C  56.79400 26.46700 45.83100
C  58.74200 24.07700 47.25500
C  59.11100 27.21100 45.00600
C  59.81400 28.44000 45.67800
N  53.94700 27.02100 45.06400
C  54.77400 28.03400 45.60500
C  54.01100 29.23200 45.71200
C  52.77000 28.98000 45.05100
C  52.77900 27.63500 44.72700
C  54.47600 30.58800 46.38500
C  51.52400 29.59100 44.55500
O  51.04800 30.69600 44.70100
C  50.80300 28.48000 43.82400
C  50.52600 28.91200 42.44100
O  51.34400 29.16400 41.58600
O  49.18600 28.90600 42.24400
C  48.70100 29.37700 40.95600
H  51.65300 21.55900 43.07000
H  57.68400 22.41000 45.18000
H  56.78300 28.54200 46.25600
H  49.24900 25.81000 43.02400
H  49.88100 23.31200 42.16300
H  48.90000 24.42300 44.70600
H  49.56600 22.79100 44.95600
H  48.29100 23.02800 43.86700
H  49.53600 26.54100 41.01700
H  49.63100 24.83700 40.77200
H  52.32800 26.12600 41.31800
H  51.54300 26.80000 39.92500
H  53.48200 19.94200 41.67300
H  52.56400 19.48100 43.14900
H  54.14000 18.75400 42.80200
H  58.36200 18.84100 44.80900
H  57.91700 20.45300 45.61700
H  58.67900 20.49700 44.12800
H  59.34300 24.51900 45.31600
H  58.37400 26.69100 47.01700
H  59.24600 23.12200 47.10500
H  57.83600 23.98300 47.85400
H  59.39300 24.70500 47.86300
H  58.55000 27.61900 44.16500
H  59.90300 26.59500 44.57800
H  60.81200 28.45900 45.24000
H  59.88300 28.38200 46.76400
H  59.26300 29.30700 45.31400
H  53.81100 30.83100 47.21400
H  54.32000 31.46000 45.75000
H  55.51100 30.52800 46.72100
H  49.82500 28.41900 44.30100
H  49.24100 29.05300 40.06600
H  48.44400 30.43600 40.91700
H  47.82200 28.74800 40.82000
Mg -2.77400 33.98700 26.07400
C  -4.52100 32.50100 28.76900
C  -1.00800 35.97100 28.35600
C  -1.54700 35.80000 23.45700
C  -4.85400 32.37000 23.89600
N  -2.86200 34.31700 28.21600
C  -3.62400 33.50300 29.10600
C  -3.44000 34.02400 30.56300
C  -2.43800 35.19700 30.43100
C  -2.09500 35.17500 28.95500
C  -2.97800 36.57600 30.99000
C  -2.91500 32.82200 31.40700
C  -2.28800 33.21700 32.83100
H  -2.70100 32.40900 34.08000
N  -1.38800 35.57000 25.93600
C  -0.70000 36.19100 27.00300
C  0.25500 37.20200 26.34300
C  0.13300 37.05000 24.97600
C  -0.99200 36.10100 24.70400
C  1.16100 38.02000 27.21400
C  0.91100 37.81200 23.92800
O  0.68000 37.69900 22.76000
C  1.98300 38.68700 24.38500
N  -3.29300 34.23200 24.01200
C  -2.67100 35.04800 23.15600
C  -3.11600 34.86200 21.67900
C  -4.01200 33.53800 21.79000
C  -4.03000 33.34000 23.33900
C  -3.91700 36.07100 21.11600
C  -3.63900 32.27100 21.01100
C  -2.79700 31.22900 21.79800
N  -4.30500 32.62300 26.21200
C  -5.08700 32.05200 25.25200
C  -5.92800 31.05600 25.85100
C  -5.74200 31.24900 27.21400
C  -4.81200 32.22600 27.41200
C  -6.71600 30.04000 25.08800
C  -6.18500 30.75900 28.54300
O  -6.88500 29.82300 28.82900
C  -5.42200 31.58200 29.59400
C  -6.41700 32.24300 30.47200
O  -7.27800 33.01100 30.12200
O  -6.24800 31.79300 31.81400
C  -7.31500 32.14100 32.77000
H  -0.39100 36.55100 29.04500
H  -1.14100 36.27800 22.56300
H  -5.45000 31.75000 23.22400
H  -4.40300 34.37900 30.93100
H  -1.49400 35.10100 30.96700
H  -2.71500 37.43000 30.36600
H  -2.42900 36.86700 31.88600
H  -4.02100 36.57800 31.30900
H  -2.11700 32.36300 30.82200
H  -3.59500 32.01500 31.67800
H  -2.74300 34.17900 33.06800
H  -1.21600 33.38400 32.72200
H  1.03900 37.77400 28.26900
H  0.92900 39.07400 27.06400
H  2.23500 38.02400 27.02900
H  1.65500 39.68900 24.66100
H  2.68700 38.80100 23.56100
H  2.65900 38.15800 25.05700
H  -2.22800 34.52400 21.14500
H  -5.03500 33.79800 21.51800
H  -3.92000 36.91800 21.80200
H  -4.96400 35.94000 20.84200
H  -3.40200 36.36500 20.20100
H  -3.07300 32.63500 20.15400
H  -4.57900 31.82600 20.68500
H  -2.26100 31.66300 22.64200
H  -2.07100 30.68700 21.19100
H  -3.42200 30.42000 22.17500
H  -6.14300 29.16300 24.78700
H  -7.26000 30.49500 24.26100
H  -7.53800 29.75000 25.74200
H  -4.79600 30.87400 30.13700
H  -6.72600 32.26300 33.67900
H  -7.95500 31.28500 32.98800
H  -7.87600 33.01300 32.43500

