158

Mg 35.34000 2.92100 30.23100
C  32.75500 3.86200 32.35400
C  37.41900 3.05200 32.99700
C  37.99700 2.56900 28.25600
C  33.23400 3.08400 27.59000
N  35.14500 3.48600 32.33300
C  33.99000 3.83900 32.97800
C  34.11600 3.90100 34.53800
C  35.65600 3.87500 34.66200
C  36.13100 3.39800 33.22000
C  36.06000 5.22600 35.09900
C  33.43900 2.65300 35.12500
C  33.11100 2.58700 36.65900
H  33.67900 3.68700 37.68800
N  37.42600 2.76100 30.55800
C  38.05900 2.72700 31.78300
C  39.44100 2.47100 31.61900
C  39.55200 2.20800 30.24600
C  38.31900 2.57700 29.63200
C  40.35300 2.40600 32.79500
C  40.76300 1.63500 29.40400
O  40.69300 1.34800 28.19700
C  42.07800 1.43900 30.13200
N  35.60700 3.00500 28.20400
C  36.80200 2.79400 27.57800
C  36.59900 2.46900 26.03900
C  35.03100 2.54100 25.91000
C  34.56200 2.87400 27.30500
C  37.32500 3.27400 24.93100
C  34.38800 1.26500 25.35500
C  34.15700 0.00300 26.26100
N  33.30700 3.36800 29.96700
C  32.57500 3.36200 28.82100
C  31.18200 3.65300 29.14400
C  31.22600 3.83700 30.57000
C  32.53000 3.69000 30.99700
C  30.20900 3.67900 28.14400
C  30.36400 4.17700 31.71100
O  29.22600 4.54800 31.77300
C  31.37500 4.24300 32.93400
C  31.41700 5.61400 33.42800
O  31.30400 6.62200 32.73100
O  31.41700 5.55800 34.80200
C  31.62600 6.81400 35.54900
H  38.05800 3.25300 33.86000
H  38.85700 2.60800 27.58600
H  32.55100 2.96800 26.74500
H  33.44000 4.68500 34.87900
H  35.98700 3.16800 35.42300
H  36.17100 5.14900 36.18000
H  35.38600 6.06100 34.90900
H  37.05600 5.53600 34.78200
H  33.99600 1.76200 34.83700
H  32.45000 2.39600 34.74300
H  33.49300 1.68500 37.13700
H  32.02900 2.47000 36.71700
H  40.20000 1.49400 33.37200
H  40.27900 3.35900 33.31800
H  41.39900 2.44700 32.49000
H  42.81800 1.28200 29.34600
H  42.04800 0.63100 30.86200
H  42.34200 2.40900 30.55200
H  36.90200 1.43300 25.89200
H  34.79400 3.37900 25.25500
H  38.27900 2.85400 24.61500
H  37.60200 4.23800 25.35900
H  36.64400 3.35000 24.08300
H  35.06500 0.92600 24.57100
H  33.51800 1.56400 24.77000
H  35.06700 -0.58500 26.14300
H  33.36200 -0.61800 25.84700
H  34.15500 0.30400 27.30800
H  30.12800 2.75300 27.57400
H  30.54700 4.48900 27.49800
H  29.26600 4.00200 28.58700
H  30.99100 3.62300 33.74400
H  30.64200 7.18000 35.84100
H  32.11200 7.60000 34.97000
H  32.26100 6.73600 36.43200
Mg 40.49900 9.21800 30.25900
C  42.62600 10.32800 32.81800
C  38.27000 8.34100 32.64500
C  38.65900 8.00900 27.80600
C  43.22000 9.62800 28.02400
N  40.46600 9.34700 32.44200
C  41.36200 9.91900 33.25500
C  40.84700 9.91500 34.70000
C  39.62800 9.09900 34.63200
C  39.44200 8.90500 33.11800
C  39.65700 7.73900 35.47100
C  40.59300 11.32900 35.29300
C  40.14800 11.33500 36.72400
H  40.86000 12.21800 37.77400
N  38.66500 8.39200 30.21700
C  37.82200 8.13700 31.29000
C  36.56400 7.57500 30.80200
C  36.70300 7.51000 29.39900
C  38.00400 8.05000 29.07000
C  35.49800 7.08600 31.72600
C  35.65100 7.08100 28.41400
O  35.61000 7.25300 27.24700
C  34.48200 6.34900 28.96100
N  40.82900 8.99800 28.21900
C  39.90200 8.39000 27.40700
C  40.33300 8.28200 25.89900
C  41.78000 9.02300 25.98500
C  41.98300 9.16800 27.50300
C  40.54600 6.77100 25.55900
C  41.77600 10.42300 25.35100
C  43.10500 11.03700 24.91400
N  42.50600 9.79000 30.33000
C  43.48000 9.93800 29.35900
C  44.75200 10.37100 29.95100
C  44.46900 10.59300 31.27900
C  43.07500 10.29600 31.42500
C  45.98100 10.56800 29.11700
C  44.97000 11.03300 32.48600
O  46.07300 11.43100 32.77000
C  43.75900 11.02700 33.57100
C  44.30700 10.27800 34.73000
O  44.87800 9.23500 34.56200
O  44.00000 10.82600 35.90600
C  44.22300 10.14400 37.12000
H  37.48000 8.09600 33.35800
H  37.98800 7.52900 27.09100
H  44.11300 9.59600 27.39700
H  41.62500 9.39000 35.25400
H  38.74500 9.57200 35.06100
H  40.63400 7.40000 35.81600
H  39.30500 6.99600 34.75600
H  39.01200 7.85300 36.34200
H  39.88500 11.75700 34.58300
H  41.45300 11.98100 35.13900
H  40.24200 10.32100 37.11400
H  39.09800 11.62600 36.69000
H  35.63100 7.30000 32.78600
H  35.28700 6.02800 31.57100
H  34.58300 7.60400 31.43700
H  33.91200 7.06800 29.54900
H  34.88300 5.53200 29.56200
H  33.87700 5.89100 28.17800
H  39.53100 8.65500 25.26100
H  42.60600 8.38800 25.66400
H  40.92400 6.21200 26.41600
H  41.16600 6.59500 24.68000
H  39.53700 6.42300 25.34100
H  41.26700 11.16900 25.96100
H  41.12200 10.43900 24.47900
H  43.94600 10.35100 25.02500
H  43.27400 11.96500 25.45900
H  43.17600 11.24100 23.84600
H  45.87800 11.52900 28.61400
H  46.12500 9.77700 28.38100
H  46.87400 10.55900 29.74000
H  43.55000 12.04400 33.90300
H  43.33600 10.22400 37.74900
H  45.06400 10.57500 37.66300
H  44.48400 9.08600 37.08200

