158

Mg 35.86300 0.67800 30.42500
C  33.55900 1.24200 33.08300
C  38.34800 0.83900 32.73500
C  37.98800 0.36500 27.83900
C  33.21800 1.11200 28.12500
N  35.88000 1.09500 32.66600
C  34.84600 1.10600 33.59600
C  35.25200 1.27900 34.97500
C  36.73100 1.73500 34.75800
C  37.05400 1.09900 33.30300
C  36.99800 3.29000 34.89900
C  35.11500 0.03700 35.86100
C  34.67600 0.51900 37.30700
H  35.01200 1.93000 37.80400
N  37.85200 0.57000 30.32300
C  38.70300 0.57700 31.37800
C  40.04700 0.24800 30.94000
C  40.01300 0.13600 29.52400
C  38.56300 0.41200 29.17900
C  41.21400 0.17200 31.91000
C  41.10200 -0.09500 28.59800
O  40.89200 -0.17700 27.41900
C  42.53900 -0.42300 29.02700
N  35.65800 0.74200 28.30700
C  36.65800 0.51100 27.43000
C  36.29800 0.61300 25.97400
C  34.76900 0.79800 26.06100
C  34.48500 0.87800 27.60000
C  36.99400 1.66500 25.03700
C  33.99500 -0.20600 25.14100
C  33.48900 -1.46400 25.87800
N  33.80000 0.96700 30.54400
C  32.91000 1.17600 29.50400
C  31.62200 1.52400 30.06600
C  31.77400 1.51800 31.48500
C  33.16100 1.19200 31.70200
C  30.31400 1.63400 29.27200
C  31.13700 1.75900 32.75900
O  29.93600 1.96700 32.95800
C  32.29600 1.63900 33.80900
C  32.35200 2.96400 34.44900
O  32.50300 4.05500 33.88800
O  32.04100 2.82900 35.83000
C  31.60700 4.13100 36.40700
H  39.20900 0.97400 33.39100
H  38.61800 0.14900 26.97400
H  32.49400 1.37100 27.35000
H  34.66600 2.08100 35.42200
H  37.44500 1.28700 35.44900
H  37.61400 3.61600 35.73700
H  36.08500 3.84200 35.12000
H  37.44500 3.73900 34.01200
H  35.93100 -0.66400 36.03400
H  34.33600 -0.55200 35.37500
H  35.04300 -0.22100 38.01900
H  33.58800 0.56100 37.27800
H  41.08500 0.73500 32.83400
H  42.14700 0.59300 31.53500
H  41.39500 -0.82100 32.32100
H  42.94700 0.39400 29.62300
H  43.06700 -0.51500 28.07700
H  42.73300 -1.37100 29.52700
H  36.35400 -0.37500 25.51700
H  34.48600 1.78400 25.69100
H  37.86500 2.14800 25.48000
H  36.31400 2.44300 24.69000
H  37.29700 1.17600 24.11200
H  34.56100 -0.51800 24.26300
H  33.10800 0.30400 24.76500
H  33.96000 -1.48000 26.86100
H  33.92200 -2.41400 25.56700
H  32.42400 -1.45700 26.11300
H  29.77200 0.79000 29.70000
H  30.57700 1.56900 28.21600
H  29.76900 2.56900 29.40500
H  32.00800 0.94200 34.59600
H  31.35500 4.89700 35.67400
H  32.39900 4.49500 37.06100
H  30.77900 3.90700 37.08000
Mg 40.53400 7.58700 29.94900
C  42.48000 8.91600 32.53700
C  38.39200 6.38000 32.29600
C  38.92200 5.92200 27.37000
C  43.16700 8.19400 27.76700
N  40.49500 7.61200 32.19400
C  41.26800 8.38500 33.03200
C  40.78300 8.28200 34.47900
C  39.56500 7.29500 34.33600
C  39.50900 6.95600 32.82300
C  39.75700 5.94000 35.19500
C  40.54700 9.69800 35.09200
C  39.61800 9.76100 36.37700
H  40.39400 9.96600 37.70400
N  38.81300 6.50900 29.78700
C  38.03000 6.05900 30.90400
C  36.82900 5.41400 30.43200
C  36.89100 5.37000 28.97400
C  38.25000 5.97200 28.65200
C  35.76700 4.96700 31.37000
C  35.84000 4.88900 28.00400
O  36.06500 4.89400 26.77700
C  34.55800 4.42200 28.53100
N  40.99200 7.19000 27.76900
C  40.19900 6.45000 26.97600
C  40.83400 6.32800 25.61700
C  42.15900 7.15400 25.67700
C  42.12700 7.62300 27.13500
C  40.97600 4.84200 25.09800
C  42.25800 8.37400 24.63600
C  41.42600 9.49400 24.99500
N  42.45600 8.30700 30.08500
C  43.42600 8.47100 29.10100
C  44.48500 9.21500 29.70300
C  44.20100 9.37800 31.07700
C  42.94100 8.84400 31.18700
C  45.76700 9.55700 28.88100
C  44.75300 9.83600 32.34500
O  45.82300 10.28800 32.60500
C  43.59300 9.53100 33.40200
C  44.11500 8.64000 34.51400
O  44.15600 7.40500 34.54000
O  44.50100 9.36300 35.60000
C  45.07800 8.78100 36.68600
H  37.69200 5.94700 33.01400
H  38.38200 5.39500 26.58000
H  43.90800 8.43500 27.00200
H  41.65700 7.84600 34.96400
H  38.59600 7.69900 34.62700
H  38.87100 5.65600 35.76300
H  40.71300 6.05200 35.70600
H  39.81400 5.11200 34.48900
H  40.18600 10.35100 34.29600
H  41.52600 10.13300 35.29200
H  39.19500 8.75900 36.45000
H  38.88600 10.56900 36.37300
H  35.01300 5.73900 31.53100
H  36.27000 4.67400 32.29100
H  35.21500 4.10000 31.00700
H  34.15800 5.15800 29.22800
H  34.69200 3.44300 28.99200
H  33.88000 4.28500 27.68900
H  40.11500 6.95500 25.08900
H  42.98000 6.45200 25.52500
H  41.87600 4.47300 24.60600
H  40.16900 4.72800 24.37400
H  40.65100 4.32100 25.99900
H  41.86300 7.88600 23.74400
H  43.30300 8.66000 24.51600
H  40.66200 9.23900 25.73000
H  40.73400 9.60800 24.16100
H  42.03200 10.37200 25.22100
H  46.63300 9.42000 29.52900
H  45.69000 10.62600 28.68500
H  45.82500 8.87300 28.03400
H  43.28800 10.48500 33.83200
H  45.92500 8.21500 36.29600
H  44.33900 8.07200 37.05900
H  45.33400 9.38800 37.55400

