158

Mg 41.10100 8.82700 29.67600
C  42.81500 10.61600 32.08500
C  38.88600 7.79400 32.01600
C  39.85000 7.05300 27.23500
C  43.81600 9.64400 27.41000
N  40.94700 9.22500 31.83700
C  41.64400 10.08700 32.59700
C  41.12800 10.24600 34.01300
C  39.91900 9.21600 33.91500
C  39.82100 8.72900 32.45900
C  39.99400 8.00800 34.86500
C  40.74900 11.70600 34.46300
C  41.53200 12.18500 35.72600
H  40.76000 12.77400 36.84300
N  39.55400 7.66900 29.62300
C  38.75400 7.37900 30.70000
C  37.68900 6.56500 30.22500
C  37.83100 6.39800 28.79500
C  39.13800 7.02900 28.47400
C  36.56100 5.93200 31.13600
C  36.93600 5.71600 27.80200
O  37.25000 5.73500 26.57800
C  35.63800 5.01900 28.17800
N  41.81900 8.35900 27.62900
C  41.02300 7.61400 26.80400
C  41.40400 7.79000 25.35000
C  42.84100 8.42300 25.46900
C  42.86100 8.84100 26.94200
C  41.28000 6.55300 24.33300
C  43.09600 9.66400 24.60100
C  42.61700 11.07200 24.97700
N  42.89900 9.86000 29.70600
C  43.87700 10.09200 28.73500
C  44.90000 10.99000 29.35900
C  44.57900 11.17600 30.66200
C  43.34500 10.46400 30.82900
C  46.02700 11.45800 28.62000
C  44.98300 11.78800 31.89700
O  45.93800 12.54300 32.20700
C  43.86400 11.48800 32.86300
C  44.34400 10.69400 34.03000
O  44.57900 9.49200 33.97300
O  44.69500 11.52200 35.09200
C  45.31300 10.85900 36.23300
H  37.98000 7.66900 32.61300
H  39.28500 6.68500 26.37600
H  44.72400 9.78900 26.82100
H  41.97400 9.87300 34.59100
H  39.02700 9.75500 34.23700
H  40.93200 8.04900 35.41900
H  39.75300 7.00800 34.50500
H  39.29800 8.05600 35.70300
H  39.71000 11.76800 34.78700
H  40.92500 12.27900 33.55300
H  42.23800 12.97100 35.45800
H  42.00300 11.28600 36.12400
H  36.79300 5.96600 32.20000
H  36.51500 4.87900 30.85600
H  35.62000 6.46400 30.99500
H  35.16000 4.54100 27.32300
H  34.97000 5.76900 28.60000
H  35.74600 4.20900 28.90000
H  40.81200 8.57100 24.87300
H  43.65000 7.70000 25.36400
H  40.34500 6.67600 23.78700
H  41.10100 5.63400 24.89200
H  42.20800 6.45400 23.77000
H  42.65600 9.40300 23.63800
H  44.16900 9.75800 24.43700
H  43.38500 11.69200 25.43900
H  41.79100 10.92100 25.67200
H  42.23900 11.57300 24.08500
H  45.66200 12.24200 27.95600
H  46.44300 10.59200 28.10600
H  46.72200 11.84000 29.36800
H  43.45300 12.46300 33.12700
H  45.97500 10.07500 35.86500
H  44.59800 10.43300 36.93700
H  45.96700 11.57700 36.72900
Mg -11.92700 38.68500 42.72200
C  -10.06700 36.13000 41.52500
C  -9.89500 40.94700 41.12900
C  -14.21900 41.23100 43.12500
C  -14.34000 36.34000 43.76400
N  -10.28600 38.47500 41.45900
C  -9.55900 37.37800 41.17400
C  -8.30200 37.66400 40.33500
C  -8.21800 39.25000 40.37800
C  -9.57000 39.60400 41.09900
C  -7.13100 39.73900 41.35500
C  -8.14700 37.00600 38.98800
C  -6.83200 36.22200 38.64100
H  -6.01200 36.94900 37.44500
N  -12.01600 40.86400 42.30900
C  -11.02600 41.56300 41.63200
C  -11.35000 42.99300 41.69900
C  -12.58800 43.11000 42.25900
C  -12.99500 41.70200 42.58900
C  -10.45100 44.13500 41.22200
C  -13.40000 44.42400 42.57500
O  -12.76500 45.46500 42.34100
C  -14.80200 44.59800 43.09600
N  -13.95300 38.72700 43.41000
C  -14.65800 39.88400 43.50300
C  -16.05900 39.59100 44.03200
C  -16.10200 38.09000 44.30500
C  -14.67200 37.69100 43.78200
C  -16.44000 40.53300 45.27500
C  -17.17600 37.42700 43.36700
C  -17.70300 36.12500 43.85600
N  -12.11200 36.57500 42.85300
C  -13.14300 35.76600 43.19300
C  -12.69700 34.41900 43.12600
C  -11.51300 34.50600 42.43700
C  -11.23100 35.83100 42.24200
C  -13.45900 33.10600 43.46000
C  -10.52700 33.75100 41.73300
O  -10.36900 32.53900 41.46900
C  -9.45800 34.74700 41.25200
C  -8.23800 34.42900 41.98000
O  -8.09600 34.53400 43.19100
O  -7.31200 33.79400 41.15000
C  -6.15500 33.37600 41.90900
H  -9.19800 41.53900 40.53300
H  -14.99600 41.99600 43.19000
H  -15.03000 35.64700 44.25100
H  -7.56300 37.22800 41.00700
H  -8.13900 39.79400 39.43700
H  -6.41200 38.95200 41.58100
H  -7.51900 39.98600 42.34300
H  -6.63000 40.57100 40.85900
H  -8.29600 37.85600 38.32200
H  -8.96900 36.32300 38.77700
H  -6.97400 35.18200 38.34400
H  -6.20700 36.20200 39.53400
H  -11.08900 44.77100 40.60900
H  -9.69900 43.67600 40.58000
H  -9.98500 44.63600 42.07100
H  -15.48700 44.08800 42.41800
H  -15.03700 45.66100 43.15200
H  -14.73600 44.19600 44.10700
H  -16.66700 40.03600 43.24400
H  -16.22800 37.80300 45.34900
H  -17.05900 40.06400 46.03900
H  -17.00600 41.35700 44.84100
H  -15.59500 41.07200 45.70500
H  -16.72600 37.31500 42.38000
H  -18.03100 38.08800 43.22400
H  -17.35500 35.95300 44.87500
H  -17.42500 35.39100 43.09900
H  -18.77300 36.11300 43.64600
H  -13.70200 32.86800 44.49600
H  -12.81000 32.31400 43.08600
H  -14.31100 33.18000 42.78400
H  -9.31000 34.62500 40.17900
H  -5.63600 34.27500 42.24100
H  -5.47200 32.94400 41.17800
H  -6.49100 32.70600 42.70100

