158

Mg 46.63100 44.88300 44.83500
C  43.18500 44.77800 44.03300
C  46.93000 41.48200 44.24100
C  49.96900 45.23900 44.89200
C  46.24100 48.36200 45.16800
N  45.29200 43.40500 44.12800
C  43.88200 43.55700 43.83200
C  43.27400 42.25200 43.22800
C  44.40900 41.20000 43.60500
C  45.66000 42.06700 44.09200
C  44.09600 39.99900 44.64100
C  43.25800 42.44300 41.75200
C  41.89100 42.15300 41.09100
H  41.76000 41.29500 39.85800
N  48.23400 43.48700 44.77900
C  48.12800 42.15900 44.56700
C  49.44300 41.59800 44.35600
C  50.41100 42.63800 44.49300
C  49.53600 43.88900 44.80500
C  49.73500 40.12100 44.08400
C  51.89000 42.49000 44.43200
O  52.33500 41.36700 44.26400
C  52.83600 43.64900 44.57800
N  47.92000 46.54800 44.77300
C  49.28200 46.44700 44.83400
C  49.95300 47.82500 44.92500
C  48.76800 48.72400 45.34300
C  47.55800 47.86200 45.09700
C  51.22800 47.98300 45.87100
C  48.74500 50.14800 44.62900
C  48.74500 51.40500 45.47900
N  45.08400 46.30800 44.72400
C  45.00500 47.69900 44.92400
C  43.63200 48.18800 44.75600
C  42.90500 47.07800 44.36700
C  43.80400 45.96900 44.38300
C  43.14400 49.68600 44.73400
C  41.55900 46.58200 43.98300
O  40.41000 47.11500 43.97200
C  41.70600 44.99300 43.81300
C  40.84700 44.29300 44.76900
O  39.85100 43.63800 44.48300
O  41.29700 44.40000 46.08600
C  40.47600 43.63400 47.03900
H  46.97200 40.42500 43.96900
H  51.04100 45.44000 44.93000
H  46.26400 49.42200 45.43100
H  42.36100 42.13900 43.81300
H  44.66900 40.63200 42.71200
H  44.50000 39.06200 44.25700
H  43.04700 39.98400 44.93700
H  44.72300 40.17300 45.51600
H  44.04100 41.86400 41.26300
H  43.54000 43.46600 41.50200
H  41.44300 43.11300 40.83400
H  41.19400 41.52500 41.64600
H  48.80200 39.56600 43.98700
H  50.31600 39.66700 44.88700
H  50.26300 39.97100 43.14300
H  52.60300 43.99900 45.58400
H  52.61000 44.37000 43.79200
H  53.86600 43.29500 44.61500
H  50.24400 48.11500 43.91600
H  48.79200 48.81200 46.42900
H  52.18000 47.95300 45.34000
H  51.25200 47.26400 46.69000
H  51.29800 48.96800 46.33200
H  47.87900 50.27300 43.97800
H  49.64700 50.09200 44.02000
H  49.53200 52.12300 45.24800
H  48.83800 51.10400 46.52300
H  47.77700 51.90100 45.41200
H  42.45300 49.91600 43.92400
H  44.11600 50.17700 44.67200
H  42.59700 49.85600 45.66200
H  41.31800 44.78100 42.81600
H  40.97400 42.67200 47.16200
H  39.46700 43.29200 46.80900
H  40.40500 44.19200 47.97200
Mg -5.48400 24.58200 27.33800
C  -3.63200 26.26600 29.75800
C  -6.52500 22.23900 29.68600
C  -6.98200 22.75700 24.84100
C  -4.32300 26.77200 24.91100
N  -5.14600 24.39000 29.48100
C  -4.45200 25.23000 30.31800
C  -4.65700 24.90600 31.76700
C  -5.20000 23.46400 31.63800
C  -5.66800 23.32500 30.12200
C  -4.29100 22.32900 32.28700
C  -5.57800 25.76200 32.64600
C  -5.10700 25.81600 34.12100
H  -5.49700 24.79700 35.21400
N  -6.58500 22.73100 27.30300
C  -6.94000 21.89100 28.36000
C  -7.74900 20.79900 27.85200
C  -7.89100 20.91500 26.49700
C  -7.16500 22.22200 26.18200
C  -8.32200 19.78300 28.74800
C  -8.60300 20.08000 25.51400
O  -8.71400 20.45500 24.39300
C  -9.01900 18.69500 25.93000
N  -5.58500 24.73100 25.19300
C  -6.35100 23.96700 24.43600
C  -6.28600 24.32900 22.94600
C  -5.86600 25.79700 23.12300
C  -5.21700 25.79600 24.50500
C  -5.44500 23.51900 22.03100
C  -6.92500 26.81900 22.73100
C  -7.01000 27.17600 21.27300
N  -4.14700 26.17300 27.25100
C  -3.81400 27.00300 26.20100
C  -2.83200 28.03600 26.70100
C  -2.77000 27.76000 28.06300
C  -3.56200 26.65400 28.36300
C  -1.93700 28.88800 25.82200
C  -2.06700 28.16400 29.26400
O  -1.17800 29.00700 29.43500
C  -2.66200 27.23300 30.37700
C  -1.53000 26.59700 31.20200
O  -0.75900 25.77100 30.94800
O  -1.75900 27.03800 32.46900
C  -0.92000 26.44100 33.54400
H  -6.82700 21.54700 30.47500
H  -7.52000 22.24700 24.03900
H  -4.17600 27.64600 24.27200
H  -3.65200 24.80600 32.17700
H  -6.15500 23.34700 32.15100
H  -4.05600 21.63600 31.48000
H  -4.94800 21.77800 32.95900
H  -3.34600 22.61900 32.74600
H  -6.61500 25.43000 32.60100
H  -5.63800 26.76700 32.23000
H  -5.14100 26.86900 34.40200
H  -4.02300 25.73100 34.04200
H  -8.12200 18.78000 28.37000
H  -9.40000 19.90700 28.84400
H  -7.92300 19.87900 29.75800
H  -8.12000 18.17100 26.25500
H  -9.51800 18.09800 25.16700
H  -9.80000 18.80200 26.68300
H  -7.32000 24.22700 22.61700
H  -5.00100 26.07700 22.52100
H  -5.04700 22.58400 22.42500
H  -4.55100 24.07100 21.74100
H  -6.07000 23.31200 21.16100
H  -6.58500 27.67800 23.30900
H  -7.88100 26.51400 23.15600
H  -7.97200 27.24500 20.76500
H  -6.58500 26.43700 20.59400
H  -6.52200 28.13600 21.10500
H  -1.84700 29.96200 25.98300
H  -2.44300 28.85600 24.85800
H  -0.94200 28.44500 25.78100
H  -3.12800 27.94500 31.05800
H  0.14600 26.48100 33.32300
H  -1.15300 25.40800 33.80200
H  -1.21100 27.06000 34.39300

