158

Mg 40.81700 9.90700 30.07500
C  42.38300 10.95200 32.94500
C  38.04600 8.90300 31.87900
C  39.52000 8.66700 27.15800
C  43.49900 11.23900 28.21200
N  40.35900 9.71800 32.21000
C  41.09300 10.34200 33.14600
C  40.31800 10.51200 34.45000
C  39.09900 9.63700 34.19400
C  39.09000 9.45500 32.63000
C  38.90700 8.28300 34.98300
C  40.05600 11.99900 34.76200
C  39.56300 12.20500 36.15500
H  40.44600 13.02100 37.09700
N  39.02700 8.94900 29.59300
C  38.00200 8.56800 30.45900
C  37.04700 7.69300 29.67500
C  37.46000 7.66700 28.33500
C  38.69400 8.48700 28.28400
C  35.86300 7.06900 30.28700
C  36.82200 6.96900 27.15500
O  37.24100 7.15600 26.06600
C  35.61200 6.26300 27.30400
N  41.47300 9.89200 27.95100
C  40.67000 9.37600 26.98900
C  41.27100 9.69200 25.64400
C  42.40600 10.77900 25.99200
C  42.48000 10.69400 27.45200
C  41.73000 8.47900 24.72800
C  42.13000 12.21400 25.43600
C  41.01600 12.97500 26.14100
N  42.68500 10.69900 30.44900
C  43.63500 11.20400 29.59500
C  44.74400 11.67700 30.40300
C  44.30100 11.64400 31.71200
C  43.02800 11.09600 31.71600
C  45.98500 12.26600 29.85300
C  44.57600 12.03200 33.05200
O  45.58400 12.57600 33.56000
C  43.33500 11.60000 33.91600
C  43.80400 10.66300 34.94300
O  44.49600 9.64800 34.65500
O  43.40800 11.13800 36.21800
C  43.66700 10.21100 37.31900
H  37.10100 8.63200 32.35400
H  39.29200 8.16400 26.21500
H  44.27600 11.63700 27.55700
H  40.80100 10.02200 35.29500
H  38.22800 10.17500 34.56900
H  39.84600 8.16000 35.52200
H  38.76500 7.42300 34.32800
H  38.09100 8.44500 35.68800
H  39.31200 12.40800 34.07800
H  40.96800 12.58000 34.62800
H  39.44800 11.31900 36.78000
H  38.59800 12.70600 36.07400
H  35.09700 7.83500 30.17600
H  35.99300 6.88900 31.35500
H  35.66700 6.06600 29.90600
H  35.42100 5.98400 26.26700
H  34.85400 7.02200 27.49400
H  35.62300 5.34100 27.88400
H  40.56300 10.30300 25.08400
H  43.38500 10.42800 25.66500
H  41.30700 7.54400 25.09600
H  42.80600 8.31600 24.66000
H  41.31700 8.73100 23.75100
H  41.92500 12.01500 24.38400
H  43.03400 12.81300 25.54100
H  41.31900 13.99300 26.38800
H  40.55200 12.48100 26.99500
H  40.23600 13.07100 25.38700
H  46.66400 12.44500 30.68700
H  45.64800 13.05400 29.18000
H  46.51600 11.54800 29.22900
H  43.03100 12.53300 34.39100
H  44.46600 9.49200 37.13900
H  42.74000 9.74900 37.65800
H  43.99600 10.86100 38.13000
Mg 47.74100 16.81900 29.02000
C  45.85200 16.45500 31.90400
C  50.21700 18.37300 30.98000
C  49.54500 17.36700 26.25100
C  45.14800 15.56600 27.14600
N  47.98300 17.33500 31.17800
C  47.12300 17.07600 32.15300
C  47.71600 17.44000 33.53300
C  48.94200 18.43100 33.16600
C  49.06600 18.02800 31.66100
C  48.66000 19.94100 33.40500
C  48.05400 16.22200 34.43400
C  47.53000 16.28300 35.86500
H  47.48900 17.69300 36.49900
N  49.62700 17.71700 28.67300
C  50.57700 18.16800 29.57000
C  51.81400 18.58200 28.87900
C  51.42300 18.40700 27.47100
C  50.15000 17.77200 27.41600
C  53.10700 18.98200 29.61500
C  52.29400 18.82300 26.35900
O  52.00100 18.81800 25.17800
C  53.68200 19.37500 26.62600
N  47.39500 16.50900 27.06600
C  48.27000 16.80100 26.06500
C  47.73300 16.60800 24.62100
C  46.56700 15.66600 24.96800
C  46.30300 15.92400 26.47500
C  47.33900 17.91000 23.99100
C  46.74500 14.19100 24.73600
C  45.76800 13.51400 23.77100
N  45.84100 16.20100 29.42800
C  44.89000 15.69100 28.55700
C  43.69300 15.30000 29.30900
C  44.04900 15.50300 30.68700
C  45.32400 16.14800 30.65400
C  42.49300 14.75700 28.73600
C  43.60000 15.39500 32.08800
O  42.63600 14.82100 32.59800
C  44.76800 16.02000 32.88500
C  44.18900 17.00800 33.87200
O  43.81200 18.10200 33.44400
O  44.06100 16.54000 35.14400
C  43.10000 17.24600 36.05200
H  50.84500 18.93800 31.67200
H  50.04000 17.64800 25.31900
H  44.39500 15.12000 26.49200
H  47.00400 18.07100 34.06500
H  49.87600 18.09200 33.61300
H  48.60500 20.41300 32.42400
H  49.56600 20.35200 33.85000
H  47.78300 20.15700 34.01600
H  49.08300 15.86400 34.39100
H  47.52100 15.39000 33.97400
H  48.21700 15.68700 36.46500
H  46.51500 15.89000 35.79300
H  53.85600 18.23600 29.35000
H  52.95300 19.00100 30.69400
H  53.44800 19.97800 29.33200
H  53.65400 20.29700 27.20700
H  53.98000 19.70300 25.63000
H  54.43500 18.65000 26.93500
H  48.51400 16.03000 24.12700
H  45.67700 16.00300 24.43700
H  47.72700 17.94300 22.97300
H  47.83000 18.67700 24.59100
H  46.26600 18.09100 23.92000
H  46.71500 13.66300 25.68900
H  47.72500 14.07100 24.27600
H  46.31300 13.29100 22.85300
H  44.96300 14.20700 23.53000
H  45.32700 12.57500 24.10600
H  41.62100 15.21700 29.20100
H  42.56300 13.67000 28.78500
H  42.60100 15.12600 27.71700
H  45.00800 15.17500 33.53000
H  42.28100 17.70400 35.49700
H  43.72200 18.03500 36.47400
H  42.79100 16.58100 36.85800

