158

Mg 8.27700 3.72800 27.95000
C  9.97900 2.33600 30.58000
C  6.71700 5.87300 30.07300
C  6.57000 4.87900 25.27000
C  9.97900 1.50700 25.88400
N  8.10800 3.94800 30.08100
C  9.00800 3.25900 30.96500
C  9.01300 3.86300 32.35900
C  7.86000 4.92200 32.22100
C  7.50100 4.92600 30.72000
C  6.57500 4.73300 33.16900
C  10.36200 4.50800 32.83200
C  11.14000 3.81300 33.97600
H  11.22100 4.57900 35.30100
N  6.83100 5.18300 27.69700
C  6.30000 5.99700 28.67300
C  5.27300 6.79700 28.03400
C  5.23100 6.58000 26.65200
C  6.25100 5.44600 26.47100
C  4.46500 7.81600 28.89700
C  4.36000 7.21400 25.51800
O  4.53400 6.89000 24.34200
C  3.41400 8.34400 25.81200
N  8.28500 3.23900 25.88900
C  7.50200 3.89200 24.97000
C  7.86200 3.57600 23.50900
C  9.04800 2.56700 23.76600
C  9.05200 2.37500 25.29400
C  6.66200 3.00400 22.70400
C  10.44400 2.98400 23.09500
C  11.14600 1.96200 22.08100
N  9.58900 2.13300 28.16500
C  10.15000 1.29900 27.21500
C  11.09300 0.41000 27.85400
C  11.06100 0.80900 29.20600
C  10.12500 1.85700 29.33600
C  11.91700 -0.67800 27.23400
C  11.55800 0.45800 30.48400
O  12.37800 -0.38900 30.73800
C  10.88400 1.40400 31.50100
C  10.08900 0.61800 32.54300
O  8.92500 0.21200 32.49800
O  10.97600 0.37000 33.54600
C  10.34100 -0.20500 34.69400
H  6.17200 6.51200 30.76900
H  6.07900 5.22900 24.36000
H  10.46600 0.89900 25.11800
H  8.69400 3.16600 33.13400
H  8.29000 5.90000 32.43900
H  5.69500 4.63400 32.53400
H  6.57700 5.53800 33.90300
H  6.54300 3.86900 33.83300
H  10.13400 5.52800 33.14200
H  11.02300 4.50000 31.96500
H  12.15100 3.48400 33.73600
H  10.63600 2.87800 34.21900
H  4.74300 7.68600 29.94300
H  3.44600 7.50600 28.66900
H  4.73400 8.81700 28.55900
H  2.66400 8.19300 26.58900
H  2.97300 8.80400 24.92900
H  4.07800 9.14600 26.13400
H  8.14700 4.58500 23.21200
H  8.90400 1.53600 23.44400
H  5.79700 2.96700 23.36700
H  6.80600 1.95800 22.43500
H  6.55200 3.61100 21.80500
H  11.05600 3.21500 23.96700
H  10.26900 3.94900 22.62000
H  11.08600 2.37000 21.07200
H  10.65100 0.99300 22.02400
H  12.21200 1.90800 22.30000
H  12.30400 -0.18800 26.34000
H  11.46900 -1.64000 26.98800
H  12.71000 -0.88100 27.95400
H  11.71600 1.98600 31.89700
H  9.65600 -0.99400 34.38400
H  9.79800 0.57000 35.23600
H  11.11000 -0.55500 35.38200
Mg 39.90400 10.09100 29.57500
C  42.15500 11.21300 32.30600
C  37.81700 8.92000 31.97100
C  38.27600 8.66800 27.10900
C  42.50700 10.92700 27.52100
N  39.98600 10.18200 31.88400
C  40.90700 10.74100 32.75400
C  40.43300 10.71600 34.15400
C  39.05500 9.79800 33.98900
C  38.89900 9.60600 32.51800
C  38.95700 8.46800 34.79400
C  40.13400 12.17800 34.69100
C  40.84100 12.48700 36.02000
H  40.02800 13.10100 37.24500
N  38.22800 8.98200 29.53500
C  37.48900 8.61700 30.63900
C  36.34300 7.85800 30.15200
C  36.46300 7.72100 28.72900
C  37.72600 8.42400 28.39700
C  35.30300 7.17800 31.08500
C  35.51700 7.12500 27.74900
O  35.72000 7.19900 26.52400
C  34.26400 6.54000 28.16400
N  40.41900 9.66300 27.60800
C  39.48900 9.22600 26.73800
C  39.90800 9.52200 25.25800
C  41.35300 10.18100 25.37700
C  41.41600 10.32900 26.89300
C  39.90800 8.22900 24.37200
C  41.54600 11.54500 24.53700
C  41.00800 12.82000 25.13400
N  41.81700 10.93800 29.76900
C  42.79600 11.15000 28.85100
C  44.00700 11.76000 29.29100
C  43.76500 11.85000 30.70400
C  42.50200 11.24200 30.95300
C  45.13500 12.29300 28.54000
C  44.30600 12.24400 31.93300
O  45.34000 12.77400 32.24000
C  43.32000 11.76400 33.05200
C  43.92200 10.78500 34.01800
O  44.30500 9.62800 33.75900
O  44.15200 11.44600 35.17000
C  44.81500 10.55700 36.14600
H  37.13300 8.57200 32.74700
H  37.63200 8.44400 26.25600
H  43.30400 11.10900 26.79700
H  41.26500 10.27400 34.70200
H  38.20400 10.45700 34.16400
H  39.18900 7.59100 34.19000
H  37.95400 8.37600 35.21000
H  39.70700 8.50900 35.58300
H  39.06300 12.35000 34.79400
H  40.49700 12.85600 33.91800
H  41.56800 13.28600 35.87200
H  41.49500 11.67000 36.32400
H  35.13500 6.10500 30.98700
H  34.35200 7.66600 30.87200
H  35.57600 7.38200 32.12100
H  34.26400 5.80300 28.96700
H  33.82800 6.08000 27.27700
H  33.72100 7.45300 28.40600
H  39.12700 10.21100 24.93800
H  42.14800 9.49300 25.09000
H  39.69400 7.43900 25.09200
H  40.91300 8.11000 23.96900
H  39.24900 8.41700 23.52400
H  40.89500 11.49100 23.66500
H  42.58400 11.59200 24.20700
H  40.59700 13.52600 24.41300
H  41.89500 13.28900 25.56000
H  40.22900 12.64500 25.87600
H  44.67100 12.85700 27.73200
H  45.65300 11.42700 28.12900
H  45.79600 12.82400 29.22600
H  42.98100 12.66100 33.57000
H  45.69700 10.06400 35.73600
H  44.15700 9.79500 36.56300
H  45.24800 11.26600 36.85100

