158

Mg 48.60100 46.05600 43.41300
C  45.32200 46.75100 42.47500
C  48.26600 42.84800 41.81200
C  51.87500 45.56500 43.59700
C  49.07200 49.45300 44.07100
N  47.01100 44.94800 42.21200
C  45.73000 45.44700 42.04600
C  44.84400 44.39200 41.26500
C  45.89100 43.16900 41.14200
C  47.12400 43.64500 41.84400
C  45.36600 41.94400 41.89700
C  44.47400 44.94600 39.85700
C  43.07000 44.93700 39.40200
H  42.66100 43.84500 38.33700
N  49.92400 44.41100 42.86300
C  49.60200 43.19000 42.24900
C  50.76800 42.34700 42.25200
C  51.86000 43.08500 42.84700
C  51.31500 44.42800 43.12300
C  50.73400 40.85900 41.99800
C  53.19600 42.60700 43.17900
O  53.55100 41.47700 42.77900
C  54.20400 43.35400 44.08300
N  50.26500 47.37200 43.76300
C  51.50600 46.89400 43.82000
C  52.57600 48.07400 43.97300
C  51.62000 49.24200 44.25000
C  50.25200 48.69800 44.05500
C  53.61700 47.90200 45.13600
C  51.80100 50.53400 43.36400
C  51.71400 52.00900 43.92800
N  47.46900 47.72500 43.49700
C  47.75800 49.03300 43.81400
C  46.53500 49.80300 43.79200
C  45.53300 48.91400 43.41500
C  46.18800 47.68300 43.07600
C  46.45100 51.26000 44.13700
C  44.09400 48.76500 43.20100
O  43.21300 49.54900 43.47300
C  43.92800 47.32600 42.60000
C  42.95300 46.53700 43.47700
O  42.98000 46.31600 44.71500
O  42.07400 45.86500 42.65500
C  41.41300 44.74300 43.29600
H  48.21100 41.84500 41.38300
H  52.96000 45.44800 43.62100
H  49.20400 50.52700 44.21500
H  43.97600 44.18200 41.89100
H  46.16000 42.95500 40.10800
H  44.36400 41.99000 42.32300
H  46.04800 41.79900 42.73500
H  45.34600 41.12100 41.18300
H  44.93500 44.27800 39.13000
H  44.99800 45.89900 39.78400
H  42.86800 45.88800 38.90900
H  42.49700 44.85300 40.32500
H  51.33700 40.61600 41.12300
H  49.76300 40.53300 41.62500
H  51.00300 40.11200 42.74500
H  53.71300 43.57100 45.03200
H  54.65500 44.13400 43.47000
H  54.95800 42.59300 44.28400
H  53.08400 48.29700 43.03400
H  51.60100 49.58400 45.28500
H  53.44400 48.40600 46.08700
H  54.54900 48.22000 44.67000
H  53.83300 46.89700 45.49800
H  51.07600 50.49200 42.55100
H  52.74700 50.39200 42.84100
H  50.93700 52.56500 43.40400
H  52.70700 52.45800 43.89300
H  51.53100 51.99900 45.00300
H  46.60900 51.84900 43.23300
H  47.24400 51.59400 44.80600
H  45.47500 51.51700 44.54700
H  43.39100 47.39800 41.65400
H  40.86800 44.94100 44.21900
H  42.09300 43.94700 43.59900
H  40.76500 44.37300 42.50300
Mg 6.29700 54.53800 40.50300
C  5.55700 51.10000 40.48200
C  9.46200 53.96700 39.43900
C  6.50800 57.77900 39.99400
C  2.59000 55.06200 40.73500
N  7.34000 52.76600 39.95500
C  6.80800 51.48600 40.02800
C  7.89700 50.51900 39.61100
C  9.24700 51.34800 39.62200
C  8.70300 52.77400 39.73300
C  10.30300 51.15000 40.69900
C  7.64700 49.84200 38.24100
C  6.91200 50.61400 37.05500
H  5.99100 49.90200 36.07600
N  7.77500 55.75200 39.76900
C  9.03300 55.33500 39.39700
C  9.86000 56.51500 39.13100
C  9.01500 57.62800 39.18300
C  7.70300 57.09200 39.70300
C  11.35800 56.38400 38.83100
C  9.45000 59.01700 38.92700
O  10.61000 59.26800 38.51800
C  8.53800 60.09300 39.16900
N  4.74400 56.11100 40.13400
C  5.18400 57.35400 40.21500
C  4.00200 58.41100 40.40300
C  2.74800 57.57700 40.25400
C  3.40600 56.17600 40.36000
C  4.08900 59.42000 41.60000
C  1.88400 57.73800 38.94900
C  2.20000 56.82700 37.73800
N  4.45800 53.36700 40.72000
C  3.16200 53.76400 40.86600
C  2.45000 52.53600 41.15700
C  3.30800 51.46300 41.13900
C  4.52300 52.02000 40.80300
C  0.92200 52.40100 41.36300
C  3.47300 50.04200 41.28300
O  2.65400 49.17800 41.55600
C  4.91500 49.74400 40.79100
C  4.83900 48.89100 39.63600
O  4.42900 49.14700 38.50900
O  5.16000 47.53900 40.03800
C  5.10500 46.49300 38.99800
H  10.48500 53.74800 39.12700
H  6.60200 58.86600 40.04700
H  1.54400 55.28600 40.95700
H  8.01600 49.69900 40.32000
H  9.71700 51.22900 38.64600
H  10.44500 52.06100 41.28000
H  11.27300 50.82700 40.32100
H  9.86400 50.44800 41.40700
H  7.13500 48.89300 38.39700
H  8.61000 49.47800 37.88300
H  7.61800 50.80600 36.24700
H  6.40600 51.52800 37.36400
H  11.63100 55.42200 38.39900
H  11.89500 56.44800 39.77800
H  11.67200 57.19500 38.17400
H  7.70000 59.84700 38.51600
H  8.96100 60.96600 38.67100
H  8.52100 60.16600 40.25600
H  4.00300 59.07300 39.53800
H  2.06100 57.49800 41.09700
H  3.18900 59.42600 42.21600
H  4.31700 60.39500 41.16800
H  4.83200 59.07600 42.32000
H  1.96100 58.76900 38.60400
H  0.83600 57.81900 39.23900
H  2.52500 57.42200 36.88500
H  1.36700 56.22800 37.36900
H  3.11200 56.24300 37.86500
H  0.40600 53.36000 41.33200
H  0.74300 51.90500 42.31700
H  0.36500 51.80800 40.63700
H  5.55800 49.29600 41.54900
H  5.43900 46.88700 38.03800
H  4.12000 46.04100 38.88100
H  5.80900 45.72700 39.32400

