158

Mg 9.25500 2.65800 27.54500
C  10.44800 1.12800 30.45200
C  7.73000 4.93800 29.58700
C  7.78300 4.01500 24.80000
C  10.65500 0.14900 25.64800
N  9.16300 3.04600 29.83400
C  9.69500 2.25600 30.76500
C  9.42300 2.86100 32.15900
C  8.28000 3.85700 31.88400
C  8.37900 3.96300 30.33600
C  6.92800 3.43900 32.47200
C  10.73600 3.46700 32.75900
C  10.63700 4.22400 34.15000
H  10.94100 3.36000 35.34300
N  8.03000 4.34700 27.24900
C  7.55400 5.17200 28.21600
C  6.72800 6.24100 27.55400
C  6.71900 5.92100 26.15700
C  7.49500 4.73700 26.00900
C  6.15900 7.34700 28.34300
C  6.01300 6.71300 25.04900
O  6.04600 6.28000 23.89500
C  5.19000 7.86500 25.21900
N  9.15900 2.17400 25.58700
C  8.58900 2.91200 24.59700
C  8.83500 2.28600 23.20300
C  9.86500 1.19900 23.52300
C  9.89900 1.14000 25.02400
C  7.53500 1.60700 22.62900
C  11.33600 1.57700 23.07800
C  11.78900 0.79300 21.86100
N  10.38300 0.96400 27.90200
C  10.84600 0.00200 27.02600
C  11.51100 -1.04900 27.77100
C  11.39200 -0.62600 29.13400
C  10.69400 0.56300 29.16600
C  12.13500 -2.27200 27.17200
C  11.73200 -1.04200 30.47300
O  12.36900 -1.99500 30.92700
C  11.15300 0.06800 31.39000
C  10.13200 -0.49000 32.37800
O  9.09300 -1.04200 32.10500
O  10.48700 -0.11300 33.64800
C  9.66900 -0.42500 34.82200
H  7.04600 5.58700 30.13900
H  7.56300 4.39700 23.80100
H  11.12400 -0.59200 24.99700
H  9.16600 2.05300 32.84400
H  8.51400 4.86900 32.21300
H  6.59900 4.29800 33.05700
H  7.05700 2.52200 33.04700
H  6.20100 3.28800 31.67500
H  11.15400 4.10800 31.98300
H  11.42500 2.65700 32.99800
H  9.63100 4.62300 34.27900
H  11.26200 5.11000 34.25800
H  5.07500 7.27600 28.25500
H  6.42600 8.34800 28.00600
H  6.54300 7.37700 29.36300
H  5.87200 8.56700 25.69800
H  4.38500 7.59000 25.90100
H  4.81800 8.20100 24.25100
H  9.21900 3.01400 22.48900
H  9.52800 0.25500 23.09400
H  7.48500 0.52100 22.71300
H  7.54800 1.70500 21.54400
H  6.64900 2.11000 23.01700
H  12.01300 1.42500 23.91900
H  11.42000 2.65100 22.91200
H  10.92600 0.53100 21.25000
H  12.32300 -0.15100 21.96700
H  12.27900 1.51500 21.20800
H  11.84400 -2.37100 26.12600
H  11.77600 -3.07200 27.81900
H  13.21200 -2.11200 27.12800
H  12.08700 0.45500 31.79800
H  10.33200 -1.02600 35.44500
H  8.81900 -1.08400 34.64900
H  9.33300 0.46200 35.36000
Mg -9.86600 40.29600 42.59200
C  -9.16000 36.89800 41.78600
C  -7.02400 41.18200 40.93600
C  -10.90800 43.39800 42.96000
C  -13.08900 39.11800 43.76500
N  -8.33700 39.14900 41.40500
C  -8.17800 37.78100 41.29100
C  -6.93100 37.46300 40.43600
C  -6.22700 38.84900 40.39800
C  -7.25200 39.81100 40.93300
C  -4.89500 38.89500 41.22900
C  -7.33600 36.82400 38.96800
C  -6.38500 35.76200 38.38300
H  -5.53700 36.08300 37.13300
N  -9.11700 42.05600 41.98400
C  -7.91200 42.25500 41.39700
C  -7.57400 43.64900 41.44900
C  -8.71000 44.30100 41.90300
C  -9.62800 43.18100 42.30500
C  -6.38600 44.17000 40.68700
C  -8.94000 45.84500 41.89800
O  -8.10500 46.59300 41.44400
C  -10.21900 46.50400 42.45500
N  -11.70100 41.11000 43.36000
C  -11.82600 42.48300 43.42800
C  -13.18600 42.83000 44.04400
C  -13.84100 41.48200 44.24000
C  -12.86700 40.52200 43.74300
C  -12.95600 43.65200 45.32100
C  -15.29900 41.53900 43.61800
C  -16.29600 42.14900 44.61600
N  -10.95600 38.42000 42.69600
C  -12.17900 38.14400 43.25600
C  -12.38200 36.69000 43.27400
C  -11.23500 36.13900 42.69000
C  -10.39600 37.26200 42.33000
C  -13.46600 35.90100 43.94200
C  -10.55000 34.92200 42.38300
O  -10.79200 33.74100 42.58900
C  -9.20600 35.35800 41.68700
C  -8.04200 34.64000 42.30600
O  -7.86000 34.39400 43.55100
O  -7.25200 34.08900 41.33900
C  -6.09100 33.34100 41.71600
H  -6.06000 41.55200 40.58100
H  -11.22000 44.42900 43.14000
H  -14.06300 38.79600 44.14000
H  -6.27400 36.77400 40.96700
H  -6.05100 39.08000 39.34700
H  -4.89000 39.80400 41.83000
H  -4.07200 38.90300 40.51400
H  -4.88300 38.11400 41.98800
H  -7.34600 37.58600 38.18800
H  -8.32600 36.37500 39.04000
H  -6.98000 34.87500 38.16800
H  -5.65200 35.51000 39.14900
H  -6.48300 45.18400 40.29800
H  -6.11500 43.63300 39.77800
H  -5.54600 44.10400 41.37700
H  -10.34100 46.26100 43.51000
H  -11.07500 46.11000 41.90700
H  -10.19300 47.58900 42.35900
H  -13.70700 43.43900 43.30400
H  -14.07300 41.50700 45.30500
H  -12.02500 44.19900 45.17400
H  -12.80400 43.01200 46.19100
H  -13.76600 44.32500 45.60100
H  -15.64100 40.53900 43.35000
H  -15.33300 42.14100 42.71000
H  -15.79800 42.49800 45.52000
H  -16.96800 41.35200 44.93400
H  -16.88000 42.99300 44.24700
H  -14.38200 36.08200 43.38000
H  -13.58400 36.36400 44.92100
H  -13.36200 34.81900 44.02400
H  -9.26000 35.23100 40.60600
H  -5.88700 33.36700 42.78700
H  -5.20600 33.72000 41.20400
H  -6.20600 32.31300 41.37300

