158

Mg 24.44300 1.91600 29.51700
C  26.68700 1.77100 32.32900
C  21.87600 1.90300 31.74400
C  22.42800 1.87400 26.91700
C  27.22000 1.34300 27.37000
N  24.26600 1.79300 31.86200
C  25.32800 1.83100 32.79300
C  24.78600 1.90300 34.21000
C  23.21800 1.94800 33.99300
C  23.10000 1.91300 32.46300
C  22.44200 0.86700 34.68000
C  25.46600 3.12700 34.94300
C  24.74400 3.56200 36.25400
H  25.54100 3.67500 37.52600
N  22.51700 1.79400 29.30900
C  21.60600 1.95900 30.40500
C  20.26400 1.89900 29.87300
C  20.39500 2.01100 28.47400
C  21.82900 1.89000 28.17600
C  19.07400 1.90600 30.74900
C  19.22800 2.16000 27.36700
O  19.45800 2.26600 26.14900
C  17.79500 2.06300 27.76600
N  24.79700 1.65700 27.54900
C  23.79900 1.84000 26.64000
C  24.25400 1.93700 25.12000
C  25.81000 1.92100 25.36600
C  25.96800 1.58300 26.83300
C  23.67400 0.90400 24.17800
C  26.52800 3.28300 25.01500
C  25.98100 4.58000 25.64800
N  26.52500 1.64400 29.74400
C  27.51400 1.28800 28.78900
C  28.73600 1.08700 29.42800
C  28.43600 1.33700 30.80300
C  27.11300 1.69400 30.94800
C  30.06700 0.68600 28.82200
C  29.07100 1.32100 32.09100
O  30.24300 1.12900 32.38200
C  28.01400 1.78200 33.16900
C  28.06100 0.74700 34.28100
O  27.78700 -0.40900 34.10500
O  28.50800 1.27800 35.49100
C  28.64500 0.28800 36.57400
H  21.07400 2.07800 32.46500
H  21.70800 1.93300 26.09800
H  27.94600 1.35900 26.55500
H  25.16200 0.96400 34.61700
H  22.81100 2.91500 34.28600
H  21.88000 0.36300 33.89300
H  21.76900 1.33300 35.40000
H  23.05300 0.20300 35.29200
H  25.54400 4.00600 34.30400
H  26.50700 2.93400 35.20300
H  23.93400 2.87200 36.48700
H  24.32300 4.52100 35.95200
H  18.08700 2.02500 30.30100
H  19.22700 2.66600 31.51500
H  18.93900 0.96000 31.27300
H  17.19800 2.12000 26.85600
H  17.38300 2.88000 28.35800
H  17.67200 1.16600 28.37400
H  23.96100 2.93200 24.78600
H  26.32400 1.18400 24.74900
H  23.20700 0.12600 24.78200
H  24.52800 0.44300 23.68000
H  23.00700 1.32100 23.42300
H  26.57500 3.28500 23.92600
H  27.59500 3.21200 25.23100
H  26.92300 4.98600 26.01700
H  25.23200 4.40200 26.42000
H  25.60800 5.19600 24.83000
H  29.89100 0.22300 27.85100
H  30.55500 -0.07000 29.43700
H  30.60200 1.61900 28.64600
H  28.26200 2.78400 33.52000
H  27.96500 0.53800 37.38800
H  29.67300 0.12400 36.89900
H  28.45300 -0.74900 36.30000
Mg 44.66900 3.95500 46.45900
C  43.06400 7.15800 46.24300
C  41.81900 2.51400 45.72900
C  46.44700 1.23700 46.09100
C  47.77700 5.87500 46.13000
N  42.68800 4.80800 45.98200
C  42.19000 6.06100 45.95700
C  40.67600 6.16100 45.68100
C  40.32200 4.60400 45.65000
C  41.69400 3.87100 45.88100
C  39.28500 4.20100 46.70200
C  40.28400 6.91500 44.37300
C  41.33200 6.92600 43.32100
H  40.76400 6.94100 41.80800
N  44.18800 2.13500 45.87500
C  42.89400 1.67200 45.68700
C  42.96900 0.33300 45.46300
C  44.24500 -0.11800 45.66200
C  45.02100 1.05300 45.96300
C  41.81900 -0.59800 45.09300
C  44.78600 -1.56100 45.50100
O  44.04600 -2.43500 45.12600
C  46.22900 -1.95500 45.69000
N  46.87300 3.64400 46.05400
C  47.27200 2.36200 46.21300
C  48.82400 2.30700 46.25200
C  49.27000 3.72900 46.03800
C  47.93000 4.49300 46.06200
C  49.33400 1.62800 47.50600
C  50.19800 4.05600 44.83700
C  49.50200 4.16000 43.42400
N  45.35000 6.01400 46.40300
C  46.62100 6.63100 46.22200
C  46.53700 8.05600 46.14500
C  45.17700 8.25700 46.29900
C  44.47300 7.03700 46.32000
C  47.73300 8.91200 46.05000
C  44.13800 9.26000 46.55200
O  44.26600 10.45700 46.78200
C  42.75400 8.57800 46.45600
C  41.90600 8.83700 47.61600
O  41.97000 8.29800 48.70700
O  40.90800 9.77200 47.27500
C  39.85900 10.03300 48.25600
H  40.91200 1.92200 45.59800
H  47.01200 0.30900 46.20400
H  48.76800 6.33600 46.12300
H  40.03700 6.58000 46.45800
H  39.87300 4.31500 44.70000
H  38.66500 5.07500 46.90200
H  39.64700 3.98600 47.70700
H  38.66000 3.37200 46.37000
H  39.71700 7.82900 44.55500
H  39.51500 6.35500 43.84100
H  41.94800 6.02700 43.34600
H  41.96300 7.80500 43.45100
H  41.74000 -1.51500 45.67600
H  41.83600 -0.82400 44.02700
H  40.88600 -0.06200 45.26800
H  46.56200 -2.98600 45.57000
H  46.40600 -1.69700 46.73500
H  46.81300 -1.40200 44.95400
H  49.01200 1.69800 45.36800
H  49.83500 4.09200 46.89600
H  49.30700 0.54200 47.41800
H  48.51500 1.69400 48.22200
H  50.29300 1.93400 47.92300
H  50.93200 3.25000 44.84400
H  50.79600 4.89800 45.18600
H  48.45600 3.85400 43.39300
H  49.91900 3.59700 42.58900
H  49.43800 5.20700 43.12700
H  48.21000 8.58400 45.12600
H  48.38800 8.82200 46.91700
H  47.44800 9.95500 45.91500
H  42.12800 8.92000 45.63100
H  39.55800 11.07600 48.35200
H  39.97200 9.59900 49.25000
H  38.98300 9.45700 47.95700

