158

Mg 0.18600 7.93300 26.12700
C  1.16400 9.83800 29.07400
C  -0.06100 5.18200 28.14400
C  -0.41400 6.23300 23.32200
C  0.96000 10.76900 24.28200
N  0.58500 7.60900 28.38500
C  0.80900 8.50100 29.41100
C  0.56900 7.89800 30.80700
C  0.35600 6.36700 30.50500
C  0.29800 6.33900 28.89800
C  1.36900 5.40600 31.12500
C  -0.64900 8.50600 31.52700
C  -0.38700 8.72500 33.04400
H  0.75000 8.27500 33.95900
N  -0.10500 5.94700 25.78500
C  -0.31000 4.98900 26.74000
C  -0.77100 3.72700 26.09800
C  -0.71700 3.96800 24.69700
C  -0.40300 5.45400 24.52200
C  -1.24800 2.42300 26.82900
C  -1.16500 3.07100 23.49600
O  -1.09400 3.37900 22.31700
C  -1.67600 1.66100 23.78000
N  0.28800 8.39700 24.08100
C  -0.10700 7.57200 23.07200
C  -0.12500 8.27200 21.73600
C  0.16800 9.77100 22.06700
C  0.41700 9.67600 23.63900
C  0.85200 7.64400 20.79400
C  -0.79100 10.89000 21.63900
C  -1.63600 10.76200 20.34500
N  0.97300 9.79500 26.47500
C  1.24900 10.83300 25.60400
C  1.67500 11.93900 26.36800
C  1.58800 11.62900 27.69000
C  1.20000 10.30600 27.71500
C  2.30500 13.25400 25.81400
C  1.80300 12.08600 29.02800
O  2.19500 13.19500 29.35200
C  1.49800 10.96400 30.00500
C  2.65700 10.67800 30.95800
O  3.75600 10.29800 30.63400
O  2.34700 11.15000 32.19300
C  3.46500 11.23300 33.11300
H  -0.20100 4.42700 28.92000
H  -0.64600 5.63200 22.44000
H  1.10300 11.70800 23.74400
H  1.44500 8.00700 31.44600
H  -0.61000 6.01200 30.86500
H  2.03000 5.94800 31.80100
H  1.93600 4.96100 30.30700
H  0.99300 4.54600 31.68000
H  -1.42800 7.74400 31.50800
H  -1.10300 9.42500 31.15700
H  -1.30000 8.35800 33.51300
H  -0.41500 9.81100 33.13200
H  -1.40100 2.60500 27.89200
H  -0.53700 1.61500 26.65500
H  -2.24600 2.16400 26.47500
H  -0.84500 1.04000 24.11700
H  -1.94300 1.25700 22.80400
H  -2.60400 1.74700 24.34500
H  -1.14300 8.17600 21.36000
H  1.15800 10.04300 21.70100
H  1.86300 7.79500 21.17300
H  0.76800 8.00300 19.76800
H  0.69000 6.56800 20.86200
H  -0.05200 11.67500 21.48100
H  -1.41200 11.27300 22.44900
H  -1.28000 10.05300 19.59700
H  -1.63500 11.72800 19.84100
H  -2.63300 10.38000 20.56400
H  2.90000 12.94700 24.95400
H  3.02500 13.64400 26.53300
H  1.64100 14.07600 25.54700
H  0.57400 11.29800 30.47800
H  4.02000 12.03900 32.63400
H  4.14000 10.38100 33.18600
H  3.08600 11.53700 34.08900
Mg 26.99300 50.10500 25.47400
C  25.12200 51.38600 28.07300
C  29.45100 49.16900 27.71400
C  28.94600 49.29200 22.87400
C  24.71300 51.64400 23.22600
N  27.28000 50.36900 27.70000
C  26.31100 50.84400 28.54900
C  26.78900 50.54600 30.06900
C  28.21600 49.96300 29.82400
C  28.31100 49.75700 28.32200
C  29.37800 50.86100 30.38600
C  25.82900 49.53500 30.82600
C  25.23500 49.87500 32.17400
H  25.96000 50.74600 33.28100
N  28.88700 49.29200 25.28000
C  29.73600 48.91900 26.33100
C  30.93800 48.42100 25.79100
C  30.87800 48.62600 24.37300
C  29.47900 49.16200 24.12600
C  32.10800 47.87800 26.72900
C  31.95300 48.46500 23.31900
O  31.75600 48.68400 22.11600
C  33.26300 47.88700 23.76000
N  26.79900 50.41000 23.42900
C  27.73200 49.92500 22.60800
C  27.21700 50.01300 21.12600
C  25.87900 50.68700 21.15100
C  25.76200 50.94500 22.65600
C  28.27800 50.68000 20.14200
C  24.59000 49.82100 20.71200
C  23.95100 50.29800 19.39800
N  25.21700 51.28600 25.57400
C  24.37000 51.79500 24.61000
C  23.32600 52.43600 25.22500
C  23.54900 52.26600 26.58200
C  24.74200 51.55500 26.76400
C  22.04700 52.89200 24.48400
C  22.98500 52.57200 27.93200
O  22.00100 53.19800 28.28700
C  23.93200 51.93700 28.87700
C  24.17400 52.96600 29.91100
O  25.06600 53.82600 29.94800
O  23.21900 52.82800 30.91100
C  23.29500 53.75000 32.01100
H  30.10900 48.77200 28.49000
H  29.39400 48.92500 21.94800
H  24.08100 52.19000 22.52300
H  26.77500 51.47500 30.63900
H  28.35100 48.96600 30.24500
H  29.82400 50.25700 31.17600
H  29.01300 51.81300 30.76900
H  30.19100 51.14800 29.71900
H  26.28000 48.56000 30.64400
H  25.00700 49.66600 30.12200
H  25.03800 48.91700 32.65500
H  24.35700 50.51300 32.07100
H  32.86200 48.66200 26.65500
H  32.47600 46.94200 26.30800
H  31.81700 47.89100 27.77900
H  33.68200 48.71500 24.33100
H  33.85900 47.66800 22.87400
H  33.10900 46.94900 24.29400
H  27.15700 48.95800 20.86200
H  25.92000 51.71300 20.78500
H  27.88100 51.57900 19.67000
H  28.47000 50.01100 19.30300
H  29.24600 50.84700 20.61500
H  23.89700 49.65200 21.53600
H  24.98300 48.83900 20.44800
H  24.45400 51.21300 19.08600
H  22.86700 50.30000 19.51000
H  24.21800 49.65100 18.56200
H  21.36900 53.04900 25.32400
H  21.53400 52.24300 23.77500
H  22.43000 53.79600 24.01000
H  23.34300 51.17400 29.38600
H  24.15400 53.36000 32.55700
H  22.44300 53.66000 32.68500
H  23.49900 54.75600 31.64400

