158

Mg 2.34700 -1.46900 43.29700
C  5.63700 -0.51000 43.11800
C  1.54600 1.51200 41.71800
C  -0.86500 -2.63200 42.65500
C  3.29900 -4.46700 44.80000
N  3.49800 0.24900 42.36900
C  4.80400 0.50400 42.58300
C  5.18500 1.83000 41.99700
C  3.78100 2.57500 41.90200
C  2.89200 1.39300 42.02300
C  3.61300 3.86600 42.77500
C  6.22300 1.83800 40.77300
C  5.97400 0.71900 39.82300
H  5.15600 1.19300 38.56800
N  0.60200 -0.71700 42.24700
C  0.53900 0.57000 41.78600
C  -0.76600 0.80400 41.22100
C  -1.51200 -0.44200 41.46800
C  -0.58400 -1.34700 42.17100
C  -1.21500 2.03300 40.52900
C  -2.82100 -0.64200 40.78800
O  -3.29100 0.21200 40.03200
C  -3.57300 -1.96000 41.03900
N  1.42600 -3.31200 43.51700
C  0.05900 -3.50400 43.32000
C  -0.41100 -4.87400 43.87200
C  0.91200 -5.37500 44.60300
C  2.00700 -4.39300 44.25000
C  -1.60900 -4.88300 44.85800
C  1.24700 -6.84900 44.18900
C  1.24200 -7.77500 45.38800
N  4.02100 -2.42800 43.80600
C  4.32700 -3.64600 44.38900
C  5.72900 -3.83300 44.61600
C  6.34300 -2.58800 44.12900
C  5.21600 -1.81300 43.60600
C  6.31400 -4.96200 45.45300
C  7.57400 -1.83500 44.04300
O  8.71900 -2.14000 44.33400
C  7.18100 -0.55000 43.31200
C  7.60400 0.55900 44.28600
O  7.22100 0.64400 45.46700
O  8.45600 1.50300 43.68400
C  8.79000 2.61200 44.50400
H  1.31500 2.54000 41.43000
H  -1.85200 -3.07000 42.49300
H  3.50200 -5.39500 45.33800
H  5.84000 2.32600 42.71400
H  3.64700 2.83100 40.85100
H  3.45500 3.68100 43.83800
H  2.66300 4.29300 42.45400
H  4.43800 4.54900 42.57300
H  7.22700 1.94700 41.18300
H  6.16100 2.75200 40.18200
H  5.22900 0.00800 40.18000
H  6.90400 0.18700 39.62300
H  -2.15800 2.35100 40.97300
H  -1.45200 1.80700 39.48900
H  -0.52500 2.86600 40.66200
H  -3.16600 -2.77800 40.44600
H  -4.58600 -1.76800 40.68500
H  -3.62600 -2.16700 42.10800
H  -0.68900 -5.36100 42.93800
H  0.84500 -5.35500 45.69100
H  -1.43900 -5.40700 45.79900
H  -2.44700 -5.36000 44.35000
H  -1.84200 -3.85200 45.12600
H  2.19000 -6.82200 43.64400
H  0.50100 -7.22800 43.49000
H  0.85300 -8.78600 45.26700
H  0.62500 -7.46000 46.22900
H  2.16800 -7.83200 45.95900
H  7.27800 -4.57600 45.78600
H  6.52600 -5.81900 44.81400
H  5.63400 -5.29800 46.23600
H  7.64800 -0.25100 42.37400
H  8.00100 2.86800 45.21000
H  8.87400 3.29300 43.65700
H  9.73700 2.44100 45.01700
Mg -4.82400 24.85700 26.56700
C  -3.12400 26.41700 29.20400
C  -6.36500 22.79600 28.97900
C  -6.79700 23.50200 24.13400
C  -3.15200 26.64000 24.31200
N  -4.77600 24.67600 28.79900
C  -4.11100 25.52000 29.66100
C  -4.35200 25.15000 31.18300
C  -5.22300 23.82400 31.01700
C  -5.50000 23.75700 29.51800
C  -4.49400 22.56700 31.55200
C  -5.08300 26.45200 31.78700
C  -5.98000 26.17000 33.00500
H  -5.47000 25.08100 33.98700
N  -6.29400 23.24200 26.53600
C  -6.72800 22.48700 27.60500
C  -7.71200 21.51400 27.07300
C  -7.96500 21.89200 25.75700
C  -6.98500 22.85300 25.43300
C  -8.37000 20.43100 27.96500
C  -9.08800 21.36200 24.80400
O  -9.17500 21.73900 23.62400
C  -10.06900 20.31000 25.25700
N  -4.89300 24.91700 24.43200
C  -5.89600 24.40100 23.63000
C  -5.75100 24.77300 22.13000
C  -4.67600 25.86500 22.28000
C  -4.21100 25.82300 23.81100
C  -5.45200 23.57500 21.19600
C  -5.03500 27.26600 21.69200
C  -5.26200 27.41700 20.15200
N  -3.39400 26.21600 26.68400
C  -2.75700 26.81000 25.66100
C  -1.67300 27.61800 26.14000
C  -1.78300 27.50900 27.52900
C  -2.89800 26.71900 27.82500
C  -0.75500 28.38000 25.34700
C  -1.26300 27.94800 28.76800
O  -0.27400 28.69500 28.81300
C  -2.17000 27.30400 29.96300
C  -1.28900 26.53600 30.89900
O  -0.55300 25.60400 30.56300
O  -1.33700 26.94300 32.14600
C  -0.36200 26.47100 33.13900
H  -6.87200 22.25300 29.77900
H  -7.35200 23.15000 23.26200
H  -2.54600 27.19900 23.59600
H  -3.42600 24.90700 31.70300
H  -6.17600 23.79100 31.54300
H  -3.45800 22.48600 31.22400
H  -4.98300 21.62300 31.31400
H  -4.47400 22.64300 32.63900
H  -5.77700 26.89700 31.07500
H  -4.40800 27.27900 32.00800
H  -7.01000 25.97500 32.70600
H  -5.94400 27.03800 33.66300
H  -8.36800 19.50700 27.38700
H  -9.32700 20.79200 28.34100
H  -7.70700 20.23900 28.80800
H  -10.83100 20.11800 24.50300
H  -10.69700 20.50600 26.12600
H  -9.57900 19.35900 25.46900
H  -6.68300 25.27000 21.86100
H  -3.85100 25.55500 21.63900
H  -4.90300 22.79800 21.72800
H  -4.86300 23.93700 20.35300
H  -6.37400 23.17000 20.77800
H  -4.23700 27.97200 21.92200
H  -5.96700 27.57200 22.16800
H  -6.29200 27.71100 19.95000
H  -5.10100 26.44600 19.68500
H  -4.56000 28.20000 19.86700
H  -1.22300 29.09500 24.67100
H  -0.09900 27.87500 24.63800
H  -0.24800 29.00700 26.08100
H  -2.73300 28.01900 30.56200
H  0.59300 26.26500 32.65500
H  -0.72200 25.59100 33.67200
H  -0.18100 27.40000 33.67900

