158

Mg 16.59000 -2.53900 28.18500
C  16.04800 -0.39700 30.78600
C  18.52400 -4.54000 30.26800
C  17.55000 -4.45700 25.44000
C  15.13500 -0.23000 25.98900
N  17.31300 -2.36100 30.30400
C  16.74000 -1.54500 31.22800
C  17.21700 -1.98200 32.67400
C  17.91900 -3.36000 32.45300
C  17.92400 -3.44700 30.92900
C  19.41000 -3.41400 32.91700
C  15.99300 -2.14800 33.65600
C  15.91200 -1.29300 34.93200
H  17.31900 -0.84500 35.51000
N  17.81200 -4.38200 27.94400
C  18.45200 -4.95900 28.94300
C  19.30400 -5.99500 28.38600
C  18.88500 -6.21800 27.01500
C  18.04700 -5.00600 26.74500
C  20.21900 -6.87100 29.12800
C  19.19400 -7.35400 26.02500
O  18.78300 -7.38900 24.89400
C  20.06300 -8.43200 26.37100
N  16.53700 -2.33300 25.95200
C  16.91800 -3.28300 25.06500
C  16.93000 -2.72200 23.64900
C  15.72200 -1.63800 23.84000
C  15.80500 -1.32600 25.33600
C  18.26200 -2.26500 23.05800
C  14.31800 -2.19700 23.52900
C  13.89600 -2.41800 22.03900
N  15.68700 -0.75500 28.28900
C  15.11800 0.07100 27.36300
C  14.56300 1.26300 27.95700
C  14.90000 1.16800 29.34500
C  15.53100 -0.06800 29.48200
C  13.66300 2.18500 27.25800
C  14.78500 1.76100 30.64000
O  14.35000 2.85600 30.97900
C  15.44200 0.69500 31.66600
C  16.34200 1.66100 32.44200
O  17.48800 1.93500 32.13500
O  15.68700 2.11700 33.55300
C  16.42000 3.12400 34.34700
H  19.00800 -5.25600 30.93500
H  17.75600 -5.07000 24.55900
H  14.60000 0.42600 25.30000
H  17.96800 -1.25100 32.97300
H  17.36800 -4.21600 32.84400
H  19.64600 -2.72400 33.72700
H  20.15000 -3.26600 32.13100
H  19.64700 -4.37300 33.37800
H  16.03200 -3.17100 34.03000
H  15.07500 -1.97600 33.09500
H  15.42700 -1.81900 35.75500
H  15.26900 -0.45400 34.66700
H  19.87200 -7.89200 28.96900
H  20.13200 -6.69800 30.20100
H  21.20300 -6.75800 28.67400
H  20.99400 -7.99300 26.73100
H  20.25500 -9.03800 25.48600
H  19.40000 -8.95500 27.06000
H  16.56200 -3.55800 23.05300
H  15.92400 -0.74000 23.25700
H  18.19800 -1.30000 22.55500
H  18.51800 -2.94800 22.24800
H  19.06000 -2.29600 23.79900
H  13.48200 -1.72100 24.04100
H  14.36600 -3.17800 24.00300
H  13.51400 -1.54800 21.50300
H  13.07200 -3.13000 22.00000
H  14.72000 -2.83300 21.45900
H  13.30900 1.86100 26.27900
H  14.33000 3.04300 27.16900
H  12.86800 2.41700 27.96700
H  14.53700 0.48500 32.23500
H  17.47800 2.88800 34.46600
H  15.82400 3.07600 35.25800
H  16.38300 4.13300 33.93500
Mg 29.43200 58.69200 41.73700
C  26.35300 57.18700 40.32000
C  31.00200 55.87800 40.16400
C  32.16900 60.31700 41.78600
C  27.41900 61.53800 42.19600
N  28.76900 56.80000 40.40800
C  27.53500 56.51900 39.97000
C  27.49400 55.20500 39.11600
C  28.83400 54.52500 39.60200
C  29.59300 55.84800 40.01600
C  28.77400 53.56000 40.80700
C  27.38700 55.43400 37.57300
C  26.45300 54.53300 36.74200
H  25.53600 55.24000 35.67000
N  31.42400 58.09300 41.22100
C  31.86200 56.92000 40.63700
C  33.28300 57.01800 40.59100
C  33.70200 58.34700 41.08900
C  32.41100 58.93300 41.38500
C  34.20300 55.97200 40.11300
C  35.03100 58.94400 41.19400
O  35.98600 58.26400 40.84100
C  35.36700 60.22300 41.72000
N  29.76300 60.59600 41.95800
C  30.99800 61.01700 42.10900
C  31.02800 62.51100 42.49300
C  29.56300 62.96600 42.48300
C  28.85400 61.61500 42.25200
C  31.86000 62.84800 43.78300
C  29.18400 63.96200 41.34300
C  28.33900 65.21600 41.76900
N  27.21900 59.25000 41.57700
C  26.58100 60.41200 41.86900
C  25.18200 60.25500 41.63300
C  25.00400 59.01100 41.06500
C  26.31400 58.38700 41.03400
C  24.08400 61.28500 41.86800
C  24.07200 58.12300 40.33300
O  22.89000 58.15700 40.06200
C  24.90000 56.93600 39.99800
C  24.49400 55.71800 40.77600
O  24.84500 55.42900 41.91000
O  23.54400 55.08500 40.00600
C  23.16500 53.73200 40.32800
H  31.64600 55.07700 39.79500
H  33.06000 60.89800 42.03200
H  26.79000 62.41800 42.34200
H  26.69000 54.53700 39.42400
H  29.36500 54.05500 38.77400
H  27.75300 53.21600 40.97100
H  29.14300 54.16600 41.63400
H  29.56300 52.84500 40.57400
H  28.35500 55.35600 37.07900
H  27.09100 56.47300 37.43000
H  25.75300 53.98100 37.36900
H  27.05500 53.76400 36.25800
H  34.03400 55.04500 40.66000
H  35.27700 56.15300 40.14400
H  33.89800 55.70500 39.10100
H  35.10600 60.99300 40.99400
H  36.45600 60.21500 41.77900
H  34.96600 60.43200 42.71100
H  31.43500 62.99400 41.60400
H  29.35100 63.43400 43.44400
H  32.46800 62.02000 44.14600
H  31.24100 63.21900 44.60000
H  32.60600 63.63300 43.65800
H  28.62200 63.46400 40.55300
H  30.02300 64.36500 40.77500
H  28.88200 66.12000 41.49200
H  28.19700 65.23000 42.85000
H  27.35600 65.23400 41.29700
H  23.98500 61.59700 42.90700
H  23.13500 60.85400 41.55100
H  24.28300 62.23500 41.37100
H  24.70900 56.79800 38.93400
H  23.09600 53.16100 39.40200
H  22.16300 53.77300 40.75600
H  23.91900 53.25500 40.95400

