158

Mg 15.64900 51.70500 26.05800
C  17.45800 50.62400 28.82400
C  13.06300 52.56900 28.10000
C  13.93000 52.61500 23.30700
C  18.17300 50.41300 23.93900
N  15.32700 51.71300 28.20500
C  16.25000 51.26200 29.15400
C  15.78500 51.66400 30.54800
C  14.22300 51.73300 30.33000
C  14.17200 52.07200 28.77400
C  13.44300 50.38900 30.71000
C  16.42100 52.94000 31.11300
C  16.50000 53.12800 32.64800
H  15.67100 52.15200 33.43200
N  13.73500 52.48200 25.74500
C  12.85200 52.79900 26.75000
C  11.66300 53.39500 26.14800
C  11.88200 53.25600 24.76800
C  13.22300 52.82100 24.51700
C  10.44500 53.91800 26.92100
C  10.92800 53.56200 23.65800
O  11.26800 53.43200 22.49000
C  9.50000 54.02400 24.01700
N  15.91100 51.43000 23.92000
C  15.14200 52.04300 22.99600
C  15.82000 52.06800 21.57100
C  17.00900 51.00500 21.78700
C  17.05700 50.94900 23.30600
C  14.81900 51.72800 20.42100
C  18.29500 51.41300 21.01700
C  18.70800 50.45100 19.87000
N  17.38100 50.62500 26.30600
C  18.35600 50.28700 25.38100
C  19.51600 49.75100 26.03000
C  19.17400 49.86300 27.40900
C  17.91600 50.37500 27.53200
C  20.86100 49.30200 25.45400
C  19.63600 49.56200 28.73900
O  20.68700 49.04800 29.13200
C  18.56100 50.05300 29.73800
C  18.21100 48.92300 30.63900
O  17.60300 47.90300 30.31100
O  18.65400 49.21300 31.94600
C  17.93300 48.49800 33.00800
H  12.25400 52.86200 28.77300
H  13.40500 53.05100 22.45500
H  19.11600 50.20400 23.43000
H  15.94700 50.86700 31.27400
H  13.77200 52.51500 30.94000
H  14.18500 49.60700 30.55200
H  12.51900 50.16100 30.17800
H  13.17100 50.36100 31.76500
H  15.82600 53.79200 30.78300
H  17.39500 53.04000 30.63300
H  16.18500 54.14500 32.87800
H  17.53000 53.06300 32.99800
H  10.08600 54.87900 26.55400
H  10.64900 53.91500 27.99200
H  9.58400 53.27400 26.73700
H  8.92800 53.36400 24.67000
H  8.84800 53.99200 23.14400
H  9.60200 55.08400 24.24900
H  16.18700 53.08900 21.47600
H  16.73800 50.04200 21.35400
H  15.21100 50.87600 19.86600
H  14.59500 52.59800 19.80300
H  13.79800 51.61800 20.78800
H  19.13400 51.80000 21.59500
H  18.05100 52.33100 20.48200
H  18.41900 49.44900 20.18700
H  19.78400 50.44600 19.69900
H  18.19200 50.73500 18.95300
H  20.82100 49.21500 24.36800
H  21.29700 48.36900 25.81100
H  21.54400 50.08600 25.78100
H  19.02000 50.87300 30.29000
H  18.39000 47.54200 33.26400
H  16.87200 48.33900 32.81500
H  17.80400 49.12400 33.89000
Mg -11.00700 40.41800 42.52800
C  -9.15700 37.50500 41.45800
C  -8.70100 42.33800 40.75800
C  -12.98100 42.95600 42.98600
C  -13.58800 38.08400 43.47200
N  -9.12000 39.96500 41.25000
C  -8.55100 38.73600 41.00100
C  -7.21400 38.82000 40.19600
C  -7.00200 40.34900 40.20800
C  -8.34900 40.96300 40.81100
C  -5.73800 40.76800 40.82100
C  -7.33000 38.18600 38.78700
C  -6.77800 36.81400 38.53300
H  -5.79200 36.60800 37.40900
N  -10.84800 42.42400 42.03500
C  -9.81400 43.07500 41.29200
C  -10.10100 44.50500 41.19000
C  -11.30100 44.70400 41.96000
C  -11.80300 43.31800 42.31100
C  -9.19200 45.43500 40.51900
C  -11.95500 46.03600 42.24400
O  -11.53100 47.08600 41.81900
C  -13.18000 46.19800 42.99000
N  -12.93700 40.48600 43.17900
C  -13.55400 41.69700 43.32700
C  -15.05300 41.63700 43.78100
C  -15.23500 40.04400 43.78600
C  -13.88500 39.46400 43.45000
C  -15.33000 42.29000 45.15100
C  -16.27900 39.41200 42.78700
C  -17.59400 38.90900 43.38700
N  -11.31300 38.32100 42.55100
C  -12.38900 37.54100 42.98900
C  -11.94100 36.17500 43.09300
C  -10.72900 36.11300 42.42100
C  -10.41000 37.47100 42.08100
C  -12.76400 35.04100 43.64500
C  -9.69400 35.17900 42.03700
O  -9.61600 33.93900 42.05700
C  -8.62600 36.07200 41.48300
C  -7.37800 35.99800 42.30200
O  -7.02600 36.64200 43.29700
O  -6.51500 35.14000 41.67500
C  -5.34400 34.55400 42.44800
H  -7.91500 42.93500 40.28900
H  -13.71800 43.75800 42.90900
H  -14.41400 37.46700 43.83100
H  -6.42600 38.42300 40.83700
H  -6.83900 40.75800 39.21100
H  -5.46100 41.82200 40.79200
H  -4.90000 40.31400 40.29200
H  -5.71500 40.44100 41.86100
H  -6.84900 38.85300 38.07100
H  -8.37400 38.22800 38.47800
H  -7.63200 36.16500 38.33900
H  -6.39300 36.50600 39.50500
H  -9.01900 46.25400 41.21700
H  -9.60400 45.74100 39.55700
H  -8.22100 45.00700 40.27000
H  -13.08900 45.58400 43.88600
H  -13.99000 45.82500 42.36300
H  -13.33200 47.25500 43.20900
H  -15.80500 42.13300 43.16700
H  -15.34800 39.76000 44.83300
H  -14.46000 42.29900 45.80700
H  -16.12300 41.81100 45.72500
H  -15.61900 43.33500 45.04200
H  -15.78100 38.63300 42.20900
H  -16.54400 40.28900 42.19700
H  -17.91300 39.64200 44.12800
H  -17.25500 38.00700 43.89600
H  -18.35500 38.54200 42.69800
H  -12.06800 34.24000 43.89300
H  -13.44400 34.66600 42.88000
H  -13.36900 35.30900 44.51200
H  -8.39900 35.66800 40.49700
H  -4.55400 34.15600 41.81200
H  -5.78000 33.66400 42.90000
H  -4.93000 35.21500 43.21000

