158

Mg 9.26000 47.85800 26.44700
C  7.37200 47.52100 29.45100
C  11.97200 48.70500 28.29100
C  10.91500 47.88300 23.61000
C  6.18000 47.21300 24.65900
N  9.56700 48.16800 28.58300
C  8.67900 48.01700 29.66200
C  9.34900 48.40000 30.99600
C  10.77700 48.83500 30.57800
C  10.80700 48.58900 29.04700
C  11.14900 50.30900 30.94800
C  9.36300 47.25300 32.10900
C  10.40200 47.14000 33.18200
H  9.93500 47.11400 34.58600
N  11.10800 48.31000 25.99300
C  12.10300 48.62100 26.86800
C  13.34800 48.71200 26.15900
C  13.12900 48.23800 24.81300
C  11.67800 48.13200 24.68200
C  14.68800 48.91500 26.87500
C  14.16300 48.00000 23.74500
O  13.92500 47.57200 22.65200
C  15.64100 48.30900 23.95000
N  8.57400 47.74700 24.33800
C  9.51500 47.69000 23.38400
C  8.95800 47.53800 21.91400
C  7.51900 46.92500 22.30900
C  7.41100 47.28700 23.84700
C  8.61700 48.92000 21.25000
C  7.39900 45.37400 22.02700
C  7.97400 44.34800 23.01900
N  7.22800 47.42900 26.92200
C  6.10800 47.26600 26.04900
C  4.92800 46.94900 26.83600
C  5.41600 47.03300 28.14700
C  6.77800 47.34600 28.19800
C  3.56000 46.61300 26.36200
C  5.12500 46.89100 29.59400
O  4.07300 46.42200 30.09200
C  6.34400 47.19500 30.46300
C  6.64600 45.89500 31.19800
O  7.16800 44.95700 30.63500
O  6.13900 46.00900 32.45600
C  6.77000 45.14100 33.48900
H  12.71900 49.07700 28.99500
H  11.37000 47.85600 22.61800
H  5.32900 46.79000 24.12200
H  8.87800 49.26700 31.46000
H  11.55500 48.19100 30.98900
H  11.92500 50.16000 31.69900
H  10.32500 50.91300 31.32900
H  11.51100 50.80200 30.04600
H  9.54000 46.30800 31.59500
H  8.35700 47.31500 32.52500
H  11.21600 47.86300 33.15800
H  10.93600 46.23900 32.88000
H  15.30800 49.45000 26.15500
H  15.16500 47.97900 27.16600
H  14.53700 49.51700 27.77200
H  16.31100 48.15600 23.10400
H  16.08800 47.73400 24.76100
H  15.78000 49.37100 24.15400
H  9.46200 46.85200 21.23300
H  6.70000 47.30500 21.69900
H  7.79100 48.74300 20.56200
H  9.44900 49.29800 20.65700
H  8.30000 49.64900 21.99500
H  7.77500 45.17300 21.02300
H  6.31800 45.24500 21.97800
H  8.27800 44.75500 23.98400
H  8.85200 43.92500 22.53100
H  7.10200 43.69800 23.09900
H  3.33100 45.54900 26.41800
H  3.31400 46.93000 25.34900
H  2.98200 47.23300 27.04800
H  6.08200 47.99300 31.15800
H  7.58900 45.73600 33.89400
H  7.20000 44.24700 33.03800
H  6.11900 44.83300 34.30700
Mg -6.10800 25.09600 25.64500
C  -4.41900 26.16900 28.60200
C  -7.91600 22.94000 27.47300
C  -6.85700 23.55700 22.92800
C  -3.64900 27.07100 23.90800
N  -6.03700 24.51800 27.71600
C  -5.35200 25.08100 28.78800
C  -5.80800 24.50500 30.17400
C  -6.67200 23.36400 29.71900
C  -6.96200 23.65600 28.21400
C  -6.04300 21.91400 30.06300
C  -6.67600 25.60900 30.90300
C  -6.55400 25.60500 32.46600
H  -5.88700 24.45100 33.16400
N  -7.41200 23.64600 25.25500
C  -8.21100 22.98100 26.13900
C  -9.19800 22.16700 25.47500
C  -8.77100 22.23900 24.10900
C  -7.62800 23.14300 24.03800
C  -10.24600 21.31700 26.09900
C  -9.37700 21.55300 22.85400
O  -8.89500 21.64400 21.71900
C  -10.56500 20.70100 22.97800
N  -5.32100 25.25600 23.70400
C  -5.82700 24.51000 22.71400
C  -5.23700 24.84200 21.33800
C  -4.19000 25.98800 21.67700
C  -4.37100 26.13100 23.18900
C  -4.60300 23.64700 20.59100
C  -4.37400 27.30300 20.82500
C  -3.16200 28.16500 20.43300
N  -4.45900 26.51800 26.09700
C  -3.57000 27.16600 25.29700
C  -2.75400 28.01600 26.11700
C  -3.01000 27.67300 27.45900
C  -4.02000 26.68500 27.36200
C  -1.84000 29.08900 25.57800
C  -2.67500 27.91900 28.85800
O  -1.89300 28.73800 29.38100
C  -3.62900 26.92200 29.67100
C  -2.77600 26.04700 30.53200
O  -2.35500 24.94400 30.29700
O  -2.35100 26.69500 31.69900
C  -1.33700 26.09200 32.65000
H  -8.53900 22.19200 27.96800
H  -7.12900 23.15500 21.95000
H  -2.86000 27.61700 23.38700
H  -4.86500 24.31700 30.68600
H  -7.54100 23.50000 30.36300
H  -5.58300 21.52500 29.15400
H  -6.80500 21.23300 30.44300
H  -5.39100 22.02600 30.93000
H  -7.72400 25.68600 30.61200
H  -6.16600 26.47300 30.47800
H  -7.55800 25.69200 32.88000
H  -5.97400 26.51800 32.60400
H  -9.98800 20.25900 26.06200
H  -11.21300 21.36100 25.59800
H  -10.45700 21.64200 27.11800
H  -11.37600 21.27700 23.42600
H  -10.23700 19.82700 23.54000
H  -10.81900 20.34700 21.97900
H  -5.92300 25.32600 20.64200
H  -3.12400 25.78200 21.58400
H  -3.62400 23.89000 20.17700
H  -5.30100 23.31600 19.82200
H  -4.57700 22.89000 21.37500
H  -5.05700 27.86800 21.45900
H  -4.90300 27.00500 19.92000
H  -3.48700 29.16500 20.14700
H  -2.79800 27.83700 19.45900
H  -2.24600 28.17300 21.02400
H  -2.41500 29.64600 24.83900
H  -0.94200 28.59100 25.21200
H  -1.45300 29.77700 26.33000
H  -4.23000 27.45100 30.41000
H  -0.42400 26.67700 32.54000
H  -1.08600 25.03300 32.58500
H  -1.85600 26.30800 33.58300

