158

Mg 16.73400 51.60200 26.57600
C  18.63900 50.25000 29.20900
C  14.12700 52.12100 28.94600
C  14.85400 52.89500 24.18300
C  19.02100 50.50800 24.27800
N  16.55700 51.24800 28.83300
C  17.45900 50.81500 29.71700
C  17.02000 51.00400 31.17200
C  15.43200 51.19300 30.92900
C  15.39300 51.59800 29.44000
C  14.45600 50.03900 31.20300
C  17.75700 52.24100 31.73100
C  17.47800 52.74100 33.15100
H  16.76900 51.69800 34.06300
N  14.84800 52.50000 26.59200
C  13.85200 52.51100 27.58100
C  12.69300 53.33500 27.17000
C  12.95900 53.75800 25.82000
C  14.27600 53.06000 25.47100
C  11.56200 53.71100 28.05400
C  12.28900 54.75900 24.83700
O  12.72600 55.00400 23.73200
C  11.00500 55.44300 25.14800
N  16.80500 51.44700 24.45900
C  15.98100 52.21500 23.71300
C  16.46000 52.17000 22.21900
C  17.80900 51.43900 22.25800
C  17.89100 51.11700 23.74100
C  15.48500 51.60100 21.06500
C  18.99200 52.11300 21.54000
C  19.75300 53.21700 22.26400
N  18.46400 50.43800 26.63600
C  19.34900 50.07200 25.55700
C  20.48000 49.46100 26.20400
C  20.22300 49.40800 27.60800
C  19.01800 50.12100 27.83100
C  21.59100 48.86600 25.37000
C  20.71900 48.90000 28.90000
O  21.65300 48.19000 29.18300
C  19.82300 49.55900 29.96900
C  19.29500 48.53900 30.93000
O  18.42100 47.71100 30.55600
O  19.80400 48.76100 32.17900
C  19.14800 48.05100 33.26500
H  13.30100 52.31700 29.63300
H  14.30800 53.26400 23.31300
H  19.83600 50.29600 23.58300
H  17.14700 50.14300 31.82900
H  15.09000 52.02000 31.55000
H  13.52700 50.42000 31.62800
H  14.86900 49.29600 31.88400
H  14.17400 49.40500 30.36300
H  17.37600 53.03100 31.08400
H  18.80000 52.05900 31.47100
H  16.84900 53.62800 33.07900
H  18.41500 53.05200 33.61300
H  11.62300 53.41200 29.10100
H  10.67500 53.31400 27.56100
H  11.35200 54.78000 28.09600
H  10.44900 55.66400 24.23700
H  11.03400 56.33800 25.76900
H  10.45700 54.74400 25.78000
H  16.63700 53.19700 21.89900
H  17.75700 50.46400 21.77400
H  14.67400 51.16200 21.64600
H  15.85500 50.81400 20.40800
H  14.99700 52.38700 20.48800
H  18.55800 52.41900 20.58800
H  19.61100 51.22400 21.41800
H  20.67300 52.67400 22.47800
H  19.20800 53.44000 23.18100
H  19.96200 54.11500 21.68200
H  21.86400 49.31100 24.41200
H  21.20200 47.86800 25.16800
H  22.48900 48.84000 25.98700
H  20.45400 50.26000 30.51500
H  19.25100 46.97100 33.15900
H  18.07700 48.16500 33.09300
H  19.46600 48.46900 34.22000
Mg -5.46900 25.21200 25.77900
C  -3.85000 26.52900 28.72800
C  -7.02200 23.04200 27.95300
C  -6.72700 23.84500 23.14800
C  -3.21600 27.06600 23.95600
N  -5.38200 24.87900 28.06800
C  -4.85200 25.59200 29.05400
C  -5.46400 25.30800 30.39500
C  -6.18900 24.00400 30.11200
C  -6.09000 23.80800 28.59000
C  -5.71400 22.79800 30.93300
C  -6.36500 26.53000 30.93300
C  -6.22700 26.94600 32.32600
H  -5.66400 25.88400 33.33500
N  -6.75300 23.68400 25.57400
C  -7.33400 22.95400 26.57300
C  -8.34200 22.01600 25.99800
C  -8.30200 22.22500 24.57500
C  -7.25300 23.29200 24.36500
C  -9.15400 21.02200 26.76000
C  -9.12700 21.69300 23.42800
O  -9.00600 22.03600 22.24200
C  -10.21000 20.77400 23.84300
N  -5.00900 25.47100 23.86200
C  -5.72300 24.78800 22.93100
C  -5.19600 25.08200 21.54800
C  -4.16100 26.31000 21.73000
C  -4.13400 26.27400 23.27600
C  -4.64700 23.85000 20.98300
C  -4.54300 27.68100 21.15900
C  -3.40600 28.37600 20.44000
N  -3.84400 26.51800 26.22200
C  -3.07800 27.20300 25.33600
C  -2.06700 28.08300 26.00900
C  -2.32500 27.85400 27.36000
C  -3.40700 26.86400 27.44300
C  -1.27200 29.16400 25.29700
C  -2.00700 28.23900 28.70300
O  -1.20200 29.09900 29.06800
C  -2.94200 27.41600 29.59900
C  -1.99000 26.57100 30.40500
O  -1.40200 25.58300 30.04700
O  -1.87800 27.13100 31.64500
C  -0.92300 26.43400 32.52000
H  -7.68700 22.46500 28.59800
H  -7.22900 23.46200 22.25700
H  -2.56600 27.68100 23.33000
H  -4.75200 24.95200 31.13900
H  -7.22700 24.22400 30.36100
H  -4.89000 22.27700 30.44500
H  -6.58300 22.14100 30.92600
H  -5.45700 22.89400 31.98800
H  -7.39200 26.20400 30.77300
H  -6.23200 27.45900 30.37800
H  -7.19700 27.29600 32.67900
H  -5.54100 27.78800 32.23000
H  -10.13200 21.41600 27.03800
H  -8.60800 20.73600 27.65900
H  -9.19900 20.08100 26.21300
H  -9.60200 19.94400 24.20300
H  -10.72400 20.38800 22.96300
H  -10.91900 21.16200 24.57300
H  -5.93600 25.33800 20.78900
H  -3.15500 26.01100 21.43500
H  -3.58000 24.03600 20.86500
H  -5.13600 23.57000 20.04900
H  -4.64500 23.06000 21.73400
H  -4.81800 28.23200 22.05800
H  -5.35000 27.56400 20.43700
H  -2.63200 27.66400 20.15500
H  -2.99200 29.14300 21.09400
H  -3.87400 28.79800 19.55000
H  -1.93800 29.92400 24.88800
H  -0.63500 28.67100 24.56300
H  -0.78400 29.75000 26.07600
H  -3.57600 28.10700 30.15500
H  -1.22200 25.38700 32.46500
H  -0.88700 26.62200 33.59300
H  0.05900 26.44900 32.04800

