158

Mg 25.43400 1.22600 30.09900
C  27.73200 1.04400 32.76800
C  22.96100 1.45600 32.33800
C  23.47900 1.32400 27.47300
C  28.24100 0.59300 27.87800
N  25.41000 1.16100 32.32300
C  26.43300 1.23900 33.20600
C  25.88300 1.49500 34.64600
C  24.35200 1.29800 34.50500
C  24.20100 1.29300 32.96500
C  23.67200 0.06000 35.17800
C  26.29800 2.86200 35.09900
C  27.10500 2.95100 36.40800
H  26.45000 3.74800 37.55400
N  23.44900 1.44100 29.91900
C  22.53900 1.45400 30.92800
C  21.20300 1.60700 30.38100
C  21.35400 1.60800 28.98200
C  22.84000 1.48000 28.71300
C  19.94300 1.77800 31.20700
C  20.27600 1.65200 27.85700
O  20.52600 1.74800 26.68900
C  18.80100 1.59500 28.20200
N  25.83100 0.79400 27.93800
C  24.77900 1.02600 27.06300
C  25.25300 1.14600 25.61900
C  26.81500 1.04300 25.80200
C  26.97400 0.81200 27.30900
C  24.61200 0.09900 24.59900
C  27.63300 2.26900 25.28300
C  29.07000 2.09500 24.61600
N  27.48400 0.87700 30.21200
C  28.48400 0.51900 29.23400
C  29.71200 0.34500 29.87700
C  29.41700 0.58100 31.24000
C  28.07600 0.87700 31.39700
C  31.12900 0.16200 29.28600
C  30.04500 0.66500 32.60800
O  31.16700 0.46200 32.92200
C  29.02000 1.13000 33.60900
C  28.93200 0.12100 34.68800
O  28.33900 -0.95000 34.64300
O  29.55100 0.54800 35.84200
C  29.34800 -0.18400 37.09900
H  22.06400 1.53600 32.95500
H  22.91700 1.45300 26.54500
H  29.11800 0.58000 27.22800
H  26.33400 0.72700 35.27500
H  23.82800 2.24400 34.64000
H  22.86700 0.45600 35.79700
H  24.38500 -0.52800 35.75500
H  23.11000 -0.63000 34.54700
H  25.38500 3.44800 35.20800
H  26.92500 3.24400 34.29400
H  27.93500 3.59300 36.11300
H  27.54300 2.00000 36.71000
H  19.32500 2.61400 30.88000
H  20.16700 1.84000 32.27100
H  19.42700 0.82000 31.25700
H  18.34000 2.51600 28.55800
H  18.61700 0.77600 28.89700
H  18.22700 1.23000 27.35000
H  25.00800 2.12900 25.21800
H  27.26700 0.20600 25.26900
H  23.98200 -0.61800 25.12500
H  25.40000 -0.50300 24.14700
H  23.98100 0.57600 23.84900
H  27.78700 2.98800 26.08800
H  26.99500 2.78700 24.56600
H  29.47800 1.10200 24.80000
H  29.75300 2.77700 25.12200
H  28.94300 2.32000 23.55700
H  31.33600 0.95900 28.57300
H  31.17100 -0.71100 28.63500
H  31.76000 0.14400 30.17400
H  29.13800 2.14100 33.99900
H  30.34900 -0.20200 37.52900
H  28.98000 -1.20000 36.95300
H  28.77600 0.37100 37.84200
Mg -11.33700 38.29500 41.98300
C  -8.88400 35.70400 41.61000
C  -9.29600 40.15000 39.88200
C  -13.89500 40.44100 41.58400
C  -13.41400 35.90900 43.35400
N  -9.30700 37.91200 40.77000
C  -8.44900 36.90900 41.00300
C  -7.12200 37.17100 40.30200
C  -7.23000 38.64400 39.78900
C  -8.69600 38.96000 40.18700
C  -6.31400 39.67700 40.38200
C  -6.76400 36.15100 39.12400
C  -5.29500 35.80800 38.82600
H  -4.50200 36.28200 37.57500
N  -11.52700 40.08900 41.01100
C  -10.56900 40.71600 40.22600
C  -11.06400 42.01700 39.99100
C  -12.35600 42.17300 40.51400
C  -12.67400 40.85200 41.04900
C  -10.31600 43.10900 39.21300
C  -13.24500 43.48500 40.49700
O  -12.81600 44.52400 40.06000
C  -14.66800 43.60600 41.08300
N  -13.37500 38.19300 42.25600
C  -14.25400 39.21400 42.16600
C  -15.65500 38.86000 42.61600
C  -15.55700 37.31200 42.89700
C  -13.99500 37.10900 42.84400
C  -16.16200 39.65200 43.88100
C  -16.34900 36.38300 42.00500
C  -17.74900 35.96100 42.53500
N  -11.20600 36.23500 42.51200
C  -12.10200 35.46600 43.14800
C  -11.50300 34.13500 43.38300
C  -10.21300 34.21200 42.77900
C  -10.09100 35.52100 42.23700
C  -12.18300 33.10400 44.18800
C  -8.99200 33.47200 42.59300
O  -8.64300 32.32600 42.97900
C  -8.09800 34.42100 41.75300
C  -6.77400 34.56500 42.36900
O  -5.95400 33.63000 42.36000
O  -6.66200 35.62400 43.15000
C  -5.45700 35.71600 43.97300
H  -8.80000 40.87800 39.23600
H  -14.76600 41.09700 41.54100
H  -14.14700 35.26400 43.84400
H  -6.44400 37.16600 41.15600
H  -7.13500 38.78700 38.71300
H  -5.56900 39.81700 39.59800
H  -5.76800 39.29400 41.24400
H  -6.72700 40.68400 40.42900
H  -7.01400 36.66400 38.19500
H  -7.50800 35.35600 39.08100
H  -5.23300 34.72500 38.93300
H  -4.81200 36.23200 39.70600
H  -9.55400 42.72000 38.53800
H  -9.78400 43.86300 39.79300
H  -11.01800 43.66000 38.58600
H  -14.69800 43.08200 42.03800
H  -15.16500 42.94400 40.37400
H  -15.11400 44.59300 40.95600
H  -16.37100 39.10600 41.83200
H  -15.93400 37.01200 43.87500
H  -16.84900 40.47900 43.70200
H  -15.26700 40.00500 44.39300
H  -16.58000 38.97900 44.62900
H  -15.71400 35.55300 41.69600
H  -16.59600 36.92000 41.08900
H  -18.33900 36.87200 42.43200
H  -17.84200 35.58700 43.55400
H  -18.04800 35.10200 41.93400
H  -12.32500 32.17400 43.63800
H  -13.12400 33.48300 44.58800
H  -11.71200 32.83700 45.13300
H  -7.95200 33.98500 40.76500
H  -4.71200 35.08100 43.49400
H  -5.67900 35.30600 44.95800
H  -5.25100 36.78100 44.07300

