158

Mg 53.53000 23.41800 43.94300
C  51.03800 25.78000 43.05500
C  51.72900 21.00000 42.50900
C  56.31600 21.44400 43.81400
C  55.58100 26.15000 44.91000
N  51.73900 23.43800 42.59100
C  50.80700 24.49400 42.53800
C  49.52600 24.03900 41.80800
C  49.64300 22.46100 42.02400
C  51.08500 22.29000 42.38700
C  48.61000 22.07600 43.06500
C  49.33400 24.56300 40.37600
C  50.61800 24.84500 39.49800
H  50.37000 25.54100 38.09500
N  53.93300 21.44700 43.47600
C  52.99800 20.61000 42.99900
C  53.59900 19.22200 42.98600
C  54.89600 19.34400 43.44900
C  55.14000 20.80300 43.58100
C  52.76200 18.00400 42.43600
C  55.81900 18.12400 43.73100
O  55.46000 16.98900 43.40900
C  57.06000 18.36100 44.46400
N  55.54900 23.73400 44.35700
C  56.49000 22.78800 44.07200
C  57.90400 23.32600 44.37300
C  57.67500 24.75100 44.82300
C  56.19300 24.86500 44.68100
C  58.67300 22.43800 45.30800
C  58.54000 25.81500 44.05100
C  60.06700 25.74900 44.29400
N  53.41100 25.49600 44.06200
C  54.24000 26.42300 44.61600
C  53.50400 27.59500 44.88200
C  52.30500 27.38900 44.24000
C  52.33900 26.11700 43.70000
C  54.02600 28.78600 45.65100
C  51.00700 28.09800 43.92600
O  50.56000 29.21400 44.21100
C  50.16500 27.03900 43.13300
C  49.64100 27.60200 41.86700
O  50.23500 27.78200 40.82600
O  48.32100 27.83900 42.12400
C  47.56900 28.49200 41.01100
H  51.12600 20.19700 42.08300
H  57.20400 20.83900 43.61900
H  56.17100 26.94200 45.37500
H  48.66200 24.42700 42.34700
H  49.50600 22.06800 41.01600
H  48.67600 21.02400 43.34300
H  47.62200 22.22700 42.63000
H  48.77300 22.72000 43.93000
H  48.76200 25.48700 40.28800
H  48.71900 23.81700 39.87300
H  51.23900 23.96800 39.31800
H  51.18100 25.51100 40.15200
H  53.09200 16.98900 42.65800
H  52.41900 18.17900 41.41700
H  51.81500 18.06800 42.97200
H  56.95300 19.18500 45.16900
H  57.88100 18.58900 43.78500
H  57.33100 17.43400 44.96900
H  58.39200 23.23700 43.40300
H  57.95700 24.95800 45.85600
H  58.99200 22.99600 46.18900
H  59.52700 22.03900 44.76100
H  58.00200 21.67000 45.69400
H  58.18400 26.79200 44.37600
H  58.25100 25.65400 43.01300
H  60.44200 26.56200 44.91500
H  60.67400 25.94500 43.41000
H  60.38800 24.84600 44.81400
H  54.76700 29.29900 45.03800
H  54.33600 28.49400 46.65400
H  53.34000 29.61400 45.82900
H  49.26400 26.71900 43.65600
H  48.08200 29.42600 40.78100
H  46.55700 28.71600 41.34800
H  47.50000 27.91100 40.09200
Mg 46.65100 34.69300 27.45100
C  45.00700 32.85400 29.98000
C  47.03400 37.18500 29.65200
C  47.72900 36.47100 24.90400
C  45.89200 32.06200 25.21000
N  46.23500 34.85700 29.59800
C  45.60100 34.06500 30.44200
C  45.88400 34.48600 31.88100
C  46.08100 36.07700 31.72800
C  46.46200 36.06300 30.21900
C  44.83200 36.93400 32.07400
C  47.22100 33.73500 32.32100
C  47.51000 33.56100 33.80800
H  46.72000 34.39700 34.82700
N  47.46100 36.50200 27.33500
C  47.58500 37.37800 28.32900
C  48.43600 38.44900 27.90800
C  48.51100 38.33400 26.47300
C  47.88000 37.03800 26.17100
C  49.20400 39.40900 28.80000
C  49.23000 39.19000 25.48200
O  49.37700 38.80800 24.29200
C  49.70000 40.55000 25.84200
N  46.73500 34.30500 25.42900
C  47.32900 35.16500 24.57400
C  47.20800 34.76500 23.08900
C  46.83400 33.28400 23.19700
C  46.43700 33.20000 24.67800
C  46.30900 35.56100 22.14200
C  47.98700 32.24300 22.74100
C  49.33800 32.15900 23.49300
N  45.63400 32.79100 27.53900
C  45.40600 31.83500 26.54800
C  44.84700 30.68800 27.14000
C  44.54300 31.07000 28.47300
C  45.07200 32.35100 28.63500
C  44.44800 29.37100 26.51800
C  43.92200 30.70700 29.74200
O  43.38100 29.66400 30.00800
C  44.08800 31.88000 30.69800
C  44.75500 31.32500 31.94100
O  45.82100 30.75000 31.96000
O  43.88700 31.46800 32.99500
C  44.42700 31.29700 34.37100
H  47.07900 37.98600 30.39300
H  48.01000 36.98900 23.98400
H  45.82400 31.22700 24.51000
H  45.10200 34.20900 32.58800
H  46.83500 36.39200 32.45000
H  43.93700 36.31800 32.16700
H  44.65100 37.68200 31.30300
H  44.90300 37.50400 33.00100
H  47.99500 34.30500 31.80600
H  47.29900 32.76700 31.82600
H  48.57000 33.64900 34.04300
H  47.24400 32.52600 34.02600
H  49.19500 39.03300 29.82300
H  48.77400 40.41100 28.79800
H  50.27100 39.40900 28.57500
H  50.35100 40.47600 26.71300
H  48.82600 41.19400 25.93500
H  50.37800 40.99300 25.11200
H  48.19600 35.02800 22.71300
H  45.96800 33.07200 22.57000
H  46.09500 36.49100 22.66800
H  45.43400 34.97300 21.86500
H  46.85900 35.83600 21.24200
H  48.26400 32.57700 21.74100
H  47.52200 31.26900 22.58800
H  49.36400 31.17600 23.96300
H  49.42200 32.96200 24.22600
H  50.25200 32.39100 22.94700
H  44.88500 29.20400 25.53300
H  43.37300 29.38200 26.33600
H  44.80800 28.58400 27.18000
H  43.17200 32.34000 31.06700
H  45.50400 31.45300 34.31500
H  44.33800 30.31400 34.83500
H  43.86300 31.99900 34.98500

