158

Mg 9.05400 4.48900 28.02400
C  10.42100 2.74200 30.92200
C  7.44700 6.54800 29.98000
C  7.68200 5.75000 25.19400
C  10.65800 2.11800 26.07100
N  8.90300 4.60800 30.17600
C  9.58100 3.88000 31.18800
C  9.28300 4.49600 32.58900
C  8.17200 5.62200 32.18500
C  8.15100 5.62300 30.69000
C  6.84000 5.50300 32.94300
C  10.62900 5.12700 33.22300
C  11.18700 4.45000 34.52400
H  11.39400 5.25700 35.82500
N  7.66300 5.93100 27.68200
C  7.13400 6.69300 28.63800
C  6.24000 7.60600 27.98100
C  6.29500 7.37400 26.59400
C  7.25000 6.32500 26.46900
C  5.53500 8.68200 28.82800
C  5.44800 8.07300 25.57100
O  5.60500 7.80300 24.36100
C  4.43900 9.09300 25.90900
N  9.08500 4.01900 25.88400
C  8.57100 4.70300 24.89600
C  8.90500 4.14000 23.45500
C  9.95300 3.05900 23.86400
C  9.90400 3.06000 25.39800
C  7.67000 3.64500 22.66700
C  11.42500 3.36500 23.37000
C  12.14700 2.18700 22.66500
N  10.22000 2.73200 28.35100
C  10.86100 1.95000 27.48000
C  11.61100 0.84500 28.12400
C  11.48700 1.16100 29.45600
C  10.62600 2.28000 29.58700
C  12.41300 -0.29600 27.54400
C  11.87000 0.80200 30.83100
O  12.51100 -0.15300 31.25600
C  11.16600 1.85000 31.84400
C  10.28800 1.13500 32.73900
O  9.31100 0.53800 32.30900
O  10.73500 1.15800 33.99900
C  9.87800 0.50400 35.04100
H  6.92800 7.26400 30.62100
H  7.29500 6.33400 24.35700
H  11.17600 1.34500 25.50000
H  8.71200 3.70700 33.07700
H  8.57700 6.54900 32.59000
H  7.09900 5.35300 33.99100
H  6.39400 4.53200 32.72900
H  6.14200 6.33600 32.85000
H  10.49400 6.16900 33.51200
H  11.39000 4.94500 32.46400
H  12.15100 4.00900 34.27000
H  10.57000 3.60800 34.83900
H  5.51100 9.60100 28.24300
H  6.04500 8.84100 29.77800
H  4.48600 8.43300 28.98700
H  3.76400 9.38000 25.10300
H  4.75700 10.05500 26.31100
H  3.70300 8.66900 26.59200
H  9.37900 4.99000 22.96500
H  9.74200 2.07000 23.45800
H  6.81800 3.97500 23.26200
H  7.53500 2.56400 22.61600
H  7.58800 3.87200 21.60400
H  12.05200 3.58500 24.23400
H  11.37200 4.31400 22.83700
H  13.10600 2.00600 23.15200
H  12.37200 2.43200 21.62700
H  11.54700 1.27700 22.63600
H  13.36500 -0.50600 28.03100
H  12.74400 -0.10200 26.52300
H  11.78400 -1.18200 27.63100
H  11.94100 2.35200 32.42300
H  10.25600 -0.44600 35.42000
H  8.86400 0.18700 34.80000
H  9.67700 1.22800 35.83100
Mg 47.27600 16.04000 28.47200
C  45.18000 15.61300 31.19100
C  49.56800 17.71100 30.57300
C  49.03200 16.89100 25.79700
C  44.62300 14.92700 26.45200
N  47.37100 16.50000 30.63700
C  46.35700 16.23300 31.53600
C  46.85700 16.66800 32.95300
C  48.22100 17.50500 32.72700
C  48.38600 17.19900 31.20800
C  47.94500 19.00900 33.06400
C  47.06700 15.48400 33.97700
C  46.49400 15.65300 35.36000
H  46.16900 17.07700 35.87600
N  49.13600 16.88300 28.24800
C  49.89300 17.58200 29.17300
C  51.11700 18.06200 28.55900
C  51.05000 17.77200 27.22700
C  49.73800 17.12600 27.03300
C  52.16000 18.69400 29.30800
C  52.06000 18.01400 26.13900
O  51.93000 17.60900 25.02200
C  53.24500 18.90400 26.34200
N  46.89500 15.97900 26.46000
C  47.79200 16.33200 25.49500
C  47.18900 16.06200 24.06700
C  46.03800 15.15500 24.32900
C  45.81700 15.32800 25.84000
C  46.72600 17.34600 23.34300
C  46.35600 13.63300 24.09700
C  45.18300 12.92200 23.50500
N  45.31700 15.42700 28.66200
C  44.37300 15.02500 27.79900
C  43.28300 14.47300 28.54500
C  43.51800 14.63000 29.87000
C  44.76200 15.29400 29.88500
C  42.07400 13.81100 28.01300
C  43.05400 14.47000 31.26600
O  42.11100 13.92400 31.78300
C  44.04800 15.23600 32.13400
C  43.22900 16.31000 32.77100
O  42.80600 17.39000 32.25400
O  42.80900 15.96200 33.98900
C  41.75600 16.74800 34.64100
H  50.26700 18.20200 31.25500
H  49.65700 17.25900 24.98200
H  43.88900 14.42500 25.81800
H  46.01000 17.27600 33.27400
H  49.09300 17.21200 33.31300
H  47.98200 19.55200 32.12000
H  48.82600 19.26400 33.65400
H  47.06200 19.16700 33.68300
H  48.12700 15.27100 34.11600
H  46.65400 14.58100 33.52800
H  47.26900 15.30400 36.04200
H  45.78500 14.83300 35.48100
H  53.10200 18.19200 29.08900
H  51.95700 18.46600 30.35500
H  52.32100 19.76800 29.21300
H  52.83300 19.88900 26.55900
H  53.87200 19.00600 25.45600
H  53.73700 18.46800 27.21100
H  47.96500 15.49100 23.55600
H  45.11300 15.49000 23.85900
H  47.43200 18.14200 23.58000
H  45.67000 17.54100 23.53000
H  46.85400 17.26000 22.26400
H  46.49500 13.21600 25.09500
H  47.23200 13.40100 23.49300
H  44.78100 12.33900 24.33400
H  45.59700 12.24100 22.76200
H  44.40200 13.51500 23.02800
H  41.66800 14.32000 27.13900
H  41.24500 13.82900 28.72000
H  42.23300 12.74800 27.83300
H  44.45400 14.49500 32.82400
H  40.87200 17.07700 34.09400
H  42.25500 17.61400 35.07700
H  41.42500 16.07900 35.43500

