158

Mg 53.63000 23.67900 44.33900
C  51.25900 26.25300 43.86200
C  51.51600 21.49600 42.71600
C  56.16300 21.40100 44.39700
C  55.86000 26.24500 45.40800
N  51.70500 23.91700 43.26200
C  50.92500 25.06000 43.21800
C  49.70700 24.87500 42.30900
C  49.51700 23.29300 42.54600
C  50.97100 22.84200 42.84400
C  48.60400 22.97900 43.73500
C  50.01900 25.23800 40.78200
C  51.42700 25.39200 40.28600
H  51.74900 26.14100 39.02200
N  53.74400 21.65500 43.72400
C  52.74800 20.94900 43.17100
C  53.15100 19.55600 43.07400
C  54.50600 19.47300 43.46600
C  54.86800 20.85000 43.94000
C  52.25200 18.50400 42.58700
C  55.30700 18.18200 43.51400
O  54.82800 17.15800 43.06200
C  56.66500 18.02700 44.02200
N  55.75500 23.83200 44.58600
C  56.54600 22.74200 44.72300
C  57.98100 23.08400 45.14500
C  57.83200 24.63400 45.45400
C  56.37300 24.95300 45.10200
C  58.49700 22.28900 46.31100
C  58.77000 25.46000 44.60500
C  59.19500 26.86700 45.03700
N  53.66900 25.88000 44.54000
C  54.56000 26.71400 45.05900
C  53.98700 28.07100 45.16200
C  52.65200 27.94600 44.73600
C  52.53400 26.59200 44.33700
C  54.62300 29.37600 45.70600
C  51.40500 28.64500 44.55900
O  51.09100 29.79200 44.89100
C  50.46100 27.59100 43.92700
C  50.07600 28.20800 42.55500
O  50.82500 28.33900 41.59000
O  48.75900 28.46500 42.58900
C  48.03300 28.56200 41.35900
H  50.67500 20.89400 42.36600
H  56.99700 20.69900 44.33300
H  56.45600 26.97500 45.96000
H  48.87500 25.44700 42.72100
H  49.24400 22.85600 41.58500
H  48.17200 23.91400 44.09000
H  49.38000 22.82100 44.48400
H  48.01700 22.12100 43.40700
H  49.40900 26.09500 40.49600
H  49.60600 24.49100 40.10400
H  51.71500 24.34100 40.25300
H  52.08500 25.74400 41.08100
H  52.84200 17.79000 42.01100
H  51.48900 18.90900 41.92300
H  51.85400 17.99200 43.46300
H  57.03000 17.04200 44.31300
H  56.51500 18.47500 45.00400
H  57.39800 18.41800 43.31600
H  58.57500 22.91700 44.24700
H  57.94100 24.80700 46.52400
H  59.50600 21.92600 46.11300
H  57.88400 21.39200 46.21900
H  58.42600 22.74500 47.29800
H  58.36100 25.66800 43.61600
H  59.63800 24.82900 44.41500
H  58.92000 27.57800 44.25800
H  60.27400 27.02300 45.03600
H  58.90300 27.10400 46.06000
H  55.65500 29.23700 45.38500
H  54.58600 29.28800 46.79200
H  54.02300 30.17000 45.26200
H  49.65800 27.52100 44.66100
H  48.42700 28.03400 40.49100
H  47.86800 29.59700 41.06000
H  47.06400 28.13000 41.60600
Mg -11.20300 16.46200 42.03500
C  -7.93000 14.95500 41.58400
C  -9.87700 19.27200 40.60600
C  -14.23300 17.47300 41.63700
C  -12.23300 13.35100 43.16100
N  -9.09400 16.95800 41.10500
C  -7.95300 16.25700 41.09100
C  -6.84800 17.07700 40.56400
C  -7.38700 18.55400 40.70000
C  -8.89200 18.25200 40.79200
C  -6.94500 19.49700 41.88900
C  -6.42300 16.68800 39.07000
C  -4.83700 16.36500 38.97200
H  -4.10800 16.75100 37.63900
N  -11.98000 18.23700 41.36500
C  -11.34800 19.29000 40.78700
C  -12.22200 20.34500 40.33200
C  -13.50600 19.76100 40.52300
C  -13.27300 18.41900 41.17000
C  -11.69500 21.59700 39.65000
C  -14.86500 20.49600 40.26400
O  -14.83500 21.62500 39.72400
C  -16.20800 19.89100 40.63700
N  -12.93300 15.53400 42.31700
C  -14.07700 16.17400 42.16200
C  -15.30200 15.33200 42.54200
C  -14.58600 14.22600 43.37500
C  -13.20100 14.29600 42.80900
C  -16.41100 16.06100 43.32200
C  -15.28600 12.86100 43.03600
C  -15.72000 11.97700 44.21700
N  -10.27200 14.47700 42.30800
C  -10.86500 13.30700 42.82000
C  -9.84500 12.30500 43.02500
C  -8.64800 12.91900 42.52600
C  -8.97400 14.24800 42.13700
C  -10.13300 10.94600 43.62400
C  -7.22000 12.69900 42.28400
O  -6.45800 11.76000 42.51200
C  -6.65900 14.07500 41.81900
C  -5.78500 14.62600 42.89700
O  -6.10100 14.98200 44.04500
O  -4.51500 14.88100 42.33200
C  -3.59100 15.59100 43.22200
H  -9.39000 20.22400 40.38500
H  -15.26500 17.82800 41.66000
H  -12.63300 12.42200 43.57300
H  -5.96000 16.99700 41.19100
H  -7.18000 19.05200 39.75300
H  -6.99100 18.98900 42.85300
H  -7.62000 20.35200 41.87700
H  -5.93800 19.73400 41.54600
H  -6.58300 17.36700 38.23200
H  -6.78600 15.71000 38.75400
H  -4.67500 15.29200 39.07600
H  -4.20300 16.85400 39.71200
H  -12.00600 22.42300 40.29000
H  -12.10000 21.78900 38.65600
H  -10.62600 21.67200 39.45000
H  -17.06800 20.51100 40.38600
H  -16.35500 19.87600 41.71700
H  -16.39900 18.92500 40.17000
H  -15.57200 14.95400 41.55600
H  -14.69700 14.44900 44.43600
H  -16.98500 15.32800 43.88800
H  -16.99700 16.64500 42.61200
H  -16.07200 16.78700 44.06200
H  -14.60300 12.34500 42.36000
H  -16.17800 12.98600 42.42200
H  -16.78000 11.73300 44.14400
H  -15.54200 12.44300 45.18700
H  -15.25500 10.99500 44.13000
H  -9.15900 10.45900 43.67800
H  -10.77600 10.30300 43.02400
H  -10.58600 11.13200 44.59800
H  -6.15800 13.90700 40.86500
H  -3.10100 14.89900 43.90700
H  -4.08600 16.27200 43.91500
H  -2.80000 16.21000 42.80000

