158

Mg 47.91500 16.53900 28.66000
C  45.89100 16.48800 31.38700
C  50.24400 18.46200 30.34200
C  49.82700 16.74800 25.84100
C  45.40600 14.75400 26.83700
N  47.94500 17.48200 30.57400
C  47.06700 17.21800 31.56900
C  47.54500 17.89300 32.91800
C  48.83800 18.71400 32.46200
C  49.05100 18.12500 31.06600
C  48.84600 20.30000 32.52900
C  47.77700 16.88000 34.07800
C  47.27500 17.21700 35.45800
H  47.26000 18.71500 35.75200
N  49.82800 17.44900 28.15700
C  50.57200 18.16300 29.01900
C  51.83000 18.50400 28.43100
C  51.80600 17.90200 27.06000
C  50.49700 17.34100 26.97100
C  52.95600 19.16700 29.18900
C  52.82200 17.99900 25.83400
O  52.47800 17.54600 24.72200
C  54.08700 18.83800 25.96000
N  47.67600 15.84400 26.66900
C  48.61200 16.04400 25.69900
C  48.17100 15.33400 24.38500
C  46.92600 14.56700 24.81100
C  46.59300 15.04700 26.18700
C  47.75200 16.35300 23.23700
C  47.11500 12.96000 24.80800
C  46.22600 12.15300 23.93100
N  45.93300 15.83700 28.94300
C  45.03900 15.15400 28.13200
C  43.84900 14.85700 28.97700
C  44.17000 15.35800 30.28500
C  45.40100 15.93500 30.18700
C  42.56100 14.25200 28.49000
C  43.64500 15.51300 31.63700
O  42.56400 15.17700 32.10000
C  44.82000 16.23600 32.51000
C  44.29200 17.40700 33.24400
O  44.20100 18.49400 32.71200
O  43.80700 17.03700 34.44800
C  43.15300 18.14200 35.23800
H  50.98800 19.12900 30.78200
H  50.37000 16.60600 24.90400
H  44.71500 14.16600 26.22900
H  46.85600 18.62300 33.34300
H  49.67200 18.36500 33.07000
H  48.13300 20.72000 33.23800
H  48.71000 20.75400 31.54700
H  49.81100 20.58300 32.95100
H  48.80100 16.50800 34.07000
H  47.18200 15.99100 33.86700
H  47.97000 16.71700 36.13200
H  46.30900 16.71300 35.51000
H  53.87200 18.62100 28.96500
H  53.00000 18.98100 30.26200
H  53.07200 20.21000 28.89500
H  54.85400 18.44900 26.63100
H  53.88800 19.79900 26.43400
H  54.48200 18.78000 24.94600
H  48.96900 14.69600 24.00400
H  46.03300 14.76100 24.21700
H  48.24000 17.31400 23.39700
H  46.69300 16.61000 23.26300
H  48.02000 15.98000 22.24800
H  47.02400 12.70800 25.86400
H  48.15900 12.73400 24.59100
H  46.81100 11.25500 23.73200
H  45.89600 12.58900 22.98900
H  45.35800 11.84000 24.51100
H  42.47100 13.21700 28.81800
H  42.59000 14.30500 27.40200
H  41.76100 14.95000 28.73600
H  45.19500 15.53300 33.25400
H  42.13000 17.81500 35.41900
H  43.05200 19.04900 34.64100
H  43.71300 18.22100 36.17100
Mg 36.18000 49.19700 24.68800
C  35.94400 47.21500 27.67300
C  34.79100 51.74000 26.52200
C  35.73900 50.61000 21.82300
C  37.33100 46.26400 23.16700
N  35.47400 49.43400 26.90800
C  35.59300 48.53100 27.92100
C  35.49200 49.29500 29.36900
C  34.79000 50.69400 28.91500
C  35.05900 50.62300 27.35300
C  33.31400 50.85100 29.43400
C  36.81200 49.35300 30.20000
C  36.74000 49.05800 31.71700
H  35.41200 49.33500 32.46200
N  35.31300 50.95000 24.22500
C  34.85400 51.91400 25.11300
C  34.64700 53.17000 24.38200
C  34.93800 52.89500 22.95900
C  35.30300 51.42700 22.91200
C  34.30400 54.51100 24.98300
C  35.05300 53.72600 21.72100
O  35.30500 53.25100 20.64800
C  34.70700 55.09700 21.83100
N  36.44400 48.46400 22.78500
C  36.29400 49.31500 21.73900
C  36.69800 48.64600 20.42900
C  37.52700 47.45600 20.96800
C  37.05200 47.37500 22.39100
C  35.51300 48.20000 19.49800
C  39.09600 47.71800 20.91500
C  39.75200 49.14900 20.92000
N  36.48300 47.10800 25.25000
C  36.97800 46.06700 24.48900
C  37.14600 44.79900 25.29100
C  36.73700 45.32800 26.55700
C  36.38400 46.71000 26.45100
C  37.68000 43.47100 24.85000
C  36.52900 44.88000 27.98300
O  36.65100 43.73500 28.46300
C  36.14400 46.13600 28.75500
C  34.90300 45.86800 29.58600
O  33.78500 46.22600 29.33800
O  35.24800 45.24700 30.77900
C  34.13000 44.87900 31.67600
H  34.48800 52.64000 27.06200
H  35.52400 50.95400 20.80900
H  37.73400 45.42000 22.60300
H  34.82200 48.66500 29.95400
H  35.25300 51.58300 29.34500
H  33.17900 51.79900 29.95500
H  32.98300 50.08000 30.13000
H  32.52600 50.91600 28.68300
H  37.26300 50.33400 30.04800
H  37.39500 48.61000 29.65700
H  37.63300 49.50700 32.15300
H  36.90000 47.98700 31.84000
H  35.12900 55.18200 24.74600
H  34.00600 54.59600 26.02800
H  33.46400 54.88900 24.40000
H  33.69200 55.13600 22.22600
H  34.75900 55.51600 20.82600
H  35.44200 55.66400 22.40200
H  37.29900 49.30800 19.80500
H  37.36300 46.44300 20.60100
H  34.52800 48.38600 19.92600
H  35.61500 47.17800 19.13500
H  35.54500 48.87200 18.64000
H  39.38600 47.17700 20.01400
H  39.31000 47.19200 21.84600
H  40.25400 49.28700 19.96200
H  40.61600 49.33700 21.55800
H  39.07100 49.99800 20.97600
H  37.95700 43.38500 23.79900
H  36.86000 42.82800 25.17000
H  38.58500 43.28600 25.42800
H  37.00400 46.48700 29.32500
H  34.32000 43.91800 32.15500
H  33.14400 44.88400 31.21200
H  34.21000 45.74700 32.33000

