158

Mg 24.97900 1.32300 29.28400
C  27.18100 1.20700 32.11900
C  22.35400 1.59100 31.53600
C  22.96900 1.48300 26.73900
C  27.77300 0.90200 27.28700
N  24.76600 1.15700 31.55800
C  25.81600 1.26200 32.46000
C  25.27200 1.43600 33.88600
C  23.72700 1.58000 33.67100
C  23.63100 1.47700 32.13600
C  22.72800 0.64800 34.49500
C  26.03500 2.62300 34.67300
C  25.30700 3.22200 35.91400
H  26.11500 3.78900 37.06200
N  22.90300 1.39200 29.13800
C  21.98900 1.56200 30.14800
C  20.73200 1.77300 29.58800
C  20.90000 1.67900 28.12400
C  22.30100 1.46500 27.94000
C  19.50600 2.09300 30.40800
C  19.85100 1.68900 26.98900
O  20.02500 1.59100 25.75300
C  18.46600 1.68300 27.53600
N  25.33200 1.00500 27.30100
C  24.31300 1.37300 26.45500
C  24.85700 1.44000 24.98300
C  26.33600 1.16400 25.10900
C  26.52100 1.08200 26.64400
C  24.15600 0.44500 23.98600
C  27.14100 2.31900 24.52200
C  26.86200 3.70200 25.19900
N  27.03800 1.16600 29.58300
C  28.02400 0.85800 28.66800
C  29.24900 0.54100 29.34100
C  28.94100 0.74100 30.68100
C  27.61600 1.06400 30.74100
C  30.58100 0.30900 28.73800
C  29.58100 0.79900 32.02900
O  30.74200 0.60900 32.37700
C  28.42000 1.24400 32.97500
C  28.29100 0.29800 34.11000
O  27.56300 -0.69200 34.26000
O  29.16500 0.68300 35.09900
C  28.98400 0.12100 36.53900
H  21.50400 1.92700 32.13200
H  22.32000 1.81800 25.92800
H  28.61700 0.82600 26.59900
H  25.49800 0.49900 34.39600
H  23.44800 2.61500 33.87000
H  22.27100 -0.11600 33.86600
H  22.02100 1.35700 34.92600
H  23.26100 0.08500 35.26200
H  25.96000 3.39300 33.90500
H  27.05200 2.36100 34.96500
H  24.57200 2.45400 36.15200
H  24.74600 4.09800 35.58800
H  18.69000 1.37300 30.33700
H  19.12900 3.00700 29.94900
H  19.69800 2.25300 31.46800
H  17.83500 1.33200 26.71900
H  18.16600 2.62800 27.98900
H  18.35900 0.80100 28.16700
H  24.57400 2.40600 24.56500
H  26.60700 0.20000 24.67900
H  24.69000 -0.50200 23.90300
H  24.16200 0.95800 23.02400
H  23.16400 0.10700 24.28500
H  26.85900 2.48100 23.48200
H  28.15100 1.92500 24.63800
H  27.78900 3.94500 25.71800
H  25.96200 3.78200 25.80800
H  26.81100 4.40100 24.36400
H  31.39100 0.80500 29.27300
H  30.59700 0.58900 27.68500
H  30.70900 -0.76100 28.90300
H  28.41800 2.24300 33.41100
H  28.85400 -0.95400 36.41000
H  28.09300 0.55500 36.99200
H  29.82000 0.38900 37.18500
Mg 1.27300 42.07200 26.41600
C  2.46100 42.12300 29.65700
C  -1.93300 41.55500 27.64000
C  0.26600 41.29300 23.35100
C  4.60900 42.54500 25.18900
N  0.32100 41.62700 28.42400
C  1.05100 41.84600 29.61900
C  0.05900 41.85200 30.88500
C  -1.21900 41.33100 30.14900
C  -0.93000 41.52000 28.63400
C  -1.74600 39.88700 30.45800
C  0.04900 43.25200 31.57700
C  -0.45600 43.32400 33.04900
H  -0.76700 42.02100 33.81300
N  -0.56000 41.48700 25.58400
C  -1.76800 41.43500 26.24400
C  -2.80900 41.33900 25.24500
C  -2.12700 41.08100 23.97000
C  -0.72500 41.24400 24.24800
C  -4.30600 41.42700 25.60900
C  -2.71300 40.63400 22.67200
O  -2.01600 40.33400 21.72400
C  -4.25300 40.60900 22.44600
N  2.37400 41.82400 24.51900
C  1.60900 41.60100 23.37300
C  2.54200 41.60800 22.14800
C  3.85200 42.31200 22.65700
C  3.65100 42.20300 24.21500
C  2.65500 40.42600 21.25300
C  3.95100 43.77100 22.30700
C  4.77900 44.11000 21.04900
N  3.15100 42.26300 27.16100
C  4.38600 42.51700 26.56600
C  5.42700 42.55400 27.61300
C  4.67200 42.51700 28.81600
C  3.31400 42.27900 28.48100
C  6.92800 42.71600 27.36300
C  4.81200 42.52500 30.22900
O  5.75300 42.68000 30.95300
C  3.43100 42.15200 30.89400
C  3.51100 40.85100 31.66900
O  3.68300 39.70900 31.15600
O  3.61000 41.15600 32.96900
C  3.75300 40.09400 33.92900
H  -2.97100 41.55300 27.98200
H  -0.04400 41.22800 22.30600
H  5.61100 42.73100 24.79600
H  0.49600 41.08300 31.52300
H  -2.02700 42.03400 30.35400
H  -2.71800 40.00300 30.93600
H  -1.08800 39.39500 31.17400
H  -1.74900 39.30700 29.53500
H  -0.58100 43.99400 31.08700
H  1.06600 43.64100 31.63600
H  -1.34700 43.95200 33.05500
H  0.30000 43.90000 33.58400
H  -4.74600 40.43000 25.63800
H  -4.81500 42.17200 24.99800
H  -4.48800 41.84900 26.59700
H  -4.75400 41.57500 22.51100
H  -4.69200 40.04900 23.27200
H  -4.38800 40.13100 21.47500
H  2.19600 42.33600 21.41400
H  4.75500 41.71700 22.51600
H  3.59900 39.97000 21.55500
H  2.55500 40.75200 20.21800
H  1.85400 39.69900 21.38700
H  4.51600 44.27400 23.09100
H  2.99000 44.28400 22.34500
H  5.55100 43.37600 20.81900
H  5.32300 45.05400 21.05500
H  4.10100 44.22300 20.20300
H  7.32900 41.72600 27.14600
H  7.36900 42.97000 28.32700
H  7.17700 43.50100 26.65000
H  3.28800 42.99800 31.56600
H  4.76100 40.13300 34.34200
H  3.61600 39.10600 33.49100
H  3.03200 40.21300 34.73800

