158

Mg 24.39000 -7.78400 46.68300
C  27.06700 -5.63700 45.44800
C  22.50700 -6.45900 44.09500
C  22.13600 -10.12100 47.46800
C  26.86300 -9.34600 48.73600
N  24.78400 -6.36400 44.99500
C  25.82200 -5.53500 44.74200
C  25.66100 -4.56100 43.60700
C  24.11300 -4.75100 43.24500
C  23.77100 -5.90600 44.19900
C  23.26100 -3.43700 43.44900
C  26.56900 -4.87200 42.33200
C  27.46200 -3.72200 42.02500
H  27.43000 -3.06100 40.71500
N  22.52100 -8.05300 46.03400
C  21.95500 -7.48200 44.95700
C  20.61000 -8.01600 44.77800
C  20.39200 -9.06300 45.76800
C  21.76600 -9.16500 46.48300
C  19.57600 -7.39700 43.84800
C  19.13900 -9.85200 45.95600
O  18.20300 -9.68400 45.17000
C  18.89300 -10.93200 46.94600
N  24.48500 -9.51900 47.78500
C  23.42300 -10.28400 48.07000
C  23.74000 -11.48000 48.97600
C  25.24000 -11.28100 49.28900
C  25.57400 -9.99300 48.54900
C  22.84600 -11.64900 50.17900
C  26.10200 -12.43700 48.87300
C  27.22800 -12.85600 49.89300
N  26.49600 -7.47700 47.16500
C  27.31000 -8.17100 48.01900
C  28.68000 -7.51900 48.06400
C  28.54800 -6.48600 47.07900
C  27.28900 -6.65200 46.51000
C  29.76400 -7.93000 48.94900
C  29.24200 -5.33100 46.45300
O  30.30800 -4.81200 46.71000
C  28.29800 -4.79400 45.33600
C  28.07300 -3.43300 45.53600
O  27.31500 -3.02300 46.37800
O  28.83000 -2.68300 44.65100
C  28.74200 -1.25200 44.87600
H  21.86900 -6.03000 43.32000
H  21.38200 -10.87400 47.70800
H  27.64300 -9.87000 49.29000
H  25.94600 -3.55300 43.90700
H  23.93400 -5.04600 42.21100
H  22.59100 -3.16500 42.63400
H  24.00500 -2.64000 43.46300
H  22.67600 -3.41500 44.36800
H  25.97900 -5.11400 41.44700
H  27.14900 -5.76000 42.58500
H  28.46600 -4.09600 42.22600
H  27.32900 -2.85700 42.67400
H  18.55700 -7.35500 44.23100
H  19.71300 -7.96700 42.92900
H  19.83700 -6.35800 43.64600
H  19.44000 -11.83000 46.65700
H  17.86300 -11.26500 46.81300
H  19.09800 -10.44100 47.89700
H  23.48000 -12.39200 48.43900
H  25.22000 -11.07000 50.35800
H  22.35200 -12.60600 50.01000
H  22.14300 -10.81700 50.21600
H  23.40700 -11.68000 51.11300
H  26.53300 -12.31600 47.87900
H  25.49800 -13.33500 48.74300
H  26.97000 -13.87700 50.17500
H  27.20800 -12.27200 50.81300
H  28.19200 -12.95300 49.39400
H  30.47400 -7.14000 49.19300
H  30.27200 -8.70900 48.37900
H  29.40600 -8.32800 49.89800
H  28.76400 -4.96700 44.36600
H  27.67600 -1.02300 44.86600
H  29.21200 -0.67600 44.07900
H  29.10400 -1.00100 45.87300
Mg 16.61600 52.94900 25.90400
C  18.09300 51.50500 28.68700
C  14.22200 54.21300 28.10800
C  14.96000 54.03500 23.19600
C  19.10600 51.80300 23.90600
N  16.01500 52.57300 28.13900
C  16.93200 52.13600 29.05100
C  16.44300 52.38400 30.49000
C  15.02000 53.04600 30.19300
C  15.08500 53.33200 28.71700
C  13.80000 52.04100 30.55800
C  17.50100 53.31300 31.26500
C  17.57400 53.08300 32.84900
H  16.52400 52.16500 33.45100
N  14.80200 53.94900 25.73200
C  13.96100 54.38300 26.72600
C  12.87600 55.12600 26.10100
C  13.10300 55.00100 24.72500
C  14.28800 54.28100 24.51200
C  11.85100 55.96700 26.86000
C  12.20600 55.69100 23.56800
O  12.31900 55.51800 22.35000
C  11.05800 56.54800 23.94700
N  16.91600 52.72200 23.76800
C  16.15100 53.42600 22.89900
C  16.84300 53.70000 21.58700
C  18.17600 52.89000 21.74700
C  18.06100 52.36000 23.19100
C  16.03600 53.59900 20.26000
C  19.51000 53.69600 21.57800
C  20.74200 52.92600 20.94200
N  18.23500 51.76000 26.12800
C  19.20700 51.40800 25.26200
C  20.24900 50.73000 25.94400
C  19.87600 50.70300 27.30100
C  18.64200 51.39100 27.39300
C  21.51600 50.22500 25.31200
C  20.28300 50.24400 28.62500
O  21.18400 49.52600 29.01800
C  19.16900 50.81300 29.50900
C  18.49000 49.68300 30.26500
O  17.64500 48.90700 29.82500
O  19.06700 49.50000 31.47500
C  18.54500 48.40500 32.23400
H  13.57700 54.74600 28.81000
H  14.43700 54.32700 22.28300
H  19.99700 51.66900 23.28900
H  16.40100 51.45000 31.05000
H  14.96100 53.91300 30.85200
H  13.34400 51.69200 29.63200
H  13.05500 52.57000 31.15300
H  14.08800 51.14100 31.10100
H  17.28200 54.36300 31.06800
H  18.51300 53.23500 30.86700
H  17.50600 54.11100 33.20400
H  18.54900 52.71800 33.17100
H  11.88700 56.98500 26.47100
H  12.06000 55.87500 27.92600
H  10.81800 55.70200 26.63800
H  11.49100 57.34400 24.55300
H  10.26700 55.98400 24.44100
H  10.70700 56.97200 23.00600
H  17.01900 54.77400 21.65300
H  18.15700 51.98600 21.13900
H  15.16200 52.99800 20.51200
H  16.65200 53.15300 19.47800
H  15.74300 54.58800 19.90900
H  19.87100 54.17600 22.48800
H  19.39700 54.49500 20.84600
H  21.56100 53.04300 21.65100
H  20.84500 53.38200 19.95700
H  20.67300 51.86800 20.68900
H  21.97900 50.99000 24.68800
H  21.26700 49.45200 24.58600
H  22.15100 49.76300 26.06800
H  19.57700 51.49100 30.25800
H  17.46700 48.54200 32.30900
H  19.06200 48.23800 33.17900
H  18.74100 47.55400 31.58100

