158

Mg 44.91500 1.89200 47.79700
C  42.88400 4.52800 46.68700
C  42.42700 -0.29700 47.37000
C  47.07300 -0.65200 48.39700
C  47.70200 4.14100 47.45800
N  42.92900 2.11600 47.12300
C  42.28900 3.26700 46.77800
C  40.78500 3.00800 46.51800
C  40.63900 1.59500 47.21900
C  42.11400 1.04600 47.10900
C  40.21500 1.67200 48.72100
C  40.37000 3.02600 45.05400
C  39.38000 4.11700 44.57900
H  39.94800 5.10500 43.43300
N  44.76500 -0.20800 47.89800
C  43.61000 -0.86000 47.61900
C  43.82100 -2.27600 47.68000
C  45.25900 -2.48200 47.97800
C  45.79500 -1.05600 48.08600
C  42.76100 -3.31900 47.43000
C  46.01100 -3.86300 48.15900
O  45.46500 -4.90300 48.03800
C  47.47300 -3.96000 48.48100
N  47.12400 1.68200 47.63700
C  47.69400 0.58700 48.23300
C  49.11600 0.77900 48.53100
C  49.32600 2.25300 47.99700
C  47.93700 2.76400 47.69000
C  49.47600 0.48500 50.01800
C  50.26700 2.30700 46.77700
C  51.79100 2.80500 47.03400
N  45.26900 3.93200 47.21200
C  46.40000 4.79300 47.21200
C  46.00300 6.22400 47.07300
C  44.59100 6.11600 46.91500
C  44.22500 4.75200 46.87200
C  46.83700 7.43200 46.96400
C  43.43000 6.92700 46.68700
O  43.16600 8.12100 46.61300
C  42.28900 5.95600 46.71700
C  41.42400 6.17700 47.88400
O  41.87900 6.05100 49.04500
O  40.11500 6.52100 47.56900
C  39.13500 6.65100 48.65600
H  41.54200 -0.91600 47.20600
H  47.74500 -1.42900 48.76600
H  48.46500 4.90500 47.61900
H  40.20500 3.78200 47.01900
H  40.02700 0.91200 46.63000
H  40.97200 1.26200 49.39100
H  39.31000 1.06400 48.74200
H  39.90800 2.67200 49.02700
H  39.89600 2.08800 44.76600
H  41.29200 3.15500 44.48800
H  39.12900 4.71800 45.45400
H  38.40500 3.79700 44.21100
H  43.10400 -3.91200 46.58200
H  41.80400 -2.86000 47.18200
H  42.62400 -3.84100 48.37700
H  47.58300 -3.72700 49.54100
H  47.92400 -3.27500 47.76300
H  47.84000 -4.98000 48.36800
H  49.69900 0.09400 47.91700
H  49.67300 2.89200 48.80900
H  49.86300 -0.50300 50.26700
H  48.62600 0.78300 50.63200
H  50.29000 1.16200 50.27800
H  49.92700 2.98800 45.99600
H  50.31300 1.39000 46.19000
H  52.47500 1.96300 46.92300
H  51.93600 3.27500 48.00600
H  52.05500 3.58900 46.32500
H  46.51900 7.95400 46.06100
H  47.92200 7.33000 46.97900
H  46.56700 8.03900 47.82800
H  41.72800 6.00600 45.78400
H  39.46100 6.40100 49.66500
H  38.27700 5.98500 48.55800
H  38.82900 7.69700 48.66000
Mg 51.91300 24.52000 45.28800
C  49.13200 26.49300 44.59700
C  50.22700 21.77000 44.09800
C  54.94200 22.76000 45.36000
C  53.73300 27.34900 46.35500
N  49.95000 24.16500 44.26400
C  48.95200 25.13100 44.11400
C  47.77000 24.51500 43.32900
C  47.94800 22.99300 43.63100
C  49.45200 22.93200 44.02600
C  47.03000 22.66800 44.74900
C  47.73600 24.93000 41.77900
C  49.14000 25.30200 41.20900
H  49.13200 25.48500 39.66600
N  52.53900 22.53900 44.81100
C  51.62000 21.57000 44.42900
C  52.39900 20.31500 44.37600
C  53.74100 20.59300 44.49100
C  53.81400 22.03100 44.94000
C  51.78400 19.03600 43.93500
C  54.90800 19.64600 44.27100
O  54.62400 18.59600 43.70900
C  56.38300 19.90700 44.54500
N  54.09000 25.01600 45.61700
C  55.05400 24.11600 45.65100
C  56.47200 24.69200 45.97000
C  56.09700 26.20000 46.32800
C  54.53900 26.22800 46.02600
C  57.23000 23.84600 47.13700
C  56.88500 27.20200 45.38900
C  57.65300 28.21600 46.12800
N  51.50300 26.53000 45.53500
C  52.32900 27.56500 45.97700
C  51.44800 28.74000 46.19300
C  50.21200 28.33700 45.63600
C  50.30800 27.01100 45.26700
C  51.88800 30.08200 46.77700
C  48.86900 28.76400 45.32600
O  48.40200 29.91000 45.44600
C  48.11600 27.66800 44.58800
C  47.68000 28.10500 43.29400
O  48.38200 28.31200 42.31200
O  46.32400 28.26100 43.38100
C  45.70000 28.86700 42.22500
H  49.63500 20.86200 43.96200
H  55.85000 22.16900 45.49100
H  54.27100 28.14000 46.88100
H  46.88800 24.94900 43.80000
H  47.73200 22.36500 42.76700
H  47.29600 21.66100 45.07000
H  46.02900 22.71900 44.32000
H  46.92300 23.37300 45.57300
H  46.99100 25.72400 41.71800
H  47.39400 24.10600 41.15300
H  49.76200 24.42200 41.37600
H  49.57600 26.19000 41.66600
H  51.41300 19.01800 42.91100
H  50.92800 18.76800 44.55400
H  52.50600 18.26100 44.19100
H  57.09700 19.20300 44.11700
H  56.55100 20.07100 45.60900
H  56.62200 20.82600 44.01000
H  57.04800 24.57000 45.05200
H  56.34900 26.50300 47.34400
H  56.45300 23.28400 47.65500
H  57.76400 24.56400 47.76000
H  57.91800 23.16800 46.63200
H  56.16200 27.84900 44.89300
H  57.52000 26.70400 44.65600
H  57.26200 29.21400 45.92800
H  58.71600 28.12100 45.91000
H  57.50100 28.14300 47.20500
H  51.06100 30.79100 46.73200
H  52.79500 30.34100 46.23000
H  52.16600 30.07700 47.83100
H  47.25000 27.50000 45.22800
H  44.62400 29.01800 42.31000
H  45.95000 28.36600 41.28900
H  46.06900 29.88200 42.08100

