158

Mg -1.20100 17.48000 25.76900
C  -1.97400 15.34500 28.57200
C  -2.36200 20.14300 27.69500
C  -0.95300 19.44100 23.12700
C  -0.99500 14.55200 23.86300
N  -1.88200 17.71900 28.03100
C  -2.18900 16.68500 28.91500
C  -2.79900 17.31500 30.24200
C  -3.21500 18.66800 29.66700
C  -2.46300 18.92600 28.34900
C  -4.78500 18.70400 29.33900
C  -1.75200 17.49500 31.39300
C  -2.30800 17.38300 32.74900
H  -1.32600 16.95500 33.80800
N  -1.28600 19.48100 25.54200
C  -1.78800 20.45500 26.41600
C  -1.52200 21.73000 25.88700
C  -1.13000 21.58400 24.51700
C  -1.23700 20.11400 24.30000
C  -1.69300 23.06500 26.65100
C  -0.82500 22.66000 23.49500
O  -0.59100 22.35700 22.31300
C  -0.67600 24.16400 23.84000
N  -0.97900 17.03800 23.83800
C  -0.85000 18.07600 22.99000
C  -0.47000 17.50800 21.58400
C  -0.07500 15.99100 21.95000
C  -0.66000 15.78900 23.32900
C  -1.53800 17.62300 20.41700
C  1.48700 15.68500 21.79500
C  2.44600 16.26000 22.81900
N  -1.47800 15.31600 26.06400
C  -1.35300 14.26300 25.24000
C  -1.29000 12.99800 25.97300
C  -1.56100 13.39000 27.30700
C  -1.69600 14.81500 27.28000
C  -0.86400 11.71200 25.33100
C  -1.72400 12.91200 28.60500
O  -1.68800 11.80200 29.07300
C  -1.88400 14.16400 29.54100
C  -0.71400 14.20100 30.43300
O  0.44800 14.49200 30.15400
O  -1.03000 13.61900 31.57600
C  0.06500 13.45500 32.57600
H  -2.68500 21.02400 28.25400
H  -0.70300 19.94000 22.18800
H  -0.85600 13.67000 23.23400
H  -3.68000 16.76800 30.57800
H  -2.94200 19.55600 30.23600
H  -5.43900 17.90300 29.68300
H  -4.99900 18.79500 28.27400
H  -5.14800 19.65800 29.72200
H  -1.28300 18.47800 31.35100
H  -0.95200 16.76700 31.25500
H  -3.09100 16.62600 32.79900
H  -2.73000 18.33200 33.08000
H  -0.85100 23.71900 26.42200
H  -1.83000 22.97200 27.72800
H  -2.51900 23.61500 26.20200
H  0.23500 24.36200 24.40500
H  -1.59000 24.52700 24.30900
H  -0.47600 24.66400 22.89300
H  0.47800 17.95400 21.28300
H  -0.67800 15.31100 21.34800
H  -1.99800 18.60200 20.55500
H  -2.26700 16.81400 20.45600
H  -0.97200 17.52500 19.49100
H  1.83800 16.11500 20.85800
H  1.56400 14.59900 21.83100
H  1.99000 16.37000 23.80300
H  2.92100 17.18000 22.47900
H  3.24000 15.54600 23.03800
H  -1.77000 11.20600 24.99600
H  -0.30100 11.08600 26.02300
H  -0.21800 11.96800 24.49200
H  -2.78000 14.11500 30.15900
H  0.96000 14.03800 32.36200
H  0.36200 12.41300 32.45000
H  -0.28200 13.59700 33.59900
Mg 46.28300 24.27300 28.58400
C  46.68200 26.89200 30.93200
C  45.46600 22.11800 31.10300
C  46.19000 21.91600 26.39300
C  47.95700 26.42100 26.19000
N  46.23100 24.53400 30.68300
C  46.32700 25.69200 31.45600
C  46.03600 25.41700 32.91500
C  46.00400 23.82900 33.01200
C  45.84000 23.44000 31.52100
C  47.09700 23.15200 33.87300
C  44.74000 26.10800 33.41400
C  44.92400 26.86200 34.85700
H  44.09300 26.60000 36.07700
N  45.75100 22.29600 28.69500
C  45.43500 21.57500 29.82600
C  45.09000 20.23200 29.43800
C  45.26400 20.20300 28.07700
C  45.74900 21.48800 27.62100
C  44.68200 19.11000 30.39900
C  44.95100 19.09400 27.15100
O  45.23400 19.10000 25.92400
C  44.12200 17.88900 27.62900
N  47.10700 24.19900 26.61300
C  46.83900 23.05800 25.90300
C  47.39800 23.10700 24.50300
C  47.80600 24.54500 24.33700
C  47.67700 25.11600 25.80900
C  48.45800 22.01700 24.14000
C  47.00200 25.34300 23.28100
C  45.60700 25.94600 23.54500
N  47.00400 26.34300 28.43400
C  47.69800 27.03300 27.42900
C  47.80200 28.41700 27.90600
C  47.59200 28.40300 29.30500
C  47.12000 27.11000 29.59500
C  48.27300 29.61300 27.07100
C  47.68700 29.10700 30.59700
O  47.94900 30.25800 30.69200
C  47.22400 28.08700 31.72100
C  48.43900 27.81600 32.49000
O  49.52400 27.40400 32.00200
O  48.25400 28.02700 33.84600
C  49.39800 27.79300 34.71000
H  45.32600 21.48100 31.97900
H  46.29200 21.10300 25.67100
H  48.48200 27.11800 25.53300
H  46.97500 25.72200 33.37800
H  45.09800 23.51700 33.53200
H  47.37700 22.21200 33.39700
H  46.57800 22.90900 34.80100
H  47.90700 23.85200 34.07600
H  43.92800 25.41900 33.64700
H  44.32600 26.83900 32.71900
H  44.80300 27.90700 34.57200
H  45.89900 26.60300 35.26800
H  43.66900 18.80400 30.13700
H  44.82500 19.34800 31.45400
H  45.24900 18.22800 30.10100
H  44.57300 17.41900 28.50300
H  44.04900 17.19100 26.79500
H  43.06300 18.12600 27.73400
H  46.52200 22.91800 23.88200
H  48.86300 24.58800 24.07400
H  48.69900 21.39700 25.00300
H  49.45500 22.39800 23.92300
H  48.06000 21.41700 23.32200
H  46.82400 24.61000 22.49400
H  47.62400 26.14200 22.87800
H  45.02600 25.33100 24.23200
H  44.98200 25.90200 22.65300
H  45.55000 26.99600 23.83400
H  48.03000 30.59500 27.47700
H  48.00600 29.54600 26.01600
H  49.35200 29.53400 27.20500
H  46.47300 28.59200 32.32800
H  50.25400 27.32000 34.23000
H  49.04100 27.25100 35.58600
H  49.70200 28.76800 35.09300

