158

Mg 16.61200 52.59700 25.69600
C  18.44100 51.04600 28.25800
C  14.11800 53.11100 27.92500
C  14.82200 53.99000 23.14100
C  18.96200 51.41300 23.35200
N  16.38400 52.22400 27.83000
C  17.29200 51.74400 28.69200
C  16.83400 51.80400 30.14000
C  15.29700 52.15300 29.91400
C  15.25100 52.60200 28.50700
C  14.34500 50.94300 30.36700
C  17.55100 52.88500 30.95900
C  17.65700 52.75500 32.50500
H  16.78900 51.86100 33.29500
N  14.70700 53.53500 25.61600
C  13.86400 53.64800 26.63000
C  12.66000 54.31700 26.16900
C  12.75700 54.47500 24.77900
C  14.16400 54.06100 24.43800
C  11.52200 54.60800 27.03300
C  11.74600 54.94200 23.78400
O  12.05500 54.95100 22.60800
C  10.36200 55.44500 24.00900
N  16.84300 52.65900 23.60300
C  16.05900 53.42600 22.78200
C  16.67600 53.68400 21.36000
C  18.05200 53.00900 21.58200
C  17.92900 52.27100 22.91300
C  15.88000 53.26500 20.12200
C  19.27500 53.91700 21.52400
C  20.41900 53.56600 20.51700
N  18.30800 51.42800 25.67800
C  19.19100 51.03700 24.69300
C  20.22900 50.22100 25.26400
C  20.00500 50.15600 26.65300
C  18.84200 50.98100 26.87300
C  21.26500 49.64700 24.39700
C  20.46900 49.65000 27.91900
O  21.41900 48.89700 28.19400
C  19.45900 50.22600 28.99000
C  18.97500 49.07400 29.91600
O  18.41300 48.06900 29.59100
O  19.58000 49.15600 31.15400
C  19.47700 48.04200 32.13800
H  13.30700 53.28100 28.63600
H  14.23500 54.54600 22.40800
H  19.67800 51.11600 22.58200
H  16.90500 50.83100 30.62600
H  15.17700 53.05300 30.51800
H  13.69500 51.33600 31.14900
H  14.80700 50.07700 30.84000
H  13.69900 50.64400 29.54100
H  17.12600 53.85300 30.69400
H  18.57900 52.85000 30.59900
H  17.58500 53.73600 32.97400
H  18.70300 52.59700 32.76800
H  10.68800 53.90700 26.99300
H  11.10600 55.58000 26.77000
H  11.80600 54.76700 28.07300
H  9.82800 54.78600 24.69300
H  9.86800 55.41600 23.03800
H  10.37800 56.47900 24.35400
H  16.73900 54.75500 21.16800
H  18.19300 52.29200 20.77200
H  16.48500 53.00200 19.25400
H  15.11300 53.98200 19.82900
H  15.14800 52.49100 20.35300
H  19.80300 53.82200 22.47300
H  19.03500 54.92600 21.18800
H  20.49000 54.28600 19.70300
H  20.30700 52.62100 19.98500
H  21.37000 53.45900 21.04000
H  21.72600 50.42800 23.79100
H  20.67600 49.02500 23.72400
H  22.03500 49.09600 24.93700
H  20.10500 50.91400 29.53500
H  18.53700 47.49300 32.10300
H  19.79800 48.43000 33.10500
H  20.29400 47.41300 31.78300
Mg 0.54700 43.28400 25.89900
C  2.56300 43.73200 28.71700
C  -1.92500 42.06200 27.95300
C  -1.15100 42.38100 23.19600
C  3.26000 44.29600 23.92800
N  0.41600 43.03800 28.07400
C  1.26700 43.37800 29.03900
C  0.62600 43.32600 30.42800
C  -0.85200 42.79000 30.10900
C  -0.82200 42.63600 28.59200
C  -1.37700 41.57000 30.84800
C  0.67900 44.65100 31.16900
C  0.95100 44.52700 32.69400
H  0.84400 43.21500 33.34900
N  -1.30100 42.39300 25.63000
C  -2.14500 42.00800 26.59200
C  -3.26100 41.23100 26.00500
C  -3.02900 41.31400 24.59200
C  -1.78700 42.09100 24.42400
C  -4.38100 40.58600 26.84500
C  -3.86500 40.78000 23.50600
O  -3.47100 40.96400 22.35000
C  -5.16600 40.03000 23.76000
N  0.92100 43.42000 23.83300
C  0.10500 42.91100 22.89300
C  0.75100 43.09100 21.48300
C  2.05400 43.86900 21.70000
C  2.11800 43.89100 23.24200
C  1.03200 41.71800 20.75300
C  2.13700 45.25000 20.97900
C  1.86800 46.52500 21.86700
N  2.50700 43.92000 26.23800
C  3.50800 44.23500 25.30900
C  4.77200 44.31100 26.03000
C  4.39700 44.11800 27.38600
C  3.00600 43.93400 27.45200
C  6.13400 44.62800 25.43000
C  4.96300 43.98100 28.63900
O  6.15300 43.88900 28.88200
C  3.80900 43.82200 29.58300
C  3.93700 42.57000 30.38800
O  3.50800 41.48200 29.95400
O  4.34100 42.80100 31.70800
C  4.58000 41.58300 32.53700
H  -2.73600 41.86500 28.65600
H  -1.56700 42.15700 22.21100
H  4.17200 44.47200 23.35300
H  1.24400 42.62300 30.98700
H  -1.56800 43.60000 30.24700
H  -0.59200 41.05900 31.40500
H  -1.67100 40.85200 30.08200
H  -2.26800 41.81800 31.42500
H  -0.25200 45.19600 31.00800
H  1.48400 45.24600 30.73900
H  0.23700 45.22100 33.13700
H  1.93500 44.97600 32.83300
H  -4.77400 41.12100 27.71000
H  -4.17700 39.52800 27.00800
H  -5.28100 40.59500 26.23000
H  -5.45000 39.52000 22.84000
H  -5.91800 40.72000 24.14400
H  -5.25200 39.24400 24.51000
H  0.00700 43.59200 20.86500
H  2.94700 43.30400 21.43500
H  1.06300 40.92500 21.50100
H  2.01600 41.73200 20.28500
H  0.33100 41.33200 20.01300
H  1.37000 45.14200 20.21100
H  3.10000 45.41100 20.49500
H  1.67400 47.30000 21.12600
H  2.71900 46.79200 22.49300
H  0.95900 46.43500 22.46200
H  6.09300 44.62700 24.34100
H  6.75100 43.78600 25.74400
H  6.59200 45.52800 25.84100
H  3.82000 44.69600 30.23400
H  5.65700 41.41700 32.51000
H  4.08600 40.63400 32.33100
H  4.37900 41.82000 33.58200

