158

Mg 43.41500 4.29000 47.33600
C  41.26000 7.08200 47.40900
C  40.41600 2.37500 46.97500
C  45.30200 1.62800 46.65500
C  46.11000 6.35000 47.34300
N  41.08600 4.74000 46.88000
C  40.56000 5.92900 47.29800
C  39.05600 5.83900 47.49500
C  38.77000 4.26800 47.52000
C  40.17900 3.75800 47.09600
C  38.25300 3.69100 48.86000
C  38.13800 6.62600 46.37600
C  38.59000 6.40600 44.86000
H  38.81600 7.63600 43.99200
N  43.00500 2.32700 46.98200
C  41.69900 1.79500 46.93900
C  41.87100 0.40100 46.84700
C  43.22100 0.08400 46.57900
C  43.92600 1.36900 46.66300
C  40.67900 -0.57200 47.02700
C  43.78600 -1.27700 46.29800
O  43.03700 -2.24600 46.19900
C  45.16000 -1.53100 46.12700
N  45.43100 4.09000 47.06700
C  46.02900 2.81100 46.94000
C  47.52700 3.02800 46.90600
C  47.90500 4.57300 47.10900
C  46.40000 5.01400 47.19500
C  48.45800 2.05900 47.73800
C  48.75100 5.36300 46.06300
C  49.94000 4.67900 45.52200
N  43.69800 6.34500 47.31900
C  44.87900 7.06800 47.49600
C  44.60700 8.44200 47.67700
C  43.16800 8.47100 47.67000
C  42.68000 7.16900 47.36700
C  45.67700 9.53900 47.93900
C  42.04200 9.39400 47.88400
O  42.01800 10.59200 48.16600
C  40.76000 8.52800 47.70000
C  39.94100 8.54800 48.93900
O  40.21100 7.95800 50.01200
O  38.86300 9.39400 48.69300
C  37.82800 9.43800 49.84300
H  39.55300 1.71100 47.04900
H  46.05900 0.85500 46.50700
H  46.99400 6.98900 47.37200
H  38.87800 6.22800 48.49800
H  38.05800 4.08100 46.71600
H  37.59400 4.35200 49.42400
H  39.08400 3.33700 49.47100
H  37.70900 2.77500 48.62900
H  37.97200 7.65400 46.69600
H  37.16400 6.13800 46.35700
H  37.84600 5.76400 44.38600
H  39.50600 5.82200 44.77300
H  40.17100 -0.78200 46.08600
H  40.06000 -0.09800 47.78900
H  41.11900 -1.49700 47.40000
H  45.79300 -1.02100 46.85300
H  45.50200 -0.98900 45.24500
H  45.25700 -2.61100 46.02000
H  47.77500 2.71000 45.89300
H  48.41000 4.70000 48.06700
H  49.17500 1.57100 47.07800
H  47.82100 1.27600 48.15100
H  49.03500 2.55700 48.51700
H  48.96100 6.33300 46.51500
H  48.00400 5.52200 45.28500
H  49.70500 4.35900 44.50700
H  50.42600 3.86700 46.06300
H  50.68700 5.45800 45.37000
H  45.31700 10.56800 47.91300
H  46.46800 9.49200 47.19000
H  46.11700 9.21100 48.88000
H  40.20700 8.85200 46.81700
H  38.30300 9.98800 50.65500
H  37.67100 8.45300 50.28200
H  36.88100 9.80400 49.44400
Mg 47.41600 24.98100 28.68400
C  48.34000 27.43700 31.14300
C  46.06000 23.17700 31.33000
C  46.97800 22.56700 26.69200
C  49.09000 26.98500 26.27600
N  47.40700 25.26200 31.04000
C  47.59200 26.37000 31.70500
C  47.19600 26.30000 33.19300
C  46.51200 24.89800 33.23800
C  46.75200 24.30500 31.79200
C  47.04500 23.85700 34.36100
C  46.25100 27.39600 33.84200
C  46.85300 28.09900 35.09800
H  47.22000 27.23500 36.31300
N  46.52900 23.15500 28.94100
C  45.97600 22.56500 30.08400
C  45.37300 21.35700 29.70200
C  45.66000 21.16400 28.33400
C  46.51400 22.21600 27.95200
C  44.60100 20.53500 30.72200
C  45.29000 19.89700 27.50800
O  45.80000 19.75600 26.36100
C  44.37100 18.84600 28.10400
N  48.19800 24.75200 26.89700
C  47.67900 23.70700 26.15700
C  48.10900 23.73100 24.67200
C  48.56800 25.17600 24.52500
C  48.66800 25.69000 26.00200
C  49.18400 22.68400 24.34400
C  47.64700 26.00000 23.55200
C  48.26400 26.33200 22.16800
N  48.49900 26.86300 28.64200
C  49.12000 27.50100 27.57400
C  49.62200 28.78300 28.09700
C  49.39200 28.78900 29.47300
C  48.69800 27.62300 29.76800
C  50.33500 29.82700 27.20000
C  49.52000 29.50400 30.71000
O  50.00000 30.58900 31.01400
C  49.00100 28.58700 31.84300
C  50.08800 28.13700 32.85300
O  50.79400 27.15300 32.81300
O  50.13000 29.09500 33.93000
C  51.00500 28.70000 35.08900
H  45.55200 22.73100 32.18800
H  46.82500 21.86100 25.87300
H  49.44500 27.57000 25.42500
H  48.14100 26.25300 33.73400
H  45.42300 24.93400 33.26100
H  47.32300 22.90200 33.91600
H  46.36500 23.60200 35.17500
H  48.02600 24.14800 34.73800
H  45.37000 26.92300 34.27800
H  45.90100 28.17800 33.16800
H  46.19900 28.91600 35.40200
H  47.76700 28.63600 34.84200
H  43.55300 20.39100 30.46100
H  44.60600 21.05100 31.68200
H  44.99200 19.53300 30.89400
H  44.84100 18.37200 28.96600
H  44.05500 18.15000 27.32700
H  43.52900 19.43700 28.46400
H  47.20000 23.55300 24.09700
H  49.62000 25.14700 24.24100
H  50.14200 23.19600 24.24900
H  49.01500 22.28800 23.34300
H  49.14400 21.81300 24.99800
H  47.32200 26.89000 24.09000
H  46.71800 25.45900 23.37100
H  47.62400 26.03900 21.33600
H  49.20300 25.78900 22.06000
H  48.47900 27.39400 22.05000
H  51.40400 29.83300 27.41500
H  49.85400 30.80200 27.27300
H  50.27400 29.53500 26.15200
H  48.23600 29.23700 32.26800
H  51.95400 28.29000 34.74300
H  50.43300 27.94200 35.62500
H  51.13000 29.53700 35.77600

