158

Mg 40.99500 9.13400 29.44000
C  42.45400 10.28600 32.53900
C  38.53600 7.72700 31.28200
C  39.96400 7.64300 26.76800
C  43.99800 10.01400 28.00900
N  40.60300 8.98500 31.64600
C  41.21500 9.64500 32.73300
C  40.38500 9.62000 34.03900
C  39.15600 8.74500 33.63400
C  39.39700 8.49500 32.08500
C  39.08500 7.45700 34.41900
C  40.04900 11.08200 34.45600
C  39.03300 11.24700 35.65400
H  39.58300 11.42800 37.07300
N  39.40100 7.92300 29.05400
C  38.48400 7.47700 29.92900
C  37.40900 6.72400 29.18400
C  37.74700 6.79600 27.82300
C  39.04800 7.49300 27.86200
C  36.33200 5.93000 29.92200
C  37.03200 6.27500 26.62800
O  37.46100 6.24800 25.46200
C  35.64100 5.64800 26.82900
N  41.97400 8.64600 27.67800
C  41.24200 8.20500 26.62600
C  41.79500 8.39500 25.24100
C  43.07200 9.21800 25.65900
C  43.00900 9.38500 27.19200
C  42.26400 7.16400 24.44800
C  43.23700 10.56000 24.93300
C  42.03100 11.49200 25.02600
N  42.70900 10.10000 30.00800
C  43.86900 10.33400 29.33100
C  44.82000 11.10200 30.04700
C  44.23400 11.23300 31.30600
C  43.02700 10.49300 31.27800
C  46.08800 11.57300 29.61900
C  44.43400 11.78400 32.65200
O  45.22100 12.64300 33.08900
C  43.33000 11.11800 33.49000
C  43.86500 10.15200 34.55700
O  44.81400 9.38200 34.47500
O  43.00700 10.12000 35.65100
C  43.45000 9.23100 36.77200
H  37.65700 7.37500 31.82700
H  39.53600 7.22500 25.85500
H  44.83600 10.50000 27.50600
H  41.00400 9.14100 34.79800
H  38.15900 9.18300 33.59500
H  39.09700 6.57500 33.77900
H  38.17200 7.40000 35.01100
H  39.91400 7.51200 35.12500
H  39.60300 11.62200 33.62100
H  40.95700 11.53200 34.85600
H  38.40600 10.36500 35.78700
H  38.31400 12.04300 35.46400
H  36.45100 5.97600 31.00400
H  36.28200 4.85500 29.74600
H  35.40100 6.41600 29.63000
H  35.74800 4.87400 27.58800
H  35.30700 5.31300 25.84600
H  34.83200 6.31100 27.13600
H  41.20900 8.95500 24.51300
H  44.02300 8.74300 25.41600
H  43.20700 6.77600 24.83300
H  42.46300 7.48200 23.42500
H  41.62600 6.29300 24.59500
H  43.38300 10.33000 23.87800
H  44.03100 11.13300 25.41400
H  42.19100 12.48300 25.45100
H  41.30400 11.11000 25.74200
H  41.43000 11.66600 24.13300
H  46.08000 12.38700 28.89500
H  46.46700 10.71800 29.06000
H  46.82500 11.72800 30.40700
H  42.74100 11.93000 33.91600
H  44.38200 9.59100 37.20700
H  43.56600 8.18300 36.49500
H  42.76800 9.21900 37.62300
Mg -5.70800 25.63400 25.19300
C  -3.87400 26.96400 27.87500
C  -7.22600 23.46700 27.39000
C  -7.06000 24.08000 22.52700
C  -3.81200 27.63600 23.02600
N  -5.51000 25.31300 27.42000
C  -4.79900 25.99600 28.32800
C  -5.25200 25.62600 29.74000
C  -6.01400 24.33000 29.49700
C  -6.31500 24.39200 27.96700
C  -5.18800 23.03900 29.80400
C  -6.13900 26.75900 30.30900
C  -5.93000 26.83200 31.82300
H  -5.51300 25.67500 32.61400
N  -7.04400 23.96700 25.03000
C  -7.58100 23.25800 26.05500
C  -8.47100 22.21900 25.52800
C  -8.50200 22.43300 24.12600
C  -7.48800 23.50000 23.79900
C  -9.17000 21.21200 26.39000
C  -9.41900 21.69200 23.06000
O  -9.35000 21.97600 21.87300
C  -10.61200 20.85900 23.43200
N  -5.35800 25.71600 23.03200
C  -6.18100 25.14900 22.20300
C  -5.82900 25.45700 20.73400
C  -5.06200 26.76400 20.94400
C  -4.72700 26.74300 22.45300
C  -5.04500 24.27600 20.01400
C  -5.68800 28.01600 20.23000
C  -6.94000 28.63700 20.90900
N  -4.11700 27.00200 25.32500
C  -3.49100 27.85000 24.37800
C  -2.50400 28.74500 24.96700
C  -2.61800 28.35800 26.32000
C  -3.56800 27.32900 26.50200
C  -1.64200 29.77600 24.34300
C  -2.11300 28.63000 27.64400
O  -1.23100 29.42100 27.87700
C  -2.86600 27.72700 28.66800
C  -1.96100 26.77800 29.30600
O  -1.48600 25.79200 28.75800
O  -2.00500 26.81500 30.63200
C  -1.39800 25.65500 31.31600
H  -7.68400 22.82500 28.14600
H  -7.49100 23.68600 21.60400
H  -3.39300 28.35300 22.31700
H  -4.32900 25.58300 30.31900
H  -6.90400 24.35000 30.12600
H  -5.01900 22.42400 28.92000
H  -5.76300 22.45300 30.52200
H  -4.23700 23.33200 30.24900
H  -7.16600 26.72300 29.94700
H  -5.73900 27.66900 29.86000
H  -6.93000 27.07200 32.18300
H  -5.26300 27.67100 32.02400
H  -9.23400 20.22700 25.92700
H  -10.20100 21.52100 26.56100
H  -8.70200 21.00800 27.35300
H  -10.32000 19.85900 23.75300
H  -11.35200 20.84500 22.63200
H  -11.09800 21.27600 24.31400
H  -6.73300 25.70000 20.17600
H  -4.06000 26.68400 20.52400
H  -4.93300 23.38000 20.62600
H  -4.04400 24.53600 19.67100
H  -5.55200 23.98400 19.09400
H  -6.06400 27.63000 19.28200
H  -5.01200 28.84900 20.04300
H  -7.58000 29.11500 20.16700
H  -6.69300 29.38500 21.66200
H  -7.49900 27.86600 21.43800
H  -1.30100 29.50200 23.34500
H  -0.77800 29.94100 24.98800
H  -2.28100 30.65200 24.22500
H  -3.31400 28.29000 29.48600
H  -0.39300 25.47500 30.93300
H  -1.88700 24.70100 31.11700
H  -1.33600 25.92900 32.36900

