158

Mg -2.21900 17.58000 25.71800
C  -2.83400 15.19400 28.23800
C  -2.91500 20.03800 27.85700
C  -2.02100 19.63100 23.09700
C  -2.08500 14.79500 23.51600
N  -2.81200 17.54300 27.75400
C  -2.98200 16.48900 28.66800
C  -3.53700 16.98400 29.99600
C  -3.43000 18.53600 29.79700
C  -3.09500 18.74100 28.37100
C  -4.68400 19.36500 30.30000
C  -2.68100 16.47700 31.23300
C  -2.50700 17.41100 32.45700
H  -2.51000 16.84200 33.82800
N  -2.36700 19.61700 25.48900
C  -2.54900 20.45000 26.56100
C  -2.38800 21.80400 26.12800
C  -2.23400 21.70900 24.69100
C  -2.16500 20.30900 24.35900
C  -2.53800 22.99100 26.96000
C  -2.03900 22.76200 23.63800
O  -1.77200 22.44400 22.46500
C  -2.13400 24.18100 24.04300
N  -1.97700 17.23400 23.64200
C  -2.03000 18.26600 22.77700
C  -2.00000 17.81800 21.31000
C  -1.95200 16.28000 21.48500
C  -1.98400 16.05800 22.94400
C  -3.21800 18.38100 20.38700
C  -0.67600 15.65000 20.82500
C  0.52500 15.30200 21.69100
N  -2.26900 15.43500 25.80900
C  -2.18000 14.46600 24.88600
C  -2.41000 13.15100 25.45200
C  -2.59600 13.40700 26.80900
C  -2.53900 14.83200 26.93400
C  -2.29300 11.82000 24.82400
C  -2.68100 12.76400 28.10700
O  -2.57000 11.55600 28.42600
C  -2.88600 13.89200 29.08000
C  -1.63300 13.68900 29.99800
O  -0.50200 14.00600 29.77400
O  -2.03100 12.83100 31.03000
C  -0.96600 12.35000 31.93400
H  -3.03900 20.78000 28.64900
H  -1.97200 20.24600 22.19600
H  -2.18800 13.97300 22.80400
H  -4.55400 16.60200 30.09200
H  -2.54700 19.02500 30.20800
H  -5.14900 19.77600 29.40400
H  -4.52200 20.22000 30.95600
H  -5.36900 18.75900 30.89200
H  -1.68500 16.32600 30.81800
H  -3.15300 15.53000 31.49500
H  -3.37100 18.07500 32.47400
H  -1.56500 17.94900 32.34500
H  -3.46000 23.54300 26.77500
H  -1.65600 23.60500 26.77800
H  -2.47600 22.65600 27.99500
H  -2.05300 24.75500 23.12000
H  -1.24100 24.40400 24.62600
H  -3.07500 24.11100 24.58900
H  -0.96800 18.13500 21.16300
H  -2.78000 15.70100 21.07400
H  -3.86200 19.10300 20.88800
H  -3.65600 17.44800 20.03400
H  -2.77800 18.91500 19.54500
H  -0.22800 16.34400 20.11400
H  -0.98000 14.77700 20.24700
H  0.96500 14.38300 21.30200
H  0.37200 15.25200 22.76900
H  1.33700 16.02800 21.64200
H  -1.26400 11.49800 24.98500
H  -2.53500 11.80400 23.76200
H  -2.97900 11.18900 25.38900
H  -3.83500 13.80600 29.60900
H  -0.61400 11.33200 31.76900
H  -1.29900 12.28000 32.97000
H  -0.07900 12.95900 32.10600
Mg 35.81700 1.10000 29.63000
C  33.91700 3.04600 31.96900
C  38.38500 1.25400 31.83600
C  37.71500 -0.20800 27.20000
C  33.23600 1.54800 27.31700
N  36.09400 2.07300 31.65100
C  35.11000 2.64100 32.50100
C  35.61200 2.71800 33.92600
C  37.10600 2.33100 33.79400
C  37.16800 1.72300 32.37400
C  38.09900 3.46900 33.91100
C  34.64300 1.76800 34.74600
C  34.22800 2.12200 36.17900
H  34.68300 3.45300 36.91500
N  37.79600 0.51000 29.54900
C  38.67800 0.80800 30.55100
C  39.97600 0.33600 30.17400
C  39.86700 -0.07500 28.80000
C  38.43200 0.03700 28.42400
C  41.28100 0.49200 30.97400
C  41.00400 -0.45700 27.80500
O  40.66700 -0.72400 26.67700
C  42.48400 -0.58400 28.20600
N  35.55000 0.77800 27.58900
C  36.45900 0.13300 26.78200
C  35.98100 -0.00700 25.30800
C  34.47800 0.24400 25.56100
C  34.42100 0.91900 26.89900
C  36.60900 1.08300 24.38300
C  33.57700 -1.02100 25.46900
C  32.65800 -1.03000 24.23500
N  33.92400 2.04600 29.59600
C  32.99200 2.16100 28.59200
C  31.77200 2.75900 29.13500
C  32.12000 3.16200 30.40800
C  33.42100 2.70000 30.68700
C  30.43700 3.03000 28.41400
C  31.65000 3.94700 31.52500
O  30.53500 4.46200 31.65500
C  32.71900 3.76100 32.64800
C  33.13300 5.05400 33.18800
O  33.78000 5.88700 32.58900
O  32.51300 5.19400 34.34200
C  32.77100 6.52500 34.95000
H  39.14800 1.16300 32.61100
H  38.31900 -0.44200 26.32000
H  32.40800 1.49800 26.60700
H  35.52300 3.71900 34.34700
H  37.35300 1.54800 34.51100
H  37.69000 4.30100 34.48400
H  38.55400 3.65800 32.93900
H  38.91400 3.09100 34.52800
H  35.19000 0.83100 34.85300
H  33.75800 1.50600 34.16500
H  34.51800 1.29200 36.82500
H  33.13900 2.08200 36.15900
H  41.04900 0.82700 31.98500
H  41.71000 1.35300 30.46100
H  41.97300 -0.35000 30.97800
H  42.98400 -1.14300 27.41500
H  42.55800 -1.12600 29.14900
H  42.94300 0.40000 28.29400
H  36.25100 -0.98600 24.91300
H  34.24800 1.01700 24.82800
H  37.65800 0.83700 24.21800
H  36.58900 1.96900 25.01800
H  36.14000 1.24600 23.41300
H  32.85500 -1.09200 26.28300
H  34.15600 -1.93800 25.57200
H  32.52600 0.02100 23.97900
H  31.67900 -1.45000 24.46500
H  33.12700 -1.56200 23.40700
H  30.57100 3.80900 27.66300
H  29.68100 3.25500 29.16600
H  30.19500 2.03400 28.04400
H  32.25200 3.19100 33.45200
H  31.95200 7.20800 34.72300
H  33.69700 7.09500 34.87700
H  32.65200 6.40000 36.02700

