158

Mg 34.57200 3.72500 29.22100
C  32.27800 4.51500 31.87600
C  37.20000 3.94800 31.50000
C  36.71400 3.23800 26.72100
C  31.92100 3.95200 27.03600
N  34.73100 4.23700 31.41500
C  33.57600 4.41900 32.33400
C  34.14300 4.59800 33.74700
C  35.73000 4.66800 33.46800
C  35.92900 4.27000 32.02300
C  36.51800 5.99000 33.86700
C  33.66100 3.47600 34.64400
C  33.62000 3.75600 36.20800
H  34.31700 4.95500 36.77700
N  36.69100 3.44600 29.14900
C  37.56400 3.59700 30.19200
C  38.92700 3.29300 29.69900
C  38.85400 3.19700 28.23900
C  37.40300 3.24800 27.95900
C  40.15100 3.21800 30.60900
C  39.88600 3.12000 27.18900
O  39.64600 3.04400 26.00200
C  41.33800 3.05900 27.56100
N  34.35000 3.68500 27.24600
C  35.36400 3.45800 26.41900
C  34.83400 3.29000 24.96000
C  33.33100 2.99500 25.14400
C  33.16000 3.58000 26.55600
C  35.10700 4.61500 24.21300
C  32.87100 1.53600 25.06400
C  31.80700 1.29000 24.02200
N  32.56100 4.12800 29.33900
C  31.59100 4.24400 28.37900
C  30.29100 4.52000 28.95900
C  30.49100 4.62100 30.33700
C  31.87100 4.37800 30.49600
C  28.96600 4.72700 28.25700
C  29.85600 4.87900 31.58100
O  28.69900 5.17400 31.88500
C  31.00000 4.68400 32.60900
C  30.97900 5.92300 33.44500
O  31.68000 6.88900 33.25700
O  30.18000 5.76100 34.54600
C  30.39300 6.70200 35.65500
H  38.08300 4.09800 32.12500
H  37.42400 2.87600 25.97400
H  31.00900 4.00600 26.43800
H  33.76500 5.49600 34.23600
H  36.27900 3.87400 33.97500
H  36.99500 6.40900 32.98100
H  37.31600 5.82100 34.59000
H  35.92000 6.76300 34.35100
H  34.23800 2.55800 34.52800
H  32.64400 3.31100 34.28900
H  34.05500 2.87600 36.68200
H  32.57300 3.90100 36.47600
H  40.71700 2.34300 30.29000
H  40.00500 3.02200 31.67200
H  40.66000 4.18200 30.61800
H  41.45400 2.37200 28.39900
H  41.61300 4.06200 27.88800
H  42.05600 2.79100 26.78600
H  35.31600 2.46100 24.44100
H  32.83200 3.56400 24.36000
H  35.38500 4.33300 23.19800
H  35.84900 5.21500 24.74100
H  34.20900 5.21900 24.08600
H  32.56700 1.19100 26.05200
H  33.67600 0.86600 24.76100
H  30.97500 0.66800 24.35200
H  32.32600 0.70300 23.26500
H  31.34300 2.20900 23.66200
H  28.43900 3.85200 28.63900
H  29.04100 4.71700 27.17000
H  28.48400 5.66900 28.51700
H  30.77200 3.89000 33.32000
H  31.14900 7.47900 35.54200
H  30.76600 6.11500 36.49400
H  29.46700 7.11300 36.05800
Mg 47.20100 25.55700 28.73500
C  48.16900 27.63100 31.43600
C  46.12700 23.26900 30.95200
C  46.77800 23.53500 26.08900
C  48.70900 27.95000 26.52200
N  47.09300 25.56000 30.88800
C  47.50400 26.47800 31.82500
C  47.15400 26.03300 33.24800
C  46.55200 24.61200 33.08200
C  46.58200 24.45900 31.56100
C  47.16900 23.52300 33.90700
C  46.25200 27.12900 34.00700
C  46.84700 27.74400 35.21100
H  45.76900 28.27700 36.19200
N  46.43100 23.71300 28.53300
C  45.97900 22.95200 29.58900
C  45.40000 21.78600 29.00200
C  45.57100 21.80800 27.57300
C  46.26700 23.06600 27.33800
C  44.98000 20.57900 29.86200
C  45.18000 20.76600 26.56700
O  45.55400 20.90000 25.40300
C  44.35600 19.60300 26.90500
N  47.90500 25.59100 26.62800
C  47.52200 24.62800 25.71400
C  47.82900 25.08600 24.26300
C  48.10500 26.61500 24.45200
C  48.31600 26.72400 25.97400
C  49.04900 24.28300 23.77000
C  46.93000 27.47000 23.95100
C  45.57800 27.36900 24.64400
N  48.33000 27.34800 28.89100
C  48.86400 28.16600 27.94100
C  49.47300 29.35200 28.42700
C  49.22100 29.13900 29.83900
C  48.55300 27.90500 30.07600
C  50.25200 30.43000 27.73400
C  49.49400 29.79100 31.14700
O  50.06100 30.82500 31.39500
C  48.93200 28.71500 32.21900
C  49.96200 28.31500 33.20200
O  50.66000 27.33800 33.11500
O  49.83100 29.07700 34.29200
C  50.64500 28.67100 35.47700
H  45.71900 22.53000 31.64400
H  46.34800 23.02300 25.22600
H  49.08300 28.67000 25.79100
H  48.12000 25.99800 33.75200
H  45.46700 24.67900 33.16900
H  47.84400 23.80400 34.71600
H  47.70300 22.79600 33.29600
H  46.38500 22.93200 34.38000
H  45.32200 26.62700 34.27300
H  46.00200 27.92900 33.31100
H  47.33900 28.69100 34.98900
H  47.45900 27.01600 35.74400
H  43.90400 20.44700 29.98000
H  45.35600 20.57400 30.88500
H  45.41600 19.72600 29.34200
H  44.93700 18.83900 27.42300
H  43.90100 19.30000 25.96200
H  43.61000 19.95000 27.61900
H  46.89100 24.83500 23.76700
H  48.96700 27.04500 23.94300
H  49.32200 23.38000 24.31700
H  49.86600 24.96600 23.53800
H  48.75100 23.89300 22.79600
H  46.64000 27.08000 22.97500
H  47.28400 28.50100 23.92700
H  45.79300 26.85300 25.58000
H  44.88700 26.76000 24.06000
H  45.12100 28.34100 24.83200
H  50.45400 30.09900 26.71500
H  51.15500 30.63000 28.31200
H  49.48400 31.20200 27.69400
H  48.18900 29.22000 32.83600
H  50.13300 27.87500 36.01800
H  50.65100 29.57300 36.09000
H  51.68800 28.38400 35.34700

