158

Mg 23.60300 -5.32400 45.51000
C  25.91200 -3.27100 43.70500
C  21.12400 -4.18300 43.47200
C  21.78100 -8.07800 46.39800
C  26.51900 -7.03100 46.86600
N  23.62400 -3.93100 43.81500
C  24.65200 -3.24600 43.12400
C  24.08700 -2.45400 41.90500
C  22.56900 -2.44100 42.17000
C  22.40100 -3.63800 43.17500
C  22.06600 -1.05000 42.65800
C  24.65500 -2.88200 40.57200
C  25.76400 -1.95100 39.98400
H  25.73200 -1.77200 38.48700
N  21.70600 -5.97700 45.06500
C  20.88300 -5.33500 44.22200
C  19.64100 -6.08600 44.10300
C  19.76400 -7.15200 45.04400
C  21.10000 -7.16200 45.56700
C  18.40900 -5.60000 43.24700
C  18.66500 -8.08000 45.54100
O  17.49600 -7.96200 45.05700
C  18.86900 -8.94600 46.74700
N  24.03300 -7.27400 46.51200
C  23.09700 -8.20500 46.84900
C  23.67000 -9.39200 47.60400
C  25.13000 -8.97200 47.84800
C  25.27600 -7.67000 47.00900
C  22.95000 -9.82100 48.92400
C  26.22300 -10.06600 47.57600
C  26.82200 -10.72900 48.82700
N  25.71300 -5.05400 45.66100
C  26.74000 -5.81600 46.23200
C  27.97400 -5.22100 45.96200
C  27.74800 -4.23900 45.01400
C  26.32500 -4.19100 44.76900
C  29.27100 -5.63300 46.54000
C  28.39200 -3.28100 44.13900
O  29.63900 -3.06900 43.91900
C  27.20600 -2.51800 43.45800
C  27.22900 -1.08500 43.96700
O  26.38500 -0.46100 44.61700
O  28.34400 -0.50400 43.40300
C  28.58000 0.91300 43.60200
H  20.33000 -3.61600 42.98100
H  21.32900 -9.06400 46.51700
H  27.40300 -7.53400 47.26400
H  24.40500 -1.42700 42.08500
H  21.97100 -2.63700 41.28000
H  21.92300 -0.55700 41.69600
H  22.89800 -0.56900 43.17300
H  21.20600 -1.13700 43.32100
H  23.94800 -2.87400 39.74300
H  25.15900 -3.84800 40.54900
H  26.68700 -2.40700 40.34400
H  25.58300 -1.00500 40.49400
H  18.49300 -4.54400 42.99000
H  17.51800 -5.59000 43.87400
H  18.22200 -6.19100 42.35000
H  19.27400 -8.26700 47.49800
H  19.43100 -9.85300 46.52500
H  17.99500 -9.51800 47.05800
H  23.70000 -10.23900 46.91900
H  25.31000 -8.51800 48.82300
H  22.92600 -10.91100 48.91800
H  21.94600 -9.40500 48.84400
H  23.53400 -9.46800 49.77400
H  26.86900 -9.58400 46.84300
H  25.86500 -10.96800 47.07900
H  26.12300 -10.45800 49.61700
H  27.78500 -10.32000 49.13300
H  26.91500 -11.81300 48.75600
H  29.87000 -6.30100 45.92100
H  29.21400 -5.99600 47.56700
H  29.81400 -4.70700 46.72700
H  27.36000 -2.59300 42.38200
H  27.67200 1.51600 43.59600
H  29.25900 1.19600 42.79800
H  29.10700 1.09800 44.53800
Mg 44.00900 5.18300 47.03000
C  42.07300 7.92900 46.47500
C  41.20200 3.27100 46.06400
C  45.93900 2.38000 46.67300
C  46.83500 7.08300 46.94400
N  41.82800 5.53100 46.24600
C  41.27800 6.80000 46.18000
C  39.72500 6.77700 45.96100
C  39.42800 5.23900 46.13900
C  40.88200 4.58800 46.15900
C  38.70900 4.95300 47.46600
C  39.11800 7.34700 44.59300
C  40.12500 7.66200 43.43900
H  39.56300 7.86100 42.04800
N  43.63600 3.11100 46.50900
C  42.38300 2.55400 46.12600
C  42.56200 1.14100 45.79700
C  43.96700 0.87700 45.84200
C  44.58700 2.15400 46.33500
C  41.46200 0.28300 45.21600
C  44.58100 -0.46800 45.43700
O  43.89800 -1.39900 45.09900
C  46.08800 -0.55500 45.34800
N  46.09400 4.74700 46.85100
C  46.69600 3.57400 46.85400
C  48.24900 3.61700 46.85200
C  48.44300 5.18800 46.98700
C  47.01300 5.72900 46.92100
C  49.02700 2.75200 47.91800
C  49.33900 5.83700 45.91400
C  50.33900 6.85900 46.46700
N  44.33000 7.09100 46.88900
C  45.57300 7.77800 46.89800
C  45.34700 9.16900 46.73600
C  43.97900 9.27500 46.65800
C  43.40700 7.97400 46.71200
C  46.36700 10.16600 46.66700
C  42.90300 10.21100 46.50100
O  42.91500 11.43900 46.51300
C  41.55200 9.37100 46.40300
C  40.65200 9.65600 47.56100
O  40.86200 9.20500 48.67400
O  39.53100 10.36300 47.17500
C  38.39000 10.46600 48.22600
H  40.31100 2.70100 45.79500
H  46.64700 1.55000 46.70000
H  47.75300 7.67500 46.92900
H  39.25100 7.34800 46.76000
H  38.91900 4.88000 45.24500
H  37.81500 5.56000 47.60600
H  39.47300 5.03900 48.23900
H  38.44100 3.89600 47.47800
H  38.77000 8.32400 44.92600
H  38.37000 6.65600 44.20500
H  40.88300 6.88000 43.37400
H  40.51900 8.62500 43.76300
H  41.80800 -0.01400 44.22600
H  40.55100 0.86500 45.07700
H  41.21100 -0.66400 45.69200
H  46.31500 -1.51400 44.88200
H  46.42000 -0.55200 46.38600
H  46.51600 0.29400 44.81500
H  48.59800 3.33000 45.86000
H  48.75800 5.44200 47.99900
H  49.68800 2.03500 47.43100
H  48.25100 2.21100 48.45900
H  49.71600 3.37600 48.48600
H  48.84300 6.27800 45.04900
H  49.88900 5.04000 45.41400
H  51.32700 6.43200 46.29600
H  50.21800 6.98900 47.54200
H  50.02800 7.84200 46.11300
H  47.20500 9.78300 47.25000
H  45.93200 11.07600 47.07900
H  46.53600 10.31800 45.60100
H  41.01600 9.69500 45.51200
H  37.74500 9.59700 48.09600
H  37.75700 11.30900 47.94900
H  38.82800 10.63100 49.21000

