158

Mg 44.14000 3.40300 47.50700
C  41.71400 5.88000 46.76300
C  41.55000 1.12200 47.19000
C  46.47800 0.95200 47.56800
C  46.57300 5.71200 46.76700
N  41.88600 3.57700 47.20300
C  41.09900 4.67400 46.91800
C  39.69200 4.28900 46.50100
C  39.64700 2.91400 47.21000
C  41.12200 2.48600 47.14100
C  39.08600 2.81200 48.60300
C  39.47100 4.32400 44.97600
C  38.31700 5.15900 44.41100
H  38.61700 6.41700 43.61300
N  44.06100 1.26600 47.40600
C  42.89000 0.50200 47.32800
C  43.28900 -0.82900 47.49000
C  44.72000 -0.90000 47.63600
C  45.17500 0.46600 47.53600
C  42.37600 -1.94500 47.34800
C  45.62900 -2.16000 47.65600
O  45.10600 -3.27100 47.65700
C  47.08400 -2.12600 47.52300
N  46.22900 3.35000 47.04200
C  47.00500 2.28000 47.25100
C  48.47700 2.60900 47.28400
C  48.52100 4.08100 46.97800
C  47.03800 4.42900 46.94500
C  49.12700 2.30000 48.65700
C  49.34200 4.61000 45.75200
C  50.75500 5.15800 46.02500
N  44.15500 5.45900 47.01500
C  45.25900 6.25200 46.76200
C  44.78000 7.59700 46.66600
C  43.40700 7.49400 46.61800
C  43.08500 6.18500 46.81500
C  45.55700 8.89500 46.45600
C  42.11000 8.26500 46.54800
O  41.82200 9.45500 46.59000
C  41.03600 7.16400 46.59600
C  40.08100 7.37000 47.68300
O  40.42100 7.40700 48.86900
O  38.74800 7.53600 47.28300
C  37.81300 7.56900 48.40100
H  40.74300 0.39500 47.08000
H  47.31000 0.28500 47.80100
H  47.38700 6.43900 46.71700
H  38.98500 5.03800 46.85800
H  39.16500 2.14000 46.61200
H  38.50500 3.66300 48.95800
H  39.90400 2.63800 49.30200
H  38.45500 1.92400 48.65900
H  39.19600 3.30400 44.70600
H  40.38100 4.48900 44.39900
H  37.64300 5.47600 45.20700
H  37.83000 4.37500 43.83100
H  41.39900 -1.66600 46.95300
H  42.15600 -2.44600 48.29100
H  42.77900 -2.74400 46.72600
H  47.49000 -1.46800 46.75500
H  47.53000 -3.12000 47.46900
H  47.39700 -1.78900 48.51100
H  49.06000 2.04600 46.55500
H  48.77800 4.67000 47.85800
H  48.37500 2.25300 49.44400
H  49.88100 3.07600 48.78900
H  49.78800 1.43600 48.59100
H  48.80700 5.16400 44.98100
H  49.53400 3.65000 45.27200
H  50.77900 5.16600 47.11500
H  50.92400 6.14600 45.59800
H  51.54400 4.47700 45.70800
H  46.31600 9.02300 47.22800
H  44.99100 9.81100 46.62300
H  46.17300 8.93400 45.55800
H  40.53900 7.21500 45.62800
H  37.62000 8.61000 48.65700
H  38.10500 6.94100 49.24300
H  36.85900 7.16700 48.05800
Mg 30.90100 59.23900 39.30200
C  28.26500 57.08800 38.27300
C  33.03500 56.66200 38.56100
C  33.40700 61.40600 39.82200
C  28.62300 61.73300 39.59400
N  30.60700 57.14900 38.55400
C  29.51500 56.49600 38.18200
C  29.71400 54.99600 37.91000
C  31.28200 54.83300 38.26100
C  31.69100 56.32600 38.44100
C  31.50100 54.11800 39.64800
C  29.34500 54.67800 36.38200
C  29.71400 55.63100 35.15600
H  28.60000 55.90100 34.12100
N  32.90100 59.05800 39.22400
C  33.61700 57.91100 38.93400
C  35.07500 58.14300 38.98200
C  35.23100 59.50300 39.45300
C  33.83600 60.09200 39.50200
C  36.05300 57.13300 38.45100
C  36.59200 60.13900 39.77800
O  37.54300 59.47400 40.02400
C  36.72600 61.64300 40.05400
N  31.01800 61.29400 39.65900
C  32.15000 62.01200 39.87400
C  31.89000 63.51600 39.95100
C  30.37000 63.54000 39.95000
C  29.95200 62.11500 39.65400
C  32.47600 64.11600 41.24100
C  29.86200 64.48000 38.83100
C  28.41600 65.03100 39.14700
N  28.84600 59.43800 39.09400
C  28.05000 60.50500 39.29400
C  26.64600 60.18900 39.08700
C  26.70400 58.84700 38.71900
C  28.06400 58.41400 38.71200
C  25.55200 61.09300 39.29900
C  25.89000 57.69900 38.32500
O  24.66700 57.66600 38.16800
C  26.88400 56.52000 38.06100
C  26.46000 55.27600 38.85200
O  26.95200 54.95500 39.98700
O  25.36400 54.67300 38.29700
C  24.58200 53.77000 39.07300
H  33.74600 55.83500 38.50600
H  34.11600 62.19400 40.08300
H  27.79400 62.43600 39.69400
H  29.13100 54.36300 38.58000
H  31.78600 54.30700 37.44900
H  31.98400 54.80700 40.34100
H  32.25600 53.34400 39.51200
H  30.53600 53.73800 39.98200
H  28.26100 54.56600 36.34300
H  29.66700 53.66500 36.13900
H  30.54200 55.10200 34.68500
H  30.12400 56.61700 35.37400
H  36.54900 57.59400 37.59700
H  35.62400 56.23100 38.01600
H  36.79000 56.93500 39.23000
H  37.74900 61.94900 40.27000
H  36.13800 61.74400 40.96600
H  36.33300 62.08300 39.13700
H  32.44500 64.00200 39.14800
H  29.89600 63.76700 40.90500
H  33.17300 64.93800 41.07800
H  32.92000 63.40400 41.93600
H  31.72500 64.71600 41.75500
H  29.79200 63.92700 37.89400
H  30.54900 65.31600 38.70100
H  28.03300 64.67700 40.10400
H  27.73000 64.77200 38.34000
H  28.41500 66.10400 39.34000
H  24.59200 60.61100 39.11600
H  25.71200 61.75800 38.45000
H  25.62100 61.53700 40.29200
H  26.68900 56.45000 36.99100
H  25.10500 52.84600 39.32100
H  23.69700 53.58800 38.46300
H  24.25400 54.38400 39.91300

