158

Mg 45.19200 4.17700 47.14500
C  43.04600 6.91100 47.01100
C  42.56800 2.02500 46.72700
C  47.41900 1.73800 46.37700
C  47.97300 6.47800 47.26800
N  43.07500 4.44300 46.88700
C  42.37500 5.63600 46.95200
C  40.83800 5.33400 46.87700
C  40.75800 3.82200 46.86800
C  42.21600 3.39900 46.84800
C  39.93900 3.08800 48.01500
C  40.12700 6.11100 45.67800
C  40.86800 6.21200 44.32500
H  40.04500 6.40100 43.06100
N  45.02700 2.11100 46.67100
C  43.84200 1.43300 46.54000
C  44.19700 0.08500 46.36800
C  45.56300 -0.01700 46.08800
C  46.08000 1.31400 46.38700
C  43.25800 -1.03000 46.32800
C  46.26200 -1.25800 45.61700
O  45.60600 -2.30900 45.61000
C  47.67800 -1.36400 45.07500
N  47.44500 4.14900 46.98000
C  48.04700 3.00800 46.65500
C  49.61400 3.26400 46.45700
C  49.71900 4.71500 46.77100
C  48.30200 5.15700 47.07200
C  50.53400 2.30900 47.19800
C  50.37400 5.60700 45.64600
C  51.74500 5.09600 45.16700
N  45.47500 6.27500 47.17300
C  46.62800 7.04800 47.25600
C  46.13800 8.44900 47.21300
C  44.79400 8.40700 47.25300
C  44.42200 7.04700 47.19500
C  46.95400 9.60200 47.07400
C  43.62200 9.20000 47.26300
O  43.49100 10.42600 47.55500
C  42.45300 8.27300 47.11500
C  41.57800 8.44300 48.29600
O  41.58300 7.78000 49.31500
O  40.62400 9.40200 48.11400
C  39.64600 9.72800 49.17400
H  41.68100 1.38800 46.72300
H  48.08200 0.92600 46.07300
H  48.81600 7.17000 47.20700
H  40.29400 5.65400 47.76600
H  40.44900 3.45700 45.88800
H  39.21000 3.80400 48.39300
H  40.59000 2.84400 48.85400
H  39.36500 2.23100 47.66100
H  39.94300 7.13600 46.00200
H  39.16500 5.60000 45.63900
H  41.46900 5.30800 44.22400
H  41.61800 7.00200 44.35300
H  42.28700 -0.60600 46.58500
H  43.63300 -1.87600 46.90400
H  43.10600 -1.42600 45.32400
H  47.88400 -2.39100 44.77400
H  48.30800 -1.14200 45.93600
H  47.83600 -0.62100 44.29300
H  49.69000 3.11800 45.37900
H  50.28900 4.85100 47.69000
H  49.97400 1.80600 47.98700
H  51.33600 2.90000 47.63900
H  50.78200 1.46100 46.56000
H  50.49300 6.65000 45.94000
H  49.62000 5.63600 44.85900
H  52.46500 5.91300 45.19000
H  51.72100 4.66700 44.16500
H  52.15400 4.39400 45.89400
H  47.14300 10.13200 48.00700
H  46.45900 10.38000 46.49300
H  47.95200 9.44200 46.66500
H  42.01500 8.55000 46.15600
H  38.69200 10.10300 48.80500
H  40.00400 10.54100 49.80600
H  39.43600 8.91500 49.86900
Mg 36.00800 49.67200 25.27800
C  36.27100 47.55300 28.06000
C  34.66200 51.96700 27.32900
C  35.00300 51.36900 22.59300
C  36.98300 46.93500 23.33700
N  35.42900 49.72700 27.41500
C  35.70500 48.78900 28.32700
C  35.34900 49.23500 29.76700
C  34.66900 50.59800 29.55900
C  34.94600 50.80000 28.03500
C  33.12500 50.66400 29.86300
C  36.60700 49.46400 30.72800
C  36.35700 49.15600 32.20200
H  34.90000 48.96900 32.68500
N  35.19300 51.58900 24.98700
C  34.71900 52.34600 25.99600
C  34.33600 53.60000 25.40100
C  34.32600 53.39600 23.95500
C  34.80700 52.06700 23.81000
C  33.92000 54.78100 26.21600
C  33.71100 54.24600 22.84200
O  33.50600 53.90100 21.67500
C  33.44400 55.72300 23.14300
N  35.84700 49.17000 23.27500
C  35.46500 50.06700 22.32500
C  35.83400 49.58500 20.91900
C  36.38500 48.19400 21.19600
C  36.45000 48.06500 22.66800
C  34.71600 49.74700 19.81800
C  37.72200 47.79100 20.30200
C  39.00600 48.46800 20.63800
N  36.48800 47.55900 25.58600
C  36.94200 46.62800 24.65800
C  37.35000 45.44500 25.33000
C  37.07500 45.72600 26.70000
C  36.56700 47.00900 26.76300
C  37.99500 44.25200 24.70700
C  37.09500 45.25500 28.08100
O  37.59400 44.16600 28.52400
C  36.64100 46.45800 28.98900
C  35.44000 45.88500 29.64500
O  34.32300 45.98500 29.21900
O  35.76700 45.22300 30.83000
C  34.69800 44.79900 31.75600
H  34.30600 52.76700 27.98200
H  34.95000 52.06500 21.75400
H  37.26200 46.09800 22.69200
H  34.66800 48.52600 30.24000
H  35.21300 51.37200 30.10000
H  32.50700 50.67500 28.96500
H  32.70400 51.52600 30.38000
H  32.89300 49.76300 30.43000
H  37.01400 50.47400 30.67100
H  37.45100 48.84200 30.43000
H  36.70300 50.00700 32.78900
H  36.96500 48.28100 32.43200
H  32.87300 55.06600 26.12000
H  34.44000 55.67100 25.86100
H  34.20400 54.69100 27.26500
H  32.48600 55.85800 23.64500
H  33.56900 56.19100 22.16700
H  34.24300 56.14800 23.75200
H  36.66900 50.15500 20.51100
H  35.71600 47.38200 20.91200
H  34.22900 50.67100 20.13100
H  34.04000 48.90100 19.69200
H  35.28700 50.01200 18.92800
H  37.61600 48.16200 19.28300
H  37.74700 46.70300 20.36500
H  39.82100 47.74800 20.70000
H  38.90500 48.83400 21.66000
H  39.18000 49.38600 20.07600
H  38.35500 43.60000 25.50200
H  38.86500 44.38500 24.06500
H  37.20000 43.68900 24.21700
H  37.40000 46.65000 29.74800
H  34.34400 43.81000 31.46600
H  33.86000 45.49500 31.77900
H  35.13900 44.73600 32.75100

