158

Mg -0.40800 7.33500 25.65100
C  0.62900 9.03600 28.62000
C  -0.43200 4.31600 27.50700
C  -0.57800 5.56100 22.83900
C  0.79900 10.08100 23.83100
N  0.07200 6.77700 27.81900
C  0.25700 7.68900 28.84100
C  0.14600 6.96300 30.30300
C  0.14100 5.44200 29.78400
C  -0.08300 5.43300 28.30500
C  1.41700 4.73200 30.34900
C  -1.20300 7.29000 30.95000
C  -1.13600 7.62400 32.46400
H  0.14800 7.20600 33.25900
N  -0.65300 5.21900 25.26600
C  -0.68200 4.21100 26.15800
C  -1.12100 2.99900 25.42700
C  -1.22900 3.35400 24.05200
C  -0.71900 4.74000 24.03700
C  -1.38300 1.65500 26.13200
C  -1.68100 2.49600 22.82300
O  -1.88700 3.01700 21.73500
C  -1.91900 1.01300 22.93800
N  -0.02300 7.75300 23.72300
C  -0.24700 6.92600 22.69700
C  -0.06100 7.48100 21.27800
C  0.42400 8.86300 21.62800
C  0.44900 8.89000 23.13300
C  0.72500 6.66000 20.28100
C  -0.36800 9.98800 20.93200
C  -1.64700 10.35700 21.67000
N  0.48700 9.16800 26.04500
C  0.89600 10.22400 25.22000
C  1.40000 11.32000 25.99200
C  1.24600 10.86100 27.29200
C  0.80400 9.55200 27.30200
C  1.75700 12.66400 25.51500
C  1.40500 11.37900 28.61700
O  1.83500 12.49200 29.01600
C  0.85400 10.22900 29.58700
C  1.80100 9.91800 30.64300
O  2.89300 9.34300 30.50900
O  1.41500 10.63400 31.70000
C  2.27900 10.62700 32.87000
H  -0.36700 3.42100 28.12800
H  -0.86300 5.05900 21.91200
H  1.15300 10.92400 23.23400
H  1.02800 7.18200 30.90600
H  -0.68400 4.82900 30.14700
H  1.83600 4.13700 29.53800
H  1.02400 4.14400 31.17800
H  2.13700 5.41300 30.80300
H  -1.79900 6.38300 30.84700
H  -1.64300 8.16700 30.47400
H  -1.93400 6.93600 32.74700
H  -1.31800 8.69400 32.56500
H  -2.44600 1.48500 25.95800
H  -1.07000 1.47400 27.16000
H  -0.82700 0.89700 25.57900
H  -1.00100 0.60500 23.36100
H  -1.94900 0.51900 21.96600
H  -2.77500 0.90700 23.60400
H  -1.01300 7.60500 20.76100
H  1.42400 9.03100 21.23000
H  -0.13000 6.15300 19.83400
H  1.53900 6.03800 20.65200
H  1.16200 7.24300 19.47100
H  -0.68400 9.84700 19.89900
H  0.31900 10.81600 20.75800
H  -2.46700 10.53000 20.97300
H  -1.57300 11.31200 22.19000
H  -1.96900 9.50300 22.26700
H  1.19600 12.89200 24.60800
H  2.80100 12.89400 25.30300
H  1.41000 13.33200 26.30300
H  -0.12600 10.51300 29.96900
H  1.74200 11.14000 33.66800
H  3.17800 11.19100 32.62300
H  2.66300 9.64200 33.13800
Mg 27.33000 50.56500 26.69400
C  25.22900 51.84600 29.25400
C  29.33100 49.29400 29.01700
C  29.23300 49.46200 24.18500
C  24.96600 51.80100 24.33200
N  27.29600 50.62300 28.92100
C  26.33800 51.17800 29.78200
C  26.76100 50.88400 31.21600
C  28.19200 50.18500 31.09400
C  28.30700 50.04200 29.60000
C  29.39900 50.96100 31.67800
C  25.62900 50.13500 32.07700
C  25.00300 50.90600 33.32900
H  25.35500 50.53500 34.80900
N  29.07600 49.64100 26.60800
C  29.75000 49.17600 27.69900
C  31.00400 48.53700 27.29700
C  30.99000 48.43400 25.88200
C  29.74200 49.20600 25.48800
C  31.96200 48.01500 28.30400
C  31.98400 47.76200 24.95000
O  31.76700 47.75300 23.75200
C  33.16200 46.93200 25.46100
N  27.16000 50.70700 24.49000
C  28.02300 50.13500 23.74500
C  27.72800 50.16500 22.23300
C  26.29000 50.94600 22.28800
C  26.08500 51.12000 23.77600
C  28.63400 50.99300 21.24200
C  25.06600 50.17300 21.66000
C  24.35500 49.13800 22.60600
N  25.56200 51.74100 26.71600
C  24.70800 52.00500 25.68600
C  23.54800 52.75300 26.22700
C  23.72100 52.67300 27.67100
C  24.95200 52.01900 27.88600
C  22.44000 53.40400 25.48100
C  23.00800 52.94100 28.90600
O  21.93900 53.53800 29.16000
C  23.96500 52.33800 30.00200
C  24.25200 53.47300 30.89700
O  25.04900 54.33100 30.57600
O  23.59700 53.49000 32.06100
C  23.98000 54.46500 33.12700
H  29.98700 48.84400 29.76600
H  29.82100 49.10700 23.33700
H  24.22100 51.97000 23.55100
H  26.96100 51.80100 31.77000
H  28.26400 49.15200 31.43300
H  30.09700 51.38900 30.95900
H  29.91100 50.25300 32.33000
H  29.14900 51.79400 32.33600
H  26.16500 49.28200 32.49200
H  24.81200 49.69800 31.50400
H  23.94400 51.13800 33.21400
H  25.45400 51.89400 33.41300
H  31.96800 46.92600 28.25900
H  31.70300 48.16400 29.35300
H  32.92500 48.50700 28.16600
H  33.84000 47.50300 26.09600
H  33.77200 46.62900 24.60900
H  32.80400 46.00600 25.90900
H  27.70500 49.15900 21.81400
H  26.34700 51.86000 21.69600
H  28.92500 50.40800 20.37000
H  29.59300 51.16100 21.73200
H  28.22000 51.94300 20.90300
H  25.28300 49.58900 20.76600
H  24.35200 50.88100 21.24000
H  23.60200 49.68800 23.17100
H  25.09100 48.79800 23.33400
H  23.92200 48.46000 21.87100
H  22.16500 52.96100 24.52400
H  22.73900 54.44800 25.38300
H  21.53000 53.29100 26.07000
H  23.44800 51.51800 30.49900
H  24.29400 55.41600 32.69600
H  24.78700 54.15900 33.79100
H  23.19400 54.51500 33.88000

