158

Mg 48.47200 15.69900 29.35400
C  46.21900 15.40800 31.82200
C  50.47400 17.48200 31.37200
C  50.48600 16.35100 26.73900
C  46.03300 14.49400 27.08600
N  48.22400 16.55200 31.29400
C  47.34400 16.13500 32.19700
C  47.77600 16.39100 33.64400
C  48.96400 17.38300 33.41900
C  49.26200 17.13600 31.93500
C  48.68000 18.87000 33.64600
C  48.15500 15.07300 34.34700
C  47.86800 15.14100 35.89200
H  47.70500 16.54200 36.57800
N  50.26100 16.74900 29.09300
C  50.93200 17.34100 30.08500
C  52.27100 17.56900 29.62800
C  52.29300 17.42900 28.23500
C  50.95500 16.85600 27.96200
C  53.33900 18.21800 30.53000
C  53.33900 17.62500 27.22700
O  53.12300 17.43800 26.04000
C  54.78200 18.03600 27.65800
N  48.19300 15.69600 27.22100
C  49.26800 15.86900 26.36000
C  48.96800 15.50700 24.87800
C  47.63200 14.70700 25.09300
C  47.21900 14.97700 26.56300
C  48.81200 16.76500 24.08100
C  47.78800 13.25100 24.74500
C  48.46700 12.26800 25.73700
N  46.52200 15.00800 29.46400
C  45.64600 14.51700 28.55000
C  44.42300 14.09200 29.22000
C  44.62400 14.40100 30.52500
C  45.91600 14.96400 30.57200
C  43.25600 13.43000 28.65000
C  44.08400 14.32900 31.85000
O  42.98800 13.82400 32.10400
C  45.14600 14.93500 32.79400
C  44.47600 16.04100 33.55300
O  43.85900 16.92500 32.98900
O  44.49100 15.75200 34.91100
C  43.76600 16.79100 35.64700
H  51.15900 18.11700 31.93900
H  51.13500 16.46300 25.86700
H  45.33800 14.08300 26.35100
H  46.99800 16.90000 34.21400
H  49.88400 17.07800 33.91800
H  47.65700 19.13400 33.91500
H  48.85800 19.34400 32.68100
H  49.44000 19.30700 34.29400
H  49.23300 14.91500 34.32300
H  47.57800 14.24400 33.93800
H  48.62300 14.70600 36.54700
H  46.99000 14.49800 35.95600
H  53.53700 19.22900 30.17500
H  54.24700 17.65400 30.31400
H  53.10000 18.21500 31.59400
H  54.74900 19.07700 27.97700
H  55.51000 17.99500 26.84800
H  55.26400 17.41600 28.41400
H  49.80100 14.88200 24.55700
H  46.82100 15.08200 24.46900
H  49.66500 16.70800 23.40500
H  48.70600 17.71600 24.60300
H  47.93500 16.78600 23.43400
H  48.41700 13.20800 23.85600
H  46.80900 12.88400 24.44000
H  49.29200 11.84500 25.16200
H  47.81500 11.47100 26.09300
H  48.87700 12.80300 26.59400
H  42.43200 13.94300 29.14600
H  43.27900 12.38300 28.95200
H  43.17300 13.45000 27.56300
H  45.39500 14.19800 33.55700
H  42.70000 16.58300 35.55200
H  44.03900 17.81900 35.41300
H  43.89600 16.63300 36.71800
Mg 9.57100 48.44500 25.99000
C  7.11100 48.99400 28.36200
C  11.95300 49.47100 28.22300
C  11.85900 47.96800 23.68200
C  7.05500 48.22800 23.54300
N  9.54500 49.08100 28.08100
C  8.41800 49.07600 28.90100
C  8.85500 49.31800 30.37100
C  10.28200 49.95100 30.11300
C  10.62900 49.46100 28.73100
C  10.45500 51.49200 30.25400
C  8.79300 47.97300 31.10400
C  9.45200 47.82400 32.42800
H  8.64300 47.36600 33.69200
N  11.66200 48.58700 25.96700
C  12.46900 49.09900 26.93900
C  13.87700 49.11300 26.50000
C  13.80300 48.58600 25.13800
C  12.40000 48.28900 24.91800
C  15.12700 49.41600 27.31700
C  14.92400 48.23400 24.16300
O  14.84100 47.64200 23.12800
C  16.34600 48.69900 24.53400
N  9.46900 48.25600 23.95500
C  10.56300 47.93800 23.20700
C  10.29300 47.57700 21.72800
C  8.73200 47.83500 21.64200
C  8.34400 48.07900 23.13200
C  11.02600 48.31700 20.68100
C  7.97900 46.75300 20.81700
C  7.19800 47.10600 19.64800
N  7.48400 48.38600 25.94200
C  6.60500 48.33600 24.89300
C  5.25500 48.34800 25.37600
C  5.43000 48.58500 26.74900
C  6.80400 48.66000 27.01500
C  4.04200 48.06100 24.50100
C  4.65400 48.78400 27.99800
O  3.47800 48.80000 28.17300
C  5.71500 49.25700 29.03500
C  5.57700 48.42000 30.24800
O  5.29300 47.26200 30.26900
O  5.36100 49.21800 31.27600
C  4.83900 48.70300 32.60600
H  12.70000 49.83900 28.93000
H  12.57800 47.75900 22.88700
H  6.32500 48.04400 22.75200
H  8.19400 50.03100 30.86400
H  10.87200 49.53700 30.93000
H  9.62200 52.04000 30.69300
H  10.48200 51.84400 29.22300
H  11.32800 51.69000 30.87500
H  9.21500 47.28300 30.37400
H  7.78000 47.60500 31.26500
H  9.94600 48.72500 32.79200
H  10.25600 47.09800 32.31000
H  15.82000 50.05900 26.77300
H  15.61400 48.46700 27.54100
H  14.88000 49.92300 28.25000
H  16.67400 48.28200 25.48600
H  16.39800 49.78800 24.53900
H  17.06400 48.30400 23.81400
H  10.60700 46.53400 21.68800
H  8.63000 48.77900 21.10500
H  12.10200 48.21400 20.82100
H  10.89700 49.38900 20.83600
H  10.64400 48.03400 19.70100
H  7.24000 46.31000 21.48400
H  8.61500 45.89400 20.60100
H  6.13000 46.89000 19.67300
H  7.66200 46.63600 18.78100
H  7.24800 48.18500 19.49700
H  3.53700 48.98000 24.20200
H  3.21500 47.58200 25.02400
H  4.36800 47.50200 23.62400
H  5.63100 50.31600 29.28000
H  4.12700 49.44200 32.97400
H  5.67600 48.72600 33.30500
H  4.26800 47.77700 32.65800

