158

Mg 53.32600 23.96100 44.37300
C  51.07500 26.35700 43.29500
C  51.38500 21.54100 42.94800
C  55.92500 21.85000 44.46000
C  55.39600 26.52200 45.43600
N  51.50000 23.96500 43.21500
C  50.75900 25.05100 42.83100
C  49.55700 24.55200 41.90900
C  49.43800 23.11500 42.38000
C  50.88400 22.79400 42.85400
C  48.32000 22.78400 43.40900
C  49.71600 24.85900 40.37400
C  51.16300 25.26000 39.88600
H  51.37100 25.83100 38.50200
N  53.57500 21.99500 43.92800
C  52.65200 21.15400 43.40800
C  53.06800 19.77100 43.43100
C  54.37100 19.78500 43.93900
C  54.69200 21.25500 44.11600
C  52.29800 18.56300 42.83800
C  55.24500 18.54800 44.19800
O  54.76200 17.41900 43.91600
C  56.51500 18.66100 44.97400
N  55.38600 24.21500 44.64800
C  56.22500 23.17300 44.79500
C  57.63500 23.58800 45.05200
C  57.49800 25.04800 45.50500
C  55.96200 25.29900 45.18700
C  58.52100 22.69700 46.07100
C  58.52600 26.10700 44.98000
C  58.35700 26.73500 43.65400
N  53.18000 25.99000 44.60900
C  54.09400 26.93500 45.15000
C  53.47400 28.22100 45.15900
C  52.24600 28.03700 44.55600
C  52.15400 26.70000 44.15700
C  54.02400 29.47600 45.80200
C  51.01500 28.61900 44.13100
O  50.54400 29.77700 44.36700
C  50.19800 27.52400 43.22800
C  49.95300 28.02000 41.85400
O  50.83700 28.57700 41.16900
O  48.59600 27.88800 41.53600
C  48.20400 28.39600 40.20900
H  50.74500 20.77000 42.51300
H  56.80500 21.20300 44.47200
H  56.12200 27.22000 45.85900
H  48.80800 25.26400 42.25700
H  49.22700 22.46600 41.53000
H  47.30400 22.83400 43.01800
H  48.32600 23.64300 44.08000
H  48.68000 21.94500 44.00500
H  48.87900 25.49500 40.08500
H  49.57400 23.90300 39.87100
H  51.83500 24.42900 40.09900
H  51.51800 26.04300 40.55600
H  51.91300 18.13900 43.76600
H  52.94100 17.82900 42.35200
H  51.53100 18.89600 42.13900
H  56.50500 17.78000 45.61600
H  56.61800 19.52200 45.63400
H  57.39800 18.67900 44.33500
H  57.94700 23.53800 44.00900
H  57.29500 25.13500 46.57200
H  58.80200 23.39200 46.86300
H  59.48800 22.35900 45.69900
H  57.95400 21.85200 46.46300
H  59.54300 25.90600 45.31600
H  58.18700 26.87000 45.68200
H  59.33100 26.83900 43.17700
H  57.66900 27.58000 43.65200
H  57.80700 26.04500 43.01400
H  54.15100 30.13000 44.94000
H  55.02000 29.49100 46.24400
H  53.27400 29.80300 46.52200
H  49.25400 27.40100 43.75800
H  48.22600 29.48600 40.20600
H  47.17300 28.05000 40.14500
H  48.76100 27.93500 39.39300
Mg 9.98700 47.19400 27.21500
C  7.61400 47.38100 29.93700
C  12.38900 48.10100 29.35500
C  11.90700 47.40400 24.63500
C  7.12900 46.53200 25.17800
N  9.92300 47.70900 29.40900
C  8.90000 47.78500 30.36400
C  9.46500 48.09100 31.71400
C  10.87300 48.72300 31.27000
C  11.14200 48.01700 30.01300
C  11.00600 50.18600 31.19400
C  9.52400 46.90300 32.74000
C  9.12100 47.23000 34.17900
H  9.33300 46.23100 35.25600
N  11.92300 47.61800 27.06800
C  12.75800 47.88900 28.04700
C  14.08100 47.98900 27.46200
C  13.94100 47.77000 26.03700
C  12.51500 47.60400 25.84100
C  15.20100 48.27700 28.41700
C  15.01000 47.74000 24.96300
O  14.74700 47.65800 23.75800
C  16.49800 47.74100 25.37500
N  9.50800 47.37000 25.12700
C  10.55600 47.27700 24.25200
C  10.10100 46.85300 22.86400
C  8.62400 46.45900 23.07600
C  8.38200 46.86600 24.53600
C  10.17700 47.97000 21.78200
C  8.39800 44.94100 22.76500
C  9.13200 43.91000 23.66300
N  7.78400 47.01000 27.39500
C  6.82900 46.64300 26.51400
C  5.57700 46.50300 27.13500
C  5.84100 46.78800 28.48600
C  7.15800 47.20000 28.58700
C  4.22400 46.19800 26.47700
C  5.18700 46.96700 29.75000
O  4.02100 46.81800 30.06500
C  6.36700 47.19900 30.79300
C  6.53800 45.94600 31.52000
O  7.02000 44.95400 31.06800
O  6.01100 46.07800 32.77000
C  6.04900 44.81900 33.56200
H  13.16600 48.46800 30.02800
H  12.51500 47.08800 23.78600
H  6.32200 46.19000 24.52700
H  9.00500 48.90800 32.27000
H  11.69700 48.40600 31.90900
H  10.10100 50.70000 31.51800
H  11.12000 50.38300 30.12800
H  11.89100 50.54700 31.71800
H  10.58700 46.67900 32.81900
H  9.05100 46.01600 32.31800
H  8.04100 47.37300 34.13900
H  9.52200 48.21900 34.39900
H  14.98400 49.19500 28.96400
H  16.12700 48.41300 27.85800
H  15.30300 47.48700 29.16000
H  16.57600 46.87400 26.03100
H  16.81500 48.69500 25.79600
H  17.14600 47.60700 24.50900
H  10.66000 45.93600 22.67600
H  7.91300 47.11700 22.57700
H  10.76200 47.80100 20.87700
H  10.60200 48.87300 22.22000
H  9.16700 48.27100 21.50400
H  8.73800 44.71700 21.75400
H  7.34300 44.69200 22.88300
H  8.62100 42.96500 23.84500
H  9.12100 44.41900 24.62700
H  10.11600 43.72500 23.23100
H  4.08600 46.38400 25.41200
H  3.53100 46.86200 26.99400
H  3.87200 45.16600 26.47000
H  6.19000 48.06600 31.42900
H  5.83000 45.01600 34.61200
H  7.05700 44.40700 33.53200
H  5.18600 44.17800 33.37900

