158

Mg 17.64600 -1.67900 28.19100
C  16.69800 0.39400 31.00000
C  19.07300 -3.82800 30.42600
C  18.92000 -3.30700 25.51100
C  16.33500 0.77800 26.02900
N  17.97500 -1.60500 30.56300
C  17.51300 -0.70300 31.45000
C  17.78300 -1.13100 32.85300
C  18.68700 -2.44600 32.62600
C  18.56800 -2.69500 31.11200
C  20.11900 -2.36400 33.15700
C  16.44500 -1.44800 33.69300
C  16.41300 -1.09100 35.21600
H  17.70600 -0.54100 35.87600
N  18.76900 -3.37600 28.08200
C  19.25000 -4.16700 29.12900
C  19.88800 -5.37800 28.47100
C  19.80900 -5.21900 27.02800
C  19.16400 -3.93500 26.83400
C  20.36100 -6.53200 29.32400
C  20.21200 -6.15400 25.94500
O  19.89200 -5.93400 24.80400
C  20.97700 -7.49700 26.29600
N  17.64500 -1.31300 26.10000
C  18.28200 -2.11400 25.23400
C  18.15200 -1.57700 23.84000
C  17.19000 -0.34200 23.93200
C  17.01900 -0.28800 25.42900
C  19.49300 -1.24400 23.12600
C  15.91000 -0.51600 23.06500
C  15.35000 0.73700 22.41300
N  16.63100 0.08700 28.38200
C  16.15500 0.98500 27.44600
C  15.47100 2.09900 28.12400
C  15.65800 1.91900 29.49100
C  16.31300 0.61900 29.57800
C  14.80400 3.16900 27.38500
C  15.36300 2.50200 30.82400
O  14.73100 3.49200 31.05600
C  15.95100 1.51700 31.82200
C  16.89600 2.36900 32.60000
O  18.01400 2.78500 32.25200
O  16.32800 2.70900 33.82800
C  17.20200 3.44500 34.67500
H  19.57800 -4.57900 31.03700
H  19.38600 -3.80000 24.65500
H  15.92100 1.54800 25.37500
H  18.38900 -0.35500 33.32000
H  18.31900 -3.27200 33.23500
H  20.12700 -1.48800 33.80500
H  20.74300 -2.13000 32.29400
H  20.52300 -3.25300 33.64100
H  16.24900 -2.50900 33.53700
H  15.60200 -0.89000 33.28700
H  16.29400 -1.99800 35.80900
H  15.65400 -0.38200 35.54800
H  19.53400 -7.24000 29.37300
H  20.49700 -6.28100 30.37600
H  21.36300 -6.83800 29.02300
H  20.47500 -8.16600 26.99500
H  21.86400 -7.10700 26.79600
H  21.22900 -8.02200 25.37500
H  17.82900 -2.48400 23.32800
H  17.63400 0.60100 23.61600
H  19.61700 -1.90400 22.26700
H  20.28100 -1.45400 23.84900
H  19.55100 -0.27100 22.63800
H  15.15600 -0.95300 23.72100
H  16.07100 -1.20700 22.23800
H  14.26100 0.77500 22.44100
H  15.70500 0.67900 21.38400
H  15.69200 1.59000 22.99800
H  14.13600 3.72300 28.04400
H  14.23100 2.86400 26.50900
H  15.55300 3.92100 27.13800
H  15.15200 1.06800 32.41100
H  18.14800 2.90400 34.69500
H  16.80800 3.33600 35.68500
H  17.28000 4.49400 34.38800
Mg 7.23800 53.47600 40.05200
C  6.57200 50.03100 40.09900
C  10.49300 52.74600 39.70600
C  7.74800 56.74600 39.14500
C  3.77300 54.23800 40.25000
N  8.35900 51.50600 39.79300
C  7.92600 50.28700 40.10500
C  9.05200 49.31900 40.06600
C  10.28500 50.27700 40.37800
C  9.66400 51.61800 39.97000
C  11.01200 50.00800 41.65600
C  9.20200 48.37400 38.81900
C  9.19800 49.12300 37.50700
H  8.08600 48.86800 36.42100
N  8.98500 54.62900 39.53900
C  10.19900 54.05700 39.35500
C  11.15700 55.05100 38.99500
C  10.34200 56.27700 38.71300
C  8.96100 55.94800 39.16000
C  12.61000 54.87000 38.85200
C  10.81800 57.56000 38.03800
O  11.99700 57.70600 37.76300
C  9.89300 58.70000 37.71000
N  6.01600 55.19000 39.78000
C  6.48200 56.42900 39.52400
C  5.37900 57.53200 39.53200
C  4.04600 56.72600 39.61700
C  4.59400 55.26600 39.95600
C  5.58900 58.57600 40.65500
C  3.09200 56.77400 38.41700
C  2.66300 58.22900 37.95700
N  5.51300 52.42000 40.20100
C  4.20700 52.89200 40.29700
C  3.36200 51.68000 40.40000
C  4.23600 50.61300 40.40200
C  5.52200 51.08700 40.20600
C  1.77900 51.65400 40.43600
C  4.25900 49.13400 40.56100
O  3.42100 48.31000 40.82900
C  5.71700 48.76600 40.20300
C  5.70100 47.93800 38.96000
O  5.51900 48.43600 37.86100
O  5.82000 46.58000 39.23000
C  5.67700 45.67800 38.13100
H  11.54500 52.56100 39.93200
H  7.89700 57.75900 38.76800
H  2.72300 54.45000 40.46300
H  8.80100 48.74500 40.95800
H  11.05700 50.16400 39.61700
H  12.03000 49.77600 41.34300
H  10.50500 49.15400 42.10600
H  10.98400 50.90400 42.27600
H  8.39700 47.64600 38.91500
H  10.18100 47.89800 38.88000
H  10.18100 48.89800 37.09500
H  9.12600 50.19300 37.69900
H  12.88600 54.61400 37.82900
H  13.04900 54.16200 39.55400
H  13.15300 55.80100 39.01300
H  9.10800 58.09900 37.25100
H  10.25300 59.43900 36.99500
H  9.65200 59.06000 38.71000
H  5.61500 57.96400 38.55900
H  3.49100 57.00700 40.51200
H  6.33900 59.26500 40.26600
H  5.91400 58.10600 41.58400
H  4.67600 59.13200 40.87000
H  2.21900 56.27100 38.83200
H  3.48800 56.25700 37.54300
H  3.43500 58.97200 38.15700
H  1.65600 58.30900 38.36900
H  2.53400 58.27300 36.87600
H  1.36700 50.65100 40.54400
H  1.38800 52.03900 39.49400
H  1.35100 52.08700 41.34000
H  6.14400 48.06900 40.92400
H  6.46000 44.93300 38.27300
H  5.53600 46.02700 37.10800
H  4.73300 45.17700 38.34400

