158

Mg 0.15100 8.53600 27.00800
C  0.68100 10.47900 29.88500
C  -0.09000 5.81900 29.03000
C  0.28300 6.55000 24.29000
C  0.59400 11.22400 25.06300
N  0.44000 8.14100 29.26700
C  0.46400 9.16100 30.24200
C  0.16200 8.48000 31.64700
C  0.11100 6.99300 31.25600
C  0.15500 6.96200 29.74000
C  1.22100 6.08900 31.90600
C  -1.08900 9.19700 32.32600
C  -0.92400 9.33300 33.85600
H  0.21900 8.62900 34.53300
N  0.13600 6.41800 26.65900
C  -0.10700 5.47500 27.64500
C  -0.28500 4.12900 27.08900
C  -0.18200 4.32000 25.68400
C  0.05700 5.82400 25.47400
C  -0.75300 3.00900 27.92300
C  -0.41000 3.37800 24.56300
O  -0.45300 3.76600 23.36800
C  -0.61100 1.91300 24.86300
N  0.57900 8.80100 24.87800
C  0.52000 7.90100 23.98600
C  0.63300 8.45500 22.57200
C  0.33100 9.95800 22.91700
C  0.55700 10.04800 24.38400
C  2.06600 8.14300 22.02500
C  -1.12700 10.47900 22.54500
C  -1.28700 11.08500 21.21400
N  0.55300 10.44500 27.35400
C  0.68000 11.46400 26.42600
C  1.10500 12.70800 27.18500
C  1.09300 12.31300 28.52000
C  0.78300 10.93700 28.57200
C  1.39900 14.12200 26.62100
C  1.34600 12.77000 29.81600
O  1.75600 13.86000 30.21000
C  0.91800 11.63200 30.77500
C  2.01300 11.47100 31.80200
O  3.14200 10.95000 31.64500
O  1.62300 12.03800 32.98200
C  2.64500 12.13900 34.00600
H  -0.24600 4.95000 29.67200
H  0.49000 5.97900 23.38200
H  0.65000 12.11300 24.43200
H  1.08500 8.60100 32.21400
H  -0.85300 6.51800 31.44200
H  2.00000 5.95500 31.15600
H  0.87100 5.07000 32.07400
H  1.55300 6.54900 32.83700
H  -1.97800 8.61400 32.08500
H  -1.27700 10.19800 31.93700
H  -1.88600 8.95900 34.20600
H  -1.02100 10.37000 34.17600
H  -1.71700 2.68100 27.53500
H  -0.92500 3.25600 28.97100
H  0.00100 2.22400 27.86200
H  -1.62000 1.63000 25.16300
H  0.09000 1.63500 25.65000
H  -0.35900 1.33900 23.97100
H  -0.18200 8.06000 21.96600
H  1.07100 10.55600 22.38600
H  2.60000 9.08600 22.14200
H  2.07300 7.91700 20.95900
H  2.62300 7.41200 22.61200
H  -1.55300 11.09400 23.33800
H  -1.79000 9.61500 22.48800
H  -1.80700 12.04200 21.26000
H  -1.89500 10.46900 20.55100
H  -0.35600 11.21600 20.66400
H  2.31100 14.26600 26.04200
H  1.52600 14.85000 27.42200
H  0.51100 14.39900 26.05400
H  0.04400 11.97600 31.33000
H  2.75000 13.10900 34.49100
H  3.65500 11.83600 33.73200
H  2.35400 11.50000 34.84000
Mg 9.39500 47.93600 25.17800
C  7.40700 48.35100 27.86700
C  11.94000 49.63000 26.87300
C  11.43200 47.36600 22.59700
C  6.66800 46.86800 23.23900
N  9.60200 48.85200 27.14800
C  8.68600 48.77600 28.14600
C  9.30800 49.21700 29.46900
C  10.51800 50.00400 28.96300
C  10.70900 49.60300 27.51000
C  10.21700 51.53500 29.04300
C  9.72500 48.12100 30.46900
C  9.06200 48.21800 31.86900
H  9.45100 47.10000 32.88500
N  11.41800 48.44100 24.75900
C  12.32300 49.08700 25.62400
C  13.63000 49.04900 25.06600
C  13.48600 48.43700 23.82200
C  12.08400 48.03900 23.65500
C  14.87900 49.58900 25.82900
C  14.57300 48.23100 22.72000
O  14.40900 47.69100 21.59700
C  15.98600 48.74500 22.98200
N  9.02800 47.33600 23.09500
C  10.07500 47.17900 22.27400
C  9.68800 46.48600 20.94100
C  8.09300 46.39000 21.12300
C  7.85700 46.89100 22.58700
C  10.00200 47.37400 19.69800
C  7.49800 44.96200 20.87800
C  7.69000 43.95200 22.04500
N  7.45700 47.55600 25.45100
C  6.37200 47.17700 24.56500
C  5.16200 47.26700 25.30900
C  5.46900 47.62100 26.61700
C  6.89400 47.84400 26.62000
C  3.87700 47.07100 24.76600
C  4.94700 47.74800 27.92000
O  3.82700 47.64300 28.35300
C  6.21100 48.19900 28.86200
C  6.37500 47.12500 29.90900
O  7.26800 46.23700 29.83800
O  5.44000 47.15600 30.87000
C  5.70500 46.21100 31.97300
H  12.70400 50.05600 27.52600
H  12.06000 47.03700 21.76700
H  5.84200 46.45900 22.65300
H  8.58800 49.85200 29.98400
H  11.39300 49.80300 29.58100
H  10.38800 51.96200 30.03100
H  9.19100 51.79500 28.78000
H  10.79800 52.12500 28.33400
H  10.79000 48.16100 30.69900
H  9.55400 47.10700 30.11000
H  7.97300 48.26100 31.83200
H  9.35000 49.16500 32.32400
H  14.58400 49.86000 26.84300
H  15.51500 50.37000 25.41400
H  15.50200 48.70500 25.96100
H  15.96400 49.83500 22.97500
H  16.66000 48.44700 22.17800
H  16.38100 48.33300 23.91000
H  10.15600 45.50100 20.91300
H  7.58100 46.94200 20.33500
H  10.11100 48.42600 19.96100
H  9.23200 47.33300 18.92800
H  10.96700 47.05000 19.31100
H  8.06500 44.57100 20.03300
H  6.43100 45.04300 20.66900
H  8.15800 43.04900 21.65400
H  6.66400 43.68800 22.30000
H  8.22800 44.35100 22.90400
H  3.92200 46.68900 23.74600
H  3.26100 47.96300 24.88200
H  3.42600 46.24400 25.31400
H  6.04000 49.16900 29.32800
H  5.89400 45.17700 31.68500
H  4.73800 46.09800 32.46400
H  6.36400 46.57200 32.76200

