158

Mg 2.25700 -1.78200 43.73700
C  5.60100 -0.84600 42.91600
C  1.15700 1.15600 42.16700
C  -0.82300 -2.98800 43.96500
C  3.51300 -4.67800 45.18200
N  3.24400 -0.17200 42.45600
C  4.61500 0.07200 42.43600
C  4.93500 1.32700 41.65500
C  3.51400 2.05400 41.75100
C  2.56500 0.98200 42.13000
C  3.48500 3.24400 42.74000
C  5.49500 1.02800 40.26100
C  6.73900 1.84700 39.88600
H  6.62100 2.60900 38.52800
N  0.42400 -1.05400 43.05000
C  0.16100 0.13900 42.42500
C  -1.19800 0.23000 42.21400
C  -1.88000 -0.94200 42.70900
C  -0.73600 -1.73500 43.20200
C  -1.83800 1.46000 41.51000
C  -3.36200 -1.22900 42.60100
O  -4.07300 -0.36400 42.09300
C  -3.95200 -2.46000 43.22100
N  1.47300 -3.66600 44.35500
C  0.15000 -3.79600 44.44500
C  -0.15800 -5.06700 45.22300
C  1.19800 -5.76600 45.42000
C  2.13500 -4.62500 45.05800
C  -0.87500 -4.80800 46.56400
C  1.60800 -7.12800 44.64600
C  1.57900 -8.31500 45.62800
N  4.08400 -2.62700 43.95600
C  4.50100 -3.79300 44.61300
C  5.91100 -3.87600 44.60700
C  6.40400 -2.71500 44.07500
C  5.21100 -2.05200 43.59300
C  6.64100 -5.08500 45.11800
C  7.58000 -1.93100 43.67400
O  8.76200 -2.21300 43.80200
C  7.12200 -0.61500 43.03800
C  7.54500 0.50800 43.90900
O  7.32200 0.63900 45.06400
O  8.21600 1.45700 43.15200
C  8.45500 2.76400 43.76800
H  0.77200 2.07900 41.72900
H  -1.77100 -3.44400 44.25800
H  3.77200 -5.53800 45.80300
H  5.70500 1.86400 42.21000
H  3.29300 2.62800 40.85100
H  4.52500 3.53500 42.89000
H  2.87600 3.09700 43.63200
H  3.10200 4.08100 42.15700
H  4.72800 1.33600 39.55100
H  5.70600 -0.03800 40.18200
H  7.48600 1.05500 39.85300
H  6.93100 2.48000 40.75200
H  -1.21000 2.20300 41.01900
H  -2.37500 1.89900 42.35100
H  -2.48600 1.06000 40.73000
H  -5.02500 -2.35900 43.05800
H  -3.68100 -2.43900 44.27700
H  -3.52200 -3.26600 42.62800
H  -0.70800 -5.62100 44.46200
H  1.26400 -5.91500 46.49700
H  -0.25400 -4.26000 47.27300
H  -1.17400 -5.76700 46.98700
H  -1.79400 -4.23700 46.43600
H  2.67000 -7.16000 44.40500
H  0.96100 -7.27700 43.78100
H  1.67100 -9.27900 45.12600
H  0.71300 -8.21700 46.28200
H  2.47000 -8.33900 46.25600
H  7.64000 -4.78800 45.43800
H  6.62300 -5.86800 44.35900
H  6.11800 -5.24100 46.06100
H  7.48700 -0.39200 42.03500
H  9.12400 2.57500 44.60700
H  7.51600 3.27000 43.99000
H  9.14000 3.28400 43.09700
Mg -11.91500 39.26300 42.07700
C  -10.20600 36.31100 41.33100
C  -9.52300 41.00500 40.47200
C  -13.88300 42.06200 42.42200
C  -14.56800 37.28600 43.15400
N  -10.13700 38.64300 41.01300
C  -9.58500 37.38200 40.80100
C  -8.39500 37.40200 39.81300
C  -8.08500 39.00600 39.78500
C  -9.38200 39.61500 40.39900
C  -6.75400 39.40700 40.41500
C  -8.58100 36.76000 38.42200
C  -7.41600 35.81200 38.03100
H  -6.24100 36.41400 37.27600
N  -11.60500 41.29800 41.60700
C  -10.53900 41.84400 40.97400
C  -10.72600 43.27600 40.87400
C  -11.92200 43.58500 41.64200
C  -12.52700 42.22400 41.92700
C  -9.69900 44.16500 40.15800
C  -12.39600 44.98600 41.86100
O  -11.77200 45.94200 41.35000
C  -13.69100 45.35400 42.64600
N  -13.93300 39.62800 42.67000
C  -14.52800 40.85500 42.72100
C  -15.96400 40.72200 43.16100
C  -16.21300 39.19600 43.41800
C  -14.82800 38.63700 42.98100
C  -16.45900 41.59200 44.33600
C  -17.38900 38.50100 42.71200
C  -18.63700 37.94400 43.51800
N  -12.30500 37.26800 42.43300
C  -13.40800 36.62300 42.86000
C  -13.17200 35.15900 42.83800
C  -11.90000 35.03700 42.27100
C  -11.45000 36.27300 42.03200
C  -14.15200 34.03400 43.27700
C  -10.87700 34.04900 41.80400
O  -10.95000 32.81800 41.80200
C  -9.70100 34.92600 41.17500
C  -8.55700 34.68400 42.04000
O  -8.30400 35.22800 43.12800
O  -7.60800 33.89900 41.40700
C  -6.23000 33.81800 41.83000
H  -8.89500 41.52900 39.74700
H  -14.62200 42.84700 42.59200
H  -15.36600 36.62200 43.49400
H  -7.44800 37.06200 40.23200
H  -8.09200 39.32400 38.74200
H  -6.58600 38.86300 41.34400
H  -6.90100 40.46600 40.62400
H  -5.96200 39.13700 39.71600
H  -8.59500 37.44200 37.57100
H  -9.51800 36.20800 38.49100
H  -7.80300 34.96600 37.46200
H  -7.07500 35.48900 39.01400
H  -9.53900 45.10800 40.68100
H  -10.14000 44.23700 39.16400
H  -8.78500 43.60400 39.96600
H  -14.47600 44.99500 41.98100
H  -13.80200 46.42300 42.82700
H  -13.64300 44.77400 43.56800
H  -16.56700 40.86600 42.26500
H  -16.34500 38.94000 44.46900
H  -17.04600 42.41400 43.92500
H  -15.61300 42.09800 44.80100
H  -17.05300 41.03100 45.05600
H  -16.98100 37.65900 42.15200
H  -17.86100 39.08600 41.92200
H  -18.66000 36.85400 43.52600
H  -19.52900 38.46100 43.16500
H  -18.54900 38.07800 44.59600
H  -15.10200 34.10500 42.74900
H  -14.40700 34.20500 44.32300
H  -13.67500 33.05500 43.23500
H  -9.51700 34.62900 40.14300
H  -5.55900 34.28800 41.11100
H  -5.92000 32.77400 41.88500
H  -6.00500 34.20000 42.82500

