158

Mg 1.65400 -2.89300 44.84800
C  4.96100 -1.93300 44.01800
C  0.64800 0.04400 43.09300
C  -1.41200 -3.98400 45.01400
C  2.87700 -5.92400 45.92300
N  2.77100 -1.13000 43.68600
C  4.13600 -0.99500 43.52300
C  4.41100 0.38800 42.79800
C  3.02200 1.11100 42.87000
C  2.05900 -0.04800 43.18600
C  2.89200 2.32100 43.77800
C  4.84000 0.14300 41.32900
C  6.06800 0.81000 40.90200
H  6.58000 0.48400 39.49600
N  -0.16100 -2.09400 44.24400
C  -0.36000 -0.92000 43.57200
C  -1.72800 -0.72500 43.42000
C  -2.39900 -1.96600 43.84900
C  -1.34500 -2.75800 44.41800
C  -2.36500 0.52800 42.74500
C  -3.93700 -2.22400 43.89100
O  -4.75100 -1.34100 43.61200
C  -4.56200 -3.46500 44.38600
N  0.82500 -4.86100 45.38200
C  -0.47200 -4.96300 45.44800
C  -0.94700 -6.29200 46.16700
C  0.49000 -6.98500 46.24700
C  1.46800 -5.90600 45.84500
C  -1.66000 -6.15300 47.52400
C  0.66600 -8.26100 45.40800
C  0.00600 -9.46800 45.98300
N  3.53000 -3.80000 45.00700
C  3.88300 -5.01600 45.54100
C  5.37100 -5.23500 45.61300
C  5.83700 -4.00300 45.00700
C  4.67300 -3.19000 44.64700
C  6.20100 -6.37500 46.19100
C  6.99700 -3.17500 44.70600
O  8.22400 -3.43600 44.70200
C  6.45900 -1.84500 44.04400
C  6.97800 -0.71900 45.02400
O  6.46200 -0.38900 46.10400
O  7.95300 -0.08900 44.30300
C  8.20000 1.21800 44.85900
H  0.25900 0.94000 42.60500
H  -2.40700 -4.41200 45.15500
H  3.36700 -6.79000 46.37300
H  5.25700 0.83200 43.32400
H  2.66400 1.46800 41.90400
H  3.73300 2.29600 44.47100
H  1.95500 2.31100 44.33500
H  2.90800 3.24500 43.20000
H  4.00600 0.47100 40.70800
H  4.97700 -0.90300 41.05800
H  6.90300 0.51400 41.53800
H  5.84600 1.87400 40.98400
H  -2.01400 0.80000 41.74900
H  -2.09400 1.42700 43.29900
H  -3.45300 0.57300 42.70800
H  -4.06400 -4.38200 44.07200
H  -5.49900 -3.64000 43.85900
H  -4.75800 -3.57800 45.45200
H  -1.61000 -6.88100 45.53300
H  0.67400 -7.28100 47.28000
H  -1.03200 -6.60500 48.29200
H  -2.64100 -6.62600 47.54300
H  -1.80400 -5.09600 47.75000
H  1.71100 -8.57300 45.39400
H  0.49600 -8.06100 44.35000
H  -0.86800 -9.27600 46.60400
H  0.73800 -10.00900 46.58300
H  -0.39700 -10.02000 45.13300
H  6.27000 -7.29100 45.60500
H  5.71400 -6.65900 47.12300
H  7.23800 -6.04200 46.23200
H  6.91100 -1.61800 43.07800
H  7.20700 1.64600 44.99000
H  8.73200 1.94300 44.24200
H  8.73800 1.11600 45.80200
Mg 48.98000 35.31400 26.99000
C  46.56500 34.43500 29.55500
C  49.56100 38.23700 28.72200
C  50.81000 36.48500 24.29800
C  47.66900 32.86000 25.05500
N  48.20500 36.15600 28.92900
C  47.37900 35.56800 29.91100
C  47.05300 36.53700 31.05500
C  47.85200 37.78600 30.64200
C  48.65700 37.38600 29.39700
C  47.07400 39.09200 30.30600
C  47.48200 36.00800 32.51700
C  46.52700 36.58400 33.56900
H  47.01300 37.67900 34.45300
N  50.20000 36.96400 26.68600
C  50.35900 38.01700 27.55000
C  51.37000 38.85900 27.00900
C  51.85900 38.25900 25.82100
C  50.96000 37.22200 25.50900
C  51.70900 40.27600 27.59900
C  53.05100 38.66400 24.95000
O  53.43300 38.02800 23.97700
C  53.95500 39.83500 25.33900
N  49.06400 34.87800 24.99900
C  49.84100 35.46700 23.99200
C  49.76200 34.63400 22.68900
C  49.08300 33.31600 23.13400
C  48.53700 33.70000 24.50200
C  49.02800 35.47600 21.62700
C  50.04700 32.08900 23.19300
C  50.35400 31.43500 21.89400
N  47.50800 33.91700 27.24300
C  47.08100 32.98600 26.35300
C  45.97100 32.17900 26.87700
C  45.69700 32.74500 28.14100
C  46.71900 33.69700 28.34400
C  45.44000 30.89000 26.29000
C  44.89300 32.72000 29.35200
O  43.86000 32.10700 29.64900
C  45.31400 33.97000 30.18000
C  45.46800 33.44000 31.56100
O  46.34300 32.66900 31.92900
O  44.36600 33.84900 32.23400
C  44.21500 33.34700 33.54500
H  49.73400 39.21800 29.17100
H  51.46600 36.83200 23.49700
H  47.19200 32.04900 24.50100
H  45.98100 36.73100 31.03200
H  48.52000 38.19500 31.40000
H  47.54400 39.91000 30.85200
H  46.08400 39.00100 30.75300
H  46.96700 39.37600 29.25900
H  48.44500 36.34800 32.89800
H  47.53100 34.91900 32.50800
H  46.17700 35.83900 34.28400
H  45.68100 37.07200 33.08600
H  50.74300 40.77800 27.66100
H  52.30200 40.90400 26.93400
H  52.23800 40.18300 28.54800
H  54.85700 39.61900 24.76700
H  54.14600 39.76400 26.41000
H  53.55300 40.83100 25.15000
H  50.75900 34.27400 22.43700
H  48.31800 33.06000 22.40100
H  48.92600 36.51800 21.92700
H  48.02100 35.06200 21.57500
H  49.66700 35.53100 20.74500
H  49.57800 31.41400 23.90900
H  51.00700 32.42700 23.58400
H  49.83400 31.94900 21.08600
H  49.99500 30.42200 22.07400
H  51.40400 31.53200 21.61500
H  46.29800 30.22300 26.20800
H  45.32000 31.04600 25.21800
H  44.52800 30.47100 26.71500
H  44.49000 34.68400 30.19000
H  44.78900 34.00900 34.19300
H  44.54600 32.32300 33.72300
H  43.21600 33.52500 33.94300

