158

Mg 45.18200 4.11100 46.29400
C  43.43000 7.12200 46.28500
C  42.06100 2.50400 45.80200
C  46.69100 1.23600 45.48900
C  48.18000 5.90600 46.06900
N  42.99500 4.74800 45.95700
C  42.56000 6.06600 45.94500
C  41.03900 6.09400 45.81800
C  40.60600 4.60400 46.08900
C  41.92300 3.87600 45.97500
C  40.00000 4.35500 47.51300
C  40.50500 6.48100 44.48300
C  39.76800 7.81400 44.28900
H  40.29000 8.77000 43.22800
N  44.52000 2.15900 45.83700
C  43.19500 1.72100 45.66200
C  43.08000 0.24400 45.38100
C  44.44100 -0.15900 45.38100
C  45.33500 1.06700 45.56200
C  41.81600 -0.55200 45.07300
C  44.96200 -1.48600 45.04000
O  44.22100 -2.40500 44.68000
C  46.40600 -1.85500 44.91700
N  47.12600 3.69400 45.84500
C  47.51000 2.41100 45.65100
C  49.09400 2.29700 45.47200
C  49.55700 3.78900 45.57900
C  48.18300 4.53600 45.79800
C  49.84100 1.36800 46.51000
C  50.36700 4.41200 44.38200
C  51.61600 5.19300 44.75900
N  45.73000 6.12500 46.27100
C  46.98900 6.70700 46.22300
C  46.83600 8.14700 46.36900
C  45.44300 8.36900 46.43400
C  44.81400 7.10800 46.37500
C  47.87600 9.21800 46.41900
C  44.42100 9.40000 46.50400
O  44.47000 10.63100 46.59600
C  43.09500 8.59900 46.38500
C  42.35400 8.85700 47.63800
O  42.27400 8.07800 48.56200
O  41.62500 9.98800 47.45800
C  40.57000 10.31100 48.40700
H  41.11700 1.95600 45.75800
H  47.38400 0.43900 45.20900
H  49.19900 6.29600 46.01100
H  40.60600 6.73700 46.58400
H  39.83900 4.30700 45.37500
H  40.31200 5.17200 48.16300
H  40.30200 3.40600 47.95700
H  38.91300 4.27700 47.49000
H  39.89600 5.76900 43.92600
H  41.39400 6.73700 43.90800
H  39.81000 8.40400 45.20400
H  38.71200 7.57600 44.15900
H  40.95600 0.09500 45.25000
H  41.78200 -1.39200 45.76700
H  41.88300 -0.86800 44.03200
H  46.56500 -1.33600 43.97200
H  46.50800 -2.94000 44.94000
H  47.04700 -1.50300 45.72500
H  49.27800 1.96800 44.44900
H  50.10100 4.03100 46.49200
H  50.36600 0.61600 45.92200
H  49.10400 0.96600 47.20500
H  50.58400 2.00300 46.99300
H  49.65800 5.07300 43.88400
H  50.58500 3.67600 43.60900
H  51.87900 5.26600 45.81500
H  51.37400 6.11200 44.22500
H  52.52600 4.79300 44.31200
H  47.62400 10.21200 46.78800
H  48.38700 9.28100 45.45800
H  48.64000 8.86400 47.11100
H  42.52200 9.00400 45.55100
H  40.60200 9.92000 49.42400
H  39.73300 9.82800 47.90200
H  40.31500 11.35700 48.57100
Mg 49.04800 46.48900 42.43100
C  45.83000 47.03900 41.21900
C  49.22300 43.59600 40.51900
C  52.43600 46.18200 43.15400
C  49.14400 49.71300 43.57000
N  47.63900 45.44800 41.05000
C  46.37000 45.85800 40.66900
C  45.81000 45.09600 39.53100
C  46.86300 43.84700 39.50000
C  48.05100 44.33200 40.37100
C  46.22000 42.47300 39.88000
C  45.77900 45.91400 38.17100
C  44.45100 45.70500 37.27100
H  44.71300 44.70700 36.18100
N  50.59700 44.94800 42.06500
C  50.44300 43.85700 41.26400
C  51.62000 43.04500 41.36300
C  52.59000 43.75300 42.14800
C  51.91600 45.07300 42.47100
C  51.71900 41.63900 40.72900
C  54.00200 43.22600 42.64600
O  54.42900 42.16400 42.27100
C  54.86600 43.98600 43.68300
N  50.58200 47.81700 43.21800
C  51.87000 47.42900 43.50600
C  52.66100 48.62100 44.04600
C  51.58800 49.80800 44.07900
C  50.35600 49.06000 43.57400
C  53.40400 48.52700 45.32500
C  51.98700 51.10000 43.20100
C  52.36200 52.37400 43.93700
N  47.66500 48.03700 42.62000
C  47.88300 49.32400 43.03900
C  46.67000 50.08000 43.01000
C  45.79500 49.23300 42.23600
C  46.47700 48.04000 42.07200
C  46.42000 51.42900 43.54100
C  44.54000 49.14100 41.61000
O  43.60400 49.88100 41.70500
C  44.53200 47.75000 40.81000
C  43.28600 47.00700 41.04900
O  42.35100 46.98000 40.28500
O  43.19000 46.43900 42.23000
C  41.93100 45.73000 42.54800
H  49.30200 42.67000 39.94600
H  53.51000 46.17800 43.35200
H  49.21700 50.74200 43.92800
H  44.79200 44.77700 39.75500
H  47.27500 43.63800 38.51200
H  45.14400 42.46100 39.70400
H  46.32100 42.28000 40.94800
H  46.67200 41.58800 39.43200
H  46.69200 45.64900 37.63800
H  45.99300 46.95400 38.41700
H  44.10800 46.63800 36.82400
H  43.67900 45.24800 37.88900
H  51.07400 40.91100 41.22100
H  52.73400 41.26000 40.60300
H  51.34500 41.61700 39.70500
H  55.47600 43.24800 44.20300
H  54.16600 44.29600 44.45900
H  55.48400 44.76900 43.24200
H  53.41200 48.70400 43.26000
H  51.20900 49.98000 45.08700
H  54.10600 47.69400 45.28900
H  52.66500 48.38800 46.11500
H  53.91600 49.46600 45.53100
H  51.17500 51.35900 42.52200
H  52.82900 50.92600 42.53200
H  52.88000 53.07700 43.28600
H  52.98200 52.27400 44.82800
H  51.41600 52.89900 44.07300
H  46.77800 52.16200 42.81700
H  46.97300 51.57000 44.46900
H  45.35200 51.47100 43.75200
H  44.53500 47.90200 39.73100
H  41.15300 46.49100 42.60800
H  41.84300 45.28000 43.53700
H  41.76000 44.96600 41.79000

