158

Mg 24.68600 1.27000 29.70900
C  26.88000 1.18400 32.36800
C  22.06600 1.20500 31.97100
C  22.48700 1.33100 27.13100
C  27.24900 0.57400 27.47700
N  24.56400 1.41200 31.91200
C  25.54000 1.41500 32.81700
C  25.08200 1.57900 34.28100
C  23.51500 1.48500 34.10200
C  23.34200 1.39400 32.54300
C  22.77700 0.42600 34.90900
C  25.58500 2.82600 35.07400
C  24.69700 3.14000 36.33600
H  25.37700 3.47900 37.68400
N  22.57500 1.27800 29.55400
C  21.65500 1.16800 30.61700
C  20.33900 1.17700 30.11000
C  20.47800 1.21400 28.69700
C  21.88700 1.27300 28.36100
C  19.17600 1.01400 31.06600
C  19.42600 1.14800 27.67500
O  19.55300 1.34100 26.40800
C  18.01400 0.95900 28.08100
N  24.93400 1.25400 27.67800
C  23.87600 1.37000 26.77500
C  24.35100 1.40400 25.31600
C  25.86500 1.16300 25.40600
C  26.03900 0.94600 26.89900
C  23.60800 0.47900 24.33100
C  26.75500 2.17200 24.63800
C  27.23400 3.40800 25.29800
N  26.67700 0.89700 29.82600
C  27.62500 0.60000 28.88000
C  28.91500 0.46400 29.52600
C  28.71900 0.75500 30.84700
C  27.32100 0.94700 30.98100
C  30.22800 0.16300 28.83400
C  29.28400 0.85500 32.14600
O  30.46900 0.69500 32.45300
C  28.14900 1.23500 33.17000
C  28.15400 0.23800 34.25100
O  27.95600 -1.00500 34.14600
O  28.53400 0.82700 35.40800
C  28.94400 -0.03600 36.54200
H  21.27400 1.12900 32.71800
H  21.82300 1.30300 26.26500
H  28.12200 0.40500 26.84300
H  25.42200 0.75100 34.90300
H  23.07600 2.43400 34.40900
H  21.85900 0.72900 35.41200
H  23.43500 0.16200 35.73700
H  22.57500 -0.44700 34.28900
H  25.27400 3.54200 34.31200
H  26.64000 2.92000 35.33000
H  24.00000 2.33300 36.55900
H  24.12400 4.04100 36.11200
H  18.52700 1.89000 31.09000
H  19.44700 0.89400 32.11500
H  18.64600 0.12600 30.72100
H  17.64600 1.86200 28.56800
H  18.00200 0.11200 28.76700
H  17.36300 0.79600 27.22200
H  24.16200 2.41600 24.95700
H  26.26100 0.27300 24.91700
H  23.06600 -0.23200 24.95400
H  24.27400 -0.01600 23.62400
H  22.88600 1.10800 23.81100
H  26.22800 2.54200 23.75800
H  27.61700 1.58800 24.31600
H  27.51100 3.22800 26.33700
H  26.45800 4.16300 25.17200
H  28.03900 3.82700 24.69500
H  30.36500 0.87000 28.01600
H  30.11800 -0.87700 28.52400
H  31.07100 0.28500 29.51400
H  28.32700 2.23700 33.56100
H  29.19600 -1.06200 36.27300
H  28.18500 -0.12000 37.31900
H  29.89000 0.28300 36.98000
Mg -12.12800 37.86800 42.10400
C  -9.87700 35.33200 41.23500
C  -10.15900 40.06400 40.12700
C  -14.61400 40.19800 41.96100
C  -14.29900 35.56000 43.38200
N  -10.38100 37.62700 40.68200
C  -9.57900 36.51600 40.55100
C  -8.38500 36.69800 39.62400
C  -8.51600 38.24400 39.29400
C  -9.75200 38.71900 40.03500
C  -7.26400 39.02400 39.57000
C  -8.62500 35.63000 38.45200
C  -7.44500 34.84900 37.93500
H  -6.77000 35.61400 36.81300
N  -12.28600 39.89600 41.42400
C  -11.32600 40.59100 40.67300
C  -11.71400 41.93600 40.46700
C  -13.04100 42.03200 40.93800
C  -13.42900 40.67300 41.43000
C  -10.85200 43.00100 39.74200
C  -13.87300 43.20500 40.86800
O  -13.43600 44.23100 40.40900
C  -15.30800 43.32100 41.31800
N  -14.24100 37.89900 42.55000
C  -15.02000 38.95000 42.45500
C  -16.50900 38.59000 42.80300
C  -16.30800 37.17900 43.37400
C  -14.91000 36.80000 42.96300
C  -17.04100 39.72700 43.79400
C  -17.33300 36.13900 42.78500
C  -17.94200 35.16700 43.84400
N  -12.14300 35.85000 42.33400
C  -13.00100 35.05600 42.96600
C  -12.47900 33.73000 43.14000
C  -11.30000 33.82500 42.43000
C  -11.08200 35.14300 42.00000
C  -13.22100 32.53400 43.79600
C  -10.07100 33.09900 42.08100
O  -9.77900 31.94200 42.29100
C  -9.04700 34.09400 41.35600
C  -7.91200 34.22500 42.33700
O  -7.04500 33.40100 42.63800
O  -7.94600 35.54800 42.89800
C  -6.71200 35.90600 43.60400
H  -9.46400 40.73700 39.61900
H  -15.48200 40.85900 41.92300
H  -14.94800 34.90200 43.96300
H  -7.41800 36.50600 40.08900
H  -8.79500 38.33900 38.24400
H  -6.35000 38.49200 39.30700
H  -7.15600 39.24900 40.63100
H  -7.37500 39.89600 38.92500
H  -8.95500 36.21100 37.59100
H  -9.32100 34.86100 38.78500
H  -8.00300 33.96300 37.63000
H  -6.82100 34.60700 38.79600
H  -11.00100 44.03200 40.06600
H  -11.02700 42.90800 38.67000
H  -9.79700 42.82900 39.95700
H  -15.94600 42.70900 40.68000
H  -15.67000 44.34200 41.43900
H  -15.32700 42.95700 42.34500
H  -17.05100 38.57600 41.85800
H  -16.41000 37.22900 44.45800
H  -17.91600 40.26800 43.43200
H  -16.22100 40.41200 44.01000
H  -17.25300 39.23600 44.74400
H  -17.05500 35.46800 41.97200
H  -18.10900 36.72100 42.28800
H  -18.87600 35.65700 44.12100
H  -17.17900 35.02800 44.61000
H  -18.16300 34.21800 43.35500
H  -12.77700 32.35700 44.77500
H  -13.18500 31.68700 43.11000
H  -14.26100 32.82400 43.94700
H  -8.70300 33.59000 40.45200
H  -6.42100 35.33100 44.48300
H  -6.90200 36.92600 43.93900
H  -5.85800 35.86600 42.92800

