158

Mg 55.84300 24.38100 45.30400
C  52.91100 26.18800 44.33500
C  54.18600 21.45300 44.23600
C  58.71100 22.82200 45.55900
C  57.30400 27.44000 46.25500
N  53.79900 23.92000 44.28400
C  52.80700 24.79600 44.01200
C  51.62000 24.10200 43.42000
C  51.91400 22.61500 43.82700
C  53.44900 22.60600 44.17700
C  51.02000 22.12500 45.01200
C  51.37600 24.35100 41.89800
C  49.92400 24.58300 41.53500
H  49.70100 24.54600 40.00400
N  56.43900 22.48700 44.95900
C  55.62400 21.40900 44.57800
C  56.31100 20.23600 44.65900
C  57.59700 20.55000 45.13700
C  57.59100 21.99400 45.28800
C  55.68900 18.90200 44.23000
C  58.62300 19.43200 45.41600
O  58.29600 18.27100 45.21800
C  59.96300 19.68900 45.93000
N  57.77200 25.03000 45.78400
C  58.76900 24.18000 45.84100
C  60.06100 24.93100 46.23700
C  59.66000 26.38000 46.40700
C  58.18200 26.30700 46.06900
C  60.74600 24.35000 47.49700
C  60.37800 27.44500 45.48900
C  61.67600 28.08400 45.90900
N  55.25200 26.37200 45.35600
C  55.90200 27.45900 45.88400
C  55.01000 28.60000 45.81100
C  53.85300 28.19200 45.16600
C  54.06200 26.77400 44.98200
C  55.30200 29.95800 46.28900
C  52.51000 28.59800 44.72300
O  51.85300 29.67500 44.74500
C  51.83700 27.34500 44.09400
C  51.84000 27.79200 42.59500
O  52.87900 27.87600 41.91200
O  50.60100 28.00700 42.14200
C  50.64900 28.68500 40.81700
H  53.61000 20.55200 44.01400
H  59.66100 22.28400 45.54900
H  57.70700 28.39700 46.59300
H  50.70000 24.49300 43.85600
H  51.78900 21.99500 42.94000
H  50.17200 21.46800 44.81900
H  50.61700 22.96600 45.57600
H  51.68000 21.67300 45.75200
H  51.67900 23.43500 41.39100
H  52.09400 25.04400 41.45900
H  49.51200 25.47500 42.00700
H  49.34900 23.74600 41.92900
H  56.37700 18.47900 43.49700
H  54.81600 19.02600 43.58900
H  55.46500 18.29800 45.10900
H  60.66500 20.04600 45.17700
H  60.43100 18.82800 46.40800
H  59.99700 20.48900 46.67000
H  60.69800 24.85400 45.35600
H  59.71200 26.75900 47.42700
H  61.19700 23.41000 47.17900
H  60.00700 24.21400 48.28700
H  61.58900 24.92200 47.88500
H  59.67300 28.24800 45.27500
H  60.60000 26.93700 44.55100
H  61.59600 29.14300 45.66500
H  62.55900 27.72900 45.37700
H  61.79400 27.91100 46.97900
H  55.26200 30.61700 45.42300
H  56.27000 30.00300 46.78700
H  54.47700 30.42500 46.82700
H  50.81100 27.34000 44.46000
H  51.38700 29.47700 40.68700
H  49.70400 29.20200 40.65000
H  50.73100 28.10600 39.89700
Mg 6.16300 55.68500 40.37000
C  3.36600 53.50400 40.44500
C  8.03300 53.13800 39.17200
C  8.59900 57.95300 39.71800
C  3.83300 58.28300 40.91600
N  5.66200 53.62300 39.71300
C  4.55000 52.94000 39.84800
C  4.67400 51.58400 39.15400
C  6.19700 51.36500 39.15700
C  6.69100 52.79100 39.37900
C  6.72800 50.31900 40.21300
C  4.11400 51.42500 37.70800
C  3.46800 50.01300 37.47300
H  4.12700 49.33600 36.33500
N  8.13200 55.61400 39.75800
C  8.71900 54.46700 39.26600
C  10.02500 54.74700 38.95200
C  10.20900 56.12100 38.99100
C  8.96600 56.63300 39.49400
C  11.08000 53.67800 38.48600
C  11.50900 56.78800 38.57500
O  12.54000 56.18700 38.22700
C  11.56800 58.28300 38.47500
N  6.11200 57.77400 40.18100
C  7.29400 58.40800 40.03700
C  7.11300 59.93500 40.20100
C  5.63500 60.02400 40.71100
C  5.16300 58.62700 40.58700
C  8.26300 60.61300 41.05400
C  4.80000 61.23300 40.18200
C  4.02700 62.09000 41.20200
N  4.04200 55.87600 40.80400
C  3.26600 57.00500 41.04900
C  2.03100 56.62400 41.53600
C  1.94900 55.17400 41.31700
C  3.21100 54.80900 40.79700
C  0.80500 57.53800 41.94400
C  1.16200 53.95600 41.47000
O  0.03200 53.79200 41.82500
C  2.08300 52.80400 40.93700
C  1.27600 52.09300 39.91000
O  1.05300 52.54800 38.84000
O  0.77200 50.92800 40.40800
C  -0.21200 50.22300 39.53700
H  8.73800 52.38600 38.81100
H  9.42200 58.66800 39.65900
H  3.16000 59.08200 41.23200
H  4.19300 50.81500 39.75900
H  6.57900 51.03900 38.19000
H  7.42400 50.76900 40.92000
H  7.28900 49.60400 39.61000
H  5.89500 49.93800 40.80300
H  4.84700 51.65400 36.93500
H  3.36600 52.17800 37.45700
H  2.39800 50.16900 37.33100
H  3.78000 49.36900 38.29500
H  10.66500 52.70000 38.24200
H  11.85300 53.52000 39.23800
H  11.60400 53.99200 37.58300
H  10.75000 58.66300 37.86300
H  12.53400 58.48500 38.01300
H  11.62500 58.55000 39.53000
H  7.07000 60.40800 39.22000
H  5.55000 60.16600 41.78900
H  7.81900 61.41200 41.64800
H  9.00800 60.94500 40.33200
H  8.77200 59.89800 41.70100
H  3.99900 60.92600 39.51000
H  5.46600 61.89100 39.62400
H  3.00000 61.74000 41.30300
H  3.86300 63.12100 40.88600
H  4.46300 62.03500 42.19900
H  -0.02100 57.09400 42.49900
H  0.50200 57.78600 40.92600
H  1.17700 58.46500 42.38000
H  2.21100 52.02700 41.69000
H  -0.61300 50.80900 38.71000
H  -1.06000 50.04600 40.19800
H  0.29000 49.27500 39.34200

