158

Mg 36.57200 49.18400 25.10600
C  36.65200 47.25800 28.08900
C  35.17600 51.87700 27.01900
C  35.84300 50.87000 22.35400
C  37.67500 46.46700 23.32300
N  36.01000 49.48600 27.30300
C  36.22200 48.54200 28.32800
C  35.96700 49.19600 29.67300
C  35.31100 50.57400 29.33000
C  35.48100 50.67100 27.78900
C  33.80700 50.79400 29.83000
C  37.34300 49.44800 30.44000
C  37.32800 49.10800 31.91100
H  36.00500 49.32700 32.68200
N  35.67100 51.11000 24.68600
C  35.19300 52.01200 25.62200
C  34.73500 53.13900 24.91200
C  34.99500 52.92800 23.56700
C  35.47600 51.54500 23.51800
C  34.17400 54.38000 25.53000
C  34.88200 53.85900 22.32900
O  35.02000 53.44100 21.18300
C  34.55700 55.22800 22.50200
N  36.71500 48.76900 23.05100
C  36.37200 49.63300 22.09600
C  36.92800 49.11200 20.73000
C  37.59000 47.79700 21.06300
C  37.37000 47.68100 22.54300
C  35.79400 49.11500 19.61500
C  39.05400 47.59800 20.60000
C  40.13300 48.45900 21.31600
N  36.93700 47.29800 25.57400
C  37.47000 46.31100 24.70500
C  37.92700 45.14100 25.55500
C  37.37800 45.39600 26.81100
C  36.90200 46.77900 26.79100
C  38.44400 43.83200 25.07500
C  37.27700 44.86500 28.14200
O  37.53600 43.72900 28.51200
C  36.84800 46.06500 29.00600
C  35.52900 45.78600 29.76500
O  34.44800 45.83400 29.23200
O  35.82200 45.36300 31.06600
C  34.64900 45.12100 31.88500
H  34.73200 52.70400 27.57600
H  35.69400 51.26500 21.34700
H  38.21200 45.71300 22.74500
H  35.26400 48.64500 30.29700
H  35.86600 51.36500 29.83400
H  33.26000 49.89400 30.11000
H  33.29900 51.09500 28.91400
H  33.63800 51.64000 30.49600
H  37.71800 50.47100 30.46800
H  38.05500 48.72400 30.04400
H  37.93200 49.73300 32.57000
H  37.57500 48.06000 32.07600
H  33.69100 54.19000 26.48800
H  33.34500 54.63300 24.87000
H  34.86600 55.22100 25.58600
H  33.50600 55.25900 22.79200
H  34.57100 55.68200 21.51200
H  35.26300 55.75300 23.14600
H  37.76900 49.78500 20.56700
H  36.98900 47.04200 20.55600
H  35.80800 50.01200 18.99600
H  34.85100 49.16000 20.15900
H  35.86200 48.24000 18.96800
H  39.06600 48.00100 19.58800
H  39.43300 46.57800 20.65000
H  40.85400 48.94000 20.65400
H  40.78800 47.83400 21.92300
H  39.67500 49.23700 21.92700
H  39.48600 43.98100 24.79400
H  37.88200 43.58900 24.17300
H  38.39200 43.11100 25.89100
H  37.56300 46.30200 29.79400
H  33.93000 45.93900 31.84500
H  34.95500 45.07700 32.93000
H  34.13100 44.21800 31.56200
Mg 9.60700 47.40400 26.66000
C  7.66000 46.99000 29.55000
C  12.04800 48.69200 28.54200
C  11.22800 48.10900 23.76200
C  6.83600 46.37000 24.73400
N  9.82700 47.84500 28.77700
C  8.96100 47.51700 29.78800
C  9.54400 47.91600 31.17000
C  10.90400 48.60500 30.77800
C  10.95800 48.38300 29.27000
C  10.97800 50.17000 31.09100
C  9.77500 46.82700 32.26100
C  9.52700 47.45900 33.66500
H  9.63900 46.49700 34.81500
N  11.46100 48.21700 26.20200
C  12.36500 48.61500 27.12200
C  13.61000 48.77300 26.43600
C  13.38200 48.51400 25.07400
C  11.96400 48.26700 24.96900
C  14.95400 49.04800 27.18900
C  14.38300 48.64100 23.92500
O  14.07900 48.36500 22.76300
C  15.87800 48.89900 24.16600
N  9.12600 47.42300 24.55000
C  9.95000 47.70600 23.50400
C  9.33200 47.48300 22.08900
C  8.18800 46.56400 22.53400
C  8.02500 46.80100 24.03700
C  8.97100 48.82800 21.38000
C  8.19900 45.10100 22.12600
C  8.74400 44.09300 23.17800
N  7.69000 46.77800 27.03300
C  6.68300 46.36000 26.12600
C  5.55700 45.91400 26.81500
C  5.86000 46.17000 28.19400
C  7.19300 46.68900 28.27500
C  4.23900 45.26200 26.27300
C  5.32200 46.12200 29.47300
O  4.22400 45.67700 29.85200
C  6.52000 46.50400 30.49400
C  6.74700 45.19000 31.20000
O  7.37400 44.28900 30.73000
O  6.26000 45.22200 32.44100
C  6.42600 44.06600 33.33800
H  12.91200 48.93700 29.16300
H  11.72300 48.47600 22.86000
H  5.96200 45.91600 24.26300
H  8.87000 48.61800 31.66100
H  11.85400 48.18600 31.11000
H  11.82800 50.32000 31.75600
H  10.11100 50.54200 31.63800
H  11.09300 50.74100 30.17000
H  10.74300 46.33200 32.19100
H  9.03500 46.04900 32.07100
H  8.48300 47.77200 33.65400
H  10.20000 48.30100 33.83000
H  15.49300 49.88700 26.74600
H  15.51300 48.11500 27.12000
H  14.91300 49.25600 28.25800
H  16.29500 48.23000 24.91900
H  15.91500 49.94500 24.46800
H  16.34300 48.81700 23.18400
H  10.03900 46.93900 21.46300
H  7.23100 46.98500 22.22600
H  9.38300 49.65500 21.95800
H  7.88100 48.83700 21.35200
H  9.39400 48.74800 20.37900
H  8.84400 44.99200 21.25400
H  7.19400 44.78600 21.84900
H  9.41000 44.53900 23.91600
H  9.37600 43.40300 22.61900
H  7.90700 43.55400 23.62400
H  4.46500 44.27500 25.87000
H  3.76700 45.79500 25.44800
H  3.43000 45.13300 26.99300
H  6.26700 47.25600 31.24100
H  6.70100 44.45300 34.31900
H  7.17300 43.34500 33.00600
H  5.50900 43.48500 33.42900

