158

Mg 40.37700 8.57200 28.93800
C  42.48200 9.80400 31.56100
C  38.38400 7.05200 31.40300
C  38.52900 7.44100 26.48800
C  42.83700 9.66000 26.57100
N  40.48500 8.42300 31.16400
C  41.35900 9.13500 32.01700
C  40.87600 9.02200 33.51800
C  39.75200 7.86200 33.40100
C  39.51200 7.71200 31.91600
C  39.96300 6.58000 34.16800
C  40.28200 10.42300 34.02500
C  41.07900 11.12100 35.15700
H  40.42300 11.94900 36.22600
N  38.71200 7.35900 28.91200
C  37.96900 6.85500 30.00000
C  36.82300 6.10000 29.51400
C  36.84100 6.20400 28.03500
C  38.04400 7.06700 27.76200
C  35.72500 5.48100 30.36300
C  35.97100 5.54700 27.01300
O  36.01000 5.76700 25.82300
C  34.95400 4.44700 27.34600
N  40.69100 8.48700 26.80900
C  39.71100 8.09300 26.02600
C  40.08400 8.30200 24.53100
C  41.37600 9.05000 24.60000
C  41.65900 9.08600 26.05300
C  40.09400 7.05900 23.59700
C  41.42500 10.37900 23.91900
C  40.76500 11.58500 24.53900
N  42.26300 9.54900 28.97900
C  43.12700 9.84800 27.96100
C  44.28300 10.49200 28.52000
C  44.00400 10.54500 29.92200
C  42.83100 9.92100 30.18200
C  45.59700 10.76300 27.92300
C  44.61000 10.84100 31.18600
O  45.72700 11.27700 31.39600
C  43.60000 10.49300 32.28800
C  44.30500 9.69000 33.31900
O  44.85300 8.60600 33.14000
O  44.34100 10.32000 34.55200
C  44.79100 9.38700 35.59100
H  37.72700 6.70300 32.20300
H  37.88800 7.09700 25.67400
H  43.63700 9.95200 25.88700
H  41.65800 8.73000 34.22000
H  38.82800 8.30800 33.76800
H  39.14700 6.30600 34.83600
H  40.85600 6.75000 34.76900
H  40.04000 5.66900 33.57400
H  39.25200 10.44500 34.37900
H  40.27900 11.05200 33.13400
H  41.77800 11.86000 34.76600
H  41.63900 10.28000 35.56600
H  34.76000 5.96800 30.21800
H  35.80300 5.64300 31.43800
H  35.76900 4.44600 30.02500
H  35.39400 3.73700 28.04600
H  34.78200 3.96600 26.38300
H  34.06700 4.86900 27.81700
H  39.26700 8.87700 24.09500
H  42.14400 8.41100 24.16400
H  40.72600 7.38800 22.77200
H  39.12600 6.79000 23.17400
H  40.53900 6.16600 24.03700
H  40.99100 10.23800 22.92900
H  42.48600 10.62700 23.89000
H  41.40500 12.45000 24.36600
H  40.42600 11.56200 25.57500
H  39.86200 11.83400 23.98100
H  46.41700 10.27500 28.45000
H  45.75600 11.84100 27.93200
H  45.80200 10.74400 26.85300
H  43.38000 11.48900 32.67100
H  44.11400 8.55000 35.76100
H  44.78400 10.00700 36.48800
H  45.75700 8.91500 35.41200
Mg 36.10700 49.25200 25.37200
C  36.37400 47.45000 28.33600
C  34.71800 51.92000 27.19000
C  35.65100 50.84800 22.55400
C  37.28200 46.46600 23.63900
N  35.46100 49.54100 27.45800
C  35.83700 48.73800 28.50200
C  35.61300 49.46600 29.79800
C  34.95400 50.83300 29.45800
C  35.11000 50.77600 27.95800
C  33.49400 51.04000 29.89900
C  36.96200 49.78800 30.53100
C  36.82800 50.06400 32.07600
H  35.41300 50.06000 32.79500
N  35.16200 51.09600 24.90800
C  34.68800 52.09500 25.77600
C  34.26900 53.28400 25.07000
C  34.52600 52.98800 23.68000
C  35.11600 51.62300 23.65100
C  33.78700 54.63400 25.72400
C  34.19500 53.74500 22.45000
O  34.41000 53.29500 21.36300
C  33.40600 55.08900 22.47900
N  36.27800 48.70200 23.37700
C  36.09700 49.57200 22.38100
C  36.39000 48.92000 20.95600
C  37.15700 47.63900 21.38100
C  36.90500 47.57100 22.89700
C  35.08700 48.60700 20.17800
C  38.61500 47.59900 20.86300
C  39.60400 48.51500 21.64400
N  36.61400 47.27100 25.81000
C  37.22400 46.27300 25.04300
C  37.47100 45.07600 25.84600
C  37.22200 45.57500 27.17800
C  36.72700 46.91100 27.10500
C  37.92600 43.72200 25.56800
C  37.28200 45.18200 28.54600
O  37.73900 44.12100 28.99100
C  36.71000 46.37000 29.39500
C  35.33500 45.92200 29.81800
O  34.44700 45.42600 29.16100
O  35.33600 46.09000 31.20700
C  34.24000 45.55300 31.96100
H  34.38200 52.79000 27.75800
H  35.56600 51.40000 21.61600
H  37.92300 45.78200 23.07800
H  34.89600 48.93800 30.42700
H  35.56300 51.66900 29.80300
H  32.75200 51.19100 29.11400
H  33.51400 51.98000 30.45100
H  33.09900 50.21600 30.49300
H  37.50500 50.61100 30.06700
H  37.62200 48.92700 30.42300
H  37.28200 51.04200 32.23800
H  37.41500 49.35600 32.66100
H  34.40100 55.49200 25.45000
H  33.81100 54.55600 26.81100
H  32.74900 54.83800 25.46200
H  33.34300 55.46600 21.45800
H  33.95900 55.86100 23.01300
H  32.40400 54.93100 22.87900
H  36.99600 49.65500 20.42500
H  36.59000 46.82800 20.92400
H  34.20400 48.85400 20.76600
H  35.08300 47.57300 19.83200
H  35.08100 49.40100 19.43100
H  38.45200 47.81300 19.80600
H  38.91800 46.55200 20.88300
H  40.13700 47.79900 22.27000
H  39.04300 49.20000 22.27900
H  40.27600 49.04200 20.96600
H  38.56100 43.75700 24.68300
H  37.06100 43.08200 25.39500
H  38.48300 43.30900 26.40900
H  37.42700 46.58200 30.18800
H  33.57700 46.38600 32.19600
H  34.47000 45.08100 32.91600
H  33.66500 44.88700 31.31700

