158

Mg 24.23900 -7.31200 48.28300
C  26.61700 -4.97500 47.04500
C  21.98500 -6.18000 45.73900
C  22.10600 -9.47300 49.33600
C  26.83500 -8.61900 50.18000
N  24.31600 -5.78900 46.70500
C  25.37600 -5.00400 46.35100
C  24.99600 -3.93900 45.34800
C  23.41500 -4.09700 45.24700
C  23.19500 -5.44800 45.97200
C  22.62000 -2.87600 45.81200
C  25.77300 -4.03900 43.97000
C  26.45400 -2.76300 43.52300
H  25.87300 -2.10800 42.30500
N  22.31500 -7.83800 47.55500
C  21.48900 -7.24600 46.55200
C  20.23300 -7.89700 46.51100
C  20.14700 -8.73600 47.59600
C  21.56200 -8.76900 48.22500
C  19.14900 -7.50300 45.46600
C  18.90700 -9.57600 48.00600
O  17.85500 -9.46400 47.37600
C  18.91400 -10.59700 49.09900
N  24.42300 -8.95300 49.44100
C  23.35300 -9.60200 49.90200
C  23.72500 -10.75400 50.91400
C  25.31400 -10.53300 51.03400
C  25.55200 -9.27500 50.17200
C  22.93100 -10.70300 52.32000
C  26.28000 -11.71200 50.69100
C  26.82100 -11.80300 49.22200
N  26.33200 -6.86100 48.70000
C  27.28200 -7.49000 49.43200
C  28.59700 -6.82700 49.35300
C  28.38200 -5.71200 48.45400
C  27.01800 -5.83700 48.04700
C  29.84900 -7.25700 50.07800
C  28.96200 -4.58000 47.73400
O  30.13700 -4.19600 47.67300
C  27.85200 -4.11100 46.75500
C  27.73600 -2.66500 47.09100
O  27.11000 -2.19400 48.06100
O  28.18400 -1.90600 46.07100
C  27.72700 -0.51900 46.19200
H  21.29200 -5.81500 44.97800
H  21.36500 -10.17100 49.73300
H  27.63400 -9.13400 50.71800
H  25.20700 -2.94000 45.72800
H  23.03500 -4.23000 44.23400
H  23.26600 -2.02300 46.02100
H  22.04400 -3.35000 46.60700
H  21.90700 -2.50500 45.07700
H  24.96000 -4.10900 43.24800
H  26.44800 -4.89400 43.92500
H  27.46900 -3.08500 43.29000
H  26.52000 -1.96200 44.26000
H  18.50400 -6.68100 45.77600
H  18.55000 -8.38400 45.23500
H  19.48000 -7.26900 44.45500
H  17.95400 -11.07100 49.30000
H  19.14100 -10.05400 50.01600
H  19.71200 -11.32900 48.97800
H  23.57600 -11.69500 50.38600
H  25.44000 -10.09100 52.02300
H  22.43200 -9.74600 52.46900
H  23.61700 -10.83600 53.15700
H  22.23600 -11.54200 52.33000
H  25.91900 -12.68100 51.03600
H  27.05200 -11.71100 51.46000
H  26.88800 -12.88100 49.07900
H  27.76800 -11.27000 49.13800
H  25.98300 -11.47200 48.60800
H  30.26000 -8.20800 49.73700
H  29.51100 -7.51300 51.08200
H  30.61300 -6.48100 50.04000
H  28.21600 -4.14000 45.72800
H  28.15400 0.02300 45.34800
H  28.17200 0.03500 47.01900
H  26.64200 -0.56400 46.10400
Mg 42.91000 41.93100 25.65700
C  42.18800 44.15400 28.24300
C  43.97900 39.76800 28.10000
C  44.03300 40.04400 23.20800
C  42.21800 44.51600 23.31900
N  42.98500 41.91800 27.95700
C  42.65100 42.95500 28.78900
C  42.71200 42.63200 30.28500
C  43.53900 41.26200 30.18800
C  43.57200 40.96700 28.69300
C  45.03600 41.33400 30.74600
C  41.31200 42.49500 30.99300
C  41.18300 41.80000 32.25500
H  40.45200 42.57800 33.40900
N  43.81800 40.11000 25.64700
C  44.15100 39.31800 26.76500
C  44.63200 38.06500 26.30100
C  44.51500 38.08000 24.88300
C  44.22500 39.49800 24.52800
C  44.83200 36.86700 27.19000
C  44.61300 36.97400 23.92400
O  44.43200 37.19400 22.74200
C  44.65400 35.46500 24.36500
N  43.33400 42.33500 23.58400
C  43.63200 41.29600 22.77500
C  43.54100 41.71900 21.29300
C  42.95200 43.18000 21.28600
C  42.76300 43.33700 22.84500
C  44.79800 41.50300 20.46200
C  41.72300 43.49100 20.37700
C  40.32400 43.11000 20.90700
N  42.43900 43.88300 25.66800
C  42.04800 44.80800 24.65600
C  41.47200 45.96000 25.30000
C  41.48500 45.68100 26.66200
C  42.04300 44.42600 26.85900
C  40.90600 47.15600 24.48900
C  41.08400 46.20100 27.93100
O  40.52700 47.25500 28.15100
C  41.58100 45.27600 29.07000
C  42.61100 46.02600 29.77800
O  43.72100 46.36600 29.33800
O  42.17600 46.45600 30.97700
C  43.02400 47.37700 31.65800
H  44.23800 39.07000 28.89900
H  44.24600 39.45200 22.31500
H  41.81100 45.28100 22.65500
H  43.25100 43.32800 30.92800
H  43.08200 40.46500 30.77400
H  45.34700 42.37800 30.74400
H  45.65300 40.79600 30.02700
H  45.25400 40.86100 31.70400
H  40.64900 42.05700 30.24800
H  41.04400 43.53100 31.20400
H  42.17200 41.48200 32.58400
H  40.65100 40.86500 32.07700
H  44.89600 37.16700 28.23600
H  45.71500 36.24400 27.05000
H  43.96800 36.20500 27.13300
H  44.72300 34.91300 23.42700
H  43.65700 35.34300 24.78900
H  45.45200 35.05400 24.98300
H  42.72200 41.13500 20.87400
H  43.71400 43.91700 21.03500
H  45.65200 41.25700 21.09300
H  45.08600 42.32200 19.80300
H  44.70200 40.61700 19.83600
H  41.95300 43.14300 19.37000
H  41.73000 44.58100 20.41300
H  40.52300 42.33900 21.65100
H  39.70900 42.60600 20.16200
H  39.90000 43.97800 21.41300
H  40.71000 46.91000 23.44600
H  41.67200 47.93000 24.44600
H  40.12100 47.73500 24.97500
H  40.81100 44.95200 29.77000
H  43.75700 46.75600 32.17300
H  42.43100 47.98300 32.34200
H  43.59500 47.97800 30.95000

