158

Mg 48.28500 15.47300 28.71100
C  46.40800 15.55200 31.68000
C  50.75300 17.23400 30.32000
C  49.67000 15.97400 25.73800
C  45.47800 14.15700 27.11300
N  48.50100 16.41700 30.74400
C  47.65900 16.17100 31.81200
C  48.28000 16.63200 33.15400
C  49.53800 17.41300 32.63200
C  49.62000 17.00700 31.12700
C  49.55300 18.92600 32.68000
C  48.55200 15.39600 34.09900
C  48.29300 15.59000 35.59600
H  48.07000 16.98600 36.17200
N  50.04400 16.35800 28.16400
C  50.97500 16.88900 29.00400
C  52.17200 17.15000 28.18100
C  51.94400 16.74300 26.85000
C  50.50900 16.34000 26.86500
C  53.32100 17.89400 28.81700
C  52.88900 16.80500 25.65800
O  52.52400 16.44200 24.54500
C  54.33000 17.38400 25.79300
N  47.60300 15.11600 26.66000
C  48.41400 15.51200 25.62100
C  47.70600 15.23700 24.21900
C  46.24700 14.63500 24.70100
C  46.42000 14.60800 26.23100
C  47.69000 16.32300 23.09800
C  46.02400 13.26300 24.09700
C  44.89300 13.02200 23.05000
N  46.33600 14.84300 29.20200
C  45.32400 14.36700 28.50000
C  44.12700 14.16400 29.33700
C  44.54000 14.53700 30.59500
C  45.86300 15.06600 30.49600
C  42.77100 13.67400 28.81700
C  44.18100 14.65800 31.98900
O  43.06200 14.44700 32.43000
C  45.34700 15.30200 32.75800
C  44.78300 16.58100 33.35100
O  44.83900 17.68000 32.78200
O  44.13100 16.32000 34.49600
C  43.72800 17.41500 35.28100
H  51.58200 17.76300 30.79600
H  50.17100 16.06400 24.77200
H  44.59000 13.67000 26.70600
H  47.41400 17.13300 33.58700
H  50.40200 17.04000 33.18200
H  49.79600 19.44000 31.75000
H  50.32100 19.20600 33.40100
H  48.56200 19.24400 33.00500
H  49.59500 15.16000 33.88800
H  47.85900 14.61000 33.79800
H  49.12100 15.10100 36.10900
H  47.34700 15.05300 35.67000
H  53.71500 18.69800 28.19500
H  54.08800 17.20300 29.16900
H  52.92900 18.43900 29.67600
H  54.92500 17.18500 24.90200
H  54.90100 16.85400 26.55500
H  54.27700 18.44600 26.03000
H  48.28100 14.39900 23.82600
H  45.47000 15.29900 24.32300
H  46.85100 16.17700 22.41700
H  48.56700 16.20400 22.46100
H  47.64700 17.23300 23.69600
H  45.62300 12.62200 24.88200
H  46.92100 12.83500 23.65000
H  44.39500 13.98000 22.89800
H  44.29800 12.15600 23.34300
H  45.36000 12.83300 22.08300
H  42.64500 13.81200 27.74300
H  41.99800 14.35300 29.17600
H  42.46300 12.67600 29.12900
H  45.61600 14.64700 33.58700
H  42.91900 17.95900 34.79400
H  44.60200 18.03300 35.48600
H  43.38600 17.09900 36.26700
Mg 9.38000 47.35100 25.05500
C  7.11400 47.83900 27.58500
C  11.85300 48.51100 27.13700
C  11.59800 47.20800 22.37900
C  6.80900 46.67700 22.80500
N  9.45900 48.06100 27.16900
C  8.41800 48.13100 28.07100
C  8.93700 48.45300 29.46300
C  10.34200 49.06100 29.20000
C  10.59100 48.43900 27.80100
C  10.51000 50.56300 29.28000
C  9.04400 47.21000 30.38700
C  8.59300 47.57600 31.80800
H  8.91200 46.59900 32.96500
N  11.46400 47.61800 24.84000
C  12.27100 48.02900 25.83800
C  13.66900 48.05400 25.34600
C  13.62600 47.69400 23.98100
C  12.14100 47.53900 23.67600
C  14.88500 48.30400 26.22500
C  14.81500 47.37800 23.01800
O  14.66300 46.82700 21.94200
C  16.23600 47.79100 23.44200
N  9.24100 46.95300 22.96700
C  10.25500 46.94000 22.10500
C  9.87500 46.64500 20.59100
C  8.37700 46.36000 20.80600
C  8.06800 46.56000 22.31100
C  10.32800 47.63000 19.49800
C  8.05100 44.90000 20.43700
C  8.56700 43.78800 21.34700
N  7.35000 47.29700 25.12900
C  6.40400 46.96400 24.12500
C  5.07200 47.02900 24.70100
C  5.30700 47.35400 26.04500
C  6.70400 47.49700 26.26100
C  3.84200 46.80700 24.00000
C  4.68400 47.58700 27.26700
O  3.48500 47.48400 27.54400
C  5.83800 47.96500 28.29600
C  5.70500 46.87700 29.31300
O  5.98200 45.69800 29.17700
O  5.14100 47.43600 30.43800
C  4.64000 46.45600 31.36000
H  12.65400 48.94600 27.73800
H  12.17900 47.08400 21.46300
H  6.10300 46.47600 21.99700
H  8.37100 49.32300 29.79500
H  11.18300 48.60900 29.72600
H  10.24900 50.92600 28.28600
H  11.56100 50.71300 29.52900
H  9.76000 50.94900 29.97100
H  10.02400 46.74900 30.50600
H  8.45600 46.35000 30.06800
H  7.51000 47.61700 31.69200
H  8.84600 48.62700 31.94200
H  14.51300 48.43400 27.24100
H  15.42200 49.21200 25.95200
H  15.60200 47.50400 26.03700
H  16.79100 47.08700 24.06100
H  16.22700 48.78800 23.88400
H  16.84700 47.88100 22.54400
H  10.39800 45.70200 20.42900
H  7.78400 47.02800 20.18200
H  10.95800 48.31300 20.06800
H  9.47300 48.16800 19.08900
H  10.77500 47.01900 18.71400
H  8.34800 44.72500 19.40300
H  6.97400 44.74000 20.38500
H  9.32700 44.06300 22.07800
H  8.91300 43.01100 20.66500
H  7.75000 43.29400 21.87300
H  4.03600 45.96600 23.33500
H  3.43100 47.72700 23.58500
H  3.02500 46.37200 24.57700
H  5.59300 48.95600 28.67700
H  4.56600 46.88900 32.35800
H  5.23900 45.54600 31.38700
H  3.61200 46.22900 31.07800

