158

Mg 40.46100 9.89600 30.25800
C  42.12000 11.15700 33.00400
C  37.97900 8.85200 32.37200
C  39.01400 8.36200 27.63900
C  43.07300 10.85600 28.16400
N  40.16900 9.98200 32.56100
C  40.87400 10.67200 33.41200
C  40.26900 10.79000 34.79400
C  38.97600 9.89100 34.60400
C  38.97900 9.57600 33.07300
C  38.98800 8.58900 35.43100
C  39.97300 12.25400 35.25200
C  40.85600 12.78100 36.49400
H  40.12700 13.47100 37.66000
N  38.65000 8.89000 30.00100
C  37.76000 8.56900 30.99900
C  36.53100 7.97300 30.40400
C  36.85400 7.85000 28.99400
C  38.27600 8.27700 28.80100
C  35.38300 7.45700 31.26900
C  36.01800 7.31800 27.89000
O  36.39100 7.16100 26.72800
C  34.55000 7.00000 28.17000
N  40.90400 9.74400 28.11800
C  40.18300 8.98200 27.30800
C  40.68100 9.15100 25.80800
C  42.12700 9.80600 25.99100
C  42.06300 10.18000 27.51000
C  40.61800 7.89800 24.94000
C  42.36200 10.96700 25.08400
C  41.61600 12.31200 25.48000
N  42.22600 10.84400 30.46600
C  43.23100 11.14000 29.52700
C  44.23900 11.84400 30.25200
C  43.89000 11.84900 31.57000
C  42.65600 11.18900 31.66500
C  45.46000 12.49500 29.58600
C  44.28100 12.33200 32.94000
O  45.22900 13.05700 33.23200
C  43.15200 11.81300 33.87700
C  43.69700 10.82600 34.89800
O  43.73400 9.58900 34.79900
O  44.19500 11.58900 35.95600
C  44.94700 10.96200 36.99300
H  37.22400 8.54600 33.09900
H  38.53400 7.93000 26.75800
H  43.89600 11.13500 27.50300
H  40.96700 10.33000 35.49300
H  38.06000 10.42400 34.85700
H  39.67500 8.70200 36.27000
H  39.32100 7.68300 34.92500
H  37.97300 8.47400 35.81200
H  38.90400 12.37600 35.42800
H  40.23800 12.82900 34.36500
H  41.51700 13.55200 36.09700
H  41.36600 11.87400 36.81900
H  35.46200 7.54500 32.35300
H  35.31900 6.39400 31.03700
H  34.44900 7.93300 30.97100
H  34.00700 6.69800 27.27400
H  34.12900 7.94800 28.50200
H  34.54900 6.17700 28.88600
H  39.94400 9.87100 25.45300
H  42.97200 9.11700 25.97900
H  40.57400 7.04000 25.61100
H  41.47000 7.78100 24.27100
H  39.70900 7.82700 24.34200
H  42.10900 10.94800 24.02400
H  43.43400 11.16200 25.07400
H  41.44200 13.08000 24.72700
H  42.22200 12.75800 26.26900
H  40.72400 12.07900 26.06100
H  46.32100 11.82800 29.62400
H  45.42000 13.46300 30.08600
H  45.33100 12.63400 28.51300
H  42.74200 12.71600 34.33000
H  44.28000 10.18400 37.36500
H  45.18900 11.58900 37.85100
H  45.87000 10.50600 36.63700
Mg -6.23800 24.64500 26.04700
C  -4.40900 25.92200 28.81000
C  -8.11900 22.63000 28.15800
C  -7.49400 22.92100 23.41300
C  -4.13000 26.48500 24.03800
N  -6.22600 24.30700 28.20300
C  -5.33300 24.91500 29.10100
C  -5.76600 24.39900 30.60700
C  -6.65600 23.19300 30.30800
C  -7.10800 23.39400 28.80500
C  -5.91700 21.86800 30.57400
C  -6.55600 25.54900 31.37300
C  -5.80400 26.01600 32.64700
H  -5.53100 25.00500 33.84600
N  -7.73000 23.11400 25.77900
C  -8.39100 22.51500 26.74700
C  -9.43400 21.64900 26.13300
C  -9.22200 21.67900 24.76900
C  -8.08600 22.58100 24.59100
C  -10.49000 20.83700 26.94200
C  -9.89600 20.99100 23.61600
O  -9.57700 21.16100 22.46300
C  -10.91400 20.01000 23.93400
N  -5.60900 24.45000 24.10000
C  -6.34500 23.71200 23.17000
C  -5.80000 23.94900 21.74400
C  -4.72600 25.14900 21.92800
C  -4.80800 25.39200 23.44900
C  -5.28300 22.64300 21.05100
C  -5.05700 26.36500 20.94100
C  -3.90800 26.89500 20.03100
N  -4.70200 26.13600 26.31600
C  -3.98900 26.76900 25.35900
C  -3.11100 27.72100 25.95800
C  -3.18400 27.44700 27.36500
C  -4.20100 26.47400 27.49700
C  -2.18600 28.65800 25.25900
C  -2.58900 27.72700 28.70200
O  -1.64700 28.41200 29.10600
C  -3.42700 26.72000 29.61200
C  -2.47100 25.81500 30.29300
O  -2.12900 24.74400 29.99400
O  -2.06900 26.37100 31.47500
C  -1.28700 25.45900 32.38000
H  -8.65200 22.00700 28.87900
H  -7.77300 22.45400 22.46600
H  -3.50600 26.95500 23.27500
H  -4.87000 24.15800 31.17900
H  -7.55300 23.16900 30.92700
H  -4.92700 21.95400 31.02100
H  -5.83000 21.31300 29.64000
H  -6.45200 21.20800 31.25800
H  -7.62900 25.38700 31.48000
H  -6.50500 26.40100 30.69500
H  -6.31600 26.86900 33.09100
H  -4.82600 26.31100 32.26700
H  -10.28600 20.70200 28.00500
H  -10.60700 19.79200 26.65400
H  -11.51100 21.11800 26.68500
H  -11.33600 19.49700 23.06900
H  -11.68400 20.55900 24.47700
H  -10.32300 19.27900 24.48400
H  -6.69200 24.23000 21.18500
H  -3.79100 24.62300 21.73700
H  -5.56700 21.76500 21.63200
H  -4.20100 22.74600 21.13700
H  -5.49200 22.66600 19.98200
H  -5.31700 27.21800 21.56700
H  -5.90400 26.15800 20.28700
H  -3.83800 27.96300 20.23600
H  -4.21800 26.72400 19.00000
H  -2.95500 26.37100 20.10000
H  -2.71000 29.59500 25.07500
H  -1.93400 28.24900 24.28000
H  -1.35900 28.79100 25.95700
H  -3.89900 27.37300 30.34600
H  -0.35900 25.19500 31.87300
H  -1.86000 24.57700 32.66600
H  -1.04800 26.06100 33.25700

