158

Mg 17.27000 52.56500 25.73500
C  19.01700 50.99400 28.42700
C  14.88600 53.44200 27.81700
C  15.37900 53.29500 23.00700
C  19.58200 50.88100 23.45100
N  17.05900 52.29900 27.90300
C  17.95700 51.80900 28.79700
C  17.40600 51.95700 30.22700
C  15.93300 52.51400 29.96800
C  16.00300 52.86900 28.52300
C  14.73800 51.59000 30.43200
C  18.30200 52.81300 31.05500
C  18.01200 52.89800 32.57800
H  16.92900 52.01000 33.29700
N  15.44500 53.50500 25.49100
C  14.60000 53.76700 26.48100
C  13.37500 54.46300 25.97900
C  13.55400 54.40000 24.50300
C  14.85700 53.74000 24.26300
C  12.22400 54.92500 26.83100
C  12.63500 54.88700 23.43900
O  12.88900 54.90300 22.27000
C  11.28100 55.46700 23.83100
N  17.52500 52.12300 23.56100
C  16.55000 52.59800 22.67800
C  16.95200 52.36400 21.22500
C  18.36200 51.80400 21.40200
C  18.52600 51.62100 22.93200
C  16.05400 51.51300 20.31100
C  19.45400 52.66400 20.86600
C  20.64900 52.03800 20.03000
N  18.99100 51.15100 25.86100
C  19.80600 50.57000 24.85600
C  20.85100 49.80300 25.52600
C  20.59600 49.92500 26.91500
C  19.41800 50.71900 27.06500
C  22.04700 49.13700 24.90700
C  21.04100 49.55000 28.26100
O  22.05900 48.98900 28.63200
C  19.92800 50.11200 29.20700
C  19.16300 49.00600 29.78400
O  18.15300 48.43900 29.37800
O  19.56700 48.83700 31.08500
C  18.69900 48.01900 31.94200
H  14.04700 53.65600 28.48300
H  14.77500 53.50200 22.12100
H  20.29800 50.38900 22.78900
H  17.43900 50.96900 30.68500
H  15.84500 53.42200 30.56500
H  14.12700 51.31200 29.57300
H  14.12400 52.18600 31.10700
H  15.12600 50.67400 30.87900
H  17.99500 53.81200 30.74700
H  19.37900 52.64300 31.04900
H  17.94400 53.94900 32.85700
H  18.96300 52.52100 32.95500
H  12.51800 54.79900 27.87400
H  11.33200 54.31800 26.68200
H  11.91800 55.96900 26.75600
H  11.40400 56.43400 24.31800
H  10.65400 54.77900 24.39900
H  10.67000 55.69300 22.95700
H  17.03200 53.26800 20.62100
H  18.40300 50.79000 21.00300
H  15.62500 50.65500 20.82700
H  16.65000 51.17200 19.46400
H  15.21100 52.08500 19.92200
H  19.83300 53.33400 21.63800
H  18.94600 53.24400 20.09600
H  21.47300 52.64500 20.40400
H  20.51600 52.30800 18.98300
H  20.67800 50.95800 20.17600
H  22.94600 49.75300 24.91900
H  21.89600 48.67100 23.93300
H  22.24800 48.30500 25.58200
H  20.34500 50.66000 30.05200
H  18.71100 48.41600 32.95700
H  19.17300 47.03800 31.98000
H  17.67900 47.90800 31.57500
Mg -10.17700 39.31100 40.24400
C  -9.38100 35.99400 39.13400
C  -7.01900 40.26200 39.29700
C  -11.38000 42.49100 40.14200
C  -13.52600 38.28100 40.92500
N  -8.46100 38.21000 39.09800
C  -8.32000 36.90900 38.94700
C  -6.91700 36.58700 38.53000
C  -6.08700 37.90500 38.90200
C  -7.27600 38.83800 39.15600
C  -5.22900 37.83600 40.14800
C  -6.86400 36.23100 36.99700
C  -7.49300 37.11100 35.94200
H  -8.68200 36.55700 35.16100
N  -9.30100 41.15600 39.90100
C  -7.97600 41.35000 39.51600
C  -7.79100 42.80100 39.29100
C  -8.98500 43.48100 39.55700
C  -9.96400 42.39500 39.96800
C  -6.43800 43.31600 38.73200
C  -9.16800 44.98100 39.19500
O  -8.22300 45.61700 38.74200
C  -10.48500 45.67400 39.31300
N  -12.11600 40.17900 40.53500
C  -12.34500 41.51600 40.42000
C  -13.86300 41.84900 40.68100
C  -14.49400 40.42500 40.81300
C  -13.32400 39.60600 40.79000
C  -14.03700 42.80700 41.90900
C  -15.67600 40.14300 39.72800
C  -17.07200 40.54100 40.15800
N  -11.23200 37.59000 40.15900
C  -12.58800 37.26500 40.49200
C  -12.81500 35.86700 40.31400
C  -11.62100 35.35400 39.81900
C  -10.64200 36.42200 39.68600
C  -14.03000 35.08000 40.89800
C  -10.87700 34.11800 39.33800
O  -11.28900 32.96200 39.13100
C  -9.48200 34.55000 38.95200
C  -8.44800 33.66400 39.62800
O  -8.34200 33.61600 40.87000
O  -7.50100 33.25100 38.73400
C  -6.33200 32.57100 39.23900
H  -6.00000 40.55300 39.03400
H  -11.82500 43.48800 40.11000
H  -14.47100 37.87300 41.29200
H  -6.47300 35.72700 39.03200
H  -5.47400 38.22400 38.06000
H  -4.29700 38.35000 39.91300
H  -5.08200 36.77700 40.36200
H  -5.70200 38.28100 41.02300
H  -7.27100 35.22400 36.90600
H  -5.78800 36.13600 36.85500
H  -6.69900 37.17700 35.19900
H  -7.56000 38.10100 36.39400
H  -6.42600 43.28200 37.64300
H  -5.73500 42.57400 39.11100
H  -6.24600 44.32200 39.10400
H  -10.83700 45.69000 40.34500
H  -11.28700 45.14500 38.79900
H  -10.50900 46.65300 38.83500
H  -14.21900 42.27500 39.74300
H  -14.93000 40.31400 41.80600
H  -13.03600 43.01700 42.28700
H  -14.61000 42.30400 42.68800
H  -14.46700 43.78500 41.69600
H  -15.61700 39.15100 39.28100
H  -15.48900 40.83900 38.90900
H  -17.67100 39.63300 40.10100
H  -17.46100 41.34500 39.53300
H  -17.21200 40.80700 41.20600
H  -14.93100 35.18000 40.29300
H  -14.29100 35.31900 41.92900
H  -13.65500 34.05800 40.94300
H  -9.22200 34.32900 37.91700
H  -6.58600 32.05600 40.16600
H  -5.48800 33.22700 39.44800
H  -6.10100 31.81500 38.48900

