158

Mg 23.73700 -5.73000 45.89600
C  26.11800 -3.54700 44.20800
C  21.39100 -4.58000 43.75500
C  22.08600 -8.42100 46.68300
C  26.65700 -6.85800 47.70200
N  23.83700 -4.15700 44.21900
C  24.83900 -3.41700 43.68700
C  24.36600 -2.55600 42.50900
C  22.83600 -2.81700 42.51500
C  22.64100 -3.89900 43.60200
C  21.96100 -1.55400 42.87100
C  25.13400 -2.96800 41.20500
C  25.82400 -1.88600 40.35700
H  25.33700 -1.65800 38.93800
N  21.81500 -6.38000 45.41600
C  21.01700 -5.82500 44.46400
C  19.73600 -6.53200 44.55600
C  19.88300 -7.57400 45.55400
C  21.29700 -7.52200 45.96700
C  18.63900 -6.17700 43.71900
C  18.79600 -8.54800 45.74300
O  17.67300 -8.41400 45.29300
C  19.04700 -9.75700 46.66500
N  24.45400 -7.55800 46.75300
C  23.46400 -8.40600 47.13800
C  24.02500 -9.55300 47.96400
C  25.46400 -9.04000 48.31000
C  25.55100 -7.72000 47.55100
C  23.24700 -9.88600 49.28600
C  26.61900 -9.96900 47.92500
C  27.21600 -10.81600 49.08300
N  25.92600 -5.18800 46.05800
C  26.84200 -5.59700 46.95600
C  28.03300 -4.81100 46.93000
C  27.79400 -4.05700 45.74800
C  26.45300 -4.28500 45.35200
C  29.32500 -4.96700 47.75200
C  28.45400 -3.13700 44.86700
O  29.53500 -2.61800 44.86700
C  27.32200 -2.73000 43.87500
C  27.17500 -1.26400 44.03900
O  26.76800 -0.67000 44.97300
O  27.66200 -0.73900 42.90200
C  27.36900 0.67400 42.67500
H  20.56700 -4.16400 43.17100
H  21.39600 -9.22100 46.95700
H  27.42100 -7.08000 48.44900
H  24.60500 -1.53300 42.79800
H  22.48700 -3.32100 41.61400
H  22.27100 -1.31900 43.88900
H  20.89000 -1.75600 42.83900
H  22.26100 -0.77500 42.17100
H  24.39000 -3.36800 40.51700
H  25.87600 -3.71300 41.49300
H  26.89000 -2.09600 40.26900
H  25.68800 -0.92200 40.84800
H  17.81700 -6.06700 44.42500
H  18.32600 -6.94500 43.01100
H  18.69600 -5.17400 43.29600
H  18.14600 -10.36200 46.77400
H  19.26300 -9.29500 47.62800
H  19.81100 -10.39500 46.22200
H  23.84700 -10.44900 47.36800
H  25.56300 -8.89000 49.38500
H  22.44200 -9.17700 49.47600
H  23.80900 -9.98000 50.21500
H  22.67100 -10.78500 49.06600
H  27.42800 -9.40100 47.46500
H  26.14200 -10.60500 47.17900
H  26.78500 -10.56700 50.05200
H  28.29400 -10.67900 48.99900
H  27.10300 -11.90000 49.04200
H  29.97900 -5.58400 47.13500
H  29.05900 -5.41100 48.71100
H  29.67600 -3.95100 47.92800
H  27.58800 -2.96000 42.84300
H  26.38000 0.90800 43.07000
H  27.26300 0.77400 41.59500
H  28.16700 1.34000 43.00400
Mg 30.03600 58.04200 40.58000
C  27.10300 56.04100 39.75000
C  31.88100 55.51600 39.50900
C  32.51800 60.12600 40.43000
C  27.85100 60.52200 41.49600
N  29.47400 55.97800 39.66500
C  28.29900 55.40900 39.33100
C  28.50400 54.26700 38.32500
C  29.97000 53.95800 38.59400
C  30.51200 55.22500 39.30400
C  30.32700 52.64500 39.39300
C  28.18000 54.76500 36.88500
C  27.64300 53.65900 35.96400
H  27.96200 53.62400 34.45800
N  32.00100 57.81700 40.08400
C  32.63200 56.70900 39.74600
C  34.01400 56.89400 39.67200
C  34.18200 58.25400 39.90600
C  32.87200 58.80000 40.18300
C  34.98500 55.83100 39.36700
C  35.57900 58.96200 39.94100
O  36.64600 58.32700 39.82900
C  35.75800 60.44400 40.11400
N  30.11600 60.02100 40.84300
C  31.27400 60.68800 40.69500
C  31.11700 62.21200 40.78500
C  29.71700 62.22500 41.54200
C  29.20100 60.84000 41.34900
C  32.17900 62.86000 41.73800
C  28.73400 63.41100 41.21500
C  28.19400 64.21100 42.37400
N  27.81800 58.31900 40.63800
C  27.16600 59.39600 41.12400
C  25.73600 59.05400 41.05200
C  25.67000 57.75800 40.44700
C  26.99800 57.33300 40.29500
C  24.62800 59.91300 41.40300
C  24.73300 56.69100 40.03600
O  23.49200 56.66100 40.10900
C  25.66100 55.56700 39.53000
C  25.32600 54.35700 40.29500
O  25.95100 53.88200 41.24800
O  24.19500 53.75200 39.69900
C  23.77600 52.41300 40.12600
H  32.48100 54.76300 38.99300
H  33.29700 60.89100 40.45100
H  27.23500 61.37500 41.78800
H  27.85400 53.45100 38.64100
H  30.41800 53.78800 37.61500
H  29.45800 52.20000 39.87800
H  31.14500 52.84300 40.08400
H  30.70400 51.91700 38.67400
H  29.10100 55.11200 36.41700
H  27.27100 55.36700 36.85000
H  26.56300 53.80200 35.98400
H  27.73500 52.66500 36.40300
H  35.96500 56.21100 39.07900
H  34.54600 55.05800 38.73600
H  35.07100 55.32100 40.32600
H  35.24200 60.98900 39.32300
H  36.81400 60.66300 39.96100
H  35.46700 60.72000 41.12800
H  30.97800 62.74000 39.84100
H  29.87900 62.25000 42.62000
H  31.66200 63.56100 42.39400
H  32.86100 63.41700 41.09500
H  32.70500 62.23500 42.45900
H  27.90700 63.06800 40.59300
H  29.35900 64.07900 40.62200
H  28.68300 63.84300 43.27600
H  27.11500 64.21400 42.53200
H  28.56200 65.23500 42.31800
H  23.93100 60.19600 40.61300
H  25.06200 60.84200 41.77200
H  24.06500 59.42600 42.19900
H  25.35300 55.44000 38.49200
H  22.88500 52.59200 40.72800
H  24.53000 51.81400 40.63800
H  23.47300 51.75700 39.31000

