158

Mg 42.67700 41.59200 25.84000
C  41.82800 43.96700 28.33200
C  43.69100 39.45600 28.19700
C  43.88500 39.51400 23.39600
C  42.22800 44.04100 23.43500
N  42.38700 41.57300 28.04400
C  42.13900 42.67700 28.89000
C  42.30600 42.38400 30.33700
C  43.25600 41.15200 30.15900
C  43.10900 40.64100 28.66600
C  44.72600 41.21200 30.70100
C  40.96800 42.08400 31.08400
C  40.81600 42.59200 32.50400
H  41.92200 42.48500 33.55300
N  43.49400 39.64100 25.81900
C  43.77700 38.91100 26.89900
C  44.37300 37.71200 26.53700
C  44.35700 37.61900 25.08100
C  43.87900 38.94900 24.66200
C  44.79800 36.78600 27.61000
C  44.68200 36.41700 24.16000
O  44.41900 36.45100 23.00700
C  45.23000 35.07400 24.67300
N  42.90500 41.70400 23.76000
C  43.54600 40.80300 22.98000
C  43.56900 41.10000 21.52300
C  42.90300 42.47700 21.50500
C  42.65300 42.80500 22.93100
C  44.97200 40.96500 20.79500
C  41.54300 42.51000 20.68600
C  40.36500 41.87500 21.45100
N  42.20000 43.60400 25.84000
C  42.02100 44.52900 24.80200
C  41.65500 45.82900 25.31300
C  41.61600 45.63800 26.71100
C  41.91100 44.28100 26.94300
C  41.28600 47.05000 24.50800
C  41.36800 46.30400 27.95900
O  40.97500 47.44100 28.15600
C  41.53600 45.25000 29.00800
C  42.59200 45.75800 29.94900
O  43.75600 45.48800 29.76300
O  42.16300 46.57200 31.02300
C  43.16300 46.87800 31.97200
H  44.09200 38.85600 29.01600
H  44.25100 38.76000 22.69500
H  42.27400 44.76000 22.61500
H  42.81800 43.16700 30.89500
H  42.83300 40.38600 30.80900
H  44.64000 40.67700 31.64700
H  45.02500 42.25500 30.80000
H  45.38200 40.61600 30.06700
H  40.70400 41.02900 31.01000
H  40.16300 42.62000 30.58000
H  39.94500 42.08200 32.91500
H  40.53000 43.64100 32.58200
H  44.39800 35.78300 27.46300
H  44.30700 36.95600 28.56800
H  45.87500 36.76500 27.77400
H  44.48700 34.52900 25.25400
H  46.01400 35.39500 25.35900
H  45.61200 34.48300 23.84100
H  42.91900 40.36800 21.04400
H  43.49000 43.26300 21.03000
H  45.16700 41.82100 20.15000
H  45.13600 40.05600 20.21600
H  45.81000 41.01500 21.49100
H  41.71800 41.91800 19.78700
H  41.22900 43.54000 20.52000
H  40.25500 40.84900 21.09900
H  39.46900 42.49000 21.36800
H  40.47200 41.76800 22.53000
H  40.21900 47.27300 24.49600
H  41.44700 46.86600 23.44500
H  41.91200 47.84100 24.92000
H  40.61800 45.22000 29.59500
H  43.38600 45.99700 32.57500
H  42.74600 47.69500 32.56000
H  44.02500 47.39600 31.55400
Mg 36.86500 50.17200 25.27400
C  37.00100 47.89700 27.89000
C  35.67600 52.60800 27.55000
C  35.96800 52.04000 22.77200
C  37.59700 47.57600 23.07700
N  36.31300 50.16500 27.42200
C  36.55600 49.20900 28.26300
C  36.37200 49.72200 29.67300
C  35.65600 51.09800 29.50500
C  35.80300 51.29700 28.08400
C  34.18100 51.24600 30.10600
C  37.75700 49.70400 30.54100
C  37.61500 48.91800 31.84100
H  36.29900 49.03000 32.58800
N  36.03500 52.12500 25.17700
C  35.57900 52.95100 26.18100
C  35.18100 54.18300 25.56900
C  35.24500 54.02500 24.13800
C  35.78800 52.75200 23.99000
C  34.77900 55.37300 26.37600
C  34.79700 55.03600 23.05600
O  34.69600 54.71400 21.88900
C  34.47200 56.49800 23.46500
N  36.71700 49.77500 23.15500
C  36.40500 50.76800 22.41000
C  36.76400 50.48000 20.91700
C  37.47900 49.03100 21.04100
C  37.22500 48.75300 22.52900
C  35.49000 50.55800 20.02900
C  38.94800 48.90900 20.53700
C  39.12900 47.65300 19.61000
N  37.24100 48.10600 25.38100
C  37.54000 47.22100 24.47000
C  37.65100 45.94600 25.06300
C  37.47500 46.18100 26.41600
C  37.18200 47.49600 26.57600
C  38.14900 44.73100 24.36300
C  37.46300 45.55500 27.66400
O  37.65600 44.42100 28.06000
C  37.23100 46.69200 28.76800
C  35.99900 46.45600 29.59000
O  34.85300 46.89200 29.34300
O  36.38700 45.61400 30.62200
C  35.35600 45.04300 31.39500
H  35.39400 53.33000 28.32000
H  36.01900 52.64000 21.86100
H  37.92800 46.83900 22.34300
H  35.67600 49.03700 30.15700
H  36.15100 51.86000 30.10700
H  34.05800 52.29200 30.38500
H  33.97100 50.80800 31.08100
H  33.38700 50.96900 29.41300
H  38.18100 50.67100 30.81000
H  38.53600 49.11800 30.05500
H  38.33000 49.36900 32.52900
H  37.79000 47.85700 31.66100
H  35.21300 56.30000 26.00300
H  34.98800 55.20900 27.43300
H  33.69000 55.38800 26.32400
H  33.68600 56.56800 24.21700
H  34.16600 56.90800 22.50200
H  35.31100 57.09800 23.81600
H  37.54800 51.14600 20.55800
H  36.71900 48.37200 20.62100
H  35.28200 51.62100 19.90800
H  34.72300 50.06500 20.62700
H  35.83100 50.12600 19.08900
H  39.71300 49.00200 21.30700
H  39.15600 49.73000 19.85200
H  40.05300 47.10900 19.80100
H  39.06800 48.01600 18.58400
H  38.36100 46.90100 19.79200
H  37.45000 44.32100 23.63400
H  38.44300 44.00400 25.12000
H  39.03100 44.97400 23.77000
H  38.10300 46.71600 29.42100
H  34.51700 45.71000 31.59400
H  35.67900 44.74800 32.39300
H  34.83700 44.18400 30.97000

