158

Mg 34.53400 2.89500 29.24000
C  32.29900 3.91600 31.79500
C  36.91400 2.53900 31.67100
C  36.67700 2.37700 26.68100
C  32.02200 3.53300 26.93800
N  34.62400 3.49400 31.47800
C  33.58100 3.75800 32.34700
C  34.03000 3.75100 33.81700
C  35.58600 3.33600 33.73000
C  35.71600 3.03300 32.20500
C  36.54500 4.45800 34.15300
C  33.17700 2.75300 34.61600
C  32.72500 3.11500 36.01100
H  33.39200 4.18200 36.92000
N  36.46500 2.36300 29.23900
C  37.28900 2.21900 30.33800
C  38.65600 1.82400 29.93500
C  38.58300 1.89000 28.50900
C  37.19500 2.17900 28.06200
C  39.70400 1.47900 30.97500
C  39.74400 1.55700 27.44900
O  39.49100 1.50600 26.28900
C  41.20800 1.32400 27.93700
N  34.35700 2.82400 27.09900
C  35.36900 2.60800 26.20100
C  34.92500 2.92400 24.72700
C  33.35900 2.79200 24.92600
C  33.22400 3.21900 26.40600
C  35.52900 4.23100 24.04100
C  32.70600 1.42700 24.59400
C  31.53200 1.49400 23.70100
N  32.59100 3.58900 29.30500
C  31.72000 3.76600 28.23800
C  30.44200 4.13300 28.75500
C  30.57000 4.24100 30.14000
C  31.94100 3.96100 30.43800
C  29.18300 4.38100 27.92600
C  29.87000 4.40600 31.45700
O  28.71900 4.77600 31.63000
C  30.92800 4.24900 32.54300
C  31.14600 5.59500 33.23300
O  31.75900 6.51800 32.73800
O  30.58600 5.47900 34.46300
C  30.51700 6.68900 35.27700
H  37.67500 2.48800 32.45200
H  37.41200 2.36500 25.87300
H  31.15100 3.50900 26.28000
H  33.95900 4.75500 34.23600
H  35.72700 2.45600 34.35700
H  37.11900 4.79800 33.29100
H  37.26600 4.13800 34.90500
H  36.02800 5.35900 34.48100
H  33.70500 1.79900 34.60600
H  32.24000 2.51100 34.11500
H  32.67300 2.19400 36.59200
H  31.70700 3.49600 35.93100
H  40.65700 1.93300 30.70300
H  39.87000 0.40900 30.85200
H  39.44900 1.73400 32.00300
H  41.19700 0.67500 28.81300
H  41.53600 2.35400 28.07700
H  41.78100 0.91700 27.10400
H  35.20000 2.06200 24.12000
H  32.90100 3.61500 24.37700
H  36.04300 4.82500 24.79700
H  34.75900 4.72600 23.44800
H  36.30200 4.00900 23.30700
H  32.42000 1.02000 25.56400
H  33.48700 0.88700 24.05700
H  30.66400 1.01200 24.15000
H  31.79600 1.01100 22.76000
H  31.25300 2.49700 23.38000
H  28.82900 3.36900 27.72900
H  29.51800 4.87500 27.01400
H  28.49600 5.02100 28.48000
H  30.61000 3.45700 33.22100
H  30.22500 7.54100 34.66400
H  31.49200 6.69100 35.76300
H  29.79300 6.45600 36.05800
Mg 17.47100 51.45400 25.82000
C  19.21800 50.06100 28.59700
C  14.76100 52.16600 28.00800
C  15.60100 52.37600 23.24000
C  19.89500 50.12900 23.76700
N  16.98200 51.00500 28.04700
C  17.94700 50.65200 28.94400
C  17.52800 50.98500 30.40200
C  15.99200 51.47400 30.20300
C  15.81700 51.51000 28.64300
C  14.87700 50.57500 30.80000
C  18.41800 52.12800 30.98300
C  18.49300 52.12600 32.51300
H  17.47200 51.31700 33.24300
N  15.51700 52.28200 25.66900
C  14.59300 52.53600 26.67300
C  13.51500 53.33400 26.08700
C  13.72600 53.46000 24.66100
C  14.96600 52.66800 24.45700
C  12.35700 53.78800 26.99500
C  12.87500 54.09300 23.55500
O  13.19900 54.03300 22.35100
C  11.55600 54.74700 23.87900
N  17.64100 51.13500 23.80300
C  16.77700 51.64800 22.93200
C  17.16600 51.31700 21.55700
C  18.73900 50.97900 21.73600
C  18.78300 50.75300 23.21600
C  16.34400 50.15900 20.95600
C  19.70100 52.15500 21.23700
C  19.40400 53.51800 21.82900
N  19.21800 50.35200 26.04100
C  20.11300 49.95700 25.12700
C  21.21300 49.18600 25.75300
C  20.86800 49.28000 27.12400
C  19.70800 50.01600 27.20300
C  22.37000 48.46300 25.10600
C  21.33000 48.88400 28.41400
O  22.30900 48.33600 28.89100
C  20.22400 49.31700 29.40800
C  19.73800 48.14100 30.20700
O  19.13800 47.18000 29.85400
O  20.09800 48.28300 31.46700
C  19.64700 47.41000 32.54100
H  13.97100 52.36400 28.73500
H  15.10100 52.76900 22.35200
H  20.62800 49.86100 23.00400
H  17.62800 50.04400 30.94200
H  15.87600 52.49600 30.56400
H  14.27000 51.22400 31.43000
H  15.33600 49.73800 31.32700
H  14.26400 50.10900 30.02800
H  18.18200 53.11200 30.57900
H  19.45500 51.95400 30.69800
H  18.19500 53.14000 32.78000
H  19.51100 51.97300 32.87000
H  11.60100 54.38400 26.48400
H  12.84100 54.37700 27.77300
H  11.94100 52.89800 27.46700
H  10.79000 54.08700 24.28700
H  11.25200 55.29200 22.98600
H  11.68700 55.65000 24.47600
H  17.05100 52.22600 20.96700
H  18.98000 50.03500 21.24700
H  15.60500 50.62400 20.30300
H  15.80600 49.49000 21.62800
H  16.97200 49.57400 20.28400
H  19.75600 52.05800 20.15300
H  20.62700 51.75600 21.65000
H  20.32200 53.85100 22.31200
H  18.44400 53.55400 22.34400
H  19.40400 54.24800 21.01900
H  21.99400 48.05800 24.16700
H  22.60100 47.59400 25.72300
H  23.18300 49.18900 25.08200
H  20.68100 50.06500 30.05500
H  19.45100 48.06300 33.39200
H  20.37300 46.63300 32.78000
H  18.75300 46.81300 32.36100

