158

Mg -1.52300 17.38500 26.93700
C  -2.18400 15.07000 29.43400
C  -1.89900 19.90800 28.98000
C  -1.17900 19.46300 24.25600
C  -1.48100 14.64600 24.59600
N  -2.02800 17.39900 28.95800
C  -2.14500 16.36400 29.88900
C  -2.23100 16.95400 31.39200
C  -2.15500 18.57300 31.18900
C  -2.07400 18.68600 29.61400
C  -3.33100 19.31900 31.94900
C  -1.16600 16.28700 32.35300
C  -0.97500 16.89200 33.74600
H  -1.03800 15.96900 35.09600
N  -1.52000 19.43800 26.65300
C  -1.80400 20.29100 27.65800
C  -1.80000 21.61200 27.14000
C  -1.59400 21.49300 25.73400
C  -1.36700 20.09800 25.51200
C  -2.05500 22.85000 27.89200
C  -1.62300 22.63100 24.66400
O  -1.55500 22.38800 23.47400
C  -1.98500 23.99500 25.05300
N  -1.44600 17.00000 24.75600
C  -1.14200 18.08100 23.98100
C  -1.04200 17.62800 22.48700
C  -0.86500 15.99700 22.64700
C  -1.28400 15.86900 24.09600
C  -2.18800 18.08900 21.56000
C  0.59500 15.56400 22.36000
C  1.80900 16.34500 22.84100
N  -1.84000 15.22700 26.95300
C  -1.75800 14.23700 25.93600
C  -1.93700 12.95900 26.52800
C  -1.99200 13.23500 27.95100
C  -2.02000 14.65100 28.11700
C  -1.89200 11.62200 25.88600
C  -2.13500 12.57300 29.19100
O  -2.18300 11.39000 29.51900
C  -2.18000 13.69400 30.23900
C  -0.87800 13.60300 30.88800
O  0.23000 14.02800 30.51200
O  -1.07100 13.08300 32.09700
C  0.12200 12.94500 32.99300
H  -2.03300 20.61800 29.79900
H  -1.07600 20.05500 23.34400
H  -1.36700 13.86000 23.84600
H  -3.21200 16.61800 31.73000
H  -1.20400 18.77800 31.68100
H  -4.02800 19.65800 31.18300
H  -2.88900 20.19900 32.41700
H  -3.89400 18.67000 32.61900
H  -0.23400 16.18700 31.79700
H  -1.51600 15.29200 32.62700
H  -1.67500 17.71300 33.90300
H  0.01200 17.35300 33.75800
H  -1.28600 23.61100 27.76500
H  -2.02600 22.64200 28.96200
H  -2.99200 23.31700 27.58900
H  -1.90600 24.57500 24.13300
H  -1.20900 24.47300 25.65000
H  -2.95100 24.05000 25.55500
H  -0.10800 18.04500 22.11000
H  -1.58000 15.45000 22.03300
H  -2.25800 19.13300 21.25300
H  -3.10500 17.65500 21.95800
H  -2.30500 17.50400 20.64800
H  0.68800 15.69100 21.28100
H  0.81100 14.51100 22.53500
H  1.55200 17.13000 23.55200
H  2.35300 16.86000 22.04900
H  2.38700 15.75000 23.54800
H  -1.44700 11.63600 24.89200
H  -2.92600 11.27700 25.91400
H  -1.26900 10.96400 26.49200
H  -2.97900 13.56500 30.96900
H  0.62900 13.88400 33.21200
H  0.93600 12.30000 32.66000
H  -0.09800 12.41700 33.92100
Mg 25.35400 1.56500 29.24800
C  27.39300 1.03800 31.97200
C  22.59500 1.72200 31.47400
C  23.26900 1.67200 26.58200
C  28.00800 0.92200 27.09700
N  25.08900 1.38700 31.44800
C  26.10800 1.33600 32.38600
C  25.60900 1.48100 33.85900
C  24.01700 1.43100 33.58200
C  23.86400 1.57900 32.06700
C  23.45000 0.08300 34.13100
C  26.25900 2.57900 34.71200
C  26.46300 2.21900 36.21500
H  26.19800 3.36700 37.26000
N  23.24400 1.68100 29.05000
C  22.26500 1.69800 30.06700
C  20.96900 1.79400 29.51900
C  21.12600 1.61100 28.09400
C  22.59800 1.65200 27.87500
C  19.79700 1.94900 30.33500
C  20.07100 1.39400 27.01100
O  20.34700 1.34900 25.76900
C  18.55800 1.16200 27.45200
N  25.58100 1.43900 27.14100
C  24.60500 1.61500 26.27300
C  25.06000 1.53500 24.81400
C  26.66900 1.51100 24.98600
C  26.77000 1.31600 26.52300
C  24.65900 0.29700 24.02100
C  27.22000 2.83500 24.44000
C  26.88700 4.01700 25.33900
N  27.28900 1.00300 29.44500
C  28.29700 0.77000 28.47400
C  29.61300 0.42400 29.17000
C  29.32500 0.62600 30.56300
C  27.89800 0.94300 30.66700
C  30.99700 0.14300 28.58900
C  29.84100 0.53900 31.97000
O  30.97500 0.33700 32.34300
C  28.64700 0.88100 32.90900
C  28.53900 -0.23800 33.95200
O  27.94500 -1.29700 33.81200
O  29.08900 0.19500 35.16400
C  28.94000 -0.72700 36.28600
H  21.88700 1.91900 32.28100
H  22.58400 1.80100 25.74200
H  28.86300 0.79700 26.43000
H  25.87600 0.51600 34.29000
H  23.49500 2.30000 33.98200
H  22.58300 0.40500 34.70900
H  24.02500 -0.63300 34.71800
H  23.09000 -0.41300 33.23000
H  25.62700 3.46200 34.80300
H  27.14900 2.98500 34.23300
H  27.51900 1.94800 36.17900
H  25.99200 1.26900 36.46700
H  20.04800 2.44400 31.27300
H  19.43300 1.03400 30.80200
H  18.90000 2.38200 29.89400
H  18.58100 0.61700 28.39500
H  18.02100 0.72000 26.61200
H  18.15600 2.16700 27.58000
H  24.72300 2.39100 24.23000
H  27.14400 0.63100 24.55200
H  25.52700 -0.21600 23.60700
H  24.07900 0.65900 23.17100
H  24.07700 -0.38100 24.64400
H  26.63800 3.14200 23.57100
H  28.25500 2.86400 24.10100
H  26.80300 3.86100 26.41500
H  26.00600 4.58300 25.03600
H  27.77600 4.64500 25.27600
H  31.22800 0.66700 27.66100
H  30.97400 -0.93900 28.45900
H  31.73400 0.40000 29.34900
H  29.14000 1.76400 33.31400
H  28.03900 -0.40500 36.80800
H  29.76700 -0.53900 36.97100
H  28.94800 -1.77600 35.99100

