158

Mg 35.48400 49.26500 26.73900
C  35.61100 47.11700 29.58100
C  34.29200 51.73400 28.75100
C  35.00800 50.94300 24.02200
C  36.25400 46.32700 24.85200
N  35.10200 49.30100 28.86700
C  35.10400 48.38600 29.84500
C  34.94300 48.91600 31.24500
C  34.23200 50.23500 30.86500
C  34.61900 50.49000 29.40500
C  32.71700 50.29800 31.06600
C  36.28200 49.17800 32.08500
C  36.32800 48.59500 33.52900
H  35.05700 48.71700 34.37100
N  34.76700 51.12300 26.39000
C  34.35900 51.99600 27.33800
C  34.19000 53.27300 26.70600
C  34.34900 53.06300 25.29300
C  34.65100 51.65600 25.16700
C  33.91700 54.51500 27.54900
C  34.35600 53.98900 24.14200
O  34.64200 53.71900 22.96700
C  33.79400 55.40200 24.38600
N  35.61600 48.70500 24.76200
C  35.46200 49.62200 23.76000
C  35.79400 49.10300 22.39300
C  36.21800 47.65500 22.67500
C  35.99900 47.54500 24.19600
C  34.73700 49.25600 21.28800
C  37.66600 47.16800 22.22900
C  38.91900 47.73500 22.78100
N  35.86900 47.14300 27.03900
C  36.22300 46.11300 26.21400
C  36.51200 44.92400 26.92000
C  36.28200 45.26600 28.25000
C  35.90000 46.64000 28.29700
C  37.15600 43.62200 26.31400
C  36.47100 44.72300 29.61800
O  36.96200 43.61100 29.97800
C  35.87600 45.89000 30.51700
C  34.58900 45.47700 31.19500
O  33.46600 45.35000 30.62000
O  34.88100 45.11600 32.45100
C  33.86900 44.38100 33.23800
H  33.83000 52.50900 29.36600
H  34.76000 51.51100 23.12300
H  36.51900 45.44200 24.27000
H  34.27100 48.27100 31.81100
H  34.53700 51.06900 31.49600
H  32.52400 51.16300 31.69900
H  32.28000 49.40900 31.52100
H  32.15100 50.53700 30.16600
H  36.51100 50.23300 32.23300
H  36.99700 48.66500 31.44100
H  37.07200 49.08800 34.15500
H  36.73500 47.58400 33.53200
H  33.66500 54.32100 28.59200
H  33.02400 54.93900 27.09200
H  34.64200 55.32800 27.49800
H  32.82000 55.46500 24.87200
H  33.70100 55.87600 23.41000
H  34.54400 55.92300 24.98100
H  36.65500 49.72800 22.15900
H  35.54600 47.01300 22.10600
H  34.55500 48.29000 20.81800
H  35.14100 49.93000 20.53300
H  33.74300 49.50200 21.66300
H  37.69100 47.30900 21.14800
H  37.67200 46.09400 22.41300
H  38.71600 47.84200 23.84600
H  39.24400 48.68400 22.35400
H  39.70800 46.98600 22.70600
H  38.19000 43.56000 26.65300
H  37.08000 43.57700 25.22700
H  36.65600 42.73400 26.70200
H  36.59100 46.08300 31.31700
H  33.90000 43.30800 33.04800
H  32.84300 44.69700 33.05000
H  34.04500 44.50300 34.30700
Mg -11.43000 38.80400 41.35000
C  -9.51000 35.91100 40.41600
C  -9.21700 40.67100 39.59600
C  -13.57800 41.30700 41.44700
C  -13.92100 36.43500 42.47500
N  -9.62200 38.24300 40.01300
C  -8.96600 37.07300 39.91500
C  -7.69500 37.26400 39.11800
C  -7.64200 38.79200 38.88300
C  -8.87300 39.32700 39.61300
C  -6.30900 39.57500 39.19000
C  -7.62500 36.38200 37.80900
C  -6.26700 35.74900 37.44500
H  -5.70300 36.01500 35.98700
N  -11.35800 40.78800 40.71800
C  -10.34500 41.32700 39.99100
C  -10.64700 42.78200 39.71200
C  -11.90400 42.98400 40.32600
C  -12.33900 41.70800 40.97300
C  -9.70100 43.64700 38.87300
C  -12.60800 44.33200 40.19300
O  -12.14700 45.31200 39.63700
C  -13.91600 44.58300 40.91100
N  -13.52300 38.80900 41.66400
C  -14.15400 39.98200 41.66200
C  -15.57000 39.73000 42.12300
C  -15.75300 38.21300 42.34100
C  -14.28300 37.77200 42.20700
C  -16.00400 40.63600 43.23500
C  -16.70500 37.45700 41.35500
C  -17.85100 36.58400 42.06000
N  -11.71100 36.57000 41.48500
C  -12.65200 35.78900 42.11800
C  -12.18300 34.39800 42.26900
C  -10.92300 34.39900 41.58300
C  -10.74500 35.72700 41.12800
C  -12.86700 33.34900 43.08300
C  -9.77200 33.64600 41.18500
O  -9.52800 32.47200 41.41700
C  -8.83100 34.57900 40.19800
C  -7.39100 34.45600 40.71100
O  -6.56200 33.62500 40.33500
O  -7.20900 35.29000 41.75500
C  -5.91000 35.36900 42.34000
H  -8.45100 41.22700 39.05100
H  -14.25600 42.16200 41.42800
H  -14.69300 35.88500 43.01600
H  -6.86300 37.18400 39.81600
H  -7.76500 39.08600 37.84000
H  -6.12600 40.13700 38.27400
H  -5.42400 38.93900 39.20800
H  -6.52900 40.18400 40.06700
H  -7.71500 37.15600 37.04600
H  -8.42100 35.64200 37.72400
H  -6.35400 34.66400 37.51000
H  -5.40400 35.77800 38.11000
H  -10.22000 44.12300 38.04100
H  -8.88900 43.06500 38.43800
H  -9.31900 44.40700 39.55500
H  -14.07800 45.65900 40.98500
H  -13.80800 44.13800 41.90000
H  -14.82900 44.17200 40.48100
H  -16.06500 40.06500 41.21200
H  -16.05900 37.89200 43.33700
H  -16.90100 40.17200 43.64400
H  -16.14300 41.61400 42.77400
H  -15.31900 40.73400 44.07700
H  -16.11100 36.77600 40.74500
H  -17.15400 38.09500 40.59400
H  -17.88000 35.65500 41.49100
H  -18.79800 37.12300 42.09900
H  -17.52100 36.21000 43.02900
H  -12.07500 32.67300 43.40800
H  -13.57300 32.71700 42.54500
H  -13.36400 33.77100 43.95600
H  -8.88600 34.25100 39.15900
H  -5.17000 35.76700 41.64500
H  -5.66300 34.35200 42.64400
H  -5.90800 36.00900 43.22200

