158

Mg 48.25800 15.67100 28.55900
C  46.06200 15.47900 31.21400
C  50.62400 16.93300 30.78100
C  50.30300 16.04500 25.90700
C  45.75000 14.49500 26.49800
N  48.29400 16.31000 30.79000
C  47.29600 16.00800 31.63900
C  47.73100 16.36000 33.05700
C  49.08700 17.13100 32.85800
C  49.37000 16.86000 31.37400
C  49.03700 18.65700 33.18100
C  47.94100 15.08600 33.94700
C  47.48300 15.12400 35.40400
H  47.33700 16.45300 36.14600
N  50.18900 16.39600 28.37900
C  50.97100 16.86900 29.35800
C  52.27200 17.22900 28.78500
C  52.35400 16.80500 27.40600
C  50.90100 16.35300 27.16400
C  53.43500 17.78200 29.72500
C  53.46100 16.87200 26.42800
O  53.32000 16.46800 25.27100
C  54.82400 17.46300 26.81700
N  48.02900 15.37400 26.50300
C  48.99000 15.66300 25.59200
C  48.46400 15.43400 24.17800
C  47.14100 14.68100 24.38500
C  46.95000 14.79800 25.89000
C  48.33800 16.71500 23.37300
C  47.16200 13.23400 23.68300
C  47.53300 11.99500 24.57100
N  46.32000 14.95600 28.75000
C  45.40500 14.49300 27.84700
C  44.21800 14.09400 28.55700
C  44.46000 14.36100 29.90200
C  45.78100 14.91300 29.93500
C  43.06300 13.48100 27.95400
C  43.90500 14.33200 31.26400
O  42.86400 13.83400 31.66700
C  45.02700 15.00100 32.13700
C  44.51600 16.08100 33.12600
O  44.47800 17.31600 32.90400
O  44.09100 15.39500 34.28100
C  43.49200 16.24500 35.30100
H  51.43500 17.38300 31.35800
H  50.99200 16.15900 25.06700
H  45.00200 14.17900 25.76700
H  47.08100 17.07900 33.55600
H  49.82200 16.69600 33.53500
H  49.23400 19.18400 32.24700
H  49.78700 18.91900 33.92800
H  48.01000 18.91400 33.44100
H  48.97200 14.73500 33.91300
H  47.55800 14.19100 33.45800
H  48.28300 14.67000 35.98900
H  46.52800 14.62800 35.57500
H  53.47900 17.40300 30.74600
H  53.37500 18.87000 29.69100
H  54.45800 17.54300 29.43600
H  54.78300 18.45400 27.26800
H  55.27600 17.74600 25.86600
H  55.50000 16.84100 27.40400
H  49.15800 14.78100 23.64900
H  46.31300 15.18800 23.89100
H  47.42300 16.83500 22.79300
H  49.17200 16.80300 22.67800
H  48.41900 17.54700 24.07200
H  47.82600 13.14900 22.82300
H  46.17300 13.05400 23.26100
H  48.12900 11.29300 23.98800
H  46.68000 11.44600 24.97100
H  48.05300 12.36500 25.45500
H  43.35700 12.55800 27.45400
H  42.68600 14.28300 27.31900
H  42.36300 13.23700 28.75300
H  45.51000 14.30400 32.82100
H  44.11000 17.12200 35.49500
H  43.28200 15.70700 36.22500
H  42.57300 16.71900 34.95500
Mg 50.15300 44.53300 41.72600
C  46.82700 45.14300 40.46300
C  49.91600 41.46700 40.48200
C  53.46500 44.29500 42.23000
C  50.34000 47.98500 42.38500
N  48.50800 43.49100 40.76700
C  47.31400 43.83900 40.27000
C  46.57600 42.84600 39.42800
C  47.44500 41.60100 39.72700
C  48.70300 42.22100 40.35200
C  46.94800 40.43200 40.50700
C  46.40500 43.41400 37.92700
C  45.01100 43.19700 37.28000
H  44.67000 44.05300 36.06600
N  51.52300 43.08300 41.35200
C  51.22400 41.83100 40.91200
C  52.35600 40.97200 40.96200
C  53.39000 41.71900 41.56800
C  52.91600 43.09200 41.77900
C  52.22800 39.55900 40.62900
C  54.75500 41.23200 41.96100
O  55.13200 40.06700 41.74200
C  55.73200 42.10400 42.82000
N  51.61800 45.95800 42.17200
C  52.92500 45.59800 42.45700
C  53.79300 46.80000 42.99900
C  52.80000 48.00800 42.89500
C  51.50000 47.29700 42.43000
C  54.40500 46.48700 44.38600
C  53.24900 49.11600 41.86400
C  52.97200 50.53000 42.21600
N  48.79700 46.20500 41.66800
C  49.04100 47.53000 41.96200
C  47.87500 48.32700 41.80100
C  46.91100 47.42400 41.16400
C  47.54000 46.13500 41.13800
C  47.71500 49.75000 41.94300
C  45.59300 47.30100 40.62700
O  44.67500 48.13300 40.51500
C  45.50600 45.80200 40.17000
C  44.22200 45.22300 40.82000
O  43.30900 44.69900 40.16300
O  44.17900 45.56000 42.11000
C  42.87500 45.35100 42.69000
H  49.86200 40.47300 40.03200
H  54.53200 44.34100 42.45900
H  50.42600 49.05800 42.56400
H  45.60700 42.75000 39.91700
H  47.78500 41.21900 38.76500
H  47.15800 39.44600 40.09500
H  45.86000 40.43600 40.56000
H  47.39500 40.50700 41.49900
H  47.09600 42.76700 37.38700
H  46.81800 44.41200 37.77800
H  44.28300 43.43700 38.05600
H  44.92600 42.17600 36.90800
H  51.69200 39.33700 39.70600
H  51.60800 39.04300 41.36300
H  53.18200 39.04700 40.50400
H  55.28200 42.83600 43.49100
H  56.34000 42.80700 42.25000
H  56.46400 41.44900 43.29200
H  54.62200 46.79300 42.29200
H  52.81700 48.49300 43.87100
H  55.49500 46.45800 44.37700
H  54.16600 45.50200 44.78600
H  53.94400 47.13700 45.13000
H  52.85000 48.78300 40.90600
H  54.33700 49.14300 41.91000
H  52.37300 50.54300 43.12700
H  52.44700 51.07300 41.43000
H  53.86200 51.07800 42.52400
H  48.27900 50.32100 41.20600
H  48.02400 50.08000 42.93500
H  46.68100 50.06900 41.81200
H  45.27500 45.69000 39.11000
H  42.50400 44.33000 42.59200
H  42.11800 46.00100 42.25100
H  42.92000 45.76300 43.69800

