158

Mg 26.05600 -0.25400 29.56600
C  28.19500 -0.52700 32.37400
C  23.53100 0.32300 31.70400
C  24.15100 -0.11200 26.89300
C  28.72000 -1.52100 27.62300
N  25.90900 -0.16600 31.77500
C  26.91200 -0.11600 32.68800
C  26.43900 0.33800 34.08100
C  24.90200 0.41200 33.91500
C  24.76200 0.21900 32.37000
C  24.05800 -0.65200 34.71800
C  27.14300 1.67800 34.45300
C  28.07300 1.56300 35.71600
H  27.88900 2.57900 36.87400
N  24.08900 0.11100 29.33300
C  23.16100 0.32900 30.31400
C  21.88500 0.57300 29.74700
C  21.97600 0.40000 28.36300
C  23.43600 0.10000 28.09200
C  20.69800 1.02800 30.62100
C  20.89300 0.44100 27.25600
O  21.17800 0.12500 26.08900
C  19.59900 1.09400 27.54000
N  26.41300 -0.66000 27.51500
C  25.46800 -0.45800 26.63100
C  26.00500 -0.69500 25.12300
C  27.44200 -1.12100 25.41400
C  27.59500 -1.11600 26.90500
C  25.13400 -1.69400 24.19600
C  28.52400 -0.26000 24.66200
C  28.56500 1.26800 24.86900
N  28.04100 -0.84500 29.89000
C  28.98100 -1.33500 29.01200
C  30.28600 -1.49500 29.69700
C  30.00400 -1.12700 31.03300
C  28.63900 -0.82900 31.07300
C  31.52300 -1.94700 29.10700
C  30.58200 -0.96400 32.35600
O  31.65400 -1.25400 32.82100
C  29.47000 -0.57600 33.24900
C  29.41200 -1.58100 34.31900
O  28.88000 -2.67300 34.25700
O  30.09800 -1.17100 35.43200
C  30.23600 -2.01800 36.64500
H  22.74200 0.58100 32.41400
H  23.47800 -0.00600 26.04000
H  29.63800 -1.71700 27.06600
H  26.76800 -0.40400 34.80800
H  24.55100 1.34800 34.35000
H  24.64700 -1.05700 35.54100
H  23.70900 -1.48800 34.11200
H  23.13000 -0.22300 35.09600
H  26.42700 2.48200 34.62500
H  27.75900 2.03200 33.62700
H  29.10200 1.70900 35.39000
H  28.07400 0.50900 35.99100
H  20.45200 2.07000 30.42000
H  20.88300 1.07700 31.69400
H  19.86700 0.35800 30.39500
H  19.55200 2.10200 27.95200
H  19.01300 0.45000 28.19600
H  19.05000 1.17500 26.60200
H  25.98900 0.25200 24.58200
H  27.60900 -2.15100 25.09800
H  24.21100 -1.84900 24.75500
H  25.58000 -2.67300 24.02500
H  24.80200 -1.22500 23.26900
H  28.22300 -0.26000 23.61400
H  29.48700 -0.72200 24.88000
H  27.87000 1.63400 25.62500
H  28.15000 1.75400 23.98600
H  29.61200 1.56100 24.94400
H  32.33200 -1.64400 29.77100
H  31.55400 -1.60200 28.07300
H  31.56500 -3.03600 29.14900
H  29.85100 0.40700 33.52500
H  29.64900 -1.53800 37.42700
H  31.25400 -2.08700 37.02900
H  29.95000 -3.05000 36.44400
Mg -10.63300 17.38400 43.22200
C  -7.15900 18.17900 43.35700
C  -11.17600 20.75100 42.98300
C  -13.69500 16.73000 42.47600
C  -9.72400 13.87000 42.85000
N  -9.29900 19.28600 43.06900
C  -7.96700 19.31600 43.35700
C  -7.47000 20.74700 43.32600
C  -8.77700 21.45100 43.72200
C  -9.80100 20.48900 43.25900
C  -8.91900 21.78900 45.22300
C  -6.89400 21.27900 41.94100
C  -5.38400 21.54300 41.73500
H  -4.83200 20.79000 40.48500
N  -12.13400 18.50600 42.51600
C  -12.15900 19.92300 42.51300
C  -13.44100 20.39100 42.00800
C  -14.27200 19.22000 41.82800
C  -13.36800 18.08300 42.29600
C  -13.71600 21.78300 41.63000
C  -15.66700 19.15300 41.19700
O  -16.21200 20.23700 40.89500
C  -16.37900 17.84300 40.98900
N  -11.58400 15.49100 42.36800
C  -12.87000 15.54400 42.63700
C  -13.42200 14.07900 42.92500
C  -12.16800 13.16200 42.72000
C  -11.10400 14.24700 42.59900
C  -14.28100 13.86600 44.23600
C  -12.06300 12.14500 41.48500
C  -13.28300 11.34100 41.00900
N  -8.89400 16.24100 43.13700
C  -8.72400 14.86500 43.03800
C  -7.33500 14.57900 43.29500
C  -6.68600 15.89800 43.32600
C  -7.69900 16.83000 43.29500
C  -6.70200 13.24600 43.26200
C  -5.39800 16.53100 43.46000
O  -4.33500 16.06800 43.56600
C  -5.61900 18.03400 43.50400
C  -5.17900 18.52400 44.80000
O  -5.61800 18.11700 45.87400
O  -4.36000 19.60000 44.63600
C  -4.03000 20.31400 45.81600
H  -11.34700 21.82600 43.06300
H  -14.74500 16.53400 42.70400
H  -9.44700 12.81700 42.93800
H  -6.76500 20.96800 44.12800
H  -9.01600 22.35800 43.16700
H  -8.88600 22.87800 45.24400
H  -8.10500 21.35400 45.80200
H  -9.93500 21.55200 45.53800
H  -7.48900 22.11500 41.57300
H  -7.27400 20.52000 41.25700
H  -4.87600 21.28900 42.66500
H  -5.22300 22.59200 41.48700
H  -14.24700 22.19100 42.49100
H  -14.38200 21.81100 40.76800
H  -12.84400 22.42600 41.51000
H  -15.76300 17.14500 40.42100
H  -17.21100 18.21200 40.39000
H  -16.84000 17.37700 41.86000
H  -14.00600 13.82600 42.04000
H  -11.97400 12.56100 43.60800
H  -15.27900 13.47900 44.03400
H  -14.55500 14.88100 44.52400
H  -13.80900 13.24600 44.99900
H  -11.29400 11.41200 41.73000
H  -11.92900 12.78400 40.61200
H  -14.12600 11.33700 41.70000
H  -12.97800 10.30600 40.85600
H  -13.56600 11.60400 39.99000
H  -7.00200 12.68400 42.37800
H  -6.96000 12.78800 44.21700
H  -5.61300 13.22600 43.30300
H  -5.02400 18.47000 42.70100
H  -4.82000 21.05800 45.92600
H  -3.13300 20.90500 45.62900
H  -3.93900 19.69200 46.70600

