158

Mg 26.11300 -0.91500 29.36600
C  27.74000 -0.76700 32.55200
C  23.19200 -0.81000 31.15900
C  24.49200 -1.16700 26.50500
C  29.17100 -1.63600 27.95600
N  25.57000 -0.74600 31.61200
C  26.42000 -0.69800 32.70900
C  25.65800 -0.52400 34.08300
C  24.15800 -0.59800 33.58600
C  24.25500 -0.70900 32.06400
C  23.19800 -1.73300 34.16100
C  26.05700 0.87900 34.76300
C  26.37200 0.85400 36.22400
H  26.22400 2.08100 37.08200
N  24.11000 -0.98200 28.88900
C  23.06600 -0.98900 29.75000
C  21.76800 -0.85100 28.98400
C  22.15100 -0.80800 27.59600
C  23.60000 -1.07100 27.62100
C  20.36900 -0.65800 29.50700
C  21.24200 -0.50600 26.41800
O  21.62900 -0.75000 25.25100
C  19.83100 0.08400 26.64300
N  26.78700 -1.29300 27.47700
C  25.87100 -1.31000 26.46200
C  26.58800 -1.62800 25.14200
C  28.08500 -1.83400 25.57400
C  28.06600 -1.60100 27.11200
C  26.06200 -2.75600 24.29300
C  29.13700 -0.94600 24.79700
C  29.27200 0.58900 25.14600
N  27.99400 -1.04000 30.03500
C  29.12600 -1.39400 29.32400
C  30.22300 -1.54100 30.20400
C  29.73100 -1.21400 31.47800
C  28.43200 -0.99800 31.33700
C  31.60000 -1.87700 29.84000
C  30.15000 -1.02000 32.90600
O  31.20400 -1.13200 33.49300
C  28.82000 -0.73500 33.63800
C  28.66600 -1.74300 34.71800
O  27.94900 -2.68400 34.55600
O  29.37900 -1.43600 35.86800
C  29.45800 -2.49600 36.89400
H  22.18300 -0.76800 31.57300
H  23.96200 -1.08300 25.55400
H  30.14600 -1.87900 27.52800
H  25.79000 -1.38800 34.73500
H  23.62200 0.33700 33.75100
H  23.56300 -2.03700 35.14200
H  23.18800 -2.58600 33.48300
H  22.15400 -1.45300 34.30200
H  25.26100 1.61700 34.66200
H  26.86000 1.37800 34.22100
H  27.38400 0.48800 36.39900
H  25.73600 0.07400 36.64200
H  20.07700 0.39000 29.57500
H  20.21100 -1.01500 30.52500
H  19.60800 -1.05600 28.83600
H  19.20900 -0.77700 26.88700
H  19.59700 0.65500 25.74500
H  19.83500 0.84200 27.42700
H  26.51100 -0.71400 24.55200
H  28.45000 -2.84400 25.38300
H  25.11000 -3.15200 24.64700
H  26.80400 -3.54500 24.17500
H  25.77800 -2.36200 23.31700
H  28.71200 -0.77600 23.80800
H  30.12200 -1.39300 24.65800
H  28.48300 0.91400 25.82500
H  29.25000 1.22400 24.26100
H  30.21100 0.77900 25.66600
H  31.69200 -2.38800 28.88100
H  31.89100 -2.62200 30.58100
H  32.36800 -1.11500 29.97100
H  28.84500 0.27100 34.05500
H  28.58800 -2.35500 37.53400
H  30.28700 -2.24100 37.55400
H  29.48000 -3.55100 36.62100
Mg -1.18500 34.66900 26.51900
C  -2.58700 32.90600 29.37800
C  -0.09400 37.04900 28.80200
C  -0.31900 36.35400 23.91600
C  -2.79000 32.31500 24.62400
N  -1.42600 34.94100 28.90100
C  -1.88500 34.09700 29.81700
C  -1.71100 34.68700 31.22000
C  -0.87200 35.92100 30.97100
C  -0.80500 35.99200 29.43200
C  -1.45100 37.23700 31.56000
C  -1.01200 33.69400 32.16800
C  -1.56700 33.49700 33.56500
H  -0.78000 33.19500 34.85200
N  -0.29700 36.36200 26.41300
C  0.09800 37.23100 27.42000
C  0.84000 38.33800 26.82100
C  0.90400 38.15400 25.42300
C  0.06800 36.95200 25.20500
C  1.58200 39.34200 27.68400
C  1.61600 39.08100 24.39200
O  1.33200 38.96700 23.20700
C  2.42900 40.34300 24.76700
N  -1.67400 34.46200 24.54600
C  -1.08700 35.21300 23.59200
C  -1.51600 34.79900 22.19500
C  -2.08100 33.37100 22.51600
C  -2.28100 33.43500 24.00200
C  -2.55400 35.66500 21.51700
C  -1.24000 32.13000 21.99400
C  0.05600 31.75900 22.76000
N  -2.45900 32.91100 26.86400
C  -3.04700 32.15800 25.95600
C  -3.84200 31.10900 26.56500
C  -3.66800 31.36400 27.92800
C  -2.87600 32.51800 28.07700
C  -4.52300 30.04200 25.81200
C  -3.93100 30.79100 29.19600
O  -4.36300 29.67900 29.54000
C  -3.38200 31.83100 30.21100
C  -4.44900 32.48300 30.94600
O  -5.34200 33.14600 30.52000
O  -4.36000 32.10900 32.27000
C  -5.35300 32.73700 33.19900
H  0.36800 37.85200 29.38000
H  -0.06200 36.94800 23.03600
H  -3.05300 31.53400 23.90700
H  -2.67100 34.99900 31.63200
H  0.16900 35.72900 31.23200
H  -1.90500 37.82500 30.76300
H  -0.69500 37.76900 32.13700
H  -2.19200 37.02900 32.33100
H  0.02900 33.91700 32.40400
H  -0.92500 32.75500 31.62200
H  -2.39600 32.79200 33.51100
H  -2.09400 34.42800 33.77300
H  2.65900 39.26100 27.53300
H  1.31300 39.36900 28.74000
H  1.16100 40.28700 27.33900
H  1.67700 41.06500 25.08500
H  2.93600 40.69700 23.86900
H  3.15500 40.18400 25.56400
H  -0.61500 34.64000 21.60300
H  -3.06800 33.20100 22.08600
H  -2.17100 35.94100 20.53400
H  -2.54000 36.60800 22.06400
H  -3.50100 35.15300 21.34800
H  -0.72500 32.40300 21.07300
H  -1.87900 31.27400 21.77400
H  0.12700 32.30700 23.70000
H  0.97200 31.95500 22.20300
H  0.10100 30.69300 22.98300
H  -4.18000 30.05900 24.77700
H  -5.60500 30.17700 25.83400
H  -4.23500 29.12900 26.33300
H  -2.71700 31.27000 30.86800
H  -4.91700 33.30900 34.01800
H  -5.83700 31.86600 33.64000
H  -6.03600 33.42300 32.69800

