158

Mg -2.07000 16.92100 26.35000
C  -2.65000 14.94200 29.13000
C  -2.63600 19.66300 28.26700
C  -2.26100 18.56300 23.47200
C  -2.43800 13.80600 24.26600
N  -2.56700 17.17900 28.47900
C  -2.58700 16.28200 29.45000
C  -2.61600 16.92800 30.84800
C  -2.66500 18.43600 30.50900
C  -2.66100 18.44900 28.99000
C  -3.79300 19.22700 31.26000
C  -1.50500 16.62000 31.84200
C  -1.41000 17.40300 33.13900
H  -0.74000 16.71500 34.35100
N  -2.20500 18.88800 25.90600
C  -2.45000 19.85500 26.88300
C  -2.57000 21.13900 26.14200
C  -2.23000 20.78800 24.81500
C  -2.25400 19.35700 24.68800
C  -3.01300 22.52400 26.71300
C  -1.89900 21.80200 23.68100
O  -1.71300 21.37300 22.51600
C  -1.66800 23.19200 24.01500
N  -2.17500 16.19500 24.15000
C  -2.20800 17.17500 23.19500
C  -2.10300 16.61200 21.71700
C  -2.51300 15.11300 22.05000
C  -2.26800 15.03100 23.56900
C  -2.85200 17.14400 20.59000
C  -1.66200 14.16600 21.15300
C  -2.48700 13.45700 20.07000
N  -2.44300 14.81200 26.60500
C  -2.57400 13.73200 25.69700
C  -2.97800 12.54400 26.46100
C  -2.91700 12.92600 27.84300
C  -2.61300 14.27100 27.85600
C  -3.22400 11.24300 25.89300
C  -3.04200 12.49600 29.27100
O  -3.10600 11.35600 29.73900
C  -2.92500 13.81500 30.14800
C  -1.72700 13.45600 30.97000
O  -0.58100 13.60600 30.61600
O  -2.05000 12.78100 32.14900
C  -0.89300 12.26700 32.92500
H  -2.63500 20.55300 28.90000
H  -2.36200 19.20800 22.59700
H  -2.69700 12.95600 23.63100
H  -3.59100 16.65000 31.24800
H  -1.73200 18.93600 30.76900
H  -4.54600 19.40500 30.49200
H  -3.41700 20.19000 31.60700
H  -4.10600 18.61200 32.10400
H  -0.52700 16.74300 31.37700
H  -1.56600 15.54900 32.03500
H  -2.38200 17.80100 33.43000
H  -0.81400 18.30900 33.03800
H  -3.61600 22.42900 27.61500
H  -3.71200 22.95700 25.99700
H  -2.09600 23.09600 26.85700
H  -1.17200 23.72700 23.20500
H  -0.88400 23.27000 24.76900
H  -2.59100 23.70900 24.27600
H  -1.06300 16.69300 21.39900
H  -3.58200 14.89900 22.02500
H  -3.59600 17.87400 20.90900
H  -3.22100 16.43800 19.84500
H  -2.18900 17.76700 19.99000
H  -1.39900 13.29400 21.75200
H  -0.74600 14.59600 20.74700
H  -2.17300 13.90900 19.12900
H  -3.56500 13.53300 20.21500
H  -2.28200 12.39600 19.92400
H  -2.58200 10.96500 25.05600
H  -4.28200 11.18500 25.63900
H  -2.89800 10.41900 26.52700
H  -3.81100 13.99000 30.76000
H  -0.56900 13.10600 33.54100
H  -0.08900 11.73300 32.41700
H  -1.31400 11.55700 33.63700
Mg 30.36200 58.08600 40.33400
C  27.56600 56.16100 39.33700
C  32.46100 55.68800 39.48700
C  32.89600 60.43300 40.21400
C  28.05500 60.87700 40.57800
N  29.97600 56.15300 39.54400
C  28.81900 55.51500 39.22900
C  29.09300 54.04800 38.97800
C  30.61900 53.90300 39.22900
C  31.08400 55.39000 39.40600
C  31.05400 52.78600 40.25100
C  28.54600 53.50300 37.61500
C  29.32400 53.89900 36.33300
H  28.44500 54.35400 35.23300
N  32.35900 58.06200 39.90100
C  33.07000 56.96900 39.53600
C  34.43900 57.24800 39.26200
C  34.59400 58.62100 39.59500
C  33.25800 59.12600 39.93700
C  35.39400 56.18500 38.72700
C  35.96100 59.27800 39.59800
O  36.96900 58.57300 39.37700
C  36.14700 60.70500 39.91400
N  30.46700 60.42600 40.32400
C  31.66700 61.04400 40.43400
C  31.48800 62.50200 40.70800
C  29.94600 62.63300 41.03600
C  29.38700 61.24900 40.59400
C  32.42500 63.22100 41.76100
C  29.22100 63.76800 40.24800
C  27.95100 64.42900 40.76300
N  28.21600 58.40300 40.34100
C  27.45400 59.57700 40.40400
C  26.06400 59.19500 40.44400
C  26.04600 57.88000 40.06500
C  27.37600 57.45600 39.85200
C  25.02100 60.12800 40.71200
C  25.19500 56.76000 39.74900
O  23.94900 56.64500 39.72900
C  26.10800 55.59500 39.18800
C  25.79700 54.26200 39.80300
O  26.43900 53.64700 40.65200
O  24.92900 53.60700 38.97100
C  24.62300 52.18600 39.31000
H  33.09100 54.81300 39.30700
H  33.71000 61.16100 40.18300
H  27.32400 61.67600 40.72300
H  28.54000 53.47300 39.72100
H  31.00400 53.50500 38.29000
H  30.43900 51.90300 40.07800
H  30.85800 53.17800 41.24900
H  32.09900 52.48400 40.18300
H  27.56500 53.97000 37.53300
H  28.39000 52.44100 37.80400
H  29.95300 53.06400 36.02500
H  30.14100 54.58300 36.56400
H  36.04500 56.43900 37.89000
H  34.97900 55.23800 38.38200
H  35.85900 55.74500 39.60900
H  35.72300 60.96300 40.88500
H  35.62500 61.14100 39.06300
H  37.21600 60.91300 39.95300
H  31.69500 62.98600 39.75400
H  29.62700 62.68800 42.07700
H  31.89400 63.56200 42.65000
H  32.85500 64.10500 41.29000
H  33.17600 62.51700 42.11900
H  29.11600 63.36100 39.24200
H  29.96000 64.53000 39.99700
H  28.34700 65.37800 41.12500
H  27.49900 63.98700 41.65100
H  27.27200 64.58100 39.92400
H  25.05200 60.94700 39.99300
H  24.92000 60.57400 41.70200
H  24.18000 59.47500 40.47700
H  25.71700 55.50200 38.17500
H  25.22900 51.64600 38.58200
H  23.59600 52.02600 38.98200
H  24.87800 51.93400 40.33900

