158

Mg 16.17300 52.37500 27.13000
C  18.15700 50.99700 29.73100
C  13.77500 53.09800 29.44700
C  14.53000 53.58100 24.73600
C  18.56400 51.03000 24.80100
N  15.96400 51.95900 29.31900
C  16.93400 51.53000 30.20800
C  16.38600 51.33000 31.60700
C  14.97500 52.00900 31.49100
C  14.83600 52.34400 29.98800
C  13.73800 51.17000 31.98300
C  17.34100 51.81900 32.75400
C  17.16400 53.13500 33.61200
H  16.29700 53.04500 34.90100
N  14.33400 53.32400 27.15100
C  13.44800 53.57900 28.19300
C  12.31600 54.25800 27.69000
C  12.57700 54.52200 26.27700
C  13.85000 53.84800 25.98500
C  11.18500 54.57000 28.61000
C  11.80900 55.36800 25.29000
O  12.24900 55.68900 24.17500
C  10.38400 55.66200 25.53400
N  16.49600 52.26900 24.98800
C  15.66000 52.99600 24.18800
C  16.03500 52.92000 22.64800
C  17.47900 52.39000 22.82100
C  17.49600 51.77500 24.20800
C  15.03100 51.97000 21.87800
C  18.68200 53.32500 22.54500
C  19.91200 52.70000 21.79800
N  17.98200 51.02500 27.19500
C  18.87100 50.61200 26.16100
C  20.02400 49.92700 26.70200
C  19.76900 50.03400 28.07500
C  18.52300 50.75500 28.34600
C  21.24500 49.41800 26.04400
C  20.30800 49.67300 29.36000
O  21.26100 48.98600 29.62800
C  19.33600 50.31000 30.43600
C  18.82600 49.18000 31.33500
O  18.10100 48.25000 30.99600
O  19.42500 49.25500 32.58100
C  18.91500 48.34100 33.62400
H  13.02700 53.38700 30.18800
H  13.78700 53.89400 23.99900
H  19.30000 50.88100 24.00800
H  16.31400 50.25900 31.79500
H  14.90800 52.94200 32.05100
H  12.78200 51.68800 31.90200
H  13.97300 50.74700 32.96000
H  13.67200 50.31200 31.31400
H  18.27800 52.02800 32.23800
H  17.49000 51.00800 33.46700
H  16.80200 53.91700 32.94500
H  18.15200 53.45400 33.94600
H  10.54000 55.36200 28.22900
H  11.65700 54.88800 29.53900
H  10.60000 53.66600 28.77700
H  9.82900 54.78000 25.85400
H  10.01200 55.93500 24.54700
H  10.22800 56.44100 26.28100
H  16.00800 53.93800 22.25900
H  17.62200 51.52900 22.16800
H  14.40100 51.41400 22.57300
H  15.54100 51.33400 21.15500
H  14.43300 52.68700 21.31500
H  19.10300 53.64200 23.49900
H  18.40300 54.23100 22.00500
H  19.68000 51.72400 21.37300
H  20.79100 52.48200 22.40400
H  20.26800 53.37800 21.02300
H  21.49300 50.16300 25.28900
H  21.05200 48.49600 25.49600
H  22.00300 49.33800 26.82400
H  19.88600 50.99200 31.08400
H  18.59600 48.85000 34.53400
H  19.65900 47.59200 33.89500
H  18.07300 47.69300 33.37800
Mg -11.44600 38.21900 42.73100
C  -9.39400 35.53800 41.49200
C  -9.27700 40.41400 41.33400
C  -13.92400 40.42700 43.18600
C  -13.71600 35.62800 43.57600
N  -9.63100 37.97700 41.54200
C  -8.92800 36.83800 41.14300
C  -7.70100 37.08900 40.25600
C  -7.59400 38.62800 40.53300
C  -8.92200 39.06000 41.17300
C  -6.36600 38.99700 41.33400
C  -8.01700 36.69900 38.76400
C  -7.18500 35.62600 38.06400
H  -6.14500 35.90900 36.97800
N  -11.56800 40.17600 42.30200
C  -10.54400 40.95900 41.78200
C  -10.96600 42.36800 41.93300
C  -12.25300 42.35000 42.56500
C  -12.64400 40.96100 42.68400
C  -10.07400 43.55400 41.59700
C  -12.97400 43.64600 42.89200
O  -12.62900 44.78800 42.58300
C  -14.18700 43.49900 43.62100
N  -13.52600 38.04500 43.30700
C  -14.30600 39.14200 43.47500
C  -15.78900 38.81000 43.73400
C  -15.69900 37.24400 43.98600
C  -14.24900 36.94500 43.52100
C  -16.35800 39.43800 45.04700
C  -16.74800 36.35900 43.39800
C  -18.03000 36.42600 44.25000
N  -11.48900 36.01500 42.83000
C  -12.50100 35.16800 43.16600
C  -11.96500 33.77800 43.14900
C  -10.75700 33.84600 42.40000
C  -10.50000 35.29100 42.27300
C  -12.52500 32.53800 43.72500
C  -9.57800 33.13500 41.84300
O  -9.30500 31.98500 41.86500
C  -8.61000 34.21600 41.26200
C  -7.14800 34.09700 41.58700
O  -6.60700 34.39700 42.64700
O  -6.40900 33.42000 40.65600
C  -5.03600 33.02800 40.98200
H  -8.45300 41.12600 41.24700
H  -14.86100 40.97900 43.28000
H  -14.33800 34.82100 43.96800
H  -6.83300 36.58400 40.67900
H  -7.51500 39.16700 39.58800
H  -6.62700 39.56600 42.22700
H  -5.64400 39.48400 40.67800
H  -5.84300 38.10800 41.68600
H  -8.18500 37.55800 38.11400
H  -8.99600 36.24200 38.90800
H  -7.88500 34.86500 37.71900
H  -6.57500 35.13400 38.82200
H  -10.56700 44.15900 40.83500
H  -9.07400 43.25800 41.27900
H  -9.89600 44.07300 42.53800
H  -14.90400 42.91400 43.04400
H  -14.59200 44.50200 43.75800
H  -14.13000 43.04200 44.60900
H  -16.40700 39.05500 42.87000
H  -15.57900 37.03200 45.04900
H  -16.72000 38.70200 45.76500
H  -17.25800 40.00100 44.80200
H  -15.65700 40.09200 45.56600
H  -16.55200 35.28800 43.35000
H  -16.85000 36.78100 42.39800
H  -17.88300 36.89700 45.22200
H  -18.56100 35.47600 44.31800
H  -18.80500 37.02900 43.77600
H  -11.72700 31.99200 44.22800
H  -13.17400 31.99100 43.04100
H  -13.27300 32.74600 44.49100
H  -8.66500 33.84100 40.24000
H  -4.85400 32.97100 42.05500
H  -4.47000 33.87900 40.60500
H  -4.61800 32.18900 40.42500

