158

Mg 26.16800 -0.76700 29.43100
C  28.14500 -1.14700 32.43400
C  23.53600 -0.37200 31.44700
C  24.44800 -0.24400 26.57900
C  29.02100 -1.66500 27.50800
N  25.89800 -0.92000 31.71800
C  26.86400 -0.82100 32.72800
C  26.22000 -0.64900 34.16300
C  24.64300 -0.72900 33.82600
C  24.68000 -0.66300 32.25400
C  23.91100 -1.96600 34.36000
C  26.80100 0.57600 34.95100
C  27.37200 0.38200 36.30100
H  26.48900 -0.30400 37.35000
N  24.27900 -0.30900 29.05600
C  23.26300 -0.25900 29.99900
C  22.02900 -0.06200 29.35200
C  22.25000 0.06400 27.99700
C  23.71100 -0.12600 27.82200
C  20.64300 0.00500 30.07400
C  21.27800 0.09200 26.79600
O  21.59600 0.23000 25.61100
C  19.78600 0.10600 26.98900
N  26.63800 -1.07800 27.27000
C  25.80100 -0.65300 26.31200
C  26.44400 -0.60500 24.90500
C  27.87200 -1.17200 25.20200
C  27.85300 -1.42700 26.73800
C  25.63600 -1.30200 23.82300
C  28.98800 -0.14200 24.71900
C  30.31600 -0.89600 24.49900
N  28.16400 -1.24400 29.83300
C  29.20000 -1.64600 28.93000
C  30.43000 -1.69000 29.73300
C  30.05600 -1.57200 31.05900
C  28.66400 -1.35500 31.09100
C  31.81200 -1.99200 29.18900
C  30.55200 -1.58800 32.43600
O  31.71300 -1.85300 32.83000
C  29.39700 -1.32200 33.32400
C  29.28100 -2.50900 34.18800
O  28.54900 -3.45400 33.87400
O  30.04100 -2.39300 35.33700
C  29.76400 -3.43800 36.36100
H  22.59100 -0.27200 31.98400
H  23.96500 0.05100 25.64500
H  29.94300 -1.80900 26.94200
H  26.56300 -1.53900 34.69000
H  24.18600 0.21800 34.11200
H  23.46000 -2.59300 33.59100
H  23.16700 -1.55600 35.04200
H  24.61200 -2.57000 34.93700
H  25.90700 1.19900 34.97500
H  27.48900 1.11800 34.30100
H  27.42900 1.34400 36.80900
H  28.29300 -0.20000 36.33100
H  20.22200 0.99300 29.88700
H  20.74300 -0.18400 31.14300
H  20.02400 -0.78200 29.64200
H  19.63900 1.04100 27.52900
H  19.41100 -0.77200 27.51400
H  19.29100 0.20500 26.02400
H  26.57000 0.41800 24.55000
H  28.04800 -2.10100 24.66100
H  26.13100 -2.22000 23.50500
H  25.50200 -0.61000 22.99100
H  24.63500 -1.54000 24.18200
H  29.19800 0.60500 25.48400
H  28.62900 0.35700 23.81900
H  30.91500 -0.67500 25.38200
H  30.70800 -0.71900 23.49800
H  30.28100 -1.98400 24.43900
H  31.98800 -1.40600 28.28600
H  31.87100 -3.01700 28.82500
H  32.52100 -1.82300 29.99900
H  29.57400 -0.43600 33.93400
H  29.60300 -4.45100 35.99000
H  28.94500 -3.21600 37.04500
H  30.58200 -3.36800 37.07800
Mg 7.96100 49.10200 24.95100
C  6.04600 48.90800 28.07800
C  10.62800 50.30500 26.76900
C  9.70700 48.84800 22.25300
C  4.98800 48.32400 23.16900
N  8.24800 49.48500 27.15500
C  7.42000 49.31300 28.24600
C  8.15000 49.78600 29.53100
C  9.50300 50.42400 28.98700
C  9.47200 50.02600 27.51700
C  9.39700 51.98200 29.13600
C  8.38500 48.64500 30.61700
C  8.03800 49.11500 32.10500
H  8.37200 48.23600 33.24900
N  9.92400 49.59500 24.51600
C  10.88200 50.01100 25.40300
C  12.13300 50.18800 24.72000
C  11.95300 49.60300 23.38800
C  10.49200 49.33800 23.32100
C  13.44900 50.59500 25.46300
C  12.94100 49.28100 22.31200
O  12.70800 48.75900 21.24300
C  14.44500 49.59400 22.55300
N  7.49200 48.42400 23.03500
C  8.36600 48.56100 22.05600
C  7.78900 48.04000 20.69000
C  6.22900 48.16600 20.99400
C  6.19200 48.37900 22.49600
C  8.21300 48.73400 19.39800
C  5.50300 46.85800 20.55500
C  4.48800 47.09700 19.52600
N  5.98500 48.64400 25.45300
C  4.90900 48.32800 24.60100
C  3.67800 48.08900 25.45000
C  4.16400 48.27300 26.82300
C  5.49200 48.66800 26.78700
C  2.35200 47.86000 25.05600
C  3.70300 48.15200 28.16600
O  2.58800 47.84400 28.60200
C  4.93900 48.66700 29.07800
C  5.18700 47.50000 30.04200
O  5.59100 46.39300 29.73900
O  4.73900 47.80400 31.26300
C  4.82000 46.79700 32.36200
H  11.42000 50.64600 27.44000
H  10.25500 48.57800 21.34700
H  4.11900 48.13900 22.53500
H  7.57600 50.57600 30.01600
H  10.35900 49.96700 29.48200
H  9.60900 52.43400 28.16700
H  10.19700 52.23100 29.83300
H  8.46300 52.37400 29.53900
H  9.40900 48.27400 30.57900
H  7.73600 47.79100 30.42800
H  6.95100 49.04200 32.09700
H  8.31500 50.15900 32.24900
H  13.94600 49.63200 25.35100
H  13.25700 50.70600 26.53000
H  14.09700 51.38500 25.08400
H  14.66800 50.64500 22.73800
H  14.98600 49.38900 21.63000
H  14.72400 48.92900 23.37000
H  8.10200 46.99800 20.75800
H  5.80100 49.02500 20.47600
H  8.97300 49.50600 19.51700
H  7.33200 49.22100 18.97800
H  8.50000 47.90100 18.75600
H  5.02800 46.31900 21.37500
H  6.17400 46.15500 20.06200
H  3.52700 47.44500 19.90400
H  4.33300 46.14000 19.02800
H  4.72500 47.90600 18.83500
H  2.48700 47.49700 24.03700
H  1.83700 48.82000 25.08200
H  1.91200 47.13700 25.74400
H  4.72300 49.59400 29.60900
H  5.01000 47.37400 33.26700
H  5.71200 46.17400 32.30500
H  3.86600 46.29800 32.53200

