158

Mg -0.34900 7.96400 26.24000
C  0.58400 10.01100 28.87500
C  -0.20000 5.30700 28.30500
C  -0.84700 6.02400 23.59000
C  0.16300 10.77300 24.00100
N  0.27400 7.71600 28.30000
C  0.32400 8.67200 29.22300
C  0.26000 8.12400 30.65300
C  0.40700 6.59000 30.45700
C  0.20400 6.52200 28.89300
C  1.68100 6.05200 31.00600
C  -1.16600 8.55900 31.17800
C  -1.25800 8.87200 32.68400
H  -0.10400 8.33000 33.54400
N  -0.44700 5.93900 25.97400
C  -0.54900 5.01000 26.95700
C  -1.00700 3.77000 26.38400
C  -1.16800 3.95600 25.01600
C  -0.75900 5.34200 24.82100
C  -1.14600 2.50100 27.24300
C  -1.65100 2.98400 23.79600
O  -1.63700 3.27300 22.62200
C  -1.83400 1.58300 24.17500
N  -0.26300 8.36700 24.15600
C  -0.70400 7.42300 23.28300
C  -0.91700 7.91000 21.86000
C  -0.55200 9.45700 22.03200
C  -0.22600 9.56000 23.49300
C  -0.02300 7.13000 20.84800
C  -1.80000 10.34600 21.69800
C  -2.76700 10.98400 22.80200
N  0.19800 9.96800 26.35200
C  0.42000 10.96400 25.40300
C  0.92100 12.16500 26.09100
C  1.00300 11.81700 27.46100
C  0.48900 10.55900 27.58000
C  1.30700 13.42800 25.44800
C  1.22700 12.34300 28.76700
O  1.63700 13.42800 29.17200
C  0.97600 11.21000 29.75400
C  2.25000 11.10600 30.52500
O  3.24400 10.58200 30.06900
O  2.12500 11.56600 31.77000
C  3.31800 11.57100 32.56900
H  -0.14500 4.43600 28.96100
H  -1.34200 5.52100 22.75700
H  0.09200 11.66600 23.37700
H  0.97400 8.74900 31.19100
H  -0.43700 6.08800 30.93000
H  2.17500 6.72000 31.71200
H  2.31300 5.71000 30.18700
H  1.35900 5.14700 31.52000
H  -1.82100 7.70100 31.02600
H  -1.61700 9.43600 30.71300
H  -2.27200 8.57200 32.94800
H  -1.16300 9.95400 32.76700
H  -2.20200 2.23100 27.22200
H  -0.89900 2.60900 28.29900
H  -0.67200 1.61200 26.82800
H  -0.90200 1.08900 23.90100
H  -2.61700 1.12800 23.56800
H  -2.09400 1.50200 25.23100
H  -1.96700 7.66100 21.70300
H  0.38800 9.73500 21.55400
H  0.32300 6.27900 21.43400
H  0.88600 7.67900 20.60200
H  -0.55700 6.87000 19.93300
H  -2.46800 9.89200 20.96600
H  -1.39100 11.09300 21.01700
H  -3.80400 10.80900 22.51500
H  -2.75800 12.07400 22.81800
H  -2.68700 10.59400 23.81700
H  0.62100 14.25600 25.63200
H  1.45900 13.27900 24.37900
H  2.29200 13.73600 25.79800
H  0.14600 11.44400 30.42100
H  3.82700 12.53500 32.56400
H  4.09300 10.87300 32.25200
H  3.01400 11.35400 33.59300
Mg -11.99800 37.48400 43.32300
C  -9.82100 35.08200 42.18900
C  -10.08300 39.77800 41.54400
C  -14.37900 39.89800 43.76700
C  -14.07900 35.03300 44.38200
N  -10.22300 37.37600 41.88600
C  -9.45500 36.30100 41.60800
C  -8.28600 36.56300 40.61800
C  -8.35900 38.12000 40.62700
C  -9.69200 38.48900 41.31300
C  -7.06000 38.77900 41.25700
C  -8.57900 35.84300 39.28900
C  -7.30500 35.27600 38.56800
H  -6.80200 36.06500 37.35500
N  -12.14800 39.58800 42.88600
C  -11.25800 40.30700 42.19000
C  -11.64800 41.71100 42.40700
C  -12.89100 41.77700 43.04300
C  -13.20700 40.35400 43.28500
C  -10.76900 42.83700 41.74500
C  -13.67700 43.02100 43.31600
O  -13.20000 44.11800 43.02000
C  -15.03200 43.11400 43.94600
N  -14.00800 37.49300 43.90300
C  -14.80100 38.58100 43.95400
C  -16.18200 38.22300 44.67100
C  -16.09400 36.63700 44.70600
C  -14.66900 36.30500 44.21200
C  -16.40500 38.86200 46.07800
C  -17.17000 35.86100 43.98500
C  -16.85900 35.03200 42.68900
N  -11.94900 35.51400 43.37700
C  -12.79100 34.66900 44.02200
C  -12.22400 33.38400 44.00800
C  -11.01100 33.52500 43.38100
C  -10.92500 34.82400 42.98500
C  -12.76500 32.12100 44.67100
C  -9.77100 32.85400 42.98700
O  -9.38800 31.71400 43.25700
C  -8.94700 33.80600 42.07900
C  -7.65200 34.01000 42.87700
O  -7.48600 34.70500 43.85800
O  -6.62700 33.37300 42.21800
C  -5.32500 33.48400 42.89100
H  -9.50200 40.57700 41.07900
H  -15.15600 40.66100 43.83700
H  -14.75200 34.27400 44.78600
H  -7.42800 36.12400 41.12700
H  -8.29500 38.53300 39.62000
H  -7.37200 39.42100 42.08000
H  -6.71200 39.48100 40.49900
H  -6.26300 38.11600 41.59300
H  -9.13300 36.54500 38.66500
H  -9.20700 34.99000 39.54400
H  -7.62000 34.27600 38.27200
H  -6.51300 35.07200 39.28900
H  -11.40700 43.54000 41.20900
H  -10.13900 42.45400 40.94200
H  -10.13900 43.35400 42.46800
H  -15.22100 44.17300 44.11900
H  -15.12600 42.36700 44.73500
H  -15.81200 42.82400 43.24200
H  -16.97200 38.56900 44.00500
H  -16.04200 36.32500 45.75000
H  -16.96000 39.76500 45.82400
H  -15.40000 39.10400 46.42500
H  -17.01000 38.26800 46.76200
H  -18.08100 36.43900 43.83300
H  -17.54700 35.19300 44.76000
H  -16.70200 33.99600 42.98700
H  -15.95300 35.40000 42.20900
H  -17.70900 35.12500 42.01200
H  -13.47700 32.40900 45.44400
H  -11.98100 31.61100 45.23000
H  -13.19400 31.51000 43.87700
H  -8.81700 33.37900 41.08400
H  -4.49600 33.20500 42.24000
H  -5.28900 32.66500 43.60900
H  -5.09000 34.40900 43.41800

