158

Mg 8.62200 4.45000 27.58600
C  10.12000 2.72000 30.24700
C  6.70500 6.20600 29.77000
C  7.18200 5.94400 24.92200
C  10.22000 2.32800 25.43700
N  8.41000 4.42300 29.73600
C  9.11500 3.67200 30.67800
C  8.69000 3.89600 32.14900
C  7.51400 4.90200 31.89200
C  7.53300 5.25000 30.40300
C  6.12400 4.33000 32.33400
C  9.86100 4.43200 32.94700
C  9.61800 5.08300 34.38700
H  10.09400 4.38200 35.66100
N  7.17900 5.99300 27.35300
C  6.57200 6.64100 28.41400
C  5.68600 7.61300 27.88300
C  5.81600 7.57900 26.44700
C  6.73500 6.48600 26.15800
C  4.80800 8.54800 28.81500
C  5.03300 8.38200 25.43600
O  5.16500 8.09300 24.26300
C  4.10800 9.49900 25.82400
N  8.52000 4.07100 25.47500
C  7.94700 4.88200 24.58200
C  8.24200 4.47300 23.12800
C  9.33100 3.38700 23.35100
C  9.37000 3.21500 24.84200
C  6.90000 4.01700 22.41500
C  10.63000 3.51000 22.52500
C  11.15300 2.25700 21.79600
N  9.88100 2.88500 27.78300
C  10.43600 2.09600 26.77900
C  11.31500 1.10900 27.36700
C  11.23900 1.30400 28.74600
C  10.38200 2.41500 28.90200
C  12.04900 0.07100 26.65400
C  11.66600 0.89200 30.00100
O  12.38600 -0.04200 30.31500
C  10.90000 1.74300 31.11400
C  10.21900 0.90600 31.99500
O  9.21300 0.29400 31.66800
O  10.77300 0.94300 33.26300
C  10.11500 0.07400 34.34100
H  6.15800 6.83800 30.47300
H  6.78000 6.55500 24.11100
H  10.72400 1.58700 24.81300
H  8.41700 2.91600 32.54000
H  7.60800 5.86400 32.39400
H  5.58600 4.98500 33.01800
H  6.26100 3.36200 32.81500
H  5.69000 4.06900 31.36900
H  10.36100 5.22300 32.38900
H  10.69400 3.73300 33.01100
H  8.53400 5.18700 34.44800
H  9.98200 6.10900 34.33300
H  5.08800 9.59800 28.73700
H  4.97500 8.29300 29.86200
H  3.75100 8.47000 28.56000
H  3.91300 10.06700 24.91400
H  4.59100 10.13300 26.56700
H  3.18500 9.02900 26.16600
H  8.54100 5.36600 22.58000
H  8.86800 2.45200 23.03400
H  7.05400 3.09000 21.86100
H  6.58900 4.74700 21.66800
H  6.10500 3.96100 23.15800
H  11.38800 3.86800 23.22100
H  10.45000 4.12300 21.64100
H  10.49700 2.30500 20.92600
H  10.89700 1.39700 22.41500
H  12.17700 2.39900 21.45200
H  11.43100 -0.78900 26.39700
H  12.75100 -0.35000 27.37300
H  12.69400 0.49700 25.88600
H  11.62200 2.32500 31.68700
H  9.25700 -0.47500 33.95300
H  9.85300 0.78000 35.12900
H  10.79600 -0.69300 34.71000
Mg 16.73700 52.56400 26.36900
C  18.21300 51.24300 29.22800
C  14.00200 53.21500 28.38800
C  14.95600 53.58500 23.53500
C  18.94900 50.86300 24.41000
N  16.30800 52.32600 28.52800
C  17.11200 51.94400 29.50900
C  16.50000 52.24300 30.85000
C  15.02500 52.57700 30.56500
C  15.14000 52.73800 29.07600
C  14.08500 51.37400 31.01900
C  17.37900 53.40700 31.45800
C  17.49200 53.40200 32.98600
H  16.43700 52.58800 33.73100
N  14.84300 53.37700 26.00200
C  13.87900 53.57000 27.00800
C  12.73500 54.23600 26.36600
C  12.98300 54.27400 24.97900
C  14.32600 53.70000 24.76600
C  11.51100 54.70800 27.11100
C  12.01900 54.66700 23.78400
O  12.33700 54.57800 22.60600
C  10.56500 55.20100 24.07500
N  16.91900 52.36800 24.31900
C  16.14300 52.86300 23.33300
C  16.64100 52.55800 21.90900
C  18.07600 51.98900 22.30600
C  18.00000 51.70700 23.76600
C  15.60800 51.46700 21.23000
C  19.30000 52.94600 21.88700
C  20.47500 52.23900 21.22400
N  18.27000 51.24300 26.68900
C  19.06000 50.61100 25.76700
C  20.05400 49.85600 26.48100
C  19.74300 50.04700 27.82000
C  18.62600 50.87100 27.88900
C  21.28900 49.26100 25.87000
C  20.23100 49.88300 29.20000
O  21.21600 49.29400 29.52700
C  19.20900 50.69800 30.16300
C  18.56300 49.71500 31.09700
O  17.73600 48.85600 30.74400
O  19.06000 49.91700 32.38800
C  18.62100 49.02200 33.44200
H  13.13700 53.35000 29.04100
H  14.45600 53.94300 22.63300
H  19.71600 50.41400 23.77700
H  16.56000 51.28700 31.37100
H  14.64000 53.44800 31.09600
H  14.58400 50.65200 31.66600
H  13.73100 50.86400 30.12300
H  13.26000 51.83400 31.56300
H  16.79800 54.29300 31.20000
H  18.37800 53.46000 31.02500
H  17.45700 54.36500 33.49400
H  18.50600 53.10600 33.25800
H  10.63800 54.12200 26.82300
H  11.28900 55.71800 26.76500
H  11.75600 54.73100 28.17300
H  10.03000 54.44000 24.64300
H  10.15200 55.16600 23.06700
H  10.65300 56.11400 24.66500
H  16.62900 53.35900 21.16900
H  18.17500 51.01100 21.83600
H  14.86300 51.01300 21.88300
H  16.19600 50.68600 20.74800
H  15.07500 51.99700 20.44000
H  19.62600 53.34800 22.84600
H  18.98200 53.80900 21.30100
H  20.55800 52.66600 20.22400
H  20.18600 51.19600 21.09400
H  21.41600 52.22700 21.77300
H  21.67800 49.85100 25.04000
H  21.02100 48.24700 25.57400
H  22.14500 49.20500 26.54300
H  19.69700 51.51500 30.69500
H  19.37100 48.80400 34.20200
H  18.06200 48.19500 33.00400
H  17.90400 49.55400 34.06800

