158

Mg 29.90400 58.55500 40.20300
C  27.36600 56.28000 39.46500
C  32.23600 55.99600 39.67100
C  32.13500 60.90000 40.07400
C  27.37800 61.14900 39.63200
N  29.80900 56.43300 39.59300
C  28.67800 55.68600 39.33200
C  29.02400 54.34900 38.75300
C  30.49300 54.18300 39.29900
C  30.91100 55.64700 39.59400
C  30.75500 53.23400 40.57800
C  28.86600 54.28300 37.19400
C  27.74000 53.33900 36.73100
H  26.81600 54.07200 35.73900
N  31.94200 58.49800 39.95300
C  32.73900 57.31300 39.81200
C  34.17700 57.74900 39.82200
C  34.18500 59.21300 40.07200
C  32.73700 59.58100 40.02800
C  35.24200 56.67000 39.62900
C  35.45400 60.09400 40.35000
O  36.55800 59.56200 40.33100
C  35.30400 61.65900 40.61300
N  29.73400 60.68800 39.93400
C  30.81200 61.43200 39.97900
C  30.62300 62.95400 39.97100
C  29.08200 63.00300 39.74100
C  28.69400 61.53700 39.72700
C  31.06400 63.76500 41.25800
C  28.70600 63.83500 38.49600
C  27.78500 65.00900 38.60900
N  27.75700 58.75000 40.04800
C  26.95000 59.81000 39.73100
C  25.63800 59.32000 39.52800
C  25.70500 57.96800 39.53100
C  27.05400 57.64400 39.70600
C  24.47800 60.28500 39.33200
C  24.95100 56.81200 39.41000
O  23.71700 56.65600 39.25200
C  26.00200 55.62700 39.30300
C  25.68900 54.57100 40.23700
O  25.82800 54.64900 41.43900
O  24.97900 53.54400 39.64500
C  24.45800 52.51500 40.52600
H  33.00100 55.21600 39.66600
H  32.88800 61.69100 40.07500
H  26.60400 61.91400 39.54500
H  28.40200 53.66200 39.32600
H  31.02400 53.83400 38.41400
H  31.42900 52.43100 40.28100
H  29.77600 52.82600 40.83100
H  31.04400 53.92000 41.37300
H  29.79300 53.93200 36.74000
H  28.70200 55.31500 36.88500
H  27.12400 52.93200 37.53300
H  28.27700 52.49000 36.30700
H  34.89600 55.98600 38.85400
H  35.21800 56.18500 40.60500
H  36.25200 57.01500 39.41100
H  36.25400 62.09100 40.92900
H  34.65500 61.74600 41.48400
H  34.93900 62.24500 39.76900
H  31.19800 63.25100 39.09400
H  28.65800 63.43900 40.64700
H  30.23600 64.41000 41.55300
H  31.94700 64.39100 41.13000
H  31.36800 63.00400 41.97700
H  28.20400 63.12700 37.83700
H  29.60200 64.21300 38.00300
H  26.77000 64.69100 38.37000
H  28.11100 65.87900 38.03900
H  27.67400 65.26400 39.66200
H  24.55000 60.75900 38.35400
H  24.51100 60.93400 40.20700
H  23.63100 59.60800 39.43600
H  25.81400 55.39000 38.25500
H  23.44400 52.73700 40.86100
H  25.03300 52.34000 41.43500
H  24.37600 51.56700 39.99300
Mg -1.70500 34.44800 26.73200
C  -3.19200 32.58700 29.10400
C  -0.33900 36.44800 29.16600
C  -0.60600 36.61300 24.26000
C  -3.67700 32.89900 24.34700
N  -1.61600 34.38300 28.82400
C  -2.24800 33.45400 29.63400
C  -1.95300 33.65200 31.17000
C  -1.00600 34.91700 31.17600
C  -0.92300 35.28800 29.64200
C  -1.49100 36.13700 32.02100
C  -1.23600 32.36200 31.74800
C  -1.85700 31.73700 32.96600
H  -1.06900 31.88400 34.27600
N  -0.49100 36.23000 26.69700
C  -0.09000 36.87700 27.83700
C  0.67400 38.00600 27.43300
C  0.78900 37.96500 25.96300
C  -0.11500 36.90700 25.54900
C  1.16200 39.05800 28.40800
C  1.58400 38.82100 25.05300
O  1.51700 38.71700 23.81400
C  2.46300 39.86300 25.60200
N  -2.12600 34.76600 24.63700
C  -1.56700 35.70500 23.87400
C  -2.10200 35.56400 22.39200
C  -2.88100 34.25500 22.45300
C  -2.97200 34.01900 23.91500
C  -2.95300 36.81600 21.97300
C  -2.36100 33.05900 21.66200
C  -1.27600 32.09500 22.28600
N  -3.11800 32.94900 26.56900
C  -3.85500 32.41700 25.64900
C  -4.62600 31.30800 26.08500
C  -4.44300 31.36800 27.46600
C  -3.51400 32.37000 27.74200
C  -5.52300 30.45700 25.36300
C  -4.76100 30.80900 28.73200
O  -5.46900 29.81700 28.97100
C  -4.04500 31.68700 29.86300
C  -5.07400 32.29000 30.73100
O  -5.97800 33.08500 30.37100
O  -5.02800 31.73300 32.01600
C  -6.13300 32.13100 32.81000
H  0.25100 36.95800 29.93000
H  -0.34600 37.29000 23.44400
H  -4.23200 32.36800 23.57100
H  -2.90800 33.91400 31.62600
H  -0.01500 34.57900 31.47900
H  -1.74000 36.99700 31.40100
H  -0.60000 36.43800 32.57300
H  -2.23700 35.78900 32.73600
H  -0.20700 32.61100 32.00800
H  -1.24700 31.72100 30.86600
H  -1.91200 30.66100 32.80000
H  -2.79900 32.27200 33.08400
H  0.86400 40.07100 28.13800
H  2.24000 39.21000 28.46200
H  0.84800 38.94100 29.44600
H  3.17900 40.13700 24.82700
H  2.99100 39.51500 26.49000
H  1.69700 40.61200 25.80500
H  -1.18700 35.41800 21.81900
H  -3.91900 34.36800 22.13800
H  -2.34800 37.49900 21.37600
H  -3.21300 37.43100 22.83400
H  -3.81000 36.48000 21.38900
H  -1.90200 33.28800 20.70000
H  -3.20900 32.38700 21.53000
H  -1.58800 31.13700 22.70200
H  -0.66200 32.67300 22.97600
H  -0.52600 31.96300 21.50700
H  -5.79200 29.49200 25.79400
H  -5.20400 30.14100 24.37000
H  -6.46300 30.99000 25.21600
H  -3.40300 30.98700 30.39700
H  -5.94000 32.74800 33.68800
H  -6.37400 31.14600 33.20900
H  -7.06300 32.41400 32.31600

