158

Mg -2.08900 17.51700 26.33200
C  -2.57600 15.11700 28.91100
C  -2.75300 19.98200 28.64700
C  -2.03900 19.67100 23.79100
C  -2.33000 14.78500 24.00300
N  -2.77500 17.48100 28.54400
C  -2.70000 16.42800 29.37800
C  -2.66300 16.96400 30.79700
C  -2.94600 18.45400 30.64700
C  -2.69600 18.66700 29.16200
C  -4.33500 19.05900 31.11800
C  -1.44500 16.68400 31.71000
C  -1.21500 17.50800 33.02900
H  -0.68600 16.87600 34.35200
N  -2.39500 19.53900 26.24500
C  -2.57500 20.37800 27.31400
C  -2.70600 21.73000 26.81400
C  -2.72300 21.64600 25.37700
C  -2.35100 20.25000 25.05200
C  -2.90700 22.91700 27.83900
C  -2.97400 22.70200 24.32300
O  -2.91600 22.47800 23.08800
C  -3.36900 24.04200 24.70400
N  -1.88300 17.23500 24.17300
C  -2.00900 18.30900 23.33100
C  -1.89200 17.88700 21.86700
C  -2.29200 16.36000 21.91100
C  -2.12800 16.08600 23.46600
C  -2.66400 18.80500 20.85800
C  -1.39900 15.45100 20.94800
C  -2.13500 14.59900 19.94300
N  -2.17400 15.36900 26.38900
C  -2.29100 14.43300 25.37500
C  -2.43600 13.11400 25.88400
C  -2.43000 13.34000 27.29000
C  -2.33600 14.73700 27.56400
C  -2.46200 11.80000 25.17800
C  -2.53600 12.68100 28.52100
O  -2.67400 11.46900 28.65500
C  -2.65900 13.80600 29.65900
C  -1.56500 13.64300 30.54400
O  -0.43600 13.92200 30.24600
O  -1.92000 12.89200 31.65500
C  -0.94100 12.49800 32.63500
H  -2.93600 20.78600 29.36300
H  -2.15900 20.30600 22.91100
H  -2.50900 14.02000 23.24400
H  -3.52700 16.49500 31.26800
H  -2.26100 19.04900 31.25000
H  -4.15300 19.74500 31.94500
H  -4.90400 18.20700 31.48900
H  -4.90700 19.54200 30.32600
H  -0.58500 16.68200 31.04100
H  -1.57800 15.63300 31.96600
H  -2.16500 18.01900 33.18600
H  -0.49000 18.25500 32.70500
H  -2.15900 23.66300 27.56800
H  -2.54600 22.59600 28.81600
H  -3.91000 23.34300 27.81700
H  -4.36800 24.11600 25.13500
H  -3.57300 24.53900 23.75500
H  -2.70700 24.61200 25.35700
H  -0.82500 17.91400 21.64400
H  -3.33000 16.27900 21.58600
H  -1.98000 19.14700 20.08200
H  -3.22800 19.56700 21.39600
H  -3.37900 18.23100 20.26900
H  -0.85600 14.86200 21.68700
H  -0.69800 15.99600 20.31600
H  -1.91600 13.57600 20.25000
H  -1.62400 14.75300 18.99300
H  -3.21900 14.71000 19.94000
H  -3.48600 11.64500 24.84000
H  -2.27900 10.98700 25.88100
H  -1.89600 11.81500 24.24700
H  -3.55600 13.61400 30.24700
H  -0.12200 11.91900 32.20600
H  -1.45500 12.09500 33.50800
H  -0.40300 13.37700 32.98800
Mg 16.75000 -1.66000 27.73500
C  15.50100 0.39100 30.41300
C  18.53900 -3.41900 30.02200
C  18.44900 -3.32300 25.07500
C  15.05800 0.21200 25.51300
N  16.92800 -1.53800 29.96300
C  16.39100 -0.63200 30.83100
C  16.90900 -0.80100 32.27900
C  17.92500 -2.02100 32.09100
C  17.81100 -2.37200 30.60600
C  19.40600 -1.90800 32.59700
C  15.62400 -1.04200 33.17200
C  15.76000 -0.58100 34.72700
H  17.16200 -0.22200 35.28300
N  18.21000 -3.15900 27.57500
C  18.81300 -3.74200 28.63200
C  19.71500 -4.80500 28.20000
C  19.60700 -4.84600 26.76300
C  18.71400 -3.78200 26.41800
C  20.61200 -5.57700 29.18200
C  20.17500 -5.86500 25.76900
O  19.92400 -5.82700 24.59600
C  21.20400 -6.97000 26.20200
N  16.85200 -1.58900 25.57000
C  17.54400 -2.26500 24.71300
C  17.37600 -1.72400 23.19500
C  16.24500 -0.66000 23.44700
C  16.00200 -0.67500 24.95000
C  18.69500 -1.16200 22.62200
C  14.95800 -0.89600 22.56900
C  14.42900 0.35400 21.97600
N  15.57500 -0.04000 27.90400
C  14.85800 0.61900 26.87000
C  14.04000 1.73400 27.39700
C  14.26800 1.67300 28.78200
C  15.17500 0.56900 29.02300
C  13.20800 2.61000 26.55900
C  13.90900 2.33000 30.04900
O  13.21600 3.31500 30.30700
C  14.69400 1.54500 31.16400
C  15.58400 2.47700 31.96800
O  16.78500 2.73200 31.75300
O  14.85400 3.00900 32.97700
C  15.73200 3.62300 34.03500
H  19.21800 -3.83200 30.77100
H  18.96800 -3.79100 24.23500
H  14.48700 0.76600 24.76500
H  17.42700 0.02700 32.76300
H  17.46500 -2.88000 32.58200
H  19.48900 -0.98400 33.16900
H  20.12200 -1.77600 31.78500
H  19.65100 -2.81800 33.14400
H  15.38400 -2.10100 33.07400
H  14.80500 -0.51700 32.67900
H  15.44200 -1.38700 35.38900
H  15.02000 0.19800 34.90700
H  20.52000 -6.64000 28.95900
H  20.37500 -5.30300 30.21000
H  21.64200 -5.26000 29.01600
H  20.68600 -7.84200 26.60100
H  21.81200 -6.44800 26.94100
H  21.85500 -7.18200 25.35400
H  17.00600 -2.55200 22.58900
H  16.57300 0.37500 23.35000
H  18.39400 -0.51200 21.80100
H  19.28000 -1.93900 22.12900
H  19.20700 -0.44600 23.26500
H  14.19200 -1.24700 23.26000
H  15.22500 -1.66000 21.83900
H  14.30300 0.20400 20.90400
H  15.04700 1.22900 22.18000
H  13.45200 0.60200 22.39000
H  13.74700 3.54900 26.43600
H  12.28500 2.94800 27.03200
H  13.02400 2.21800 25.55900
H  13.96100 1.20700 31.89700
H  15.24100 3.66500 35.00700
H  16.04300 4.59900 33.66100
H  16.53700 2.92300 34.26000

