158

Mg 24.36600 0.55600 29.69800
C  26.46100 0.55400 32.56200
C  21.68700 0.55100 31.75100
C  22.45500 0.53100 26.97300
C  27.31300 -0.10600 27.76100
N  24.15000 0.69100 31.90500
C  25.09600 0.74600 32.88100
C  24.44200 1.00700 34.28000
C  22.92100 0.67000 33.88900
C  22.85700 0.63600 32.45500
C  22.52400 -0.74600 34.36200
C  24.83100 2.42100 34.78100
C  24.50900 2.58300 36.27200
H  25.55100 2.23300 37.28500
N  22.32200 0.65200 29.39200
C  21.35000 0.59400 30.38400
C  19.99600 0.67700 29.71600
C  20.25300 0.67800 28.28500
C  21.70300 0.61200 28.18800
C  18.67300 0.66000 30.43500
C  19.33000 0.77300 27.15200
O  19.54200 0.53300 25.97500
C  17.94800 1.09400 27.56900
N  24.84900 0.15000 27.66400
C  23.89800 0.40800 26.73000
C  24.48800 0.19000 25.29100
C  26.02500 0.10600 25.55400
C  26.06000 0.09100 27.10700
C  23.92200 -1.08100 24.60500
C  26.93900 1.20300 24.98600
C  27.15200 2.45600 25.78700
N  26.44500 0.22200 29.98700
C  27.53100 0.02100 29.11600
C  28.76500 0.03200 29.86300
C  28.41300 0.26800 31.13000
C  27.02000 0.28800 31.23300
C  30.13100 -0.20500 29.20400
C  28.93900 0.53700 32.46800
O  30.10700 0.65100 32.87400
C  27.65800 0.70600 33.45400
C  27.79500 -0.41100 34.43400
O  27.09000 -1.36400 34.46100
O  28.82200 -0.08700 35.27500
C  28.91300 -0.90000 36.43200
H  20.73600 0.67300 32.27500
H  21.88300 0.57700 26.04300
H  28.12900 -0.19400 27.04000
H  24.90000 0.38100 35.04600
H  22.24400 1.40500 34.32400
H  23.22600 -0.84300 35.19000
H  22.56400 -1.62600 33.72000
H  21.56000 -0.72700 34.87200
H  24.24100 3.16100 34.24100
H  25.89300 2.43100 34.53300
H  23.53700 2.12000 36.44500
H  24.27500 3.64700 36.29700
H  18.03500 1.46800 30.07800
H  18.76800 0.74100 31.51800
H  18.17800 -0.30200 30.29900
H  17.99200 2.05400 28.08200
H  17.58000 0.28400 28.19900
H  17.31600 1.36200 26.72200
H  24.24000 0.99500 24.60000
H  26.34300 -0.89800 25.27600
H  22.85200 -1.26800 24.70300
H  24.42000 -1.97900 24.97000
H  24.08600 -0.93700 23.53700
H  26.37400 1.57300 24.13000
H  27.86500 0.76300 24.61700
H  26.66000 2.59700 26.75000
H  27.14100 3.38400 25.21700
H  28.21400 2.34000 26.00300
H  30.12100 -0.12600 28.11700
H  30.43400 -1.21500 29.47800
H  30.98600 0.41600 29.46900
H  27.85500 1.68000 33.90200
H  28.82300 -1.95400 36.17100
H  28.12200 -0.73800 37.16500
H  29.85800 -0.65900 36.92000
Mg -13.05400 16.96500 41.84800
C  -10.01800 15.08000 41.23800
C  -11.48200 19.67900 40.68600
C  -15.93700 18.56700 42.14600
C  -14.60000 13.95300 42.50000
N  -10.99100 17.27400 41.02500
C  -9.93700 16.47300 40.94300
C  -8.73100 17.32000 40.49400
C  -9.30800 18.73100 40.34400
C  -10.67000 18.53700 40.76800
C  -8.63700 19.90000 40.98700
C  -7.96800 16.76200 39.18200
C  -6.55600 16.22500 39.38400
H  -6.01800 15.24200 38.40600
N  -13.62400 18.86800 41.56200
C  -12.84900 19.85100 41.08400
C  -13.60000 21.10400 40.99100
C  -14.97200 20.77600 41.45200
C  -14.90000 19.37000 41.75600
C  -13.07400 22.35500 40.45200
C  -16.15800 21.74900 41.65600
O  -15.98900 22.91700 41.33900
C  -17.60600 21.44700 42.10700
N  -15.02000 16.34200 42.20600
C  -16.03400 17.16700 42.33500
C  -17.40600 16.47100 42.42800
C  -16.91500 14.98300 42.55900
C  -15.40700 15.09300 42.44200
C  -18.26100 17.08200 43.52900
C  -17.62600 13.85800 41.75800
C  -17.37100 13.93600 40.22700
N  -12.42800 14.91300 41.93800
C  -13.23000 13.81100 42.23400
C  -12.42400 12.61300 42.10100
C  -11.15800 13.03000 41.68200
C  -11.21900 14.43300 41.66900
C  -12.91600 11.17900 42.25000
C  -9.81600 12.59500 41.35100
O  -9.22400 11.51100 41.35300
C  -8.99700 13.96600 41.10500
C  -7.76400 14.17700 42.00700
O  -7.44800 15.21300 42.55900
O  -6.99700 13.05100 42.05700
C  -5.58900 13.23700 42.59300
H  -11.02400 20.58100 40.27400
H  -16.93100 19.00800 42.24200
H  -15.27000 13.11800 42.71500
H  -8.06400 17.46400 41.34300
H  -9.31900 19.05000 39.30100
H  -7.62600 19.60700 41.27300
H  -9.07400 20.01000 41.97900
H  -8.57700 20.78900 40.36000
H  -7.90500 17.61000 38.50000
H  -8.50700 15.93400 38.72000
H  -6.42400 15.77800 40.37000
H  -5.82300 17.03100 39.41200
H  -12.35200 22.05400 39.69200
H  -12.67500 23.03600 41.20300
H  -13.86600 22.92900 39.97000
H  -18.14700 22.39300 42.11300
H  -17.46900 21.06000 43.11600
H  -18.14100 20.63400 41.61600
H  -17.82100 16.64300 41.43600
H  -17.05500 14.79700 43.62400
H  -18.38300 16.48000 44.42900
H  -19.26200 17.17100 43.10700
H  -18.01000 18.05200 43.95900
H  -18.66900 14.17100 41.80700
H  -17.34100 12.90500 42.20300
H  -18.31300 14.20500 39.75000
H  -17.00000 12.95700 39.92400
H  -16.70300 14.75200 39.95000
H  -13.24000 10.94400 41.23600
H  -13.71000 11.16000 42.99600
H  -12.06000 10.55800 42.51500
H  -8.45500 14.01200 40.16100
H  -5.17200 12.23000 42.58000
H  -5.52600 13.57000 43.62900
H  -5.16200 13.95500 41.89200

