158

Mg 8.89000 3.76100 26.57100
C  10.22300 2.08600 29.42900
C  6.98300 5.60700 28.63800
C  7.81400 5.37100 23.92700
C  10.45600 1.35000 24.56800
N  8.46100 3.63400 28.81700
C  9.30100 3.04700 29.70800
C  8.96700 3.51600 31.15400
C  7.79200 4.58900 30.88700
C  7.71500 4.61700 29.35300
C  6.46900 4.31700 31.72100
C  10.16400 4.14400 31.91500
C  9.82700 5.04300 33.10600
H  10.73000 4.97800 34.31400
N  7.53200 5.33100 26.36800
C  6.90400 6.05500 27.28900
C  6.13100 7.12800 26.58200
C  6.28600 6.99400 25.17300
C  7.25400 5.91400 25.08700
C  5.22500 8.03200 27.41400
C  5.70600 7.79100 23.95700
O  5.94500 7.45700 22.75900
C  4.66600 8.86600 24.26100
N  9.04300 3.26700 24.56000
C  8.47600 4.15200 23.66200
C  8.86300 3.79000 22.22700
C  9.78200 2.55100 22.41400
C  9.75100 2.35900 23.92100
C  7.67300 3.66000 21.27200
C  11.20900 2.82500 21.87700
C  11.74100 1.67400 20.97800
N  10.14000 2.07000 26.85500
C  10.72300 1.16000 25.90300
C  11.54800 0.22900 26.61100
C  11.40400 0.59000 27.98900
C  10.45600 1.56000 28.09800
C  12.46500 -0.74500 25.99500
C  11.83100 0.25000 29.31300
O  12.61500 -0.66200 29.66200
C  11.12900 1.28700 30.31900
C  10.50500 0.52800 31.45600
O  9.54700 -0.20800 31.38400
O  11.16900 0.90800 32.57000
C  10.52400 0.55300 33.86600
H  6.28600 6.14800 29.28200
H  7.67800 5.99500 23.04100
H  10.94500 0.66500 23.87200
H  8.58700 2.67400 31.73300
H  7.94100 5.65000 31.08700
H  5.54400 4.21500 31.15300
H  6.39400 5.13800 32.43400
H  6.61800 3.36500 32.23000
H  10.85000 4.64300 31.23000
H  10.72200 3.24400 32.17400
H  8.83800 4.80800 33.49900
H  9.77300 6.10300 32.85500
H  5.38400 7.99600 28.49200
H  4.22300 7.75000 27.09100
H  5.51200 9.03900 27.11000
H  4.15700 9.35400 23.42900
H  5.27400 9.63600 24.73700
H  3.90100 8.58600 24.98500
H  9.48400 4.59100 21.82700
H  9.32200 1.74700 21.84000
H  7.67200 4.14800 20.29700
H  6.88300 4.20600 21.78800
H  7.28000 2.64700 21.19400
H  11.85500 2.88400 22.75300
H  11.35100 3.78400 21.37900
H  12.56800 1.16300 21.47100
H  12.23600 2.13400 20.12300
H  11.02800 0.91300 20.66000
H  12.91500 -1.31500 26.80800
H  13.25500 -0.25400 25.42800
H  11.92800 -1.30600 25.23000
H  12.02500 1.83200 30.61500
H  9.95600 -0.37700 33.89900
H  9.89000 1.39100 34.15900
H  11.24300 0.54400 34.68500
Mg 6.22500 54.00100 42.10000
C  5.29600 50.57100 41.68800
C  9.31200 53.27400 40.60600
C  6.78800 57.28500 41.75300
C  2.81800 54.63700 42.71200
N  7.08400 52.20800 41.22400
C  6.56500 50.92600 41.14600
C  7.58300 49.95900 40.45500
C  8.90800 50.73700 40.46100
C  8.42900 52.18600 40.78200
C  9.98400 50.17900 41.45200
C  7.21800 49.34300 39.04900
C  6.20800 50.21000 38.22200
H  6.48100 50.36400 36.70400
N  7.87400 55.15300 41.42100
C  9.09600 54.65000 40.92400
C  10.01900 55.73400 40.67900
C  9.32500 56.94100 41.13300
C  7.92900 56.54200 41.46800
C  11.36600 55.63500 40.06700
C  9.88700 58.34200 41.13300
O  11.11300 58.51600 40.95300
C  9.04100 59.52500 41.44900
N  4.96500 55.67700 41.94900
C  5.47900 56.93800 42.03500
C  4.39500 57.90700 42.52400
C  3.07300 57.08300 42.43800
C  3.65800 55.72600 42.40100
C  4.65500 58.43100 43.92900
C  2.21600 57.43200 41.19400
C  0.73100 57.81800 41.53200
N  4.39000 52.87100 42.34600
C  3.15100 53.28100 42.78000
C  2.30700 52.12000 42.99300
C  3.20300 51.04100 42.66600
C  4.35700 51.56800 42.17200
C  0.98700 52.06300 43.54600
C  3.33900 49.59900 42.66200
O  2.62700 48.73300 43.09500
C  4.71800 49.24900 42.00200
C  4.33600 48.42700 40.81200
O  3.67700 48.79800 39.85100
O  4.74900 47.16400 41.03200
C  4.30900 46.14200 40.06500
H  10.30000 53.04100 40.20300
H  6.95800 58.35400 41.89300
H  1.74900 54.77500 42.88700
H  7.69500 49.15700 41.18500
H  9.33000 50.84500 39.46200
H  9.57700 50.04300 42.45400
H  10.81100 50.88300 41.54600
H  10.30300 49.23100 41.01900
H  6.77300 48.35600 39.17700
H  8.11700 49.19600 38.45000
H  6.34100 51.25600 38.49800
H  5.22600 49.77900 38.41700
H  11.28500 55.28600 39.03700
H  11.91700 54.83500 40.56100
H  12.10300 56.43800 40.07800
H  8.26700 59.56600 40.68200
H  9.66400 60.40600 41.29700
H  8.61500 59.55700 42.45100
H  4.31800 58.79900 41.90200
H  2.55700 57.17800 43.39300
H  3.99200 57.99900 44.67900
H  4.52700 59.51000 44.01800
H  5.65700 58.10700 44.20900
H  2.05200 56.58600 40.52600
H  2.71100 58.16900 40.56200
H  0.47500 57.80800 42.59100
H  0.12700 57.09800 40.98100
H  0.47900 58.78100 41.08700
H  0.42200 51.20400 43.18400
H  0.44300 52.96800 43.27500
H  1.12700 52.00400 44.62500
H  5.27300 48.60700 42.68600
H  4.58300 45.21800 40.57300
H  4.89900 46.21400 39.15200
H  3.27200 46.21600 39.73700

