158

Mg 30.52100 57.80100 40.40600
C  27.66100 56.15700 38.92600
C  32.46300 55.13800 39.60200
C  33.12900 59.82400 40.79500
C  28.31100 60.50700 41.13600
N  30.12700 55.95700 39.26700
C  28.87700 55.39300 38.80900
C  29.05700 53.99900 38.32200
C  30.38700 53.57300 38.97900
C  31.09600 54.97400 39.28500
C  30.32100 52.58000 40.12700
C  29.00700 54.05300 36.76300
C  28.16500 52.95600 36.03300
H  27.41900 53.49800 34.76300
N  32.54400 57.60400 40.12900
C  33.16800 56.39700 39.89500
C  34.59200 56.52800 39.94900
C  34.86400 57.89700 40.09900
C  33.53400 58.53900 40.34000
C  35.51500 55.38500 39.78500
C  36.25300 58.54100 40.28200
O  37.31400 57.85900 40.15800
C  36.46200 59.97900 40.46500
N  30.60500 59.88300 40.66400
C  31.87700 60.43700 40.98300
C  31.66400 61.90800 41.33600
C  30.18500 62.01200 41.63900
C  29.70000 60.72200 41.09100
C  32.57200 62.47400 42.36000
C  29.51600 63.35200 41.06700
C  28.39000 63.97700 41.90800
N  28.38000 58.23800 40.21400
C  27.64800 59.32300 40.64700
C  26.25700 59.19100 40.22100
C  26.18500 57.88100 39.59100
C  27.50800 57.40600 39.57700
C  25.16800 60.16400 40.51100
C  25.34300 56.79100 38.86200
O  24.13800 56.84200 38.60400
C  26.26200 55.74300 38.55500
C  25.89400 54.59500 39.38500
O  25.78100 54.57900 40.57700
O  25.51500 53.61700 38.53600
C  24.67700 52.53700 39.00700
H  33.06800 54.23600 39.49100
H  34.00500 60.47000 40.87500
H  27.63900 61.29300 41.48700
H  28.20300 53.39100 38.62200
H  30.84800 53.06900 38.13000
H  30.93700 53.05600 40.88900
H  30.78100 51.64900 39.79500
H  29.29100 52.45800 40.46100
H  29.99900 53.96900 36.31900
H  28.56600 54.98500 36.40700
H  27.26500 52.74200 36.61000
H  28.78000 52.07700 35.84100
H  35.44300 55.09200 38.73800
H  35.21400 54.61100 40.49000
H  36.52600 55.51300 40.17300
H  36.19900 60.24600 41.48800
H  35.85700 60.50800 39.72900
H  37.44100 60.31200 40.11900
H  31.85600 62.36700 40.36600
H  29.95700 62.00700 42.70500
H  33.15000 61.67700 42.82800
H  32.07800 63.01100 43.16900
H  33.09900 63.24600 41.79900
H  28.99900 62.99600 40.17600
H  30.15500 64.07500 40.56000
H  28.04700 63.35100 42.73200
H  27.53700 64.17600 41.25900
H  28.71000 64.91800 42.35500
H  25.37700 60.49900 41.52700
H  24.23000 59.61100 40.47600
H  25.17300 61.00900 39.82200
H  26.27900 55.52000 37.48800
H  24.48700 51.92500 38.12600
H  23.81000 52.83800 39.59400
H  25.20400 51.87800 39.69800
Mg 27.32700 50.13700 27.10000
C  25.10700 50.96200 29.66100
C  29.71100 49.43900 29.52500
C  29.57700 49.53400 24.65100
C  25.11700 51.41700 24.81300
N  27.37400 50.26300 29.28300
C  26.28100 50.42200 30.14200
C  26.63100 50.24900 31.59600
C  28.23900 50.01700 31.48500
C  28.50400 49.95500 29.96000
C  29.05000 50.97300 32.41800
C  25.74000 49.11900 32.29800
C  24.84000 49.53100 33.55300
H  24.72300 48.63500 34.81300
N  29.35500 49.49600 27.07700
C  30.09900 49.17400 28.14600
C  31.39000 48.75900 27.76400
C  31.41200 48.85700 26.36400
C  30.06000 49.38200 25.95300
C  32.45600 48.30800 28.76700
C  32.52600 48.58000 25.30500
O  32.42700 48.71100 24.09200
C  33.85700 47.96900 25.73500
N  27.32700 50.28800 24.99400
C  28.30500 49.89100 24.19700
C  27.80300 49.92700 22.66300
C  26.34900 50.51500 22.78600
C  26.26400 50.78500 24.28900
C  28.62600 50.58800 21.53800
C  25.23600 49.55700 22.32700
C  24.05800 50.21500 21.65000
N  25.44900 50.96800 27.12800
C  24.63500 51.36200 26.11500
C  23.35000 51.76200 26.58200
C  23.46100 51.71300 27.99200
C  24.79200 51.13300 28.27000
C  22.20100 52.20000 25.74200
C  22.80300 51.94500 29.31200
O  21.71600 52.31700 29.60500
C  23.90700 51.42800 30.48900
C  24.14900 52.63800 31.27100
O  24.75400 53.58300 30.75400
O  23.58200 52.66500 32.49400
C  23.47000 53.92400 33.17600
H  30.35400 49.14500 30.35700
H  30.26700 49.23200 23.86000
H  24.30800 51.65500 24.11900
H  26.45200 51.21300 32.07300
H  28.36700 49.01900 31.90200
H  29.92100 51.37800 31.90300
H  29.58000 50.63800 33.31000
H  28.47400 51.85500 32.69700
H  26.39900 48.36300 32.72600
H  25.19800 48.60400 31.50500
H  23.77100 49.51800 33.34300
H  25.21300 50.51700 33.82800
H  33.47700 48.24600 28.39300
H  32.32000 47.31700 29.20200
H  32.39000 49.04200 29.57000
H  33.74900 46.92800 26.03900
H  34.19300 48.63200 26.53200
H  34.54800 47.91800 24.89300
H  27.72400 48.87700 22.38100
H  26.26700 51.52200 22.37700
H  29.11500 49.91600 20.83400
H  29.37700 51.24400 21.98100
H  27.95800 51.20200 20.93500
H  24.90700 48.94200 23.16400
H  25.68800 49.00100 21.50500
H  24.25700 51.27100 21.46800
H  23.09500 50.14700 22.15500
H  24.07100 49.74300 20.66800
H  22.58200 52.96600 25.06600
H  21.44600 52.59100 26.42300
H  21.74900 51.36200 25.21000
H  23.56100 50.65700 31.17700
H  22.39100 54.03800 33.28600
H  23.72000 54.83100 32.62700
H  23.91900 53.88500 34.16900

