158

Mg 8.48100 2.36800 27.50800
C  10.16300 1.20100 30.19500
C  6.64700 4.44200 29.68400
C  6.84400 3.64700 24.90200
C  10.12600 0.00100 25.48600
N  8.35700 2.69000 29.74000
C  9.24300 2.22200 30.59800
C  8.96500 2.70700 31.97400
C  7.79500 3.78200 31.69000
C  7.50600 3.58100 30.23400
C  6.61700 3.67600 32.67200
C  10.18300 3.36400 32.76300
C  10.46900 2.77100 34.11900
H  10.58800 3.85600 35.24200
N  6.82300 3.83200 27.34300
C  6.40400 4.69500 28.32600
C  5.56500 5.75400 27.73300
C  5.49500 5.44800 26.34000
C  6.39600 4.22900 26.10600
C  4.74100 6.75300 28.54200
C  4.65500 6.16500 25.29400
O  4.56700 5.78500 24.11500
C  3.91700 7.41600 25.60600
N  8.24400 1.74100 25.57100
C  7.60000 2.49200 24.58400
C  7.84400 1.94500 23.18100
C  8.99900 0.94700 23.43200
C  9.15800 0.88700 24.94100
C  6.48300 1.35300 22.48400
C  10.35200 1.38200 22.69800
C  11.11700 0.13000 22.12300
N  9.94100 0.89500 27.75400
C  10.51700 0.03800 26.81000
C  11.47900 -0.78200 27.50500
C  11.35700 -0.41700 28.86100
C  10.36700 0.58000 28.95900
C  12.35200 -1.84300 26.93100
C  11.81600 -0.65900 30.26700
O  12.48200 -1.52500 30.75800
C  11.12100 0.46600 31.15400
C  10.32800 -0.28100 32.15900
O  9.30300 -0.88900 31.85000
O  10.86900 -0.25000 33.39600
C  10.05900 -0.77500 34.49000
H  6.15200 5.07600 30.42200
H  6.60500 4.28400 24.04700
H  10.68500 -0.64600 24.80700
H  8.64400 1.79200 32.47100
H  8.21600 4.78400 31.77900
H  5.78600 3.09500 32.27200
H  6.34200 4.62600 33.13100
H  7.03300 3.18100 33.54900
H  10.10200 4.44500 32.87600
H  11.07200 3.24100 32.14500
H  11.51400 2.46600 34.06900
H  9.70400 2.03000 34.34900
H  5.02400 6.89500 29.58500
H  3.67400 6.52600 28.53300
H  4.93000 7.72900 28.09600
H  3.18700 7.34500 26.41200
H  3.22100 7.62900 24.79600
H  4.57600 8.26300 25.79500
H  8.19600 2.74300 22.52800
H  8.87000 -0.07500 23.07500
H  5.71300 1.23700 23.24700
H  6.65700 0.42500 21.94000
H  6.17700 2.12400 21.77700
H  10.95700 1.82800 23.48600
H  10.16800 2.06300 21.86700
H  11.12500 0.24000 21.03800
H  10.55400 -0.72500 22.49800
H  12.14800 0.16000 22.47400
H  11.58000 -2.59100 26.74900
H  13.13400 -2.06400 27.65800
H  12.75100 -1.51800 25.97000
H  11.80900 1.10600 31.70600
H  10.19800 -1.83800 34.68700
H  9.00900 -0.52600 34.33600
H  10.28200 -0.31700 35.45300
Mg 24.01600 -6.70400 47.58300
C  26.12200 -4.12400 46.43300
C  21.66000 -5.57000 45.39300
C  22.16700 -9.39000 48.40200
C  26.79800 -8.11600 49.23800
N  23.95700 -5.05200 46.06700
C  24.85500 -4.09400 45.87300
C  24.35200 -3.03900 44.79000
C  22.77600 -3.41600 44.65000
C  22.76300 -4.71900 45.45000
C  21.83300 -2.33000 45.32900
C  25.15300 -3.11800 43.54800
C  25.69900 -1.82400 42.93800
H  25.05700 -1.40700 41.58000
N  22.10600 -7.30400 47.12400
C  21.38000 -6.78300 46.04600
C  20.06700 -7.55500 45.92000
C  20.15100 -8.57100 46.93800
C  21.49700 -8.42200 47.58800
C  18.89700 -7.10400 45.08000
C  19.06500 -9.60200 47.26000
O  18.08000 -9.59800 46.50200
C  19.23300 -10.56900 48.42200
N  24.33300 -8.47300 48.71000
C  23.48200 -9.42000 48.92200
C  23.92500 -10.46900 49.96400
C  25.45500 -10.07300 50.15500
C  25.58800 -8.82800 49.32600
C  23.03700 -10.51000 51.27400
C  26.51800 -11.05200 49.76600
C  26.58100 -11.43100 48.29800
N  26.08700 -6.29100 47.79800
C  27.02300 -6.88300 48.59900
C  28.23100 -6.05300 48.54500
C  27.96900 -4.97200 47.70300
C  26.61000 -5.17200 47.26800
C  29.53100 -6.23600 49.17600
C  28.40100 -3.73800 47.13100
O  29.48000 -3.08600 47.23100
C  27.24900 -3.19200 46.19100
C  26.95200 -1.85700 46.62200
O  26.13600 -1.56500 47.50900
O  27.77000 -0.96100 46.00500
C  27.64000 0.48100 46.38300
H  20.97200 -5.27300 44.59800
H  21.70000 -10.37300 48.48800
H  27.49500 -8.57500 49.94200
H  24.48500 -2.07600 45.28400
H  22.40900 -3.68100 43.65800
H  22.52300 -1.67700 45.86300
H  21.16100 -2.71300 46.09700
H  21.40400 -1.65600 44.58700
H  24.53400 -3.56100 42.76900
H  25.96800 -3.83400 43.65800
H  26.75200 -2.08300 42.82400
H  25.58100 -0.95400 43.58500
H  18.40200 -7.90500 44.53000
H  19.17200 -6.39400 44.30100
H  18.14800 -6.55100 45.64700
H  18.27200 -11.05800 48.58500
H  19.40600 -10.12500 49.40200
H  19.92200 -11.36700 48.14500
H  23.98400 -11.45600 49.50600
H  25.56900 -9.95100 51.23300
H  22.68800 -11.49100 51.59400
H  22.15000 -9.88100 51.19100
H  23.62900 -10.20100 52.13500
H  26.25900 -11.98700 50.26300
H  27.49900 -10.78900 50.16100
H  26.85900 -12.48200 48.21000
H  27.40300 -10.90600 47.81300
H  25.62500 -11.21700 47.82000
H  29.92400 -5.31900 49.61500
H  30.22400 -6.62100 48.42900
H  29.59700 -6.98500 49.96500
H  27.65100 -3.13800 45.17900
H  27.79200 1.14900 45.53500
H  28.30800 0.68900 47.21800
H  26.67100 0.89800 46.65700

