158

Mg -1.98700 17.73000 27.37400
C  -2.84200 15.50200 30.10100
C  -2.61300 20.23200 29.43800
C  -1.67000 19.50500 24.77900
C  -1.93700 14.74700 25.31700
N  -2.92700 17.84300 29.45000
C  -2.97200 16.86100 30.44200
C  -2.99300 17.46100 31.84400
C  -3.15200 18.97800 31.58700
C  -2.83100 19.04200 30.03800
C  -4.62800 19.45600 31.90200
C  -1.71100 16.94600 32.62900
C  -1.25000 17.82500 33.78200
H  -0.92200 17.04500 35.10800
N  -2.08900 19.66300 27.14400
C  -2.36100 20.57200 28.08500
C  -2.26100 21.91500 27.55700
C  -2.05200 21.71500 26.18100
C  -1.89800 20.27700 26.05400
C  -2.37500 23.15400 28.33700
C  -1.90200 22.76800 25.07300
O  -1.65800 22.46300 23.88300
C  -2.28500 24.12100 25.35600
N  -1.76900 17.22200 25.38000
C  -1.72300 18.15300 24.48600
C  -1.67800 17.60600 23.07000
C  -1.45000 16.11400 23.24700
C  -1.65900 16.01800 24.75800
C  -2.89300 17.85700 22.14200
C  -0.02600 15.56800 22.63800
C  1.27000 16.31800 22.89900
N  -2.23700 15.64400 27.54800
C  -2.19700 14.58700 26.64900
C  -2.44800 13.31900 27.29200
C  -2.69300 13.66600 28.62300
C  -2.56500 15.06000 28.76800
C  -2.51600 11.92400 26.64200
C  -3.08400 13.12700 29.93100
O  -3.28400 12.00200 30.26900
C  -2.98200 14.26200 30.96700
C  -1.80600 13.98100 31.77300
O  -0.61800 14.28200 31.43200
O  -2.19900 13.37600 32.93000
C  -1.12300 12.99900 33.79200
H  -2.57000 21.05200 30.15800
H  -1.59100 20.13900 23.89300
H  -1.79800 13.87200 24.67900
H  -3.78700 17.16000 32.52700
H  -2.44500 19.60200 32.13300
H  -5.31400 19.46900 31.05500
H  -4.62100 20.45100 32.34600
H  -5.05800 18.85500 32.70300
H  -0.94400 16.81400 31.86600
H  -1.95000 16.01200 33.13700
H  -1.95400 18.60800 34.06600
H  -0.35400 18.31700 33.40100
H  -1.61000 23.84600 27.98500
H  -2.40800 23.08200 29.42400
H  -3.29200 23.68800 28.08800
H  -2.30600 24.78100 24.48900
H  -1.51300 24.42500 26.06200
H  -3.29500 24.05400 25.76000
H  -0.82900 18.05900 22.55900
H  -2.22000 15.43400 22.88200
H  -3.46300 16.98700 21.81300
H  -2.47000 18.39000 21.29100
H  -3.60600 18.58200 22.53300
H  -0.19600 15.41900 21.57200
H  0.04400 14.60700 23.14800
H  1.62200 16.56300 21.89700
H  1.89200 15.62300 23.46300
H  1.00800 17.20400 23.47900
H  -1.50600 11.51700 26.61100
H  -3.00700 12.02600 25.67400
H  -3.10700 11.37400 27.37400
H  -3.89900 14.43100 31.53200
H  -1.44100 12.12100 34.35400
H  -0.77800 13.75400 34.49800
H  -0.27400 12.74700 33.15600
Mg 28.94400 57.50200 40.56000
C  26.07600 55.70600 39.65300
C  30.83800 55.03300 39.24900
C  31.52600 59.64400 40.25200
C  26.91800 60.30900 41.16400
N  28.42000 55.60800 39.38700
C  27.22000 55.10500 39.14000
C  27.29100 53.75600 38.52600
C  28.84700 53.51900 38.44900
C  29.43200 54.76700 39.15500
C  29.43800 52.23200 39.02800
C  26.54500 53.50400 37.18100
C  26.50200 54.61000 36.09800
H  26.72000 54.32800 34.55200
N  30.98700 57.27700 40.00600
C  31.56000 56.17300 39.57300
C  32.97500 56.38600 39.47800
C  33.26300 57.72300 39.85600
C  31.87400 58.25900 40.03300
C  33.95700 55.24600 39.11300
C  34.58100 58.39600 39.96800
O  35.61300 57.89600 39.55400
C  34.70800 59.72700 40.51500
N  29.21300 59.70900 40.81600
C  30.37600 60.32100 40.58000
C  30.37900 61.81800 40.96100
C  28.86100 61.97900 41.38300
C  28.27900 60.61000 41.09300
C  31.39500 62.21800 42.00100
C  28.12000 63.19400 40.74000
C  27.68200 64.27500 41.79100
N  27.05800 57.87600 40.79700
C  26.37900 59.03300 41.06800
C  24.96100 58.70300 41.28100
C  24.82000 57.41000 40.77000
C  26.10200 56.96300 40.39000
C  23.95100 59.59800 41.82400
C  23.80200 56.40700 40.43700
O  22.60700 56.34200 40.65500
C  24.60400 55.36700 39.53600
C  24.10400 53.98700 40.07700
O  23.32000 53.17400 39.54800
O  24.65000 53.79700 41.30200
C  24.31500 52.58800 41.94800
H  31.53400 54.24000 38.96800
H  32.34200 60.35500 40.10900
H  26.29300 61.17900 41.37600
H  26.93600 52.97400 39.19700
H  29.18000 53.54100 37.41100
H  30.33000 52.53700 39.57500
H  29.66500 51.49500 38.25700
H  28.73200 51.73700 39.69400
H  25.49500 53.30700 37.39700
H  27.02300 52.59300 36.82200
H  27.33400 55.29600 36.25700
H  25.57600 55.15500 36.27700
H  33.96000 54.51900 39.92400
H  34.98700 55.59900 39.05500
H  33.73900 54.80700 38.13900
H  34.09200 60.10500 41.33100
H  34.44000 60.35900 39.66800
H  35.78200 59.83200 40.66500
H  30.52200 62.26400 39.97700
H  28.70100 61.94800 42.46100
H  31.88000 61.32600 42.39700
H  30.96300 62.88600 42.74600
H  32.03500 62.93100 41.48000
H  27.28200 62.98000 40.07700
H  28.88900 63.74900 40.20300
H  27.34500 63.81100 42.71700
H  26.77100 64.74000 41.41300
H  28.51100 64.96500 41.94800
H  23.47300 60.16700 41.02700
H  24.38100 60.34300 42.49400
H  23.13200 59.09200 42.33500
H  24.34900 55.43000 38.47800
H  25.21900 52.24300 42.45000
H  23.91800 51.77300 41.34200
H  23.61900 52.95400 42.70300

