158

Mg 9.13100 3.84700 27.70500
C  10.33200 2.15500 30.45700
C  7.28900 5.86900 29.85000
C  7.94100 5.47200 24.97600
C  10.64300 1.36300 25.65500
N  8.69600 3.88300 29.92500
C  9.52200 3.22300 30.85000
C  9.24900 3.72800 32.23300
C  8.14700 4.84000 32.01800
C  7.96800 4.87300 30.53100
C  6.83500 4.70000 32.74900
C  10.63800 4.08700 32.88700
C  10.63100 5.11400 34.01200
H  11.32300 4.74200 35.29800
N  7.85100 5.45400 27.47500
C  7.24600 6.17500 28.43700
C  6.45500 7.24100 27.85700
C  6.67600 7.15800 26.46300
C  7.48500 5.98800 26.25900
C  5.43300 8.04200 28.69100
C  6.08400 8.04200 25.41300
O  6.05300 7.80900 24.21700
C  5.24900 9.15500 25.83400
N  9.18000 3.44100 25.61900
C  8.64700 4.31200 24.72200
C  8.84400 3.77100 23.32300
C  9.68600 2.53900 23.55900
C  9.96100 2.43900 24.96700
C  7.54400 3.65600 22.47800
C  10.97200 2.35600 22.66000
C  11.14100 1.01900 22.01900
N  10.29500 2.05400 27.92900
C  10.80900 1.17200 27.04900
C  11.61700 0.19400 27.68800
C  11.54100 0.54700 29.08200
C  10.67100 1.65800 29.14900
C  12.34300 -0.97100 27.09200
C  11.96200 0.24700 30.44500
O  12.75500 -0.55600 30.89500
C  11.22900 1.31900 31.35300
C  10.50500 0.62400 32.49300
O  9.32500 0.25500 32.46200
O  11.35700 0.56300 33.54400
C  10.88700 0.23600 34.91600
H  6.83100 6.65700 30.45100
H  7.45000 5.97600 24.14100
H  11.04700 0.57700 25.01300
H  8.81000 2.91100 32.80500
H  8.58600 5.77800 32.35800
H  6.46700 5.72100 32.85300
H  7.00400 4.21400 33.71000
H  6.01300 4.11000 32.34500
H  11.18400 4.56800 32.07600
H  11.24400 3.32000 33.37000
H  9.60500 5.41100 34.22800
H  11.18700 5.96200 33.61400
H  4.46400 7.72700 28.30300
H  5.58500 9.10200 28.49100
H  5.51100 7.83800 29.75900
H  4.38000 8.87500 26.42900
H  4.88700 9.52500 24.87400
H  5.78200 9.97800 26.31100
H  9.52200 4.51800 22.91100
H  9.14400 1.61700 23.34700
H  6.73900 3.75100 23.20800
H  7.32000 2.70400 21.99900
H  7.38800 4.44200 21.73900
H  11.85800 2.41900 23.29200
H  11.07300 3.19300 21.96900
H  11.45100 1.17800 20.98600
H  10.23200 0.41900 21.97500
H  11.87500 0.39000 22.52200
H  12.80800 -1.57100 27.87400
H  13.10600 -0.50300 26.46900
H  11.79100 -1.57300 26.37100
H  12.06400 1.89000 31.76000
H  9.90300 0.68700 35.04800
H  11.52700 0.54100 35.74400
H  10.63600 -0.82200 34.98900
Mg 47.62200 16.47000 28.73600
C  45.88300 15.74800 31.73000
C  49.91900 18.21600 30.57900
C  49.31700 16.98700 25.96500
C  44.98400 14.79200 27.00500
N  47.80700 16.92500 30.86600
C  47.04100 16.50600 31.89500
C  47.67800 16.83400 33.23300
C  48.63800 18.09700 32.81400
C  48.80500 17.71500 31.29300
C  47.86400 19.48200 33.01800
C  48.36000 15.64500 33.96400
C  48.28000 15.74200 35.51900
H  47.90300 17.16700 36.20900
N  49.43500 17.25800 28.36200
C  50.28900 17.96800 29.20900
C  51.52000 18.32600 28.47400
C  51.23100 18.10800 27.15900
C  49.93500 17.46000 27.12600
C  52.81800 18.97700 29.18500
C  52.12600 18.53700 25.95900
O  51.89600 18.31100 24.79100
C  53.39700 19.37200 26.14800
N  47.08100 16.13900 26.74600
C  48.01200 16.40400 25.77200
C  47.54600 15.82800 24.46800
C  46.34200 14.96000 24.76900
C  46.10900 15.26700 26.26800
C  47.28000 16.96800 23.38500
C  46.55700 13.55700 24.35400
C  45.32500 12.69400 24.19800
N  45.71300 15.52300 29.24600
C  44.81300 14.85900 28.47000
C  43.77100 14.25700 29.26600
C  44.19600 14.54900 30.58200
C  45.31100 15.32400 30.50200
C  42.53100 13.69200 28.82900
C  43.90500 14.34600 31.97400
O  43.14100 13.63100 32.54100
C  44.94300 15.19100 32.75500
C  44.22300 16.33500 33.47600
O  44.13300 17.48900 33.14300
O  43.80600 15.85900 34.67400
C  43.29400 16.81400 35.66400
H  50.66500 18.70700 31.20700
H  49.70100 17.17600 24.96000
H  44.35400 14.17200 26.36300
H  46.84400 17.07000 33.89300
H  49.60600 18.18000 33.30800
H  47.91900 19.95600 33.99800
H  46.81800 19.25400 32.81300
H  48.14900 20.22900 32.27700
H  49.41800 15.64500 33.70300
H  47.81800 14.75200 33.65400
H  49.27400 15.48800 35.88600
H  47.69800 14.90000 35.89400
H  53.68500 18.31900 29.12200
H  52.57200 18.88800 30.24300
H  52.93800 20.03400 28.94500
H  53.24900 20.27300 26.74400
H  53.77300 19.74300 25.19500
H  54.17900 18.79900 26.64600
H  48.31800 15.23100 23.98200
H  45.52000 15.32900 24.15400
H  47.55800 17.99400 23.62600
H  46.22800 16.99900 23.10100
H  47.84400 16.76400 22.47500
H  47.16800 13.05800 25.10600
H  47.18400 13.42900 23.47200
H  45.46800 11.82000 24.83300
H  45.23700 12.48800 23.13100
H  44.40100 13.15600 24.54500
H  42.71200 12.64200 28.60100
H  42.15400 14.24000 27.96500
H  41.78900 13.88200 29.60400
H  45.42300 14.48500 33.43300
H  42.25600 16.61200 35.93000
H  43.42200 17.87600 35.45400
H  43.82500 16.68600 36.60700

