158

Mg 25.58300 0.32100 29.64500
C  27.60200 0.18800 32.47800
C  22.86600 0.80500 31.67400
C  23.69100 0.23800 26.83600
C  28.35800 -0.54000 27.66100
N  25.28000 0.43100 31.87000
C  26.26500 0.38900 32.82700
C  25.81700 0.90200 34.23600
C  24.22500 0.81300 34.00200
C  24.10900 0.73300 32.43300
C  23.67000 -0.41100 34.81500
C  26.29200 2.39500 34.69300
C  27.16500 2.45300 35.96800
H  26.78000 3.31000 37.24600
N  23.53800 0.43300 29.33500
C  22.57500 0.67900 30.33300
C  21.24400 0.80300 29.66900
C  21.52200 0.69100 28.26500
C  22.95200 0.39900 28.06500
C  19.97700 1.11700 30.46700
C  20.57200 0.77800 27.16500
O  20.85100 0.63000 25.99700
C  19.13100 1.20400 27.50900
N  26.00100 -0.02600 27.50500
C  25.07200 0.09100 26.54900
C  25.64200 0.07400 25.17300
C  27.15700 -0.24300 25.44200
C  27.17800 -0.24800 26.98700
C  24.91300 -0.90300 24.12900
C  28.07400 0.86600 24.96000
C  29.42800 0.37500 24.30500
N  27.54200 -0.23100 29.93500
C  28.51800 -0.58600 29.06600
C  29.72900 -0.75200 29.70600
C  29.47400 -0.50900 31.03400
C  28.08600 -0.16000 31.20400
C  31.07200 -1.07800 29.02000
C  30.11500 -0.36800 32.28800
O  31.23900 -0.46800 32.68900
C  28.88400 0.05800 33.32500
C  28.82400 -0.94700 34.52400
O  28.11400 -1.92700 34.53800
O  29.54300 -0.44800 35.62100
C  29.24800 -1.09700 36.92800
H  21.95700 1.10300 32.20000
H  23.09600 0.35600 25.92800
H  29.24100 -0.79600 27.07300
H  26.15800 0.15000 34.94800
H  23.76500 1.76200 34.27500
H  24.40500 -1.15700 35.11900
H  22.98100 -0.92300 34.14400
H  23.22200 -0.00100 35.72000
H  25.43300 3.04400 34.86600
H  26.87600 2.86600 33.90200
H  28.14600 2.87300 35.74700
H  27.41500 1.43500 36.26500
H  19.54100 1.93600 29.89400
H  20.01600 1.36200 31.52800
H  19.31100 0.28000 30.25300
H  18.50600 1.04400 26.63100
H  19.27000 2.27400 27.66600
H  18.58400 0.55300 28.19100
H  25.47500 1.07900 24.78500
H  27.48600 -1.24700 25.17300
H  24.18000 -1.52200 24.64700
H  25.59100 -1.56900 23.59600
H  24.21700 -0.43700 23.43200
H  28.34900 1.53700 25.77300
H  27.62500 1.43900 24.14800
H  29.30500 -0.67100 24.02400
H  30.23300 0.63900 24.99200
H  29.63700 0.92600 23.38800
H  31.95100 -0.75600 29.57900
H  31.12500 -0.59700 28.04400
H  31.13800 -2.16500 28.98300
H  29.25400 1.03400 33.63900
H  28.53100 -0.50200 37.49400
H  30.20800 -1.02300 37.43800
H  28.85100 -2.11200 36.88300
Mg 54.52200 24.12700 44.69800
C  51.93000 26.26000 43.93200
C  52.90600 21.69400 42.81400
C  57.19500 22.08200 44.83300
C  56.32200 26.66700 46.04800
N  52.63600 24.03300 43.43500
C  51.69300 25.04400 43.41600
C  50.56000 24.61700 42.38900
C  50.72500 23.00100 42.43400
C  52.12700 22.84400 43.01600
C  49.56500 22.25400 43.24900
C  50.83600 25.20300 40.96500
C  50.81900 24.42500 39.66000
H  50.52200 25.17000 38.36200
N  54.94600 22.11100 44.03200
C  54.12400 21.34900 43.28400
C  54.60800 20.03000 43.21400
C  55.96000 20.06700 43.69400
C  56.12900 21.43200 44.22200
C  53.96200 18.86600 42.50900
C  56.96200 18.89500 43.61700
O  56.71300 17.82500 43.08700
C  58.29200 19.06700 44.20200
N  56.55100 24.40100 45.18000
C  57.39300 23.34800 45.34300
C  58.74400 23.80100 45.86100
C  58.43200 25.40600 46.20000
C  56.98700 25.47600 45.76100
C  59.24700 22.97200 47.04700
C  59.40500 26.45600 45.46800
C  60.20700 27.46700 46.25900
N  54.16200 26.07000 45.16600
C  54.93400 26.98300 45.76600
C  54.20500 28.22800 45.94300
C  52.97200 27.98900 45.27800
C  53.03000 26.66300 44.75400
C  54.63300 29.56400 46.46900
C  51.66400 28.46800 44.89800
O  51.26000 29.55000 45.04500
C  50.91500 27.41100 44.05700
C  50.54300 27.97700 42.81300
O  51.37200 28.34300 41.94200
O  49.21700 28.03100 42.72000
C  48.74400 28.44000 41.43400
H  52.35900 20.99600 42.17600
H  58.04000 21.40900 44.99100
H  56.88100 27.44800 46.56800
H  49.59900 24.98900 42.74400
H  50.65600 22.57500 41.43300
H  49.96600 21.79400 44.15200
H  49.14600 21.50800 42.57300
H  48.81600 22.94900 43.62900
H  51.79900 25.71300 40.98400
H  49.98000 25.86700 40.83900
H  50.04800 23.65400 39.68200
H  51.76800 23.91700 39.48900
H  54.31300 18.86600 41.47700
H  52.88600 19.04000 42.49300
H  54.19600 17.89800 42.95300
H  58.18500 19.38600 45.23900
H  58.87400 19.76900 43.60500
H  58.74900 18.08600 44.07300
H  59.36100 23.69300 44.97000
H  58.48900 25.62400 47.26700
H  58.53100 22.18400 47.28100
H  59.54700 23.63600 47.85800
H  60.15400 22.45600 46.73400
H  58.85200 27.00100 44.70300
H  60.18700 25.92500 44.92500
H  61.21700 27.23300 45.92200
H  60.08600 27.48500 47.34200
H  59.82100 28.43000 45.92700
H  54.96300 30.19800 45.64600
H  55.51600 29.32300 47.06100
H  53.85700 29.92600 47.14400
H  50.02900 27.17600 44.64600
H  49.24200 28.05200 40.54600
H  48.85500 29.52400 41.44500
H  47.73500 28.02800 41.42700

