158

Mg 35.68700 49.15100 24.85100
C  35.68200 47.26500 27.72200
C  34.19600 51.78100 26.79000
C  35.40100 51.04200 22.04200
C  36.70200 46.47900 23.08000
N  34.95100 49.41100 27.00300
C  35.23500 48.55100 28.00500
C  35.00700 49.15500 29.40100
C  34.27300 50.50800 29.02900
C  34.49700 50.54800 27.49900
C  32.77000 50.66000 29.44700
C  36.30300 49.16700 30.22700
C  36.10100 48.75900 31.70600
H  34.79900 49.07200 32.37500
N  34.76300 51.10000 24.41100
C  34.35500 52.00700 25.34900
C  33.91000 53.14100 24.65200
C  34.25100 53.00500 23.30100
C  34.86600 51.71100 23.20400
C  33.48700 54.47300 25.34700
C  34.11000 54.06300 22.16200
O  34.71500 53.94700 21.09900
C  33.19900 55.18600 22.32800
N  35.94900 48.74400 22.77800
C  35.83100 49.74500 21.82700
C  36.18300 49.14500 20.48200
C  36.90800 47.80800 20.88400
C  36.50300 47.65700 22.35000
C  35.01700 48.83000 19.42600
C  38.40600 47.69600 20.56800
C  38.91200 46.30000 20.06700
N  36.20500 47.30900 25.23700
C  36.56100 46.29400 24.44000
C  36.77800 45.03600 25.26500
C  36.47000 45.45100 26.56000
C  36.09000 46.82200 26.45700
C  37.14200 43.60600 24.86700
C  36.32900 44.88100 27.84100
O  36.62100 43.78400 28.25800
C  35.81300 46.04800 28.69600
C  34.55400 45.49400 29.28100
O  33.63100 44.96200 28.69500
O  34.69300 45.61500 30.59700
C  33.67300 45.17900 31.52700
H  33.69300 52.51400 27.42400
H  35.43500 51.54500 21.07400
H  37.13500 45.66800 22.49100
H  34.21300 48.60800 29.90800
H  34.82800 51.35800 29.42700
H  32.53000 50.27100 30.43600
H  32.19200 50.33000 28.58300
H  32.71900 51.74100 29.31900
H  36.74100 50.15700 30.10500
H  36.94400 48.45500 29.70700
H  36.91500 49.26100 32.22800
H  36.28200 47.69800 31.87400
H  33.46100 54.40500 26.43500
H  32.56600 54.93700 24.99400
H  34.23700 55.24400 25.16900
H  33.39600 55.89600 23.13200
H  32.19700 54.80400 22.52300
H  33.08900 55.72400 21.38700
H  36.94700 49.73500 19.97700
H  36.40700 46.97700 20.38700
H  35.15900 49.47200 18.55700
H  34.09000 49.17900 19.88300
H  34.91500 47.75900 19.25100
H  38.82000 47.89000 21.55700
H  38.74300 48.44600 19.85300
H  39.71600 45.97600 20.72800
H  39.41900 46.35200 19.10400
H  38.19800 45.48300 20.17300
H  37.12000 43.51900 23.78100
H  36.41200 42.94300 25.33200
H  38.06500 43.34400 25.38400
H  36.55900 46.22000 29.47200
H  33.86600 44.19700 31.95900
H  32.72600 45.07300 30.99700
H  33.60100 45.84000 32.39100
Mg -11.15700 17.22700 42.35800
C  -7.60400 18.24500 42.36500
C  -11.92500 20.59900 42.34000
C  -14.25600 16.32400 41.75100
C  -10.04800 13.89200 42.03700
N  -9.93400 19.21200 42.15100
C  -8.52800 19.34200 42.35700
C  -8.17100 20.75000 42.23600
C  -9.42200 21.48600 42.58500
C  -10.51500 20.41400 42.33300
C  -9.47300 22.06500 44.05200
C  -7.61000 20.98100 40.79100
C  -6.19800 21.61100 40.74900
H  -5.21500 21.04400 39.72700
N  -12.86400 18.33600 41.96600
C  -12.97800 19.68300 42.06500
C  -14.43900 19.96900 41.90600
C  -15.16000 18.74300 41.78400
C  -14.09600 17.74200 41.82500
C  -14.98500 21.41200 41.96200
C  -16.70000 18.54000 41.71200
O  -17.41600 19.54300 41.89700
C  -17.38200 17.24700 41.43500
N  -11.95700 15.35300 42.01300
C  -13.31500 15.27800 41.85400
C  -13.81400 13.83300 41.99800
C  -12.48700 13.00600 42.06600
C  -11.41700 14.14000 41.95700
C  -14.84000 13.60300 43.14900
C  -12.43400 11.86000 40.96200
C  -11.97400 10.53500 41.50500
N  -9.26600 16.23000 42.27200
C  -9.06200 14.86000 42.14600
C  -7.57900 14.60700 42.30400
C  -7.06900 15.96100 42.29100
C  -8.07800 16.90100 42.33200
C  -6.78400 13.38500 42.26000
C  -5.78700 16.61800 42.38800
O  -4.70400 16.12500 42.44300
C  -6.07400 18.20000 42.31600
C  -5.51400 18.75400 43.51300
O  -5.76600 18.38900 44.64100
O  -4.60600 19.71700 43.14800
C  -3.73000 20.29300 44.21800
H  -12.20100 21.65100 42.43100
H  -15.26700 15.91200 41.73100
H  -9.69200 12.86900 41.89600
H  -7.35400 21.00100 42.91100
H  -9.55700 22.35500 41.94200
H  -10.15500 21.40200 44.58400
H  -9.87300 23.08000 44.06200
H  -8.51600 21.94800 44.56000
H  -8.24100 21.76200 40.36700
H  -7.63300 20.04800 40.22800
H  -5.85000 21.73800 41.77400
H  -6.34500 22.63000 40.39200
H  -15.35700 21.76100 40.99800
H  -14.27100 22.05100 42.48100
H  -15.90100 21.31600 42.54500
H  -18.44300 17.49100 41.48400
H  -17.09200 16.67800 42.31800
H  -17.04800 16.70900 40.54700
H  -14.36400 13.70000 41.06600
H  -12.41100 12.64500 43.09200
H  -14.48600 12.77900 43.76800
H  -15.74700 13.23400 42.67100
H  -14.97400 14.53700 43.69600
H  -11.77800 12.14400 40.14000
H  -13.38600 11.69800 40.45600
H  -11.17900 10.09200 40.90500
H  -12.80400 9.84200 41.37200
H  -11.73800 10.63000 42.56500
H  -7.46600 12.66000 42.70400
H  -5.94800 13.50000 42.95000
H  -6.29100 13.18200 41.30900
H  -5.59300 18.60300 41.42500
H  -2.95700 19.57900 44.50200
H  -4.36100 20.47800 45.08700
H  -3.21400 21.16800 43.82300

