158

Mg 25.89600 1.06900 29.71100
C  27.70600 0.76000 32.59400
C  23.15500 1.93200 31.56800
C  24.09300 1.46900 26.84500
C  28.56000 0.12500 27.85200
N  25.46900 1.38600 31.78400
C  26.37400 1.15600 32.79900
C  25.83500 1.47700 34.14500
C  24.27700 1.49500 33.87800
C  24.27900 1.65500 32.32300
C  23.40400 0.32000 34.40300
C  26.39900 2.82700 34.76200
C  27.28600 2.58600 36.08300
H  26.83200 3.27200 37.35800
N  23.89100 1.56100 29.27500
C  22.96400 1.91000 30.18700
C  21.69500 2.13300 29.50300
C  21.89500 1.91200 28.05100
C  23.31100 1.56300 27.99800
C  20.38900 2.54700 30.10700
C  20.99700 2.16800 26.81700
O  21.27900 1.99100 25.62900
C  19.56600 2.77200 27.05500
N  26.21800 0.60500 27.62600
C  25.44100 1.03800 26.64400
C  26.18800 1.23300 25.24900
C  27.59400 0.67500 25.59600
C  27.45800 0.44100 27.12000
C  25.49700 0.62000 24.04600
C  28.78900 1.55100 25.27300
C  28.80900 2.95500 26.05300
N  27.82400 0.34800 30.10100
C  28.79500 0.03800 29.18500
C  29.98400 -0.22600 30.02900
C  29.63700 0.08200 31.38200
C  28.27600 0.43600 31.34000
C  31.33900 -0.60600 29.65300
C  30.08100 0.12200 32.76600
O  31.16100 -0.09400 33.26400
C  28.79200 0.68500 33.60000
C  28.69800 -0.34700 34.62900
O  28.07200 -1.33800 34.44900
O  29.29300 0.08900 35.77400
C  29.04200 -0.77400 36.98400
H  22.33400 2.25000 32.21300
H  23.58400 1.81400 25.94300
H  29.50800 -0.05400 27.33900
H  26.08900 0.68100 34.84500
H  23.69100 2.38400 34.10700
H  23.16500 -0.35300 33.57900
H  22.44300 0.60900 34.82700
H  23.83300 -0.27100 35.21200
H  25.51500 3.43400 34.95700
H  26.98500 3.44800 34.08500
H  28.29700 2.77300 35.72200
H  27.35100 1.54800 36.41000
H  20.59900 2.57000 31.17700
H  19.57700 1.86600 29.85300
H  20.17300 3.56700 29.79100
H  19.05900 3.04700 26.13000
H  19.67800 3.79100 27.42600
H  18.93400 2.23900 27.76600
H  26.29500 2.26000 24.89900
H  27.75700 -0.28600 25.10800
H  26.19100 -0.08300 23.58400
H  25.11900 1.36700 23.34900
H  24.78100 -0.17100 24.27100
H  28.87700 1.83600 24.22500
H  29.77400 1.09600 25.38600
H  28.28700 2.81700 26.99900
H  28.32500 3.70000 25.42200
H  29.80800 3.32500 26.28100
H  31.19200 -1.40700 28.92800
H  31.91800 -1.06000 30.45700
H  31.85500 0.23300 29.18700
H  29.15700 1.63800 33.98400
H  29.05100 -1.82200 36.68700
H  28.17100 -0.46400 37.56100
H  29.88600 -0.59100 37.64900
Mg 48.70700 34.00500 26.57900
C  47.17300 32.69400 29.47200
C  49.13000 36.92500 28.29900
C  49.45500 35.52900 23.60300
C  47.62700 31.09600 24.80900
N  48.29400 34.62100 28.70700
C  47.73000 33.92900 29.71100
C  47.89200 34.71100 31.00500
C  47.97000 36.17700 30.46700
C  48.67400 35.89100 29.06100
C  46.55700 36.83500 30.41100
C  49.03400 34.24400 31.89000
C  48.88800 34.12800 33.47300
H  47.80300 34.91400 34.21000
N  49.34700 35.87000 26.05200
C  49.45100 36.93500 26.90000
C  50.08200 38.09900 26.16900
C  50.18300 37.67900 24.80300
C  49.59400 36.35300 24.71700
C  50.62200 39.31900 26.81000
C  50.76500 38.36200 23.52500
O  50.75600 37.83100 22.37300
C  51.48500 39.73200 23.69400
N  48.59100 33.40400 24.56200
C  48.96500 34.24600 23.52900
C  48.85700 33.48900 22.13000
C  48.29700 32.01800 22.56400
C  48.13300 32.22400 24.07600
C  48.06500 34.24200 20.97900
C  49.28900 30.99100 22.20000
C  50.58500 30.81200 22.97500
N  47.77200 32.18900 26.96000
C  47.41400 31.09900 26.18100
C  46.85800 30.01700 27.03600
C  46.59800 30.63500 28.31300
C  47.16100 31.98300 28.19900
C  46.41400 28.68300 26.58700
C  46.04900 30.44800 29.54400
O  45.40200 29.47600 29.97900
C  46.24600 31.86000 30.28300
C  46.60200 31.48700 31.74000
O  47.76500 31.32200 32.20400
O  45.43000 31.24600 32.41000
C  45.47400 31.12700 33.84500
H  49.22600 37.89400 28.79400
H  49.92300 35.75700 22.64300
H  47.28400 30.24900 24.21100
H  46.96100 34.46800 31.51600
H  48.72600 36.72300 31.03200
H  46.58300 37.75300 30.99800
H  45.82600 36.08300 30.71000
H  46.30400 36.97100 29.36000
H  49.87300 34.90300 31.66700
H  49.40500 33.28500 31.52700
H  49.83600 34.57600 33.77100
H  49.02400 33.09900 33.80600
H  51.70400 39.21500 26.72200
H  50.41800 39.49300 27.86600
H  50.26000 40.22700 26.32900
H  50.76900 40.50800 23.96600
H  51.86700 39.96600 22.70000
H  52.30900 39.64000 24.40100
H  49.86700 33.29500 21.76600
H  47.36000 31.79200 22.05500
H  47.74400 35.24900 21.24800
H  47.19300 33.62600 20.75600
H  48.58700 34.30400 20.02400
H  49.46900 31.12800 21.13300
H  48.70200 30.08100 22.31700
H  50.63200 31.02600 24.04300
H  51.44200 31.29600 22.50700
H  50.83600 29.75100 22.95400
H  45.33600 28.55300 26.48900
H  46.86400 27.94000 27.24500
H  46.64300 28.56600 25.52800
H  45.30800 32.40300 30.39900
H  45.73300 32.11000 34.23800
H  46.18700 30.40000 34.23400
H  44.46100 30.77500 34.04100

