158

Mg 26.35000 49.91700 26.10200
C  24.60200 51.53300 28.59500
C  28.93800 49.38800 28.45600
C  28.60300 49.15100 23.63200
C  24.10500 51.18500 23.76400
N  26.70600 50.39400 28.25100
C  25.77900 50.98300 29.08300
C  26.26200 50.88800 30.53800
C  27.75300 50.43100 30.44700
C  27.86900 50.01900 28.96400
C  28.76700 51.55500 30.88000
C  25.29500 49.90900 31.33100
C  25.05100 50.03500 32.86900
H  25.98600 50.90600 33.75100
N  28.40800 49.13500 26.03900
C  29.21600 49.00700 27.12600
C  30.47100 48.39600 26.66400
C  30.49300 48.43900 25.25000
C  29.10300 48.95900 24.92500
C  31.45900 47.66800 27.56900
C  31.59100 48.00000 24.22400
O  31.36400 48.00800 23.02800
C  33.00600 47.60900 24.70400
N  26.40000 50.16300 23.99600
C  27.40600 49.71900 23.14400
C  27.05200 49.82900 21.64200
C  25.62300 50.56200 21.74000
C  25.35600 50.58500 23.27100
C  28.14200 50.62000 20.88200
C  24.50400 49.91100 20.92500
C  24.00200 50.56600 19.60700
N  24.63200 51.11700 26.13900
C  23.82700 51.54900 25.11800
C  22.72900 52.23000 25.64200
C  22.95400 52.24200 27.02800
C  24.19700 51.66900 27.25400
C  21.63200 52.86200 24.93400
C  22.41700 52.69800 28.31300
O  21.42900 53.29400 28.62400
C  23.41600 52.08800 29.42500
C  23.78500 53.24900 30.25000
O  24.58900 54.11800 29.94500
O  23.06700 53.15600 31.49400
C  23.50100 53.90800 32.67200
H  29.70800 49.18000 29.20200
H  29.35000 49.01300 22.84800
H  23.42700 51.45600 22.95300
H  26.17200 51.85700 31.02900
H  27.82700 49.54600 31.07700
H  29.35400 51.82900 30.00400
H  29.55600 51.06600 31.45200
H  28.32200 52.41000 31.38900
H  25.56900 48.89600 31.03700
H  24.28600 50.08900 30.95800
H  25.03300 49.07800 33.39000
H  24.09600 50.54400 33.00400
H  32.34400 48.30300 27.55700
H  31.75400 46.73000 27.09800
H  31.05700 47.50000 28.56800
H  33.76000 47.40200 23.94400
H  32.96400 46.74700 25.36900
H  33.23700 48.39600 25.42200
H  26.92600 48.87600 21.12800
H  25.80200 51.59500 21.44200
H  28.74200 49.89300 20.33500
H  28.87300 51.12700 21.51200
H  27.62200 51.41200 20.34400
H  23.62800 49.89200 21.57300
H  24.81100 48.88100 20.74300
H  22.93600 50.35900 19.69900
H  24.39600 50.00700 18.75800
H  24.25800 51.60400 19.39100
H  21.78400 53.94100 24.94400
H  20.73900 52.68800 25.53500
H  21.55200 52.55700 23.89000
H  22.87100 51.36300 30.02900
H  24.28200 53.34300 33.18100
H  22.65000 54.03700 33.34100
H  23.86600 54.91100 32.45000
Mg 6.90500 53.90700 41.43000
C  6.53200 50.51500 40.90200
C  10.14100 53.67200 40.08200
C  6.83700 57.21600 40.86800
C  3.57700 54.04700 42.49000
N  8.05900 52.35100 40.47500
C  7.75000 50.96400 40.50300
C  9.00900 50.07700 40.19500
C  10.10600 51.09300 40.30900
C  9.39200 52.50500 40.36200
C  11.03800 50.83600 41.57100
C  8.92500 49.27800 38.85100
C  8.80500 50.22600 37.61600
H  7.37100 50.51400 37.04700
N  8.27600 55.26800 40.56700
C  9.53800 54.99300 40.12100
C  10.21600 56.22700 39.82800
C  9.30000 57.24800 40.16600
C  8.05700 56.59500 40.57400
C  11.61900 56.27200 39.19900
C  9.61200 58.76600 40.24200
O  10.69100 59.13400 39.77900
C  8.66900 59.80200 40.79300
N  5.36800 55.46700 41.71000
C  5.62000 56.79400 41.38000
C  4.35200 57.74300 41.67600
C  3.35200 56.66800 42.17800
C  4.15600 55.32200 42.15900
C  4.53600 58.92500 42.61800
C  2.09500 56.52900 41.21100
C  0.78800 56.86300 41.96500
N  5.38300 52.59000 41.79900
C  4.09900 52.78200 42.26900
C  3.48800 51.50100 42.47800
C  4.40700 50.64000 41.95500
C  5.51700 51.30400 41.48000
C  2.10300 51.17700 42.90400
C  4.66400 49.24400 41.66100
O  3.88600 48.31000 41.81000
C  6.05900 49.09700 40.95900
C  5.75600 48.47700 39.73500
O  5.10600 49.05100 38.85300
O  6.28200 47.15000 39.65700
C  5.96000 46.44500 38.39600
H  11.17700 53.50000 39.78400
H  6.71300 58.20200 40.41400
H  2.51400 54.07300 42.73800
H  9.04300 49.37300 41.02600
H  10.78400 50.86300 39.48700
H  11.49100 51.77400 41.89200
H  11.85400 50.21400 41.20300
H  10.60300 50.22500 42.36300
H  8.11400 48.55000 38.86300
H  9.84400 48.69900 38.76700
H  9.48400 49.92200 36.82000
H  9.22300 51.18600 37.91800
H  11.75800 55.44600 38.50000
H  12.39600 56.17900 39.95800
H  11.72500 57.20300 38.64300
H  7.88700 60.14700 40.11700
H  9.22000 60.72200 40.98600
H  8.13400 59.51800 41.69900
H  4.16900 58.06300 40.65100
H  3.07300 56.82900 43.22000
H  4.74000 59.79700 41.99700
H  5.31000 58.84800 43.38100
H  3.59000 59.03600 43.14800
H  1.88500 55.52100 40.85300
H  2.23800 57.29500 40.44900
H  -0.09600 56.70200 41.34800
H  0.65000 57.89900 42.27300
H  0.59200 56.23900 42.83700
H  2.04700 50.86100 43.94500
H  1.78600 50.34000 42.28200
H  1.43800 52.02300 42.72800
H  6.66200 48.55000 41.68300
H  4.95700 46.01900 38.43800
H  6.65300 45.65300 38.11200
H  6.13300 47.02800 37.49100

