158

Mg 47.29400 25.32400 28.81000
C  48.51100 27.61200 31.24000
C  46.11700 23.40200 31.39300
C  46.94700 22.68200 26.75200
C  49.08800 26.93900 26.46000
N  47.31200 25.50900 31.04700
C  47.73500 26.58300 31.80500
C  47.26100 26.41000 33.22500
C  46.74400 24.96300 33.29400
C  46.62900 24.64300 31.82300
C  47.45100 23.84100 34.23900
C  46.31500 27.63600 33.65600
C  45.46800 27.54900 34.90400
H  46.09400 27.86300 36.19500
N  46.44200 23.47900 28.96800
C  45.98800 22.83600 30.11200
C  45.37400 21.58800 29.80200
C  45.46300 21.40500 28.45000
C  46.32800 22.53200 27.99700
C  44.77500 20.67000 30.88500
C  44.85700 20.29100 27.51600
O  44.96900 20.25200 26.32200
C  44.13900 19.10200 28.13000
N  47.93400 24.92600 26.82500
C  47.59900 23.78600 26.18300
C  48.15700 23.75400 24.73300
C  48.51500 25.28600 24.55600
C  48.47600 25.74600 26.01800
C  49.40100 22.87100 24.51600
C  47.43400 26.18500 23.78700
C  47.99100 27.07800 22.67000
N  48.44100 27.03900 28.72300
C  49.16400 27.53300 27.70900
C  49.87500 28.71200 28.11100
C  49.60600 28.86400 29.51700
C  48.82100 27.73700 29.86100
C  50.62400 29.61700 27.13000
C  49.85300 29.65100 30.69200
O  50.43300 30.69100 30.86300
C  49.16000 28.86500 31.88400
C  50.27400 28.55900 32.81200
O  51.39600 28.11800 32.49100
O  49.85600 28.68700 34.13700
C  50.77200 28.08700 35.17700
H  45.70400 22.72200 32.14200
H  46.64400 21.96700 25.98400
H  49.51200 27.43400 25.58300
H  48.17500 26.44600 33.81800
H  45.69800 25.04500 33.59100
H  48.39100 24.19200 34.66400
H  47.72800 22.92300 33.72000
H  46.66300 23.54500 34.93200
H  45.69000 27.57500 32.76500
H  46.80900 28.60700 33.65200
H  45.00300 26.56300 34.92200
H  44.60200 28.20800 34.84000
H  44.90800 21.01500 31.91100
H  45.28200 19.71200 31.00500
H  43.70900 20.51200 30.72600
H  43.19000 19.41400 28.56500
H  44.62200 18.72700 29.03200
H  43.98100 18.36800 27.34000
H  47.30200 23.53300 24.09400
H  49.52900 25.47200 24.20200
H  49.75600 22.29400 25.36900
H  50.26600 23.37600 24.08600
H  49.21700 22.16900 23.70200
H  46.92000 26.81200 24.51600
H  46.71100 25.50900 23.33000
H  47.17100 27.06700 21.95200
H  48.93400 26.73900 22.24200
H  48.13900 28.07800 23.07700
H  51.19700 30.36400 27.67900
H  49.92800 30.08200 26.43300
H  51.32400 28.93700 26.64500
H  48.49600 29.60300 32.33400
H  50.29100 27.58200 36.01400
H  51.33400 28.90900 35.62000
H  51.54600 27.46400 34.72900
Mg 26.81900 50.30200 26.65700
C  24.70600 51.68400 29.17500
C  29.16500 49.76200 29.12000
C  29.03100 49.36200 24.27900
C  24.64500 51.61500 24.13300
N  26.82400 50.65200 28.94100
C  25.86500 51.16500 29.70800
C  26.20400 50.91900 31.13700
C  27.75800 50.46000 31.12500
C  27.95000 50.28800 29.67600
C  28.80500 51.36600 31.78800
C  25.31000 49.74100 31.83200
C  24.45200 50.18500 33.08200
H  24.56400 49.27800 34.29900
N  28.75200 49.60700 26.76600
C  29.65000 49.42800 27.83300
C  30.90600 48.91200 27.40800
C  30.84900 48.88200 26.03200
C  29.49600 49.23700 25.64600
C  32.00700 48.54400 28.39800
C  31.98500 48.57300 24.98300
O  31.85900 48.69000 23.77400
C  33.27300 48.14900 25.48700
N  26.70500 50.24400 24.48600
C  27.78200 49.74700 23.73800
C  27.37300 49.71700 22.26000
C  25.98800 50.51600 22.22500
C  25.73700 50.85800 23.71100
C  28.57300 50.25400 21.30400
C  24.80300 49.76900 21.57700
C  23.78800 50.67100 20.82100
N  25.07300 51.35200 26.65500
C  24.26100 51.80000 25.55600
C  23.03000 52.39700 26.08300
C  23.17400 52.32500 27.50300
C  24.47100 51.75700 27.78100
C  21.91000 52.98100 25.20000
C  22.57000 52.74300 28.72600
O  21.52600 53.34800 28.98000
C  23.44400 52.21400 29.87900
C  23.76100 53.27500 30.84900
O  24.60500 54.13800 30.74400
O  22.92300 53.14300 31.92800
C  23.27900 53.93700 33.15700
H  29.94400 49.43100 29.81100
H  29.68800 48.97200 23.49900
H  24.02500 52.06800 23.35700
H  26.14900 51.85800 31.68700
H  27.94200 49.50300 31.61400
H  29.37400 50.89900 32.59200
H  28.23000 52.16200 32.26100
H  29.45300 51.85500 31.06100
H  25.96600 48.97000 32.23700
H  24.65900 49.26500 31.09900
H  23.39100 50.29300 32.85900
H  24.78800 51.15700 33.44100
H  31.76900 48.82000 29.42500
H  32.95400 49.08200 28.35700
H  32.17300 47.46700 28.35400
H  33.94100 48.15700 24.62600
H  33.20200 47.14100 25.89500
H  33.70700 48.74700 26.28800
H  27.24100 48.65000 22.08200
H  26.08800 51.46700 21.70200
H  29.41100 50.56600 21.92700
H  28.22400 51.13700 20.76900
H  28.80600 49.42300 20.63700
H  24.23000 49.23600 22.33500
H  25.29200 48.99200 20.98900
H  23.68400 50.33100 19.79100
H  24.19400 51.68200 20.78200
H  22.81600 50.73200 21.31200
H  22.41100 53.71400 24.56800
H  21.12300 53.46600 25.77700
H  21.37500 52.23100 24.61700
H  22.99000 51.41900 30.47100
H  23.72400 53.32600 33.94200
H  22.36100 54.35800 33.56700
H  23.91900 54.77800 32.89000

