158

Mg 48.06400 44.43500 42.83400
C  44.51600 44.10300 42.47600
C  48.28600 41.03600 42.53900
C  51.32900 44.82400 42.98200
C  47.66000 47.85300 42.52400
N  46.55300 42.82300 42.44000
C  45.21800 42.81500 42.54400
C  44.56400 41.41000 42.55900
C  45.89200 40.47900 42.76300
C  47.02800 41.51200 42.60900
C  45.83900 39.77100 44.15900
C  43.72300 40.97300 41.31800
C  43.97200 41.70200 39.95800
H  43.89800 40.92400 38.69200
N  49.58600 43.08000 42.69400
C  49.49500 41.72100 42.59200
C  50.86200 41.16100 42.62100
C  51.74500 42.23400 42.56700
C  50.95000 43.41600 42.82100
C  51.16000 39.75900 42.42100
C  53.30400 42.19100 42.38000
O  53.88900 41.09500 42.35300
C  54.20500 43.45700 42.20700
N  49.33000 46.16100 42.88600
C  50.69100 46.06700 43.01500
C  51.37300 47.45100 43.14900
C  50.13900 48.40800 43.15900
C  48.98500 47.46500 42.75100
C  52.53000 47.59500 44.23700
C  50.36300 49.55800 42.10800
C  50.48800 50.96000 42.67300
N  46.46100 45.72500 42.49900
C  46.47200 47.10300 42.38200
C  45.07500 47.61800 42.22600
C  44.30100 46.43700 42.29800
C  45.19700 45.34100 42.38100
C  44.63300 49.04400 42.19400
C  42.91200 45.96000 42.51300
O  41.89800 46.57300 42.61100
C  43.02600 44.43000 42.61800
C  42.35400 44.00100 43.84200
O  41.22200 43.53600 43.99200
O  43.15300 44.28900 44.96900
C  42.73900 43.66800 46.29100
H  48.37200 39.94900 42.49500
H  52.37300 45.02500 43.22900
H  47.52900 48.93600 42.47700
H  43.99800 41.40900 43.49000
H  46.11500 39.74600 41.98700
H  45.39800 38.79700 43.94800
H  45.16200 40.25000 44.86600
H  46.86400 39.61600 44.49600
H  42.68800 41.01400 41.65600
H  43.90500 39.92300 41.09000
H  44.91800 42.24400 39.93200
H  43.17700 42.44200 39.86800
H  51.75700 39.41200 43.26500
H  51.86200 39.69400 41.59000
H  50.27600 39.16400 42.19100
H  53.83600 44.24000 41.54400
H  55.17100 43.18500 41.78300
H  54.28200 43.92200 43.19000
H  51.81000 47.51100 42.15300
H  49.93700 48.69900 44.19000
H  52.31100 48.28100 45.05600
H  53.45100 47.93900 43.76700
H  52.84300 46.67900 44.73700
H  49.43600 49.61100 41.53600
H  51.17900 49.45200 41.39400
H  49.78600 51.66100 42.22000
H  51.43600 51.49000 42.58300
H  50.25400 50.78600 43.72300
H  44.65000 49.51000 43.17900
H  43.69100 49.15700 41.65600
H  45.33100 49.63200 41.59800
H  42.40400 44.09000 41.79000
H  43.60200 43.63100 46.95500
H  42.35800 42.65300 46.40400
H  41.95800 44.24100 46.79200
Mg -11.54100 16.91500 42.22100
C  -8.29900 17.87000 41.86300
C  -12.59300 20.23200 41.73500
C  -14.86500 16.00500 42.54800
C  -10.39500 13.62900 42.43800
N  -10.56600 18.81100 41.68300
C  -9.20000 18.98000 41.73100
C  -8.70700 20.39600 41.58400
C  -10.13900 21.16300 41.71600
C  -11.19600 20.04600 41.76500
C  -10.24200 22.18600 42.94000
C  -8.02200 20.64600 40.21100
C  -6.75200 21.37400 40.26000
H  -5.62500 21.06400 39.26300
N  -13.48000 17.93700 41.93500
C  -13.68300 19.29500 41.76900
C  -15.08300 19.59500 41.84900
C  -15.75100 18.40000 42.08300
C  -14.73200 17.38100 42.23500
C  -15.55600 21.05000 41.70700
C  -17.25500 18.37200 42.21800
O  -17.95400 19.35700 42.08600
C  -18.00400 16.97500 42.40200
N  -12.46100 15.04400 42.09000
C  -13.81300 14.96400 42.52300
C  -14.10100 13.52500 42.90500
C  -12.76000 12.73200 42.46100
C  -11.78000 13.87100 42.39600
C  -14.48200 13.38000 44.39600
C  -12.80300 11.99800 41.14400
C  -13.70300 10.76000 41.06400
N  -9.72200 15.87200 42.17900
C  -9.37000 14.54700 42.27500
C  -7.93000 14.45400 42.40200
C  -7.44400 15.73800 42.15800
C  -8.57300 16.55700 42.08900
C  -7.21800 13.18200 42.78700
C  -6.27900 16.51500 42.06700
O  -5.13300 16.08400 42.14200
C  -6.76400 18.01300 41.87900
C  -6.33700 18.81500 43.13400
O  -6.82600 18.58300 44.18200
O  -5.29900 19.58600 42.90600
C  -4.65300 20.20600 44.04200
H  -12.88400 21.25200 41.47600
H  -15.85300 15.66900 42.86900
H  -10.10300 12.61400 42.71600
H  -8.24700 20.65600 42.53800
H  -10.23600 21.84500 40.87200
H  -10.12300 23.19800 42.55200
H  -9.55000 21.98700 43.75900
H  -11.24500 22.24300 43.36400
H  -8.59800 21.10400 39.40700
H  -7.83200 19.69400 39.71600
H  -6.38000 21.12200 41.25300
H  -6.97000 22.44100 40.21200
H  -16.53500 21.13800 41.23600
H  -14.82300 21.60600 41.12200
H  -15.57000 21.48700 42.70600
H  -19.02300 17.16800 42.06600
H  -17.98200 16.64400 43.44000
H  -17.61600 16.23400 41.70300
H  -14.88100 13.12400 42.25800
H  -12.26900 12.01000 43.11300
H  -15.46500 12.94000 44.55900
H  -14.38100 14.32700 44.92800
H  -13.77500 12.75500 44.94200
H  -11.81200 11.73500 40.77300
H  -13.18000 12.71400 40.41300
H  -14.53500 10.97500 40.39200
H  -14.02900 10.65700 42.09900
H  -13.16400 9.87300 40.73400
H  -7.36600 12.95400 43.84300
H  -6.15900 13.33100 42.58000
H  -7.67500 12.41100 42.16600
H  -6.31200 18.24300 40.91400
H  -5.24600 21.01600 44.46400
H  -3.75600 20.76200 43.76700
H  -4.26300 19.51100 44.78600

