158

Mg 40.24400 10.14800 29.32700
C  42.20800 11.35500 31.96400
C  37.85500 9.18000 31.71300
C  38.32400 8.83900 26.83500
C  42.69500 10.74000 27.02300
N  40.10900 10.12800 31.59400
C  41.01600 10.77500 32.47200
C  40.52600 10.71700 33.90100
C  39.26300 9.74300 33.77900
C  39.03200 9.67800 32.27200
C  39.55300 8.28400 34.34700
C  40.31500 12.15400 34.50000
C  39.65000 12.14300 35.91900
H  40.57700 12.41900 37.13500
N  38.43800 9.05800 29.32900
C  37.61400 8.75400 30.43200
C  36.43100 7.99200 30.02200
C  36.55000 7.96000 28.57800
C  37.80500 8.63600 28.17700
C  35.35100 7.49200 30.96000
C  35.52800 7.41300 27.58100
O  35.69800 7.31200 26.41500
C  34.15200 7.03700 28.12700
N  40.54500 9.72900 27.28800
C  39.50400 9.34500 26.45600
C  39.92900 9.26400 24.95800
C  41.37000 9.79300 25.03800
C  41.59300 10.10800 26.49700
C  39.83000 7.83100 24.43500
C  41.64000 10.95400 24.00400
C  41.48900 12.36200 24.45800
N  42.03100 11.04700 29.44900
C  42.93100 11.16700 28.40300
C  44.24000 11.65800 28.94100
C  43.98800 11.85100 30.37400
C  42.61900 11.39100 30.58100
C  45.46100 11.97100 28.12100
C  44.46100 12.31200 31.65900
O  45.51700 12.82400 32.01600
C  43.36000 11.99800 32.71200
C  43.84500 11.00000 33.70100
O  44.11500 9.82200 33.46800
O  44.04900 11.64800 34.95900
C  44.53000 10.73900 36.03400
H  37.15000 8.94700 32.51400
H  37.67000 8.59400 25.99600
H  43.51500 10.82000 26.30700
H  41.34400 10.19500 34.39900
H  38.38800 10.13600 34.29700
H  38.79900 8.16400 35.12500
H  40.50400 8.25900 34.87800
H  39.62500 7.49900 33.59400
H  39.68100 12.78600 33.87800
H  41.27500 12.66300 34.59600
H  39.23700 11.14800 36.08600
H  38.94600 12.97400 35.87400
H  34.42600 8.06800 30.95100
H  35.82800 7.49800 31.94000
H  34.95100 6.50100 30.74600
H  34.10800 6.16500 28.78000
H  33.58400 6.60400 27.30400
H  33.78200 7.99500 28.49300
H  39.24600 9.99600 24.52700
H  42.17000 9.08400 24.82700
H  39.32100 7.12600 25.09300
H  40.82600 7.39200 24.37000
H  39.40700 7.81400 23.43100
H  41.00800 10.72600 23.14600
H  42.63900 10.88900 23.57300
H  41.26000 12.54200 25.50900
H  40.66000 12.88700 23.98300
H  42.44200 12.85100 24.25700
H  45.35500 11.24000 27.32000
H  46.34700 12.00900 28.75500
H  45.47600 12.98300 27.71600
H  43.11400 12.93100 33.21900
H  45.40400 10.18600 35.69000
H  43.73700 10.06000 36.34600
H  44.89000 11.33200 36.87500
Mg -11.30300 38.28700 41.71100
C  -9.24400 35.43200 41.31700
C  -8.94900 40.11700 39.92200
C  -13.50400 40.59700 41.34600
C  -13.63700 36.15500 43.23700
N  -9.42100 37.74500 40.61100
C  -8.76400 36.56500 40.59300
C  -7.53100 36.66400 39.68000
C  -7.31100 38.19600 39.53300
C  -8.62900 38.71100 40.12200
C  -6.10500 38.83700 40.31200
C  -7.84100 35.95300 38.24100
C  -6.76200 35.06700 37.68100
H  -5.80300 35.73600 36.67500
N  -11.20700 40.14400 40.86900
C  -10.14900 40.80900 40.26100
C  -10.47100 42.11100 39.92300
C  -11.86500 42.21800 40.26400
C  -12.23700 40.96300 40.86500
C  -9.41600 43.04900 39.30200
C  -12.70900 43.49900 40.02700
O  -12.21500 44.58400 39.76800
C  -14.18700 43.58600 40.24800
N  -13.41200 38.35700 42.12700
C  -14.07700 39.49900 41.93100
C  -15.57100 39.41900 42.38800
C  -15.58700 37.88700 42.76000
C  -14.14200 37.40200 42.79100
C  -15.99400 40.53200 43.42700
C  -16.67500 37.06300 41.95200
C  -16.13300 36.33800 40.69800
N  -11.42200 36.21700 42.25000
C  -12.37800 35.52100 42.92300
C  -11.91700 34.23700 43.21800
C  -10.63200 34.13100 42.61500
C  -10.44200 35.32900 42.02300
C  -12.60400 33.17200 43.97300
C  -9.45500 33.27000 42.45500
O  -9.29500 32.05200 42.64900
C  -8.47400 34.16500 41.64300
C  -7.19400 34.24400 42.35800
O  -6.61700 33.22800 42.71400
O  -6.73200 35.52300 42.64400
C  -5.34500 35.70700 43.08000
H  -8.17500 40.70500 39.42500
H  -14.36500 41.26700 41.30700
H  -14.44200 35.53100 43.63100
H  -6.59400 36.23500 40.03700
H  -7.17100 38.51400 38.50000
H  -6.35000 39.83300 40.67900
H  -5.28700 38.94000 39.59900
H  -5.93900 38.12900 41.12500
H  -7.94700 36.79400 37.55600
H  -8.81600 35.46800 38.19600
H  -7.22100 34.13500 37.34900
H  -6.00000 34.78600 38.40700
H  -9.45100 42.77000 38.24900
H  -8.45400 42.94000 39.80200
H  -9.79200 44.06500 39.42300
H  -14.38800 43.54600 41.31800
H  -14.48400 42.66500 39.74700
H  -14.59800 44.47100 39.76000
H  -16.10900 39.64900 41.46800
H  -15.99300 37.72600 43.75800
H  -16.61500 41.14700 42.77500
H  -15.08700 41.05200 43.73500
H  -16.64500 40.17800 44.22600
H  -17.41300 37.72200 41.49500
H  -17.21300 36.37000 42.59800
H  -16.30700 35.28100 40.89900
H  -15.09600 36.57800 40.46500
H  -16.61600 36.58700 39.75300
H  -13.68900 33.25200 43.90900
H  -12.16000 33.35300 44.95200
H  -12.29200 32.17700 43.65800
H  -8.24600 33.64900 40.71000
H  -5.25700 36.72500 43.46100
H  -4.57900 35.55700 42.31900
H  -5.14700 34.98200 43.86900

