158

Mg -1.16000 17.45600 25.93200
C  -1.67900 15.04600 28.54900
C  -1.48800 19.96100 28.23100
C  -1.06900 19.51600 23.43300
C  -1.47400 14.68400 23.67000
N  -1.59000 17.46900 28.13100
C  -1.56700 16.39100 28.97500
C  -1.45600 16.91000 30.41500
C  -1.88200 18.37600 30.29000
C  -1.61200 18.64800 28.83000
C  -3.38700 18.60100 30.69000
C  -0.09200 16.65800 31.12500
C  -0.03800 15.83400 32.40600
H  0.81500 16.09500 33.63200
N  -1.24400 19.49700 25.82300
C  -1.36300 20.33100 26.89600
C  -1.39000 21.74400 26.32700
C  -1.13700 21.60000 24.92900
C  -1.27600 20.16700 24.65400
C  -1.68900 22.93500 27.10800
C  -1.03500 22.65600 23.89900
O  -1.21500 22.43800 22.70300
C  -0.80600 24.06300 24.32000
N  -1.42700 17.19500 23.83000
C  -1.22500 18.14300 23.01200
C  -1.40500 17.79300 21.55100
C  -1.17900 16.21500 21.61800
C  -1.33800 15.97100 23.10200
C  -2.78100 18.21200 20.90400
C  0.08200 15.77100 20.84600
C  1.43400 16.38800 21.26900
N  -1.35000 15.31900 26.05000
C  -1.55100 14.35300 25.02400
C  -1.66500 13.07900 25.63500
C  -1.77500 13.29900 26.96400
C  -1.56700 14.67800 27.21100
C  -1.79100 11.80100 24.87500
C  -1.93800 12.67600 28.29400
O  -2.00700 11.52000 28.57100
C  -2.00700 13.80100 29.32100
C  -1.04600 13.38600 30.40900
O  0.16700 13.29700 30.36600
O  -1.78300 13.10800 31.45600
C  -1.19500 12.43700 32.60900
H  -1.59700 20.74900 28.97800
H  -0.82900 20.20600 22.62100
H  -1.41500 13.85200 22.96500
H  -2.27300 16.38300 30.90900
H  -1.28400 19.04100 30.91300
H  -3.46700 19.15300 31.62700
H  -3.93200 17.67100 30.85700
H  -3.93100 19.04400 29.85600
H  0.42900 17.58800 31.35500
H  0.52400 16.12700 30.39900
H  0.24400 14.80200 32.19800
H  -1.01100 15.97300 32.87700
H  -2.53200 23.37800 26.57800
H  -0.83800 23.61200 27.03100
H  -2.05400 22.74700 28.11800
H  -1.64800 24.47800 24.87400
H  -0.49300 24.74000 23.52500
H  0.08000 24.09600 24.95300
H  -0.72500 18.30800 20.87200
H  -2.08800 15.68300 21.34000
H  -3.18700 18.70400 21.78800
H  -3.44400 17.43800 20.51600
H  -2.57300 18.98600 20.16600
H  -0.08000 16.08100 19.81400
H  0.13900 14.68300 20.83700
H  1.80900 16.88200 20.37200
H  2.12900 15.74300 21.80600
H  1.16700 17.16200 21.98900
H  -1.06100 11.12600 25.32200
H  -1.74400 11.83800 23.78700
H  -2.75500 11.33100 25.07100
H  -3.02800 13.76700 29.70100
H  -1.03300 11.42300 32.24200
H  -1.88400 12.57800 33.44200
H  -0.26800 12.92100 32.91600
Mg 47.90500 14.34200 28.05700
C  45.89200 14.38400 30.78400
C  50.14900 16.42900 29.71300
C  49.75800 14.47700 25.26600
C  45.38100 12.89400 26.16100
N  47.91800 15.42800 29.94200
C  47.00800 15.21300 30.97200
C  47.43600 15.93900 32.25000
C  48.63400 16.77700 31.73200
C  48.94300 16.19900 30.33100
C  48.40400 18.35500 31.69500
C  47.69900 14.80000 33.29000
C  47.04400 15.04800 34.70900
H  47.91300 14.85100 35.99000
N  49.80200 15.21100 27.62900
C  50.59800 15.94200 28.40000
C  51.81000 16.20700 27.74100
C  51.79000 15.58100 26.53600
C  50.40600 15.06700 26.40500
C  52.96600 17.10400 28.32900
C  52.87300 15.39700 25.47300
O  52.69100 14.80500 24.42400
C  54.21200 15.87500 25.72000
N  47.60400 13.75500 26.06200
C  48.51200 13.92300 25.06900
C  48.20700 13.28400 23.72300
C  46.75400 12.70300 24.05200
C  46.55500 13.13600 25.50900
C  48.12800 14.22100 22.54300
C  46.73900 11.11100 23.80300
C  47.85600 10.13700 24.33900
N  45.98200 13.73500 28.32000
C  45.07200 13.20000 27.50000
C  43.88000 12.79800 28.27400
C  44.15000 13.29100 29.54600
C  45.42700 13.84400 29.49100
C  42.84100 11.92700 27.63100
C  43.70200 13.31100 30.90300
O  42.68900 12.85700 31.42500
C  44.77900 13.98800 31.81600
C  44.03800 15.15300 32.47200
O  43.72800 16.22500 31.92400
O  43.76400 14.85800 33.78300
C  43.31700 15.92700 34.60700
H  50.80900 17.06500 30.30600
H  50.26900 14.49900 24.30100
H  44.54200 12.43000 25.63800
H  46.60000 16.57100 32.55100
H  49.46900 16.48100 32.36600
H  47.48600 18.63200 32.21100
H  48.42400 18.73100 30.67200
H  49.22700 18.89400 32.16500
H  48.77400 14.66900 33.40900
H  47.24300 13.85500 32.99500
H  46.21500 14.34100 34.69500
H  46.62800 16.05500 34.70100
H  53.88900 16.52500 28.34000
H  52.53800 17.45200 29.26900
H  53.09300 17.92400 27.62200
H  54.12000 16.93700 25.95000
H  54.85600 15.86000 24.84100
H  54.76000 15.29000 26.45900
H  48.92700 12.51200 23.45300
H  45.90000 13.14700 23.54200
H  47.41200 15.01700 22.74600
H  47.75300 13.66600 21.68300
H  49.05700 14.69500 22.22600
H  46.73400 11.03600 22.71500
H  45.76200 10.70700 24.06800
H  48.29700 9.58000 23.51300
H  47.45200 9.39800 25.03100
H  48.56500 10.79900 24.83600
H  43.20100 10.94000 27.33900
H  42.32100 12.42000 26.81000
H  42.12700 11.63400 28.40000
H  45.15100 13.25300 32.53000
H  43.27600 15.50400 35.61000
H  42.36100 16.18600 34.15000
H  44.00300 16.77300 34.64700

