158

Mg 48.67000 45.81000 43.07000
C  45.22300 46.35200 42.12100
C  48.43200 42.82900 41.41800
C  51.88100 45.63900 43.38400
C  48.65200 49.21700 44.14800
N  46.98100 44.81700 41.87500
C  45.74000 45.23800 41.54700
C  45.00000 44.21000 40.57200
C  45.98700 42.98300 40.73000
C  47.23000 43.59900 41.37600
C  45.45800 41.77100 41.48800
C  44.80100 44.76200 39.16800
C  43.36800 44.51700 38.65500
H  43.22400 44.40700 37.13200
N  50.00800 44.43000 42.53700
C  49.70400 43.22100 41.90700
C  50.90400 42.38900 41.91900
C  51.92400 43.28700 42.44300
C  51.28900 44.51400 42.84300
C  51.09700 40.98200 41.48100
C  53.40900 42.84700 42.60300
O  53.81800 41.73100 42.25200
C  54.42400 43.65300 43.23200
N  50.08000 47.25800 43.68000
C  51.38100 46.90000 43.74100
C  52.23500 48.06800 44.37100
C  51.11500 49.14900 44.75700
C  49.90300 48.56000 44.06400
C  53.11700 47.50200 45.44800
C  51.40000 50.66500 44.58000
C  51.35400 51.49600 45.85500
N  47.24500 47.40100 43.26800
C  47.39900 48.70500 43.73000
C  46.13600 49.37600 43.66700
C  45.21400 48.42000 43.09200
C  45.99200 47.29000 42.82400
C  45.94400 50.74400 44.17700
C  43.81900 48.19400 42.71500
O  42.82200 48.92700 42.77600
C  43.90100 46.92300 41.88600
C  42.76400 46.05900 42.45300
O  41.71500 45.81100 41.83400
O  43.08300 45.57200 43.70000
C  42.11300 44.65200 44.33500
H  48.45600 41.90000 40.84300
H  52.95800 45.62500 43.56200
H  48.64700 50.18400 44.65500
H  44.04000 44.07200 41.07000
H  46.25900 42.67800 39.72000
H  44.88400 42.11700 42.34800
H  46.26600 41.05400 41.63700
H  44.85000 41.17800 40.80400
H  45.54000 44.56800 38.39000
H  44.94600 45.82000 39.39100
H  42.83800 45.38200 39.05300
H  42.87700 43.65900 39.11600
H  50.09600 40.55600 41.41100
H  51.57000 40.32900 42.21400
H  51.57500 40.88300 40.50600
H  54.25500 44.07700 44.22100
H  54.50800 44.53100 42.59200
H  55.39200 43.15100 43.23900
H  52.73500 48.38200 43.45500
H  50.87500 48.96100 45.80400
H  52.80200 48.03100 46.34800
H  54.11500 47.92000 45.31600
H  53.22900 46.43000 45.60800
H  50.84400 51.15600 43.78100
H  52.44400 50.67900 44.26600
H  51.39500 50.86900 46.74500
H  50.44500 52.08700 45.96300
H  52.20700 52.17300 45.80200
H  46.52300 50.86000 45.09300
H  44.90300 50.98600 44.39000
H  46.22100 51.50500 43.44600
H  43.73400 47.24300 40.85700
H  42.48500 44.25400 45.27900
H  41.96300 43.80800 43.66200
H  41.11700 45.08100 44.43900
Mg -10.46400 38.93300 41.11600
C  -8.64300 36.04400 40.38800
C  -8.00500 40.76200 39.42000
C  -12.42700 41.57400 41.00700
C  -13.00000 36.98200 42.45400
N  -8.58200 38.56200 40.04400
C  -8.10800 37.25100 39.84800
C  -7.02100 37.21400 38.76800
C  -6.60000 38.69900 38.74200
C  -7.85300 39.42400 39.34900
C  -5.24200 39.09300 39.47900
C  -7.47300 36.61900 37.38500
C  -6.71300 35.52000 36.78500
H  -6.13100 35.70400 35.41600
N  -10.19400 40.91000 40.53300
C  -9.13600 41.43600 39.78800
C  -9.33500 42.85200 39.71700
C  -10.59900 43.13500 40.21300
C  -11.15000 41.86600 40.62200
C  -8.32800 43.69700 39.05900
C  -11.16300 44.56900 40.40500
O  -10.54900 45.50400 40.01600
C  -12.42500 44.78100 41.17300
N  -12.44300 39.22500 41.49100
C  -13.00300 40.38600 41.42000
C  -14.46000 40.35000 41.98700
C  -14.78900 38.80100 42.06900
C  -13.31700 38.26300 42.05700
C  -14.52700 41.18600 43.37900
C  -15.42400 38.12000 40.78100
C  -16.49100 37.08000 41.04000
N  -10.77400 36.90800 41.52600
C  -11.81600 36.25400 42.21400
C  -11.40900 34.88000 42.35200
C  -10.22700 34.72500 41.65300
C  -9.86700 36.01300 41.15200
C  -12.15300 33.79700 43.10800
C  -9.18100 33.81500 41.17200
O  -9.08900 32.60200 41.34500
C  -8.19200 34.59700 40.29300
C  -6.80400 34.42500 40.89300
O  -6.02800 33.55200 40.52100
O  -6.55200 35.33900 41.86600
C  -5.15800 35.44600 42.20000
H  -7.16100 41.28600 38.96700
H  -13.13400 42.40500 40.94900
H  -13.82900 36.39500 42.85500
H  -6.24600 36.59500 39.21900
H  -6.52200 39.03200 37.70700
H  -4.50200 38.29300 39.50500
H  -5.40300 39.33600 40.53000
H  -4.65000 39.88000 39.01200
H  -7.25900 37.41500 36.67200
H  -8.55500 36.49200 37.35900
H  -7.30300 34.60400 36.75100
H  -5.94200 35.23800 37.50200
H  -8.16700 44.62700 39.60400
H  -8.62100 43.94500 38.03900
H  -7.33400 43.25300 39.11900
H  -12.41200 45.82200 41.49800
H  -12.41700 44.16000 42.06800
H  -13.32100 44.63000 40.57100
H  -15.14900 40.78800 41.26500
H  -15.17600 38.63900 43.07500
H  -13.54200 41.61900 43.55100
H  -14.77200 40.58300 44.25300
H  -15.26400 41.98100 43.26300
H  -14.59200 37.67800 40.23400
H  -15.85900 38.94200 40.21300
H  -16.84800 37.27500 42.05100
H  -16.16700 36.04000 40.98200
H  -17.25700 37.23100 40.28000
H  -12.71500 33.13100 42.45300
H  -12.88000 34.31100 43.73800
H  -11.41200 33.32200 43.75000
H  -8.15700 34.20300 39.27700
H  -4.99000 36.51300 42.05200
H  -4.54200 34.84100 41.53400
H  -4.98200 35.24100 43.25600

