158

Mg 16.93600 -1.64100 28.29500
C  15.99000 0.54600 31.05200
C  18.79800 -3.47500 30.55100
C  18.61600 -2.97300 25.72900
C  15.90000 1.08500 26.15300
N  17.36700 -1.35200 30.52300
C  16.85500 -0.48200 31.45200
C  17.33900 -0.80900 32.83600
C  18.36200 -2.06500 32.60800
C  18.17200 -2.32900 31.08900
C  19.87100 -1.90400 32.93200
C  16.25800 -0.99700 33.89500
C  16.52700 -0.44900 35.27500
H  17.91800 0.01900 35.68500
N  18.30800 -3.19600 28.12100
C  18.89300 -3.88100 29.19600
C  19.63900 -5.02800 28.60400
C  19.59600 -4.85700 27.22100
C  18.75400 -3.65800 26.96100
C  20.28200 -6.07800 29.43000
C  20.17600 -5.71800 26.14100
O  20.02400 -5.46800 24.89900
C  21.05100 -6.89700 26.49100
N  17.14500 -1.05800 26.23300
C  18.00600 -1.73900 25.41200
C  18.05600 -1.16000 24.01100
C  17.04800 0.07300 24.11500
C  16.72300 0.06900 25.60300
C  19.41300 -0.77200 23.49900
C  15.82200 0.05800 23.18400
C  14.69600 -0.90500 23.57800
N  15.90800 0.23300 28.54800
C  15.58600 1.13500 27.56700
C  14.79600 2.25900 28.22300
C  15.03700 2.05200 29.58600
C  15.66400 0.82400 29.72600
C  14.08600 3.32300 27.49100
C  14.70800 2.58800 30.91800
O  14.11900 3.56200 31.18000
C  15.37800 1.66400 31.92600
C  16.34800 2.51400 32.73300
O  17.46900 2.82400 32.35700
O  15.78800 2.89400 33.88000
C  16.56800 3.95900 34.60900
H  19.33100 -4.03500 31.32300
H  19.08300 -3.42800 24.85300
H  15.61500 1.93600 25.53100
H  18.00100 0.03200 33.04700
H  18.01900 -3.00100 33.04800
H  20.17000 -2.62800 33.68900
H  20.01500 -0.90100 33.33500
H  20.51400 -2.01200 32.05900
H  16.27100 -2.08400 33.96500
H  15.36600 -0.62700 33.38900
H  16.21700 -1.23900 35.95900
H  15.93300 0.46400 35.32100
H  20.31600 -5.87400 30.50000
H  21.22500 -6.43700 29.01700
H  19.61300 -6.93300 29.34100
H  21.92300 -6.42600 26.94400
H  21.30600 -7.34600 25.53200
H  20.63400 -7.66900 27.13800
H  17.68500 -1.87400 23.27600
H  17.58300 0.97600 23.82400
H  20.10100 -0.84000 24.34200
H  19.41100 0.24400 23.10300
H  19.75400 -1.61600 22.90000
H  16.08100 -0.24400 22.16900
H  15.47200 1.08800 23.24200
H  13.81200 -0.35600 23.90300
H  14.91700 -1.58300 24.40300
H  14.36700 -1.53800 22.75300
H  14.23600 4.28000 27.99100
H  13.00600 3.21900 27.59600
H  14.44300 3.46600 26.47100
H  14.64600 1.18900 32.57900
H  16.73200 4.76700 33.89600
H  17.56100 3.63800 34.92300
H  16.04400 4.40100 35.45600
Mg -4.63500 25.51100 25.75600
C  -3.59300 26.83000 28.83200
C  -6.65200 23.27600 27.62000
C  -5.35300 23.87800 22.91300
C  -2.24900 27.36600 24.14000
N  -5.01400 25.08700 27.98600
C  -4.57200 25.84500 29.06600
C  -5.16600 25.50500 30.42200
C  -6.04100 24.26500 29.94700
C  -5.91100 24.21600 28.40200
C  -5.52300 22.93000 30.61500
C  -6.06900 26.62400 30.99300
C  -6.25900 26.65700 32.50400
H  -5.73800 25.62700 33.42800
N  -6.05000 23.91300 25.26500
C  -6.78400 23.18400 26.20300
C  -7.60400 22.32600 25.53000
C  -7.24500 22.40600 24.10900
C  -6.19200 23.41700 24.00200
C  -8.65800 21.39300 26.14500
C  -7.68800 21.59100 22.90500
O  -7.14700 21.64800 21.76400
C  -8.77300 20.62300 22.95000
N  -3.85700 25.57200 23.82500
C  -4.32200 24.79400 22.81500
C  -3.50500 24.97500 21.54200
C  -2.49500 26.19900 21.95100
C  -2.80200 26.29900 23.44900
C  -2.99800 23.80200 20.78800
C  -2.58800 27.51700 21.10400
C  -3.72300 28.51800 21.49800
N  -3.26600 26.92700 26.31800
C  -2.41100 27.67600 25.52700
C  -1.71800 28.61100 26.35000
C  -2.10200 28.25700 27.68100
C  -3.02600 27.25500 27.61100
C  -0.73500 29.62800 25.93700
C  -1.84900 28.53600 29.08100
O  -1.09100 29.34700 29.56800
C  -2.86600 27.67300 29.88100
C  -2.05400 26.74300 30.81800
O  -1.21300 25.87500 30.48300
O  -2.32300 27.18500 32.11300
C  -1.50200 26.58700 33.11200
H  -7.27800 22.64800 28.25700
H  -5.70400 23.45800 21.96800
H  -1.43000 27.87800 23.63000
H  -4.35500 25.33100 31.12800
H  -7.09800 24.39700 30.17800
H  -4.80800 23.21100 31.38900
H  -4.95400 22.41900 29.83900
H  -6.37900 22.37900 31.00300
H  -7.05600 26.55700 30.53700
H  -5.59500 27.57600 30.75400
H  -7.32400 26.70100 32.72900
H  -5.87900 27.63400 32.80000
H  -9.68800 21.55000 25.82400
H  -8.66800 21.37500 27.23500
H  -8.51300 20.34200 25.89500
H  -9.05400 20.21500 21.97900
H  -9.68800 21.09600 23.30600
H  -8.48700 19.79500 23.59900
H  -4.29200 25.44200 20.95000
H  -1.46100 25.87600 21.83200
H  -3.05200 22.91200 21.41600
H  -2.00700 24.00000 20.38000
H  -3.64500 23.68600 19.91900
H  -2.74700 27.30200 20.04800
H  -1.70400 28.14900 21.19100
H  -3.15900 29.30800 21.99500
H  -4.52300 28.06300 22.08200
H  -4.21400 28.89100 20.59900
H  -1.20000 30.40400 25.33000
H  0.11500 29.14100 25.45800
H  -0.34600 30.15300 26.81000
H  -3.44700 28.31900 30.53900
H  -0.62100 27.22900 33.10400
H  -1.30600 25.54900 32.84000
H  -1.92800 26.69500 34.10900

