158

Mg 1.58100 -1.47400 45.78200
C  4.93400 -0.97500 45.17100
C  0.71300 0.94200 43.49300
C  -1.81400 -2.42700 45.71900
C  2.40200 -4.39200 47.48500
N  2.62900 -0.17800 44.60900
C  4.04700 -0.10900 44.48700
C  4.46500 1.06900 43.58000
C  3.05900 1.79800 43.30600
C  2.06300 0.77100 43.84700
C  2.87700 3.23300 43.86600
C  5.20800 0.62300 42.27100
C  6.44000 1.44600 42.04100
H  6.54800 2.08200 40.63700
N  -0.33300 -0.82000 44.69700
C  -0.37600 0.17700 43.83400
C  -1.74600 0.37800 43.36500
C  -2.50800 -0.56500 44.07700
C  -1.60000 -1.32100 44.90100
C  -2.14000 1.28000 42.36300
C  -4.06200 -0.76200 44.00500
O  -4.69200 -0.10600 43.16400
C  -4.88500 -1.74800 44.87200
N  0.44900 -3.16900 46.44300
C  -0.88600 -3.26300 46.44300
C  -1.38800 -4.48300 47.13000
C  -0.04400 -5.11900 47.63300
C  1.05800 -4.20600 47.15800
C  -2.58900 -4.35800 48.19000
C  0.18100 -6.65800 47.28500
C  -0.10400 -7.65100 48.39800
N  3.26700 -2.41100 46.40300
C  3.43300 -3.55400 47.09400
C  4.85800 -3.86800 47.22900
C  5.46300 -2.89100 46.46600
C  4.45300 -1.98400 46.04800
C  5.55400 -4.96300 48.10000
C  6.71800 -2.36000 45.91600
O  7.83900 -2.77500 46.14700
C  6.44700 -1.05900 45.19500
C  7.09100 0.11600 45.90500
O  7.40300 0.13000 47.06900
O  7.43100 1.07100 45.05600
C  8.18700 2.23700 45.53400
H  0.56100 1.75100 42.77500
H  -2.84400 -2.73500 45.91300
H  2.77000 -5.20800 48.11000
H  5.07500 1.77200 44.14700
H  2.91900 1.89300 42.22900
H  3.82000 3.61800 44.25500
H  2.23500 3.28100 44.74600
H  2.50300 3.90100 43.09000
H  4.70100 0.61500 41.30700
H  5.52800 -0.41400 42.37600
H  7.24700 0.71800 42.13000
H  6.61200 2.22900 42.77900
H  -2.46100 2.16500 42.91200
H  -2.92600 0.77800 41.79900
H  -1.27900 1.57200 41.76100
H  -4.86600 -1.54900 45.94400
H  -4.51500 -2.77200 44.82300
H  -5.89000 -1.61700 44.47100
H  -1.71900 -5.16000 46.34200
H  -0.04300 -4.99800 48.71600
H  -2.26200 -4.73000 49.16100
H  -3.42500 -4.92200 47.77600
H  -2.89100 -3.31600 48.29800
H  1.21100 -6.76500 46.94200
H  -0.57000 -6.96400 46.55700
H  -1.14600 -7.95200 48.29300
H  0.14300 -7.13900 49.32700
H  0.53500 -8.53000 48.30900
H  5.62100 -4.50900 49.08800
H  6.55100 -5.13500 47.69300
H  5.00800 -5.89700 48.23100
H  6.82600 -1.08900 44.17300
H  8.74300 2.65000 44.69300
H  8.83900 2.06900 46.39100
H  7.50300 3.00800 45.88800
Mg 42.51100 41.81100 27.18700
C  41.50600 43.90100 29.82500
C  43.59300 39.50000 29.66900
C  43.59600 39.87300 24.76700
C  41.54500 44.36300 24.89700
N  42.56700 41.74100 29.48400
C  41.87400 42.64900 30.35400
C  41.84500 42.15700 31.79600
C  42.58400 40.68500 31.67400
C  42.88500 40.61200 30.14900
C  43.90300 40.60400 32.55800
C  40.35500 42.07200 32.32400
C  40.15100 42.88900 33.67000
H  39.50100 42.12800 34.87000
N  43.49400 39.95600 27.22000
C  43.81400 39.16300 28.32100
C  44.34200 37.88300 27.84200
C  44.20800 37.87000 26.38100
C  43.74300 39.27800 26.02700
C  44.79900 36.81700 28.81400
C  44.58500 36.83800 25.34200
O  44.48300 36.98400 24.13900
C  45.07400 35.53600 25.83200
N  42.64300 42.11900 25.14300
C  43.07700 41.13100 24.33400
C  43.02700 41.59800 22.83700
C  41.97600 42.77800 22.88700
C  42.03400 43.15200 24.38600
C  44.39400 41.94100 22.25200
C  40.50700 42.41700 22.41100
C  39.78800 41.23700 23.03200
N  41.79000 43.80000 27.26800
C  41.37700 44.68600 26.29800
C  40.86200 45.91100 26.89600
C  40.88000 45.67800 28.30900
C  41.36800 44.33500 28.40200
C  40.45200 47.15900 26.14800
C  40.54200 46.19900 29.61700
O  40.08900 47.28800 29.91700
C  40.85600 45.04800 30.61800
C  41.67300 45.63400 31.73800
O  42.89200 45.89500 31.67300
O  40.84700 45.81800 32.87500
C  41.42000 46.11700 34.20100
H  43.95600 38.88300 30.49400
H  43.97200 39.24000 23.96100
H  41.23400 45.14700 24.20300
H  42.36000 42.83300 32.48000
H  41.89800 39.89100 31.96800
H  44.77300 40.59200 31.90200
H  43.94800 39.61500 33.01500
H  43.71600 41.42200 33.25400
H  40.23400 40.99900 32.47300
H  39.59500 42.23700 31.56000
H  39.50600 43.74700 33.47800
H  41.10000 43.33800 33.96100
H  44.51200 37.14900 29.81200
H  45.87000 36.74100 29.00400
H  44.48400 35.82300 28.49800
H  45.92500 35.80300 26.46000
H  45.55400 35.07400 24.97000
H  44.29300 34.91300 26.26600
H  42.54000 40.80200 22.27500
H  42.33900 43.63900 22.32500
H  45.17400 41.46600 22.84800
H  44.48000 43.02700 22.26600
H  44.26200 41.66800 21.20500
H  40.55100 42.38500 21.32200
H  39.88900 43.27500 22.67400
H  39.24600 40.70100 22.25300
H  39.19100 41.71400 23.80900
H  40.63700 40.76600 23.52700
H  39.96800 46.88000 25.21200
H  41.16700 47.96400 25.97900
H  39.71100 47.62700 26.79600
H  39.94600 44.68400 31.09600
H  42.11700 46.92600 33.98200
H  42.09700 45.36900 34.61200
H  40.59700 46.32800 34.88400

