158

Mg 35.22700 48.61000 24.95500
C  35.52100 47.16500 28.21400
C  33.83800 51.34500 26.51800
C  34.74400 49.87500 22.01800
C  36.21900 45.55500 23.67100
N  34.75400 49.11500 27.11500
C  35.10400 48.50000 28.26400
C  34.79500 49.33100 29.47100
C  34.08700 50.57000 28.88600
C  34.11900 50.30700 27.39600
C  32.61700 50.89200 29.40900
C  36.01100 49.61100 30.41600
C  35.82500 49.20600 31.82200
H  34.58700 49.48400 32.62400
N  34.64700 50.43500 24.39100
C  34.06000 51.43400 25.14500
C  33.71900 52.55900 24.33500
C  33.96800 52.12600 23.00200
C  34.52900 50.78200 23.09300
C  33.49400 53.99800 24.89400
C  33.70200 52.96900 21.75300
O  34.11700 52.64400 20.63500
C  33.16300 54.34300 21.83500
N  35.34000 47.74400 23.02800
C  35.15100 48.53200 21.95300
C  35.92300 47.83600 20.71900
C  36.50500 46.47700 21.30000
C  36.05700 46.61400 22.78400
C  34.93600 47.83500 19.53000
C  38.04700 46.24800 21.14400
C  38.58200 45.94800 19.75300
N  35.60800 46.65400 25.73600
C  36.02000 45.55800 25.09200
C  36.26300 44.42600 25.94200
C  36.04100 45.01300 27.26200
C  35.70800 46.38200 27.04700
C  36.59700 43.07800 25.51400
C  36.01200 44.76800 28.71300
O  36.24500 43.70800 29.29000
C  35.64800 46.19700 29.35500
C  34.36600 45.92800 30.03500
O  33.25100 45.87500 29.51400
O  34.68200 45.61000 31.34600
C  33.56400 45.03900 32.10400
H  33.28900 52.12400 27.05300
H  34.73700 50.36200 21.04100
H  36.63900 44.63500 23.26000
H  34.03000 48.80500 30.04300
H  34.76700 51.41300 29.01000
H  32.12500 50.02000 29.83900
H  32.04400 51.39400 28.62900
H  32.80500 51.61000 30.20800
H  36.33000 50.65300 30.38500
H  36.85700 49.02900 30.05200
H  36.66800 49.40200 32.48400
H  35.89400 48.11800 31.80000
H  34.28500 54.66100 24.54500
H  33.61700 54.11300 25.97100
H  32.55100 54.45500 24.59200
H  33.90200 55.04100 22.23000
H  32.14200 54.42000 22.20900
H  33.13400 54.70600 20.80800
H  36.79100 48.48400 20.59800
H  35.90400 45.63500 20.95700
H  33.89300 47.80300 19.84600
H  35.23300 46.98600 18.91500
H  35.02200 48.73000 18.91300
H  38.24100 45.34500 21.72200
H  38.60500 47.04600 21.63500
H  39.44700 46.61100 19.77800
H  37.89600 46.20600 18.94700
H  39.02000 44.95300 19.67800
H  36.30900 42.85000 24.48800
H  36.14100 42.34800 26.18200
H  37.67900 42.94900 25.54700
H  36.52600 46.36800 29.97800
H  33.52100 45.38100 33.13800
H  33.73200 43.96300 32.09000
H  32.64300 45.30300 31.58400
Mg 0.04100 44.20000 26.17300
C  1.78900 43.32200 29.05800
C  -2.86400 43.21000 27.87800
C  -1.67000 44.33900 23.27400
C  3.02600 44.86700 24.69900
N  -0.43900 43.17300 28.23300
C  0.40300 43.07600 29.27600
C  -0.30800 42.93000 30.66100
C  -1.78900 42.74400 30.13500
C  -1.73700 43.09300 28.64300
C  -2.43800 41.39300 30.43000
C  -0.11800 44.11400 31.53200
C  0.14600 43.91800 32.99700
H  -0.27800 42.55500 33.68500
N  -2.03900 44.05200 25.67700
C  -3.02700 43.64000 26.46100
C  -4.25300 43.63900 25.75600
C  -3.93100 43.98200 24.40400
C  -2.47900 44.13500 24.40000
C  -5.56000 43.30500 26.35500
C  -4.85700 44.28700 23.20000
O  -4.40800 44.73800 22.16900
C  -6.35400 43.98100 23.25300
N  0.56800 44.44100 24.27900
C  -0.31000 44.66300 23.21500
C  0.32900 45.21900 21.97800
C  1.76200 45.58300 22.58800
C  1.80300 44.95400 23.96800
C  0.39400 44.06500 20.87200
C  2.14100 47.06800 22.56300
C  3.47800 47.39200 21.90900
N  1.99700 44.11000 26.72000
C  3.11400 44.39800 26.03600
C  4.35200 44.21700 26.79900
C  3.87100 43.85000 28.08800
C  2.48000 43.79100 27.93300
C  5.84800 44.35500 26.37500
C  4.26100 43.49500 29.43300
O  5.31400 43.37100 29.96000
C  2.94800 43.09200 30.15600
C  3.06900 41.71200 30.73200
O  2.60500 40.64600 30.24600
O  3.98500 41.75700 31.70100
C  4.47700 40.52900 32.40100
H  -3.81600 42.93600 28.33800
H  -2.13600 44.31800 22.28700
H  3.90600 45.26400 24.18900
H  -0.02800 42.01500 31.18400
H  -2.42100 43.51300 30.57800
H  -3.38700 41.55100 30.94100
H  -1.85800 40.78100 31.12100
H  -2.74300 41.01300 29.45500
H  -0.85500 44.91500 31.48200
H  0.73600 44.66500 31.13900
H  -0.16700 44.77100 33.59900
H  1.22900 43.86400 33.10300
H  -6.30500 42.97700 25.63000
H  -5.97200 44.20600 26.80800
H  -5.46500 42.41700 26.97900
H  -6.38900 42.89600 23.35700
H  -6.87100 44.25500 22.33400
H  -6.93300 44.51600 24.00600
H  -0.27800 46.08100 21.70300
H  2.56500 45.09200 22.03900
H  1.38000 44.04900 20.40700
H  -0.30200 44.24800 20.05400
H  0.32100 43.02200 21.17900
H  2.33000 47.52300 23.53600
H  1.36400 47.71400 22.15400
H  3.74600 46.65500 21.15200
H  4.30300 47.56800 22.60000
H  3.38700 48.31400 21.33500
H  6.41900 43.76300 27.09000
H  6.32900 45.33200 26.31800
H  5.83800 43.90100 25.38400
H  2.87200 43.84000 30.94400
H  5.46300 40.74400 32.81400
H  4.42100 39.53000 31.96900
H  3.79100 40.51900 33.24800

