158

Mg 35.52300 1.29300 29.64700
C  33.31500 1.95800 32.29700
C  38.14700 1.12400 31.86200
C  37.68300 0.52400 27.06700
C  32.88600 1.34000 27.42800
N  35.64600 1.60500 31.78700
C  34.64500 1.86100 32.69200
C  35.17400 1.86800 34.04700
C  36.68400 1.94400 33.88000
C  36.89400 1.43200 32.41500
C  37.41700 3.31200 34.06700
C  34.74700 0.55100 34.81000
C  34.19400 0.71100 36.28200
H  34.80900 1.77400 37.16600
N  37.58900 0.92700 29.46800
C  38.44000 0.77500 30.58900
C  39.78800 0.38900 30.11100
C  39.77700 0.35900 28.70400
C  38.30000 0.53900 28.35600
C  41.00300 0.07000 31.03600
C  40.85100 0.00800 27.60700
O  40.73300 0.32000 26.45200
C  42.14700 -0.47900 28.03900
N  35.31600 0.94100 27.52100
C  36.39500 0.66500 26.66200
C  35.94300 0.65100 25.21100
C  34.41500 0.76300 25.36300
C  34.16300 1.07100 26.83100
C  36.70100 1.54100 24.16200
C  33.53500 -0.47000 24.82800
C  32.20100 -0.14500 24.05800
N  33.59000 1.74000 29.78600
C  32.66200 1.82300 28.73000
C  31.36800 2.15100 29.27800
C  31.53200 2.06900 30.66300
C  32.90900 1.87300 30.95400
C  30.20100 2.49900 28.45400
C  30.87200 2.16900 31.95100
O  29.68500 2.33600 32.08200
C  31.94200 2.12700 33.00400
C  31.81300 3.37800 33.80500
O  32.20100 4.48700 33.40300
O  31.27500 3.10800 35.03500
C  31.18500 4.29800 35.89600
H  38.97100 1.11900 32.57800
H  38.35000 0.38000 26.21500
H  32.04200 1.30000 26.73700
H  34.77800 2.72700 34.58800
H  37.19000 1.22700 34.52600
H  37.61100 3.68300 33.06000
H  38.30200 3.01700 34.63100
H  36.83100 3.97200 34.70700
H  35.51300 -0.21500 34.92600
H  33.91200 0.27300 34.16700
H  34.32900 -0.23800 36.80000
H  33.16600 1.07000 36.23300
H  40.73800 -0.13900 32.07200
H  41.80900 0.79700 30.94400
H  41.39100 -0.85400 30.60700
H  42.43000 0.17400 28.86500
H  42.85700 -0.35100 27.22200
H  42.09600 -1.51300 28.38000
H  36.16200 -0.32800 24.78500
H  34.03800 1.63200 24.82500
H  35.88300 1.92900 23.55500
H  37.48800 1.03300 23.60400
H  37.18000 2.32200 24.75100
H  33.30700 -1.08800 25.69700
H  34.20100 -0.94200 24.10500
H  32.49000 -0.03800 23.01300
H  31.91300 0.89600 24.19800
H  31.38400 -0.86400 24.11700
H  29.87800 3.46100 28.85300
H  29.52700 1.65100 28.57200
H  30.50800 2.60700 27.41400
H  31.57200 1.34100 33.66200
H  32.16200 4.76200 36.03300
H  30.90900 4.10700 36.93300
H  30.46900 4.93300 35.37400
Mg -9.97300 40.51100 42.76600
C  -8.92100 37.36700 41.97100
C  -6.99200 41.75600 41.50000
C  -11.20800 43.59800 43.06000
C  -13.23900 39.21100 43.39000
N  -8.26000 39.58500 41.63600
C  -7.94700 38.28400 41.61200
C  -6.55900 38.13100 41.00500
C  -5.90600 39.51200 41.09000
C  -7.12000 40.36100 41.37100
C  -4.70900 39.65300 42.14700
C  -6.50900 37.51600 39.59400
C  -5.66600 36.26000 39.46400
H  -4.52400 36.31600 38.47500
N  -9.18800 42.44900 42.40800
C  -7.93500 42.72400 41.91700
C  -7.77100 44.08300 41.88500
C  -8.93300 44.67400 42.31000
C  -9.86500 43.59100 42.69100
C  -6.46300 44.76500 41.40800
C  -9.32000 46.23000 42.27200
O  -8.47900 47.00500 41.79400
C  -10.63300 46.79000 42.81100
N  -11.98800 41.33200 43.12400
C  -12.15500 42.65000 43.35400
C  -13.62600 42.95100 43.78000
C  -14.21400 41.52600 43.81200
C  -13.06500 40.59100 43.50300
C  -13.84400 43.85800 45.00500
C  -15.56500 41.28100 43.00900
C  -16.74400 40.70400 43.84200
N  -10.92100 38.68800 42.79100
C  -12.21300 38.26400 43.08500
C  -12.34300 36.93300 42.86900
C  -11.08500 36.53700 42.54900
C  -10.20300 37.61200 42.45900
C  -13.58400 36.08100 43.08700
C  -10.29400 35.38200 42.14800
O  -10.63800 34.22700 42.04600
C  -8.85500 35.86100 41.66800
C  -7.76600 35.08000 42.42800
O  -7.43100 35.26200 43.56600
O  -7.27900 34.09200 41.55400
C  -6.32300 33.12900 42.19900
H  -6.01200 42.13100 41.19800
H  -11.63600 44.60000 43.14600
H  -14.24500 38.81700 43.54200
H  -5.97000 37.54800 41.71300
H  -5.52000 39.81800 40.11700
H  -3.75900 39.61200 41.61400
H  -4.80800 38.89200 42.92200
H  -4.79400 40.61900 42.64400
H  -6.22400 38.19300 38.78900
H  -7.54400 37.23800 39.39400
H  -6.22300 35.34800 39.24700
H  -5.21100 36.07400 40.43600
H  -6.40300 44.76400 40.32000
H  -5.57800 44.23800 41.76600
H  -6.37500 45.80700 41.71400
H  -10.54700 47.86000 42.62400
H  -10.75400 46.46000 43.84300
H  -11.35700 46.32300 42.14300
H  -14.01000 43.54600 42.95200
H  -14.29000 41.26700 44.86800
H  -13.11700 44.65900 44.86900
H  -13.81800 43.21400 45.88500
H  -14.88300 44.18400 44.97000
H  -15.31000 40.75200 42.09000
H  -16.02700 42.23300 42.74600
H  -17.35300 41.58400 44.05000
H  -16.52200 40.24500 44.80500
H  -17.34000 40.00000 43.26200
H  -13.66500 35.50700 42.16400
H  -14.46300 36.63300 43.41900
H  -13.32400 35.30600 43.80700
H  -8.67800 35.58700 40.62800
H  -5.36200 33.62000 42.35000
H  -6.22200 32.25800 41.55100
H  -6.62300 32.68500 43.14900

