158

Mg 27.57500 51.08100 25.67300
C  25.62200 52.44800 28.27700
C  29.72100 49.72200 27.98500
C  29.37600 49.98100 22.99100
C  25.23400 52.56400 23.43000
N  27.72000 51.28400 27.85400
C  26.79200 51.77900 28.73200
C  27.12800 51.46700 30.19500
C  28.53500 50.78400 30.04800
C  28.75100 50.54500 28.54300
C  29.62800 51.58100 30.75100
C  26.06600 50.47800 30.87900
C  25.16800 50.99600 31.98600
H  25.06500 50.13400 33.21100
N  29.30900 49.97700 25.51700
C  29.99200 49.44700 26.60800
C  31.01300 48.61400 26.02600
C  30.94000 48.67600 24.62100
C  29.80100 49.55400 24.28700
C  32.00000 47.75900 26.86300
C  31.81300 47.90600 23.58700
O  31.65900 48.07500 22.38100
C  32.91600 46.89900 23.99100
N  27.42500 51.38800 23.52300
C  28.36700 50.89200 22.67100
C  27.87100 51.03800 21.22600
C  26.56400 51.90900 21.32300
C  26.34100 51.94100 22.82300
C  28.86700 51.66400 20.24900
C  25.29400 51.40700 20.50800
C  24.22700 50.59800 21.20100
N  25.88400 52.37600 25.79000
C  24.95900 52.76000 24.81700
C  23.77500 53.48500 25.31400
C  24.01600 53.31500 26.75600
C  25.31300 52.65200 26.93100
C  22.67400 54.10900 24.46900
C  23.36600 53.54100 28.04900
O  22.30100 54.06300 28.34800
C  24.45700 53.04100 29.08500
C  24.80200 54.15700 29.91100
O  25.70700 54.93600 29.70600
O  23.90000 54.17400 30.93600
C  24.24200 54.90300 32.20000
H  30.38000 49.23600 28.70700
H  30.00800 49.62100 22.17600
H  24.44300 52.84100 22.73100
H  27.21500 52.43300 30.69200
H  28.55900 49.78000 30.47200
H  29.18300 52.34300 31.39100
H  30.28000 52.07500 30.03100
H  30.19900 50.89000 31.37100
H  26.43400 49.46100 31.00900
H  25.41500 50.30600 30.02200
H  24.15000 51.09500 31.61200
H  25.60000 51.95600 32.26600
H  32.01600 48.04900 27.91300
H  33.03200 47.88500 26.53500
H  31.82900 46.68900 26.74400
H  33.66100 47.40100 24.60800
H  33.54700 46.62400 23.14600
H  32.55400 45.98300 24.45800
H  27.58200 50.03500 20.91300
H  26.64600 52.95300 21.02100
H  28.86300 51.05700 19.34500
H  29.84900 51.71700 20.71900
H  28.54800 52.67500 19.99300
H  25.60200 50.80500 19.65400
H  24.77600 52.27900 20.10900
H  23.91500 49.77900 20.55300
H  23.33500 51.13800 21.51900
H  24.56800 50.24500 22.17500
H  22.97500 54.67200 23.58500
H  22.07500 54.72600 25.13800
H  22.06300 53.25800 24.16900
H  23.99100 52.25300 29.67600
H  23.43800 55.39300 32.75100
H  24.84000 55.76600 31.90800
H  24.85500 54.31400 32.88200
Mg 9.96000 48.24700 25.67800
C  8.09500 48.55000 28.67300
C  12.38200 50.11000 27.09700
C  11.58100 48.14700 22.73700
C  7.11200 46.95400 24.14100
N  10.23000 49.17800 27.67500
C  9.39200 49.10500 28.75800
C  10.03900 49.62800 29.99200
C  11.29800 50.40700 29.43000
C  11.35900 49.83300 27.98600
C  11.17300 51.98100 29.51300
C  10.45000 48.59700 31.11600
C  9.68500 48.54500 32.46600
H  10.28400 49.24500 33.73100
N  11.77100 48.93300 25.03700
C  12.67400 49.59600 25.76000
C  13.92500 49.73800 25.10800
C  13.76500 49.01900 23.85400
C  12.31800 48.65900 23.80700
C  15.17700 50.25900 25.83700
C  14.77600 48.68300 22.86700
O  14.41900 48.16600 21.81200
C  16.21100 49.02600 23.12700
N  9.32300 47.84200 23.64500
C  10.30000 47.72200 22.72400
C  9.81700 46.87200 21.56100
C  8.47400 46.34200 22.06400
C  8.29200 47.08400 23.40600
C  9.72300 47.45900 20.12000
C  8.38600 44.78900 22.18800
C  9.31700 43.99300 23.13300
N  7.95900 47.82100 26.23700
C  6.94600 47.33200 25.48500
C  5.78500 47.24000 26.35200
C  6.19700 47.62400 27.60600
C  7.51500 47.95500 27.51100
C  4.34800 46.94300 25.88000
C  5.79600 47.85400 28.94100
O  4.66100 47.77800 29.44900
C  7.05000 48.28300 29.77500
C  7.33100 47.09100 30.60100
O  8.16800 46.23300 30.34400
O  6.47300 46.96300 31.76000
C  6.81100 45.88300 32.71200
H  13.16300 50.80000 27.42200
H  12.19700 47.80600 21.90200
H  6.23600 46.40300 23.79100
H  9.27700 50.20800 30.51300
H  12.19300 50.13600 29.99100
H  11.16600 52.46200 28.53500
H  11.93800 52.42800 30.14900
H  10.23100 52.23000 30.00100
H  11.47800 48.86900 31.35300
H  10.36500 47.62700 30.62500
H  9.65100 47.48600 32.72200
H  8.65800 48.90100 32.39300
H  15.90000 50.80800 25.23300
H  15.64000 49.45200 26.40400
H  14.99600 51.09400 26.51400
H  16.46600 48.67500 24.12700
H  16.22600 50.09500 22.91600
H  16.79500 48.57700 22.32300
H  10.45000 45.98600 21.51600
H  7.63200 46.68900 21.46400
H  9.92100 48.52300 20.25200
H  8.70100 47.36900 19.75200
H  10.30800 47.09600 19.27500
H  8.61700 44.27500 21.25500
H  7.39100 44.37600 22.35500
H  9.82600 44.73000 23.75300
H  10.01100 43.30500 22.65000
H  8.81500 43.45000 23.93400
H  3.88100 47.83100 25.45300
H  3.72700 46.55400 26.68600
H  4.47000 46.13000 25.16500
H  6.80500 49.10000 30.45400
H  6.15800 45.01000 32.68800
H  6.72300 46.37800 33.67900
H  7.85200 45.56400 32.66300

