158

Mg 0.99500 7.75500 25.90100
C  1.83500 9.84300 28.52200
C  1.52400 5.01800 28.12100
C  1.21700 5.61100 23.31700
C  1.16600 10.46300 23.77000
N  1.55200 7.50900 28.06500
C  1.85000 8.54700 28.97600
C  1.89400 7.99000 30.35200
C  2.12400 6.44600 30.11900
C  1.70400 6.30000 28.67900
C  3.60000 6.04400 30.46200
C  0.61900 8.37900 31.08500
C  0.87800 8.81300 32.56600
H  2.09400 8.14600 33.17400
N  1.11400 5.68400 25.75500
C  1.24000 4.72000 26.74400
C  1.26900 3.31500 26.18600
C  1.30600 3.46600 24.71700
C  1.21200 4.93600 24.53400
C  1.40400 2.01700 26.96700
C  1.49600 2.41600 23.67800
O  1.48500 2.63700 22.47600
C  1.46200 0.99800 23.99800
N  1.08400 8.00300 23.89600
C  1.15500 6.97300 23.03900
C  1.09300 7.53000 21.51400
C  0.80200 8.99300 21.76800
C  0.96100 9.22500 23.24300
C  2.46600 7.30600 20.84700
C  -0.66400 9.49300 21.29100
C  -0.62100 10.92900 20.77100
N  1.23200 9.79900 26.08500
C  1.35500 10.75100 25.11500
C  1.53300 12.05600 25.78800
C  1.72700 11.72800 27.16000
C  1.61700 10.35600 27.24800
C  1.69100 13.46300 25.16100
C  2.06200 12.30300 28.44300
O  2.39300 13.44500 28.81800
C  1.92400 11.14100 29.41200
C  3.04300 11.12800 30.38700
O  4.16600 10.65900 30.22700
O  2.66800 11.93100 31.42800
C  3.72700 12.00400 32.49200
H  1.63400 4.15800 28.78600
H  1.26800 5.03200 22.39200
H  1.11600 11.36300 23.15400
H  2.82900 8.39600 30.73800
H  1.51900 5.87000 30.82000
H  4.17400 6.89000 30.83900
H  4.06800 5.73100 29.52800
H  3.52500 5.16300 31.09900
H  -0.08600 7.55600 31.20300
H  0.12600 9.14500 30.48600
H  0.03800 8.59500 33.22700
H  1.15200 9.86300 32.47400
H  0.70700 1.23000 26.68000
H  1.02800 2.27200 27.95800
H  2.47800 1.83800 27.00900
H  2.31600 0.79200 24.64400
H  1.43600 0.32200 23.14300
H  0.50000 0.68200 24.40100
H  0.31900 6.97000 20.98900
H  1.54400 9.61600 21.26800
H  2.51400 6.29700 20.43800
H  3.38900 7.47300 21.40200
H  2.50800 8.00500 20.01100
H  -1.39400 9.44900 22.09900
H  -0.94300 8.73000 20.56600
H  0.38600 11.33400 20.87500
H  -1.28000 11.61300 21.30500
H  -0.89600 10.92600 19.71600
H  1.16400 13.45100 24.20700
H  2.71800 13.82800 25.18600
H  1.12800 14.21300 25.71700
H  1.01900 11.33100 29.99000
H  3.15900 12.38800 33.33900
H  4.57800 12.66900 32.34800
H  4.11200 11.03100 32.79800
Mg 43.85600 3.57300 47.18400
C  41.97000 6.51200 47.07400
C  41.06700 1.66100 46.94900
C  45.88700 0.93900 46.88000
C  46.83700 5.69400 46.90700
N  41.76100 4.11700 47.00800
C  41.18100 5.32900 47.22100
C  39.63500 5.19800 47.29500
C  39.46400 3.57800 47.44300
C  40.85300 3.04300 47.05600
C  38.97900 3.08100 48.80800
C  38.74400 5.72100 46.09300
C  39.17100 5.22400 44.74200
H  39.33700 6.18500 43.62800
N  43.58100 1.57100 46.84600
C  42.32100 0.96800 46.80500
C  42.48000 -0.49700 46.77600
C  43.92200 -0.70200 46.68400
C  44.52600 0.63600 46.75500
C  41.40000 -1.59200 46.86500
C  44.57200 -2.03000 46.45700
O  43.89000 -3.06700 46.49400
C  46.01300 -2.28500 46.12600
N  46.07800 3.33100 46.86900
C  46.55600 2.12800 47.12200
C  48.13400 2.26000 47.21000
C  48.45800 3.87000 46.94700
C  47.04000 4.34100 46.84400
C  48.73100 1.63800 48.52800
C  49.39900 4.21100 45.85200
C  50.76000 4.73700 46.19700
N  44.34300 5.69400 47.00600
C  45.59100 6.38300 46.99200
C  45.33000 7.83400 46.97000
C  43.94100 7.91000 46.91700
C  43.44300 6.58500 47.10000
C  46.40400 8.88300 46.89500
C  42.81000 8.80100 46.80200
O  42.75600 10.02200 46.64800
C  41.47400 7.92500 46.92600
C  40.82100 8.41400 48.21500
O  41.22600 8.25700 49.34700
O  39.62200 9.14000 47.86200
C  38.67000 9.46000 48.93100
H  40.16500 1.05400 47.05400
H  46.55900 0.07900 46.84400
H  47.66000 6.39600 47.05700
H  39.28600 5.77300 48.15300
H  38.68300 3.36500 46.71300
H  39.72900 2.91200 49.58100
H  38.56100 2.08300 48.67500
H  38.21600 3.78800 49.13300
H  38.67300 6.80900 46.06500
H  37.71400 5.46600 46.34100
H  38.41500 4.54700 44.34500
H  40.17800 4.80800 44.73600
H  41.66400 -2.32700 47.62600
H  41.21500 -1.99700 45.87100
H  40.48400 -1.21600 47.32100
H  46.69300 -2.20000 46.97400
H  46.20100 -1.66700 45.24900
H  46.03800 -3.29800 45.72400
H  48.59300 1.77600 46.34800
H  48.84700 4.41600 47.80600
H  49.42100 2.42200 48.84000
H  49.28700 0.71200 48.37700
H  47.92700 1.49100 49.24900
H  48.92200 4.89100 45.14600
H  49.58000 3.29700 45.28700
H  50.76100 5.81300 46.02000
H  51.55100 4.34600 45.55800
H  50.98900 4.43300 47.21800
H  45.72400 9.71800 46.72500
H  47.03600 8.65600 46.03600
H  46.97700 8.94700 47.82000
H  40.79000 8.02700 46.08300
H  37.74200 9.90000 48.56600
H  39.08800 10.24900 49.55600
H  38.39400 8.61600 49.56300

