158

Mg 6.30500 53.93600 40.53200
C  5.55700 50.57700 39.93000
C  9.64500 53.07100 39.62500
C  7.31400 57.09900 40.60700
C  3.12400 54.70200 41.24700
N  7.38900 52.07800 39.70000
C  6.83100 50.85400 39.51500
C  7.89900 49.82900 39.10700
C  9.23300 50.56400 39.43700
C  8.73100 52.05300 39.59300
C  9.86000 50.21400 40.80700
C  7.75700 49.29500 37.66400
C  7.48500 50.28400 36.57100
H  6.43500 49.88700 35.45900
N  8.25000 54.95300 40.13400
C  9.45100 54.42200 39.72500
C  10.47400 55.52200 39.66400
C  9.79800 56.70100 40.00700
C  8.36500 56.28300 40.36800
C  11.95000 55.43800 39.20700
C  10.39100 58.13200 39.96000
O  11.50100 58.28000 39.50800
C  9.75500 59.28500 40.47500
N  5.25700 55.67900 40.77400
C  5.86500 56.89400 40.73800
C  4.98100 58.11800 40.96700
C  3.64500 57.28800 41.29900
C  3.97100 55.82600 41.05500
C  5.40800 59.05300 42.16000
C  2.40500 57.72100 40.47900
C  2.15300 57.23400 39.02400
N  4.63000 52.93400 40.61000
C  3.37000 53.30800 40.97300
C  2.51100 52.14900 41.16400
C  3.37300 51.06800 40.77500
C  4.61900 51.59600 40.42300
C  1.17800 52.07700 41.80600
C  3.42800 49.62100 40.64700
O  2.55300 48.82100 40.89300
C  4.83000 49.26000 40.10800
C  4.65600 48.54900 38.84600
O  4.13100 49.02900 37.86000
O  4.96500 47.19000 38.88900
C  4.25700 46.23400 38.04900
H  10.67000 52.78500 39.37900
H  7.57600 58.15900 40.57800
H  2.10500 54.96700 41.53600
H  7.72400 48.90700 39.66200
H  9.94800 50.46600 38.62100
H  9.28200 49.32300 41.05400
H  9.72300 51.01500 41.53300
H  10.87100 49.80800 40.80800
H  7.16200 48.38200 37.63500
H  8.72100 48.86500 37.39400
H  8.42700 50.38100 36.03200
H  7.19600 51.28400 36.89500
H  12.61300 55.88500 39.94800
H  11.95300 55.77800 38.17100
H  12.30000 54.40600 39.21600
H  10.54700 59.98400 40.74500
H  9.25400 59.15200 41.43300
H  9.06400 59.69000 39.73500
H  4.80400 58.69100 40.05600
H  3.38100 57.21400 42.35400
H  4.58600 59.19800 42.86200
H  5.62700 59.99100 41.65100
H  6.23700 58.59500 42.70000
H  2.35600 58.81000 40.50300
H  1.48700 57.46100 41.00500
H  2.43300 57.89000 38.20000
H  1.09500 56.99700 39.13500
H  2.69000 56.30300 38.84100
H  0.64500 53.02600 41.86700
H  1.18100 51.64500 42.80600
H  0.63200 51.46400 41.08900
H  5.30400 48.54800 40.78400
H  4.25300 45.24300 38.50400
H  4.72600 46.22000 37.06600
H  3.21200 46.51600 37.92000
Mg 16.95500 51.73400 26.37200
C  18.92500 50.58100 29.08400
C  14.59100 52.49800 28.61700
C  15.38600 52.84700 23.88000
C  19.37400 50.20400 24.19700
N  16.85800 51.62400 28.58600
C  17.67800 51.02100 29.43100
C  17.06800 50.85300 30.85100
C  15.52900 51.12900 30.61300
C  15.62200 51.75100 29.18900
C  14.64100 49.88600 30.60700
C  17.69800 51.76400 31.91400
C  18.00400 51.23300 33.36400
H  17.13000 51.94900 34.34700
N  15.17100 52.63000 26.29900
C  14.38300 53.05300 27.30800
C  13.45700 54.01300 26.81700
C  13.65000 54.15900 25.44400
C  14.73600 53.15700 25.12300
C  12.43100 54.67500 27.74800
C  12.90700 55.05900 24.46600
O  13.25300 55.05900 23.29100
C  11.92600 55.98700 24.91700
N  17.18100 51.38800 24.32400
C  16.36800 51.93900 23.48600
C  16.76100 51.76500 22.01700
C  18.19700 51.09800 22.11800
C  18.27200 50.87400 23.60800
C  15.84500 51.09900 20.99500
C  19.35700 51.82700 21.53700
C  20.27800 51.20600 20.40600
N  18.77700 50.64000 26.56900
C  19.59700 50.04700 25.58800
C  20.74000 49.39700 26.24700
C  20.57000 49.60000 27.58200
C  19.27800 50.29900 27.75000
C  21.96000 48.72600 25.66100
C  21.12500 49.40700 28.87000
O  22.27500 49.04000 29.19800
C  20.05800 49.98100 29.89100
C  19.74300 48.70500 30.57200
O  19.12700 47.75900 30.14500
O  20.29000 48.76000 31.83800
C  20.10800 47.51800 32.58700
H  13.66300 52.54100 29.19100
H  14.90000 53.30600 23.01600
H  20.18500 49.89700 23.53300
H  17.18100 49.84500 31.25000
H  15.13200 51.79000 31.38300
H  14.92000 49.15300 29.85000
H  13.65000 50.23500 30.31500
H  14.61000 49.56000 31.64700
H  16.99500 52.58200 32.06900
H  18.51500 52.34500 31.48600
H  19.07800 51.33400 33.51800
H  17.82700 50.16600 33.23100
H  12.66900 55.72800 27.59800
H  12.35900 54.23100 28.74100
H  11.40000 54.56500 27.41400
H  11.21400 55.40300 25.50000
H  11.46200 56.26000 23.96900
H  12.31300 56.84500 25.46600
H  16.79400 52.80700 21.69900
H  18.08800 50.11200 21.66600
H  16.42200 50.41800 20.37000
H  15.13000 51.77500 20.52300
H  15.26600 50.40800 21.60800
H  20.00800 52.12100 22.36100
H  18.90900 52.69900 21.06100
H  21.31700 51.43300 20.64200
H  19.99900 51.65300 19.45200
H  20.19000 50.12900 20.26200
H  22.64600 48.28000 26.38200
H  22.44900 49.44100 25.00000
H  21.60800 47.87000 25.08600
H  20.40200 50.70000 30.63500
H  20.70800 47.75000 33.46700
H  20.35800 46.66900 31.95100
H  19.03400 47.48100 32.76700

