158

Mg 23.88100 -5.54100 46.01800
C  26.12500 -3.57400 44.19800
C  21.37400 -4.70500 43.83600
C  22.23700 -8.37400 46.98100
C  26.56900 -6.61400 48.03200
N  23.77500 -4.42900 44.20800
C  24.79600 -3.67800 43.61700
C  24.29800 -2.77000 42.50000
C  22.75800 -3.12000 42.55500
C  22.55200 -4.09600 43.59200
C  21.86100 -1.86800 42.74300
C  25.06600 -3.06600 41.13400
C  25.69600 -1.91000 40.43800
H  25.91600 -2.00200 38.90600
N  21.94000 -6.27900 45.63600
C  21.08000 -5.76200 44.77100
C  19.76200 -6.46100 44.95300
C  19.99800 -7.44000 45.95400
C  21.46300 -7.38600 46.24500
C  18.48100 -6.07800 44.21900
C  18.98800 -8.44700 46.53800
O  17.84800 -8.51500 46.09800
C  19.28800 -9.31300 47.71000
N  24.41900 -7.32200 47.22800
C  23.57600 -8.38300 47.42200
C  24.19600 -9.47900 48.37700
C  25.32800 -8.69200 48.98200
C  25.44100 -7.45700 48.09700
C  23.29500 -10.25800 49.37200
C  26.74900 -9.46300 49.12100
C  27.62600 -9.03200 50.27700
N  25.92800 -5.17100 46.17400
C  26.91700 -5.68400 47.06400
C  28.11300 -4.95100 46.89500
C  27.92000 -4.05600 45.80900
C  26.53400 -4.32500 45.33500
C  29.26500 -5.15300 47.83900
C  28.45200 -3.02300 44.93800
O  29.54200 -2.48100 44.99200
C  27.34700 -2.72800 43.85900
C  27.11300 -1.25000 43.96900
O  26.38900 -0.73700 44.80500
O  27.95000 -0.62800 43.10300
C  28.00300 0.80400 43.31100
H  20.50400 -4.38500 43.25900
H  21.76000 -9.34700 47.11200
H  27.28500 -6.85600 48.82000
H  24.43300 -1.71900 42.75400
H  22.37800 -3.53200 41.62100
H  21.14500 -1.93500 43.56200
H  21.28900 -1.74800 41.82300
H  22.39100 -0.91600 42.76200
H  24.33000 -3.49300 40.45200
H  25.78300 -3.88500 41.19500
H  26.61200 -1.87200 41.02700
H  25.25000 -0.92900 40.60100
H  18.13100 -6.79600 43.47700
H  18.58200 -5.15800 43.64400
H  17.75600 -5.86400 45.00400
H  18.36200 -9.62900 48.19000
H  19.96100 -8.69500 48.30400
H  19.68800 -10.23700 47.29500
H  24.50000 -10.27300 47.69400
H  24.95000 -8.41700 49.96700
H  22.38600 -9.70300 49.60400
H  23.78100 -10.37200 50.34100
H  23.03800 -11.23400 48.96000
H  27.27300 -9.21700 48.19800
H  26.56100 -10.53000 49.24300
H  27.90600 -9.80000 50.99800
H  27.01000 -8.31400 50.81800
H  28.48200 -8.44900 49.93800
H  30.00200 -4.50300 47.36800
H  29.45900 -6.22500 47.88500
H  29.08600 -4.89300 48.88200
H  27.62200 -2.98700 42.83600
H  26.96100 1.11600 43.37700
H  28.47300 1.31900 42.47200
H  28.60500 1.01800 44.19400
Mg 53.52500 24.27400 43.99600
C  50.72200 26.68400 43.48300
C  51.17600 21.80800 43.20100
C  56.05000 22.29700 43.54100
C  55.52100 27.05800 44.12400
N  51.23800 24.34500 43.32400
C  50.32500 25.32900 43.27100
C  48.95000 24.71500 42.91500
C  49.04500 23.25300 43.28500
C  50.62800 23.08300 43.34500
C  48.31800 22.66500 44.51500
C  48.50400 25.18700 41.49100
C  49.23800 24.47900 40.30100
H  50.05500 25.30200 39.36200
N  53.59000 22.30800 43.52500
C  52.56400 21.48600 43.13000
C  53.13300 20.18900 42.76400
C  54.49700 20.21300 43.13900
C  54.77100 21.63500 43.42300
C  52.37000 19.01000 42.11100
C  55.39300 19.01600 43.38100
O  54.91400 17.88900 43.10500
C  56.80300 19.05200 43.89200
N  55.46900 24.57000 43.90300
C  56.35300 23.59000 43.71700
C  57.80000 24.17300 43.81400
C  57.55900 25.68400 43.85100
C  56.07200 25.76500 43.90900
C  58.66500 23.51800 44.96900
C  58.15900 26.57600 42.68000
C  58.77200 27.97900 43.11900
N  53.25700 26.41300 43.98300
C  54.21200 27.41000 44.03000
C  53.60500 28.72700 44.07600
C  52.26700 28.51300 43.88400
C  52.11500 27.07400 43.78600
C  54.37200 29.96800 44.38300
C  51.01200 29.11400 43.88800
O  50.69100 30.23700 44.22600
C  50.01700 28.12100 43.43700
C  49.68400 28.53300 42.02300
O  50.41200 28.35500 41.09700
O  48.39300 28.98400 41.86400
C  47.96300 29.51900 40.59200
H  50.46400 21.00100 43.01700
H  56.99600 21.79300 43.33500
H  56.13600 27.91900 44.39600
H  48.21300 25.12400 43.60600
H  48.67300 22.60400 42.49200
H  47.75300 23.46700 44.98900
H  48.96400 22.23300 45.28000
H  47.60600 21.87600 44.27300
H  48.57200 26.24400 41.23700
H  47.45700 24.89100 41.41900
H  48.48500 24.03100 39.65300
H  49.84500 23.61700 40.57900
H  52.68500 18.78800 41.09100
H  51.35100 19.37900 41.99000
H  52.30300 18.07000 42.65800
H  57.51100 19.13400 43.06800
H  56.98800 18.06900 44.32700
H  56.89000 19.85600 44.62300
H  58.30700 23.76900 42.93700
H  57.90000 26.19100 44.75400
H  58.26800 22.57300 45.34100
H  59.03200 24.25300 45.68500
H  59.51800 23.14900 44.39900
H  57.35800 26.70700 41.95200
H  58.94600 25.93000 42.29000
H  58.25300 28.72300 42.51400
H  59.85500 28.06800 43.03200
H  58.49000 28.13400 44.16100
H  53.61100 30.69600 44.66400
H  55.04100 30.22700 43.56200
H  55.04900 29.79400 45.21900
H  49.15700 28.15600 44.10700
H  46.89100 29.65900 40.72900
H  48.16900 28.84600 39.75900
H  48.43200 30.47500 40.35800

