158

Mg -2.16000 17.44400 27.21800
C  -2.40600 15.41800 30.09000
C  -2.56200 20.14500 29.14400
C  -1.75700 19.17400 24.35800
C  -1.76500 14.44500 25.15700
N  -2.36900 17.73300 29.42200
C  -2.52200 16.77700 30.39700
C  -2.73100 17.37400 31.83000
C  -2.90200 18.93200 31.44900
C  -2.65400 18.97700 29.91200
C  -4.22900 19.57800 31.92400
C  -1.54200 16.99700 32.73200
C  -1.09600 18.05400 33.72900
H  -0.32000 17.51800 34.94500
N  -2.20600 19.43300 26.78000
C  -2.31200 20.44000 27.73700
C  -2.23300 21.75200 27.06600
C  -2.04500 21.47800 25.67800
C  -1.88500 19.96100 25.55400
C  -2.35700 23.10700 27.84800
C  -1.91700 22.42700 24.48000
O  -1.79100 22.08800 23.29500
C  -1.94100 23.96700 24.69400
N  -1.96900 16.93500 24.94800
C  -1.82100 17.88300 24.07100
C  -1.86000 17.31200 22.63400
C  -1.53200 15.78600 23.01600
C  -1.79500 15.61500 24.45200
C  -3.18800 17.45700 21.85000
C  -0.15900 15.43600 22.46400
C  0.95300 16.15800 23.24700
N  -2.06400 15.37800 27.50400
C  -2.00100 14.24300 26.57300
C  -2.29200 13.04800 27.34100
C  -2.41200 13.37100 28.64400
C  -2.29200 14.83900 28.75900
C  -2.36600 11.68200 26.69900
C  -2.56400 12.90100 29.94600
O  -2.82300 11.71700 30.27500
C  -2.51700 14.17700 30.93200
C  -1.25200 14.05600 31.73900
O  -0.14300 14.32800 31.40200
O  -1.60600 13.61300 33.01500
C  -0.51000 13.77500 34.02700
H  -2.54000 21.11200 29.65100
H  -1.65900 19.75300 23.43700
H  -1.43900 13.61500 24.52700
H  -3.65800 17.04300 32.29900
H  -2.14300 19.57700 31.89300
H  -4.88100 19.67900 31.05600
H  -3.97600 20.54900 32.35200
H  -4.74600 18.96100 32.65900
H  -0.71700 16.75700 32.06000
H  -1.87800 16.13800 33.31300
H  -1.97500 18.61000 34.05300
H  -0.51400 18.83600 33.24100
H  -1.53900 23.76200 27.54900
H  -2.22000 22.99300 28.92300
H  -3.22000 23.68100 27.51000
H  -1.70100 24.35200 23.70300
H  -1.17100 24.16700 25.44000
H  -2.98000 24.22100 24.90400
H  -1.11500 17.75400 21.97400
H  -2.29900 15.17000 22.54600
H  -3.78200 18.04100 22.55200
H  -3.71000 16.55200 21.54000
H  -2.99900 18.07600 20.97200
H  -0.21100 15.70600 21.41000
H  -0.04500 14.35300 22.44400
H  0.62600 16.19200 24.28600
H  1.09600 17.16800 22.86300
H  1.84200 15.54900 23.07900
H  -3.12100 11.77700 25.91900
H  -2.70500 10.93300 27.41500
H  -1.41000 11.36700 26.28000
H  -3.38500 14.12400 31.58900
H  -0.45800 14.72200 34.56400
H  0.49100 13.59400 33.63500
H  -0.62100 13.08200 34.86100
Mg 36.93200 49.16800 24.82600
C  37.00900 47.03600 27.58600
C  35.75500 51.60900 26.75100
C  36.16500 50.79000 21.91100
C  38.10200 46.40800 22.89000
N  36.26100 49.19900 26.89300
C  36.55700 48.32900 27.91100
C  36.10900 48.93800 29.26000
C  35.56200 50.31700 28.92800
C  35.90200 50.40400 27.43700
C  34.07800 50.66400 29.27600
C  37.44200 48.92600 30.17400
C  37.30600 48.71600 31.68500
H  35.91200 48.79000 32.29500
N  36.22700 51.02100 24.37100
C  35.84900 51.89500 25.33500
C  35.58100 53.16900 24.73200
C  35.49800 52.87900 23.29300
C  35.86400 51.49100 23.15500
C  35.27000 54.47400 25.46300
C  35.05100 53.81100 22.16500
O  34.97100 53.35400 21.02600
C  34.64500 55.25900 22.31400
N  36.87300 48.56400 22.68200
C  36.60000 49.44100 21.68100
C  37.04000 48.88900 20.33600
C  37.66000 47.44000 20.66900
C  37.48100 47.44300 22.20400
C  35.96700 48.79000 19.26700
C  39.19100 47.33900 20.17800
C  40.21500 48.26800 20.91000
N  37.49800 47.08500 25.03100
C  38.01900 46.13400 24.20500
C  38.15300 44.82700 24.95100
C  37.79500 45.20100 26.29200
C  37.35000 46.52000 26.24100
C  38.56300 43.47800 24.31600
C  37.63700 44.73200 27.77300
O  37.91500 43.64900 28.27900
C  37.26200 46.00900 28.63300
C  36.08300 45.53200 29.51900
O  34.91300 45.42100 29.18400
O  36.53200 45.19900 30.77100
C  35.56300 44.84700 31.77000
H  35.31900 52.39400 27.37200
H  36.07300 51.36500 20.98700
H  38.57500 45.58700 22.34600
H  35.31200 48.34600 29.71200
H  36.14100 51.05700 29.48100
H  33.40600 51.02200 28.49500
H  34.09100 51.30700 30.15600
H  33.61900 49.72300 29.57900
H  37.87600 49.92500 30.11800
H  38.21700 48.20200 29.92400
H  37.83100 49.44100 32.30700
H  37.55300 47.67800 31.90700
H  34.26700 54.89100 25.37500
H  35.88800 55.12500 24.84400
H  35.75700 54.37100 26.43300
H  34.04800 55.59500 21.46700
H  35.55200 55.86000 22.38600
H  34.02200 55.44500 23.18900
H  37.79800 49.50800 19.85500
H  37.09700 46.58500 20.29600
H  34.90900 48.81400 19.53000
H  36.06000 47.80200 18.81600
H  36.10700 49.49600 18.44900
H  39.21600 47.56600 19.11200
H  39.54100 46.30700 20.19900
H  40.95800 48.68700 20.23200
H  40.55200 47.67000 21.75600
H  39.60300 49.05400 21.35400
H  39.21800 43.65800 23.46300
H  37.71500 42.91700 23.92300
H  39.05700 43.02200 25.17400
H  38.05600 46.38900 29.27700
H  36.10400 44.91900 32.71300
H  35.23100 43.82100 31.61200
H  34.68200 45.48900 31.75900

