158

Mg 1.92400 -3.11600 45.08200
C  5.14900 -2.27700 44.35400
C  0.80400 -0.79800 42.76600
C  -1.18500 -4.64900 45.04200
C  3.20800 -6.28100 46.38300
N  2.89200 -1.81700 43.66100
C  4.20200 -1.46500 43.71000
C  4.60000 -0.45200 42.65000
C  3.21500 0.27800 42.44900
C  2.21900 -0.82000 42.94600
C  3.02800 1.65100 43.20500
C  5.23700 -1.02200 41.31900
C  6.47100 -0.28000 40.74600
H  6.18800 0.60300 39.54900
N  0.04700 -2.67500 44.15300
C  -0.20800 -1.61500 43.31100
C  -1.65200 -1.59000 43.00000
C  -2.22900 -2.61700 43.81600
C  -1.07000 -3.38800 44.32400
C  -2.29200 -0.47200 42.19700
C  -3.70000 -2.87300 43.95100
O  -4.50200 -2.10300 43.52700
C  -4.32800 -4.08300 44.55600
N  1.19300 -5.16800 45.48700
C  -0.15400 -5.40300 45.64300
C  -0.43000 -6.52600 46.53700
C  0.92600 -7.33000 46.63600
C  1.87400 -6.22000 46.13700
C  -1.09400 -5.92200 47.80100
C  0.93600 -8.60300 45.78200
C  1.70000 -9.77800 46.35800
N  3.76900 -4.02100 45.55200
C  4.14400 -5.24700 46.07700
C  5.54800 -5.26000 46.27300
C  5.99400 -4.13000 45.58700
C  4.86000 -3.44600 45.11200
C  6.28000 -6.33800 47.03700
C  7.21300 -3.30800 45.30100
O  8.32500 -3.42200 45.77300
C  6.64400 -2.22500 44.35300
C  7.07000 -0.90500 44.75600
O  6.54300 -0.23600 45.61400
O  8.10900 -0.43900 43.98700
C  8.41400 0.97000 44.25900
H  0.55600 -0.03000 42.03100
H  -2.19300 -4.97500 45.30500
H  3.53200 -7.21400 46.84900
H  5.26500 0.25500 43.14500
H  3.04800 0.49400 41.39400
H  2.67800 2.42200 42.51900
H  3.80800 2.01000 43.87700
H  2.21700 1.49600 43.91600
H  4.44300 -0.90800 40.58100
H  5.50900 -2.06200 41.49800
H  7.32200 -0.94500 40.60100
H  6.68300 0.52900 41.44600
H  -2.26500 -0.90300 41.19600
H  -1.82500 0.51200 42.22200
H  -3.37000 -0.44100 42.35300
H  -3.96800 -4.97200 44.03800
H  -5.37500 -4.11000 44.25600
H  -4.21600 -4.12400 45.64000
H  -1.20700 -7.13000 46.06900
H  1.10800 -7.55300 47.68700
H  -2.10100 -6.29900 47.97700
H  -1.19800 -4.84800 47.95900
H  -0.50100 -6.29800 48.63600
H  1.20400 -8.37500 44.75000
H  -0.10700 -8.88400 45.92900
H  0.96700 -10.36300 46.91400
H  2.45800 -9.44800 47.06700
H  2.26500 -10.45700 45.71900
H  6.70400 -7.18300 46.49500
H  5.63500 -6.70000 47.83600
H  7.11400 -5.85600 47.54800
H  7.01700 -2.30500 43.33200
H  8.80200 0.99200 45.27800
H  7.53400 1.57100 44.02900
H  9.16600 1.24700 43.52000
Mg 48.53700 35.16700 26.50900
C  46.87100 33.68400 29.08400
C  48.78600 37.87800 28.34300
C  50.07600 36.55500 23.78900
C  47.93800 32.21600 24.60500
N  47.93800 35.65800 28.54500
C  47.41900 34.87000 29.43700
C  47.46100 35.46000 30.85600
C  47.79700 36.98700 30.53400
C  48.19100 36.81900 29.04100
C  46.72800 38.06500 30.83700
C  48.50200 34.75300 31.80600
C  48.24300 34.66200 33.35000
H  47.23500 35.64700 33.94600
N  49.33500 36.96200 26.13200
C  49.35900 38.00700 27.05400
C  50.02900 39.12500 26.52100
C  50.35400 38.78400 25.15300
C  49.94800 37.38800 24.96900
C  50.22500 40.28700 27.45300
C  51.10700 39.68200 24.14400
O  51.42100 39.25000 23.03300
C  51.46500 41.18100 24.45300
N  48.80800 34.51000 24.39300
C  49.59200 35.25900 23.55900
C  50.00300 34.36700 22.32800
C  49.22900 33.06700 22.51600
C  48.64600 33.21100 23.93100
C  49.93900 34.89600 20.95700
C  50.08000 31.71100 22.34300
C  49.96900 31.12700 20.94500
N  47.52900 33.32400 26.70700
C  47.39600 32.28800 25.84800
C  46.50800 31.28800 26.45200
C  46.25000 31.80900 27.71500
C  46.97000 33.08300 27.84100
C  46.15500 29.96100 25.79500
C  45.59500 31.57400 28.96600
O  44.89900 30.62000 29.26900
C  45.86300 32.86200 29.90600
C  46.26800 32.37500 31.25700
O  47.26600 31.68300 31.38600
O  45.38300 32.64300 32.25100
C  45.52100 31.98500 33.51700
H  48.83200 38.75100 28.99600
H  50.71700 36.90200 22.97600
H  47.76600 31.33000 23.99100
H  46.44000 35.40300 31.23200
H  48.70200 37.24900 31.08200
H  45.90100 37.55500 31.33200
H  46.38100 38.66300 29.99500
H  47.11500 38.72200 31.61600
H  49.50700 35.13000 31.61300
H  48.59400 33.72600 31.45400
H  49.25000 34.71700 33.76200
H  47.88500 33.65600 33.56800
H  49.27000 40.66500 27.82000
H  50.91300 41.05000 27.08900
H  50.70100 39.98500 28.38600
H  52.16300 41.19200 25.29100
H  50.50400 41.62900 24.70500
H  51.86100 41.58500 23.52200
H  51.05900 34.20600 22.54700
H  48.38400 33.09600 21.82800
H  49.22000 35.71400 20.90800
H  49.65000 34.12600 20.24200
H  50.92600 35.31200 20.75300
H  49.90600 31.01800 23.16600
H  51.14600 31.79300 22.55800
H  49.44600 31.70900 20.18600
H  49.47200 30.18800 21.19100
H  50.97900 30.88000 20.61900
H  47.05800 29.42600 25.50000
H  45.39100 29.94400 25.01800
H  45.72900 29.44300 26.65400
H  44.90700 33.38200 29.96000
H  44.51000 31.72700 33.83300
H  45.94500 32.74200 34.17700
H  46.10100 31.06300 33.55000

