158

Mg 35.72600 1.99100 29.90400
C  33.42700 3.28900 32.22300
C  38.03800 1.70100 32.50000
C  37.97100 1.44700 27.50700
C  33.23200 2.51900 27.36500
N  35.77300 2.49200 32.05600
C  34.64800 2.84900 32.77900
C  34.93900 2.75500 34.32700
C  36.40500 2.37500 34.41600
C  36.73400 2.17600 32.90100
C  37.34700 3.55500 34.90600
C  33.95700 1.73400 35.04300
C  33.13900 2.28700 36.25100
H  33.62700 3.56200 37.00800
N  37.75600 1.56800 30.01200
C  38.54500 1.41700 31.17900
C  39.81500 0.86600 30.73200
C  39.87800 0.92500 29.29900
C  38.46600 1.34100 28.90200
C  40.84000 0.25600 31.72700
C  40.98300 0.66200 28.34200
O  40.86400 0.72100 27.10500
C  42.30300 0.31800 28.76100
N  35.56700 1.62300 27.71700
C  36.70500 1.59600 26.98500
C  36.30300 1.50900 25.47100
C  34.67700 1.73600 25.42400
C  34.43600 1.96200 26.94600
C  36.99200 2.42300 24.49900
C  33.87200 0.51100 24.92800
C  32.55000 0.82500 24.26700
N  33.74200 2.61300 29.83600
C  32.88300 2.80200 28.71300
C  31.63900 3.42800 29.20800
C  31.78300 3.51900 30.60300
C  33.07300 3.09500 30.86100
C  30.49300 3.83000 28.34500
C  31.10500 3.91000 31.81400
O  29.94400 4.11000 32.04300
C  32.22300 3.82200 32.95300
C  32.42400 5.11900 33.55100
O  33.09200 6.02500 33.02000
O  31.59000 5.32500 34.57700
C  31.51900 6.62000 35.27900
H  38.76500 1.42800 33.26800
H  38.63900 1.24100 26.66900
H  32.43400 2.80200 26.67500
H  34.82700 3.72900 34.80400
H  36.57400 1.44300 34.95400
H  37.83500 4.11800 34.11100
H  38.21700 3.27700 35.50100
H  36.82200 4.35500 35.42800
H  34.47700 0.83400 35.37200
H  33.18100 1.47500 34.32200
H  33.25100 1.63700 37.11900
H  32.07400 2.37400 36.03800
H  41.57300 1.04100 31.91200
H  41.33700 -0.62100 31.31200
H  40.42300 -0.00700 32.69900
H  42.39500 -0.76800 28.73300
H  42.60200 0.74500 29.71900
H  43.00900 0.76200 28.05900
H  36.52700 0.50000 25.12700
H  34.36300 2.69500 25.01200
H  37.34800 3.35900 24.92900
H  36.26100 2.76200 23.76500
H  37.73900 1.80200 24.00400
H  33.61700 -0.18100 25.73100
H  34.56000 0.04900 24.22000
H  32.60400 1.89400 24.06200
H  31.67400 0.45700 24.80200
H  32.45100 0.32700 23.30300
H  30.19900 2.99900 27.70400
H  30.84800 4.71300 27.81200
H  29.61200 4.21300 28.86100
H  31.88900 3.14900 33.74200
H  30.68700 7.12700 34.79200
H  32.37000 7.25100 35.02200
H  31.09200 6.50700 36.27600
Mg -10.69400 38.74000 40.62700
C  -9.06500 35.64000 39.80000
C  -8.02600 40.31500 39.12500
C  -12.56700 41.55000 40.40500
C  -13.47700 36.92100 41.27900
N  -8.76700 38.01000 39.68100
C  -8.33500 36.71800 39.36300
C  -6.91700 36.61800 38.70400
C  -6.59800 38.15200 38.61000
C  -7.84700 38.89600 39.22300
C  -5.18200 38.51900 39.29100
C  -6.92300 35.74700 37.42100
C  -6.45900 36.38900 36.11100
H  -7.45900 37.22300 35.28500
N  -10.27600 40.75900 40.12000
C  -9.11000 41.17200 39.49400
C  -9.11900 42.59200 39.32300
C  -10.39000 43.05500 39.75200
C  -11.16900 41.78500 40.14700
C  -7.94100 43.38700 38.79700
C  -10.81500 44.53100 39.81000
O  -10.09000 45.43900 39.43400
C  -12.12200 44.86300 40.36700
N  -12.73900 39.21700 40.57200
C  -13.22500 40.40200 40.76900
C  -14.77700 40.38000 41.03000
C  -15.04000 38.82800 41.27100
C  -13.67700 38.29300 41.02800
C  -15.16900 41.20500 42.24900
C  -16.10300 38.21800 40.29400
C  -17.48300 38.00100 40.89700
N  -11.20500 36.67600 40.71300
C  -12.42200 36.10200 41.08700
C  -12.23100 34.66100 41.27100
C  -10.94800 34.39400 40.72500
C  -10.36600 35.67100 40.41500
C  -13.23100 33.63300 41.79600
C  -10.01200 33.37300 40.39900
O  -10.01700 32.14700 40.50100
C  -8.72300 34.16600 39.81400
C  -7.44600 33.93200 40.67700
O  -7.39400 33.95000 41.89200
O  -6.32100 33.75500 39.86000
C  -5.01100 33.59500 40.57200
H  -7.17000 40.78500 38.63700
H  -13.26100 42.38500 40.51700
H  -14.28100 36.31100 41.69600
H  -6.34800 36.10700 39.48200
H  -6.41000 38.52000 37.60200
H  -4.79600 37.59900 39.73200
H  -5.21500 39.33100 40.01700
H  -4.55200 38.80100 38.44700
H  -7.97100 35.47600 37.29600
H  -6.32300 34.86700 37.65600
H  -6.12100 35.61800 35.42000
H  -5.60700 37.04700 36.28500
H  -8.23400 43.59300 37.76800
H  -7.04800 42.76800 38.71200
H  -7.65600 44.18500 39.48200
H  -12.22500 44.53800 41.40300
H  -12.86100 44.39400 39.71700
H  -12.30400 45.90800 40.11600
H  -15.29100 40.76600 40.15000
H  -15.37700 38.60500 42.28400
H  -15.81500 41.99000 41.85600
H  -14.31700 41.72000 42.69200
H  -15.65700 40.58000 42.99700
H  -15.64800 37.34600 39.82600
H  -16.28700 38.89500 39.46000
H  -18.20500 38.44200 40.21000
H  -17.60600 38.31100 41.93500
H  -17.54300 36.91600 40.80800
H  -14.22100 33.75200 41.35700
H  -13.25200 33.81300 42.87100
H  -12.94400 32.58300 41.73800
H  -8.68400 33.83200 38.77700
H  -4.87100 32.63200 41.06300
H  -4.85200 34.39200 41.29900
H  -4.29000 33.70600 39.76200

