158

Mg 16.13400 -1.46000 27.83500
C  14.81000 0.40800 30.47600
C  17.99800 -3.28000 30.09600
C  17.43200 -3.12600 25.35800
C  14.08300 0.38000 25.68600
N  16.45500 -1.38500 29.98600
C  15.76600 -0.57300 30.91500
C  16.22900 -0.82700 32.26400
C  17.36800 -1.88500 32.18300
C  17.32000 -2.20300 30.64700
C  18.77500 -1.47100 32.65900
C  15.04300 -1.08300 33.20400
C  15.05600 -0.27200 34.44600
H  16.35100 0.24600 35.14000
N  17.41800 -3.10500 27.73000
C  18.02700 -3.70700 28.73400
C  18.79200 -4.83200 28.21500
C  18.57800 -4.90300 26.84000
C  17.77100 -3.66900 26.56900
C  19.49600 -5.81200 29.14900
C  19.14400 -5.89700 25.90300
O  18.97300 -5.72700 24.73800
C  20.02500 -6.98000 26.28300
N  15.87500 -1.21400 25.85900
C  16.62300 -2.05000 25.04100
C  16.39300 -1.64300 23.48400
C  15.21700 -0.65000 23.61300
C  15.02900 -0.49800 25.13900
C  17.69200 -1.10400 22.77500
C  13.83300 -0.97100 22.95500
C  13.50600 -0.07800 21.79400
N  14.72900 0.09100 27.98700
C  13.98500 0.74100 27.02500
C  13.11400 1.72300 27.57800
C  13.36600 1.69100 28.92800
C  14.36400 0.63300 29.13600
C  12.13700 2.55400 26.86300
C  13.06900 2.22300 30.22800
O  12.35500 3.22000 30.55300
C  13.95900 1.43000 31.30700
C  14.87900 2.38300 32.05200
O  15.92100 2.85800 31.63500
O  14.28700 2.68700 33.30600
C  14.99700 3.70700 34.20400
H  18.59500 -3.86000 30.80400
H  18.02800 -3.49900 24.52200
H  13.41700 0.88300 24.98200
H  16.68300 0.04800 32.73000
H  17.06600 -2.75100 32.77200
H  18.69900 -0.63100 33.35000
H  19.29100 -1.30800 31.71300
H  19.31600 -2.21000 33.25200
H  15.23500 -2.05800 33.65100
H  14.04500 -1.09300 32.76600
H  14.65300 -0.84300 35.28300
H  14.26200 0.46200 34.30800
H  20.27000 -6.32100 28.57400
H  18.83300 -6.54600 29.60700
H  19.93800 -5.28200 29.99200
H  19.54200 -7.66700 26.97700
H  20.94500 -6.52700 26.65100
H  20.29900 -7.56200 25.40400
H  16.12400 -2.56500 22.96800
H  15.53900 0.32800 23.25700
H  18.40400 -0.92500 23.58000
H  17.48200 -0.11700 22.36100
H  18.01800 -1.86200 22.06300
H  13.03600 -1.00600 23.69700
H  13.93800 -1.96000 22.50700
H  13.71400 -0.56100 20.84000
H  13.94700 0.90100 21.98400
H  12.44200 0.10300 21.94800
H  11.44100 2.78200 27.67000
H  11.56700 1.96700 26.14300
H  12.61500 3.46500 26.50300
H  13.32600 0.95000 32.05300
H  16.08200 3.71500 34.09300
H  14.75300 3.37400 35.21300
H  14.68800 4.70300 33.88600
Mg 40.56600 9.68900 29.45500
C  42.47700 10.73400 32.21600
C  38.35200 8.29700 31.56100
C  39.08400 8.41400 26.73100
C  42.97200 11.21100 27.33600
N  40.57400 9.40300 31.67700
C  41.28700 10.09500 32.66400
C  40.60100 9.88900 34.04800
C  39.30700 9.11900 33.74200
C  39.36600 9.00400 32.17000
C  39.03300 7.79100 34.52300
C  40.34700 11.23300 34.89200
C  40.94200 11.24800 36.28200
H  40.60200 12.26800 37.27300
N  38.97900 8.55100 29.17900
C  38.14700 8.09000 30.17400
C  37.10000 7.32400 29.56400
C  37.28000 7.37400 28.18000
C  38.52100 8.13100 27.95600
C  36.06400 6.59400 30.44400
C  36.45900 6.82600 27.08300
O  36.55900 7.22100 25.95800
C  35.21100 5.92700 27.36600
N  40.97400 9.80700 27.29300
C  40.18100 9.21100 26.38100
C  40.67700 9.47600 24.94100
C  41.99800 10.30900 25.14900
C  41.90600 10.57300 26.66900
C  40.91000 8.23700 24.04900
C  42.07600 11.48100 24.27300
C  41.16100 12.75900 24.54100
N  42.32100 10.70900 29.63100
C  43.15300 11.28400 28.74300
C  44.21100 12.02600 29.39900
C  44.06500 11.67600 30.75900
C  42.85100 10.96400 30.90600
C  45.25500 12.86700 28.78700
C  44.50800 11.98500 32.06400
O  45.48600 12.66600 32.41100
C  43.53200 11.41400 33.06800
C  44.35300 10.48500 33.92400
O  44.68500 9.34200 33.68000
O  44.55600 11.05300 35.16700
C  45.23800 10.26500 36.13400
H  37.43300 8.30800 32.15000
H  38.70600 7.93400 25.82600
H  43.75300 11.58900 26.67300
H  41.30100 9.33000 34.66900
H  38.50600 9.82400 33.96500
H  37.98100 7.58300 34.32900
H  39.09300 7.87600 35.60800
H  39.67600 6.98600 34.16700
H  39.27500 11.34900 35.05100
H  40.59900 12.15400 34.36700
H  42.02300 11.33000 36.16800
H  40.75600 10.24200 36.65700
H  35.07400 6.85800 30.07300
H  36.18700 6.96300 31.46200
H  36.15100 5.50800 30.39500
H  35.54200 4.95600 27.73100
H  34.79400 5.69200 26.38600
H  34.45600 6.43600 27.96600
H  39.99100 10.16100 24.44200
H  42.91700 9.76100 24.94100
H  40.54800 7.38700 24.62700
H  41.94700 8.12100 23.73400
H  40.28400 8.31400 23.16000
H  41.81700 11.18300 23.25700
H  43.07200 11.92300 24.26200
H  40.35300 12.85400 23.81600
H  41.76300 13.66200 24.63500
H  40.74300 12.63500 25.54000
H  44.89000 13.13300 27.79500
H  46.09600 12.17400 28.76600
H  45.26000 13.73800 29.44300
H  43.06000 12.22100 33.62900
H  44.83100 9.25400 36.13100
H  45.04700 10.64700 37.13700
H  46.31000 10.20900 35.94400

