158

Mg 24.59900 -4.83400 46.64700
C  26.29400 -2.06300 45.32000
C  21.84500 -3.98200 44.65500
C  23.29800 -7.90700 47.15600
C  27.61300 -5.99700 48.01800
N  24.22400 -3.22000 45.16400
C  25.02500 -2.16900 44.80400
C  24.32600 -1.26100 43.81000
C  22.79900 -1.58400 44.05500
C  22.94400 -3.05000 44.61700
C  21.95300 -0.67500 45.03000
C  24.81700 -1.58700 42.37300
C  25.36500 -0.52100 41.45300
H  24.85500 -0.60700 39.99400
N  22.76600 -5.74900 46.06700
C  21.75700 -5.18300 45.35300
C  20.71100 -6.10800 45.37200
C  21.11600 -7.28200 46.09800
C  22.44800 -7.04600 46.44600
C  19.39100 -5.82400 44.69800
C  20.18900 -8.51700 46.29400
O  19.08700 -8.61400 45.70000
C  20.55800 -9.78300 47.08800
N  25.30100 -6.75200 47.37400
C  24.59000 -7.86600 47.56600
C  25.25700 -8.81400 48.60100
C  26.73600 -8.33400 48.62000
C  26.59600 -6.95300 47.90500
C  24.62000 -8.95600 50.03300
C  27.72700 -9.26000 47.94800
C  28.70600 -10.00800 48.78900
N  26.60100 -4.15800 46.70800
C  27.67400 -4.70700 47.37600
C  28.79500 -3.69200 47.38200
C  28.34600 -2.65600 46.53500
C  27.01400 -2.98200 46.12800
C  30.08300 -3.77100 48.16300
C  28.68700 -1.33800 45.94600
O  29.72000 -0.67500 46.06100
C  27.37600 -0.90100 45.06400
C  26.86000 0.49900 45.42200
O  27.15300 1.55400 44.87200
O  25.94600 0.32200 46.45400
C  25.30200 1.53600 46.90600
H  21.02200 -3.51300 44.11200
H  22.84400 -8.79400 47.60300
H  28.48800 -6.21500 48.63500
H  24.55400 -0.23900 44.11100
H  22.32800 -1.60800 43.07200
H  21.00200 -0.38900 44.58000
H  22.40100 0.27100 45.33100
H  21.69600 -1.15800 45.97300
H  24.08900 -2.18100 41.82000
H  25.66600 -2.25800 42.50700
H  26.44300 -0.68000 41.47800
H  25.07700 0.47200 41.79700
H  19.20100 -4.77200 44.91200
H  18.54800 -6.38000 45.10900
H  19.36400 -6.05200 43.63300
H  20.75500 -9.43700 48.10300
H  21.42900 -10.32000 46.71300
H  19.66000 -10.39700 47.15300
H  25.16300 -9.80300 48.15300
H  27.13800 -8.27600 49.63100
H  25.10700 -8.36100 50.80600
H  24.35500 -9.96500 50.35000
H  23.74200 -8.33700 49.85200
H  28.34900 -8.62600 47.31600
H  27.22200 -9.90600 47.23000
H  29.68100 -9.52400 48.74000
H  28.75300 -11.04400 48.45200
H  28.45400 -9.92500 49.84600
H  30.89100 -3.16200 47.75700
H  30.35500 -4.78700 48.45100
H  29.88700 -3.23300 49.09100
H  27.58800 -0.78500 44.00200
H  24.78600 2.00000 46.06600
H  25.88300 2.26700 47.47000
H  24.49300 1.30500 47.59800
Mg 9.42400 47.25700 27.72800
C  7.35100 47.35700 30.45100
C  12.10400 47.97200 29.73800
C  11.42200 47.37700 24.88100
C  6.59800 47.52800 25.56400
N  9.63700 47.55900 29.78700
C  8.69600 47.56800 30.74600
C  9.35100 47.73800 32.14800
C  10.80700 48.23300 31.79100
C  10.86300 47.91400 30.33900
C  10.93900 49.82900 32.11400
C  9.35900 46.41700 32.90900
C  8.75700 46.41800 34.30700
H  8.66600 45.19800 35.30000
N  11.53400 47.49900 27.37400
C  12.49400 47.63700 28.38000
C  13.82600 47.68600 27.68500
C  13.58400 47.51500 26.29200
C  12.13800 47.49200 26.15400
C  15.13500 47.90600 28.41200
C  14.63900 47.40100 25.17800
O  14.43600 47.29700 23.93400
C  16.17700 47.27300 25.54000
N  9.03500 47.43500 25.52000
C  10.04900 47.42300 24.61600
C  9.47100 47.57300 23.16300
C  7.93000 47.54800 23.38200
C  7.81600 47.55600 24.90500
C  10.01000 48.85100 22.50800
C  7.07000 46.36600 22.80000
C  6.28300 46.81600 21.57600
N  7.34700 47.42500 27.88000
C  6.39900 47.47200 26.98200
C  5.09700 47.40700 27.65200
C  5.41500 47.32500 28.99500
C  6.80400 47.32300 29.09800
C  3.71200 47.60800 27.01300
C  4.80300 47.32500 30.39900
O  3.61700 47.55100 30.73700
C  6.09100 47.24500 31.35400
C  5.95400 45.98600 32.10200
O  6.24200 44.89200 31.68700
O  5.44200 46.24600 33.38500
C  5.40800 45.07700 34.23600
H  12.97600 48.23900 30.34000
H  11.99100 47.58300 23.97200
H  5.73000 47.52700 24.90300
H  8.71800 48.51300 32.58100
H  11.62200 47.71400 32.29600
H  11.94400 49.92000 32.52500
H  10.18100 50.22200 32.79200
H  11.05200 50.42300 31.20700
H  10.32900 45.94400 33.05900
H  8.68200 45.73700 32.39200
H  7.75900 46.83900 34.18700
H  9.37700 47.23100 34.68400
H  15.04800 47.80900 29.49400
H  15.51000 48.90100 28.17500
H  15.78900 47.06600 28.18000
H  16.79000 46.96400 24.69300
H  16.30600 46.37500 26.14300
H  16.56000 48.21800 25.92600
H  9.68500 46.65100 22.62300
H  7.64900 48.51100 22.95600
H  9.23500 49.23600 21.84600
H  10.84100 48.45000 21.92900
H  10.33600 49.61900 23.20900
H  6.34000 45.97100 23.50600
H  7.75800 45.58100 22.48600
H  5.24400 46.53600 21.74800
H  6.66200 46.35200 20.66500
H  6.30300 47.90100 21.48400
H  2.89500 47.51400 27.72800
H  3.44000 46.80600 26.32700
H  3.75600 48.60200 26.56700
H  6.13400 48.07200 32.06300
H  5.32700 45.35600 35.28600
H  6.25400 44.39900 34.12400
H  4.52100 44.57200 33.85300

