158

Mg 17.07200 -1.45300 28.19600
C  16.45500 0.83800 30.85900
C  19.37000 -3.08500 29.93000
C  18.52300 -2.51600 25.15800
C  15.27200 1.04000 26.12200
N  18.01900 -0.93900 30.06800
C  17.41700 -0.22700 31.12400
C  17.91500 -0.74800 32.44300
C  19.05800 -1.73900 32.05300
C  18.72400 -1.96600 30.59400
C  20.54400 -1.22400 32.36400
C  16.75700 -1.37700 33.32900
C  16.64800 -1.02700 34.84100
H  17.97400 -0.84500 35.62800
N  18.56600 -2.77600 27.64500
C  19.40400 -3.42300 28.54500
C  20.23400 -4.38900 27.88900
C  19.93300 -4.27100 26.49700
C  19.00800 -3.14700 26.33300
C  21.23100 -5.27700 28.62400
C  20.55800 -5.01400 25.37000
O  20.40800 -4.67300 24.21500
C  21.61200 -6.16800 25.51000
N  16.88500 -0.89600 26.00800
C  17.67100 -1.40200 24.99200
C  17.41100 -0.94500 23.63300
C  16.26900 0.10700 23.98600
C  16.15800 0.11400 25.49600
C  18.73500 -0.45900 22.92400
C  14.97200 -0.04900 23.14400
C  13.62400 -0.33700 23.80400
N  15.86000 0.42700 28.40500
C  15.20300 1.21600 27.47400
C  14.53600 2.26800 28.22000
C  14.94500 2.14300 29.54300
C  15.81800 1.05700 29.60500
C  13.83900 3.31900 27.56900
C  14.89100 2.68000 30.86800
O  14.21600 3.69400 31.17500
C  15.77100 1.76300 31.82000
C  16.68900 2.68400 32.57700
O  17.84200 2.90900 32.32100
O  15.97000 3.32200 33.57700
C  16.61200 4.12000 34.57400
H  20.07200 -3.60900 30.58200
H  18.91300 -2.76400 24.16900
H  14.63900 1.66000 25.48200
H  18.39300 0.07400 32.97500
H  18.97600 -2.67300 32.61000
H  20.64600 -0.22400 32.78500
H  21.14300 -1.32700 31.45900
H  21.13100 -1.84800 33.03800
H  16.78600 -2.46600 33.30500
H  15.82100 -1.13800 32.82300
H  16.13000 -1.79500 35.41600
H  15.97000 -0.18500 34.97500
H  21.03000 -6.34100 28.49200
H  21.26400 -5.05100 29.69000
H  22.23300 -5.00000 28.29700
H  21.33100 -6.81700 26.34000
H  22.52700 -5.59400 25.65400
H  21.85500 -6.74600 24.61800
H  16.81400 -1.69700 23.11800
H  16.73300 1.06700 23.76000
H  19.10400 0.51000 23.25900
H  18.39000 -0.31800 21.89900
H  19.55700 -1.17400 22.89500
H  15.15000 -0.70700 22.29400
H  14.86100 0.99700 22.85600
H  13.81500 -0.92300 24.70300
H  13.02400 -0.88200 23.07500
H  13.00000 0.50900 24.09200
H  14.39800 3.89100 26.82800
H  13.52200 4.12500 28.23200
H  12.92100 2.88300 27.17500
H  15.13600 1.26200 32.55100
H  16.58500 3.52400 35.48600
H  16.03900 4.98400 34.91300
H  17.57800 4.57900 34.36600
Mg 35.68900 49.05100 25.73000
C  35.68000 46.90800 28.61400
C  34.82400 51.61700 27.66800
C  35.86600 50.99100 22.87900
C  36.36800 46.27700 23.80800
N  35.25500 49.13300 27.91800
C  35.35700 48.25300 28.95100
C  35.15400 48.90900 30.36800
C  34.76500 50.39500 29.98500
C  34.97500 50.39700 28.38900
C  33.35700 50.82400 30.43400
C  36.52700 48.81800 31.18100
C  36.49800 48.05400 32.43400
H  35.25400 48.24300 33.41400
N  35.21600 50.99500 25.29900
C  34.91500 51.92900 26.26800
C  34.88900 53.20700 25.62700
C  35.20400 53.01700 24.28900
C  35.49300 51.58000 24.14400
C  34.47500 54.49800 26.37500
C  35.47700 54.06000 23.22300
O  35.98900 53.82700 22.13200
C  35.14700 55.50800 23.41000
N  35.79800 48.67100 23.53400
C  35.96200 49.61700 22.61100
C  36.20600 48.94100 21.20300
C  36.62800 47.53100 21.57600
C  36.23200 47.45300 23.04800
C  35.01900 48.97700 20.22600
C  38.15500 47.19200 21.33600
C  38.52900 45.80800 20.90800
N  35.95400 47.01300 26.04700
C  36.34100 46.05400 25.20800
C  36.59600 44.76600 25.84000
C  36.29900 45.03700 27.18900
C  35.87300 46.40100 27.30000
C  36.90400 43.47200 25.18400
C  36.16700 44.41900 28.49000
O  36.37000 43.31300 28.87500
C  35.75400 45.62800 29.45300
C  34.47400 45.29800 30.09400
O  33.37000 45.59400 29.65700
O  34.71500 44.59800 31.29300
C  33.49300 44.29900 32.12200
H  34.61100 52.47800 28.30600
H  36.04500 51.65600 22.03100
H  36.70800 45.39900 23.25600
H  34.36300 48.29500 30.79800
H  35.45700 51.18700 30.27000
H  33.65300 51.79500 30.83200
H  32.78400 50.29400 31.19400
H  32.64000 51.00400 29.63300
H  36.92800 49.83200 31.21400
H  37.32700 48.34800 30.60900
H  37.31700 48.37300 33.07900
H  36.61500 46.97900 32.30300
H  33.92300 55.20200 25.75300
H  35.41400 55.01300 26.57600
H  34.03600 54.39700 27.36800
H  35.77500 55.92500 24.19700
H  34.15200 55.77800 23.76500
H  35.18000 56.13500 22.51900
H  37.01000 49.52100 20.75000
H  35.99100 46.76300 21.13800
H  34.49900 49.93300 20.28100
H  34.40100 48.08400 20.32100
H  35.40000 48.80200 19.22000
H  38.59400 47.40200 22.31200
H  38.57400 47.94700 20.67100
H  38.55600 45.70800 19.82300
H  37.73600 45.11000 21.17800
H  39.43600 45.43600 21.38500
H  37.95500 43.36000 24.91400
H  36.31200 43.22500 24.30300
H  36.75900 42.73900 25.97700
H  36.53100 45.82600 30.19100
H  32.62500 44.89700 31.84600
H  33.55500 44.34400 33.21000
H  33.11000 43.29600 31.93700

