158

Mg 8.12400 2.48900 28.40100
C  9.55800 1.03900 31.25900
C  6.48100 4.72700 30.36500
C  6.16100 3.32100 25.77000
C  9.35200 -0.31100 26.46000
N  7.93000 2.73900 30.62100
C  8.68700 2.09900 31.59200
C  8.54500 2.79300 32.93600
C  7.35200 3.83500 32.58800
C  7.24800 3.82700 31.09700
C  6.00400 3.53100 33.27600
C  9.79300 3.44000 33.56700
C  10.39800 2.76300 34.82100
H  10.79100 3.72800 35.89800
N  6.76700 4.04900 27.99400
C  6.21600 4.90900 28.93800
C  5.27100 5.78800 28.24300
C  5.23800 5.42800 26.85600
C  6.11500 4.28500 26.83500
C  4.47200 6.97200 28.93300
C  4.44600 6.04700 25.63000
O  4.47900 5.68300 24.46900
C  3.51100 7.26400 25.84800
N  7.85200 1.61900 26.38800
C  6.92500 2.17400 25.58400
C  7.13000 1.59300 24.12100
C  8.00500 0.35500 24.37900
C  8.39400 0.55700 25.84800
C  5.87700 1.12400 23.37500
C  9.07700 0.08900 23.26200
C  9.02800 -1.18400 22.37800
N  9.23900 0.77100 28.73600
C  9.65700 -0.23600 27.83600
C  10.48600 -1.20800 28.60600
C  10.48800 -0.70300 29.89300
C  9.70900 0.45900 29.94900
C  11.29800 -2.33400 28.02500
C  10.93400 -0.95900 31.31200
O  11.74200 -1.75300 31.80100
C  10.32400 0.15200 32.17600
C  9.43800 -0.58800 33.16100
O  8.31600 -1.00100 32.97800
O  10.12300 -0.63600 34.34600
C  9.38500 -1.41400 35.41200
H  6.09400 5.54000 30.98200
H  5.60800 3.63200 24.88100
H  9.73600 -1.05700 25.76000
H  8.20800 2.16400 33.76000
H  7.63700 4.79500 33.01800
H  6.09000 2.47300 33.52200
H  5.21800 3.47200 32.52300
H  5.78500 4.36700 33.94000
H  9.71100 4.51600 33.71900
H  10.57700 3.36400 32.81300
H  11.29100 2.25500 34.45500
H  9.75500 1.96800 35.19700
H  4.81800 7.94200 28.57600
H  4.85400 7.05400 29.95000
H  3.43100 6.89300 28.62000
H  2.75100 7.06100 26.60300
H  2.93900 7.55800 24.96800
H  4.10300 8.08900 26.24500
H  7.68300 2.23900 23.43900
H  7.34300 -0.50700 24.45800
H  5.07800 1.33800 24.08600
H  5.77300 0.10700 22.99900
H  5.72100 1.93500 22.66300
H  10.09300 0.20600 23.63800
H  9.03000 0.83500 22.46800
H  8.95300 -0.98700 21.30800
H  8.15900 -1.80400 22.59800
H  9.92800 -1.78900 22.48400
H  12.02400 -2.03600 27.26900
H  10.75200 -3.17600 27.59800
H  11.80800 -2.67400 28.92600
H  11.23200 0.62200 32.55300
H  8.88500 -2.27300 34.96500
H  8.60300 -0.83400 35.90000
H  9.98200 -1.85600 36.21000
Mg 27.68900 50.51600 27.00700
C  25.52200 51.02400 29.63500
C  30.12900 49.72400 29.19300
C  29.56300 50.03400 24.35800
C  25.07700 51.72200 24.78300
N  27.80300 50.30100 29.19200
C  26.79000 50.55400 30.03200
C  27.23600 50.30500 31.44700
C  28.79300 50.15900 31.39600
C  28.92200 49.96000 29.84100
C  29.55700 51.37200 31.96000
C  26.46900 49.22200 32.36800
C  27.03800 49.08400 33.77600
H  26.10200 49.41100 35.00200
N  29.52600 49.80600 26.84100
C  30.38600 49.50100 27.84500
C  31.57700 49.05200 27.25600
C  31.41900 49.10200 25.88300
C  30.12800 49.61200 25.61700
C  32.85100 48.47100 27.95200
C  32.36600 48.69100 24.83300
O  32.16300 48.78800 23.66700
C  33.77300 48.18600 25.22700
N  27.40500 51.11900 24.89800
C  28.31100 50.61800 24.04100
C  27.88300 50.78100 22.54000
C  26.36300 51.17600 22.69300
C  26.27500 51.35100 24.19400
C  28.79400 51.83300 21.83300
C  25.34800 50.11900 22.11300
C  25.36800 48.68400 22.69600
N  25.76700 51.41700 27.12300
C  24.86200 51.72800 26.14900
C  23.60100 52.15000 26.84200
C  23.80200 51.88300 28.25700
C  25.13900 51.41700 28.31000
C  22.45100 52.65200 26.02900
C  23.14800 51.90700 29.58100
O  22.04300 52.34600 29.96300
C  24.35500 51.42200 30.49500
C  24.61000 52.56200 31.43300
O  25.08600 53.62300 30.94300
O  24.21300 52.38500 32.74100
C  24.63700 53.40400 33.68800
H  30.98400 49.47800 29.82800
H  30.22200 50.08200 23.48800
H  24.25400 51.71100 24.06500
H  26.86100 51.22800 31.89000
H  29.05800 49.21800 31.87900
H  30.17200 51.73400 31.13600
H  30.15100 51.14100 32.84400
H  28.95700 52.26100 32.15800
H  26.45200 48.25400 31.86600
H  25.43900 49.57400 32.43400
H  27.84100 49.80000 33.95300
H  27.48600 48.11000 33.97300
H  33.05400 47.40100 27.98700
H  32.72300 48.80700 28.98100
H  33.77600 49.04700 27.89500
H  34.16300 49.03600 25.78800
H  34.41000 48.06400 24.35100
H  33.63000 47.20700 25.68300
H  28.02700 49.88300 21.94000
H  26.17600 52.18000 22.31200
H  29.53000 52.22100 22.53700
H  28.17400 52.65500 21.47600
H  29.25600 51.39200 20.94900
H  25.59100 49.99600 21.05700
H  24.32500 50.47900 22.21500
H  25.99100 48.70200 23.59100
H  25.83300 48.00100 21.98500
H  24.40900 48.29500 23.03900
H  21.56500 52.59800 26.66200
H  22.25300 52.08600 25.11900
H  22.84200 53.65600 25.86000
H  24.02700 50.50700 30.98800
H  24.19400 54.34000 33.34900
H  25.70700 53.59400 33.60300
H  24.40700 53.27800 34.74600

