158

Mg -0.41900 7.28300 27.27200
C  0.57700 9.36400 29.99000
C  -0.40100 4.64500 29.33100
C  -0.62900 5.31000 24.55400
C  0.28600 10.08200 25.24400
N  0.16500 7.05000 29.37700
C  0.27500 8.03700 30.31900
C  0.07400 7.44200 31.75800
C  0.09600 5.91200 31.49500
C  -0.01900 5.82500 29.96200
C  1.31600 5.13100 32.11500
C  -1.18800 8.10500 32.37600
C  -1.10700 8.50000 33.83600
H  -0.21800 7.64100 34.80700
N  -0.62700 5.25000 27.06100
C  -0.62500 4.32300 28.00500
C  -1.04800 3.02300 27.50900
C  -1.17800 3.22300 26.04800
C  -0.73300 4.61300 25.84300
C  -1.44900 1.79100 28.36300
C  -1.52700 2.26700 25.03600
O  -1.49100 2.55900 23.82000
C  -1.98100 0.96800 25.44900
N  -0.49400 7.65600 25.12400
C  -0.52200 6.68900 24.22100
C  -0.49900 7.23100 22.77500
C  -0.37100 8.80600 23.09500
C  -0.15300 8.86900 24.59100
C  0.49200 6.70400 21.73300
C  -1.68600 9.57400 22.68600
C  -1.69700 11.11900 22.79300
N  0.20400 9.34900 27.49900
C  0.47200 10.34800 26.61200
C  0.74200 11.62200 27.25800
C  0.79500 11.21800 28.58700
C  0.52700 9.82200 28.69300
C  0.84100 12.93100 26.55800
C  1.12500 11.77800 29.94500
O  1.55200 12.88800 30.23400
C  0.84100 10.57700 30.91000
C  2.03000 10.39700 31.81900
O  3.02000 9.90400 31.35400
O  1.90900 11.00400 33.03100
C  3.03300 10.73200 33.92700
H  -0.44100 3.76300 29.97300
H  -0.88000 4.73300 23.66200
H  0.49100 10.93900 24.59900
H  0.96700 7.62200 32.35600
H  -0.75400 5.37700 31.92100
H  0.89400 4.19700 32.48600
H  1.76000 5.72200 32.91500
H  2.09500 4.84200 31.40900
H  -1.99000 7.36900 32.31700
H  -1.42600 9.03700 31.86400
H  -2.12100 8.42000 34.22900
H  -0.85500 9.56000 33.88600
H  -2.52800 1.66600 28.27600
H  -1.35700 1.91700 29.44200
H  -0.99600 0.87300 27.99000
H  -1.21500 0.31800 25.87100
H  -2.27400 0.58000 24.47400
H  -2.87200 0.99000 26.07800
H  -1.44800 6.98400 22.29900
H  0.46200 9.34600 22.64400
H  0.95200 7.58800 21.29100
H  0.01700 6.03700 21.01300
H  1.29000 6.15800 22.23600
H  -2.48100 9.40800 23.41300
H  -1.99800 9.22100 21.70300
H  -2.14200 11.51100 23.70700
H  -2.22100 11.49200 21.91300
H  -0.68100 11.43600 22.55600
H  0.23900 12.97800 25.65100
H  1.84700 13.25500 26.29000
H  0.37200 13.67200 27.20700
H  -0.00800 10.94900 31.48300
H  3.37500 11.65700 34.39200
H  3.87000 10.19900 33.47600
H  2.63000 10.07000 34.69400
Mg 24.99500 1.30300 30.37400
C  27.29800 1.31100 33.08100
C  22.37400 1.58500 32.67200
C  22.88000 1.06200 27.95000
C  27.71900 0.78800 28.26600
N  24.90300 1.34600 32.62200
C  25.98700 1.40000 33.51500
C  25.48000 1.73500 34.91300
C  23.96000 1.54100 34.74100
C  23.70700 1.50600 33.22800
C  23.28300 0.46800 35.58200
C  25.89400 3.16800 35.35500
C  26.62800 3.19200 36.76900
H  26.03600 4.13300 37.77800
N  22.86000 1.20200 30.31900
C  22.00200 1.34400 31.33900
C  20.65200 1.25300 30.79500
C  20.80800 1.15900 29.39500
C  22.22800 1.16000 29.14700
C  19.38600 1.30000 31.60900
C  19.67300 1.05100 28.40000
O  19.85800 0.99400 27.16700
C  18.27600 0.74400 28.78800
N  25.29500 0.92300 28.40500
C  24.22100 0.99000 27.53800
C  24.59000 0.87200 26.05000
C  26.16900 0.88600 26.12800
C  26.42700 0.79500 27.69400
C  23.85700 -0.31000 25.31800
C  26.82700 2.19200 25.37000
C  26.77600 3.54800 26.13500
N  27.12200 1.03500 30.55400
C  28.05900 0.86500 29.61200
C  29.33000 0.66700 30.26500
C  29.10000 0.95100 31.63500
C  27.75300 1.09300 31.74200
C  30.66900 0.30300 29.48700
C  29.70300 1.13300 32.94500
O  30.85900 1.05100 33.24000
C  28.54500 1.36900 33.88900
C  28.68800 0.36600 34.96700
O  28.54700 -0.82700 34.77600
O  29.20700 0.81200 36.13000
C  29.34100 -0.13900 37.29300
H  21.55700 1.79200 33.36700
H  22.19700 0.95800 27.10500
H  28.43100 0.61800 27.45700
H  25.87100 0.95900 35.57200
H  23.47200 2.46900 35.04100
H  22.66800 -0.15900 34.93700
H  22.47700 0.85500 36.20600
H  23.99400 -0.15000 36.13100
H  25.06000 3.86700 35.41700
H  26.54300 3.59600 34.59100
H  27.70000 3.37300 36.69400
H  26.46300 2.17700 37.13000
H  19.70600 1.60700 32.60500
H  18.93200 0.30900 31.59600
H  18.60700 2.00300 31.31400
H  17.77600 1.54100 29.33900
H  18.52300 -0.18100 29.30800
H  17.64100 0.39900 27.97200
H  24.27800 1.71200 25.43100
H  26.61600 -0.00900 25.69700
H  24.56500 -0.82500 24.66900
H  23.14500 0.08600 24.59300
H  23.43000 -0.99500 26.05000
H  26.46700 2.32300 24.34900
H  27.91300 2.10700 25.39900
H  26.52100 3.39500 27.18300
H  26.19300 4.30100 25.60500
H  27.73200 4.04100 26.31100
H  31.21600 1.23800 29.60500
H  30.45600 -0.02500 28.47000
H  31.21800 -0.38700 30.12800
H  28.65600 2.32900 34.39400
H  28.51600 -0.11600 38.00500
H  30.27300 0.11800 37.79800
H  29.43300 -1.16500 36.93600

