158

Mg 43.69200 4.38600 46.46600
C  41.96400 7.46000 46.83500
C  40.80900 2.60800 46.34900
C  45.57100 1.70000 45.86600
C  46.65500 6.46400 46.28500
N  41.64300 5.03300 46.56200
C  41.14400 6.27400 46.78100
C  39.61600 6.17800 46.83900
C  39.29200 4.63100 46.86300
C  40.66300 4.01500 46.64600
C  38.60200 4.12300 48.18800
C  38.85300 7.06300 45.78100
C  39.42000 7.40000 44.40600
H  38.76600 6.58000 43.17000
N  43.25700 2.43700 46.14000
C  42.01300 1.87300 46.08400
C  42.05700 0.43200 45.84300
C  43.43800 0.12700 45.81400
C  44.16600 1.44800 45.89200
C  40.79500 -0.35900 45.66300
C  44.03000 -1.31700 45.66200
O  43.22500 -2.27100 45.64300
C  45.46500 -1.52000 45.46300
N  45.81700 4.17600 45.99100
C  46.32000 2.83000 46.00300
C  47.87900 2.83200 46.07300
C  48.17500 4.37700 46.01100
C  46.82100 5.10700 46.11400
C  48.39300 1.91000 47.22900
C  48.88900 4.88000 44.74100
C  50.42000 4.83500 44.95300
N  44.30000 6.53900 46.52300
C  45.46900 7.18400 46.48500
C  45.27200 8.63700 46.67800
C  43.87200 8.68000 46.83100
C  43.33500 7.44400 46.73800
C  46.21800 9.72900 46.75300
C  42.78400 9.58200 47.07700
O  42.82800 10.80500 47.38400
C  41.49100 8.82300 47.06000
C  40.93500 8.93600 48.47600
O  41.24300 8.26800 49.45500
O  40.01700 9.93500 48.38100
C  39.34300 10.37700 49.60900
H  39.78700 2.22200 46.31800
H  46.10800 0.75300 45.77100
H  47.51000 7.13000 46.42100
H  39.40000 6.53300 47.84700
H  38.51800 4.38200 46.13600
H  38.43400 5.00100 48.81100
H  39.30900 3.50800 48.74400
H  37.65800 3.60400 48.02400
H  38.61000 8.04400 46.18900
H  37.89300 6.63800 45.48700
H  40.49700 7.50400 44.27500
H  39.08900 8.41400 44.18300
H  40.56000 -0.66800 46.68100
H  41.05600 -1.17200 44.98500
H  40.00900 0.32300 45.34000
H  45.45200 -2.60500 45.35800
H  46.04100 -1.29900 46.36200
H  45.84200 -1.07400 44.54200
H  48.29100 2.31900 45.20400
H  48.67500 4.73100 46.91300
H  48.96100 1.04400 46.89000
H  47.53200 1.51700 47.77000
H  49.07400 2.45100 47.88700
H  48.50000 5.88300 44.56600
H  48.70600 4.39700 43.78100
H  51.00100 4.60000 44.06000
H  50.61800 4.07000 45.70300
H  50.85900 5.81000 45.16700
H  46.70300 9.78100 47.72800
H  45.57600 10.59100 46.57300
H  46.95000 9.75600 45.94700
H  40.79300 9.25800 46.34400
H  39.73400 10.01500 50.56000
H  38.31100 10.04900 49.48500
H  39.45900 11.45400 49.73200
Mg 46.87600 25.79200 28.55300
C  47.80500 27.82200 31.27000
C  45.62200 23.52300 30.83800
C  46.24500 23.76800 25.95700
C  48.52900 28.00500 26.35700
N  46.75300 25.70600 30.79200
C  47.13300 26.69300 31.71800
C  46.80900 26.18500 33.17300
C  46.13400 24.84100 32.95000
C  46.16800 24.66900 31.41900
C  46.80800 23.65600 33.74500
C  45.97900 27.32100 33.98500
C  46.59200 27.98900 35.13500
H  45.69400 28.52900 36.26100
N  46.08600 23.87200 28.45500
C  45.54600 23.15700 29.45500
C  44.93500 21.92100 28.93500
C  45.11300 21.94600 27.55700
C  45.85700 23.23900 27.21000
C  44.08200 20.93300 29.67900
C  44.52000 21.05900 26.50400
O  44.73400 21.18300 25.33800
C  43.75600 19.86000 26.86400
N  47.39200 25.84800 26.47600
C  46.94700 24.86900 25.64200
C  47.24300 25.20300 24.12900
C  47.74300 26.71800 24.24900
C  48.00000 26.83700 25.76100
C  48.25100 24.24100 23.43500
C  46.62800 27.75000 23.79000
C  47.04600 28.66500 22.60800
N  47.88100 27.56900 28.70800
C  48.53900 28.30500 27.74700
C  49.15600 29.38600 28.35600
C  48.85800 29.29000 29.70300
C  48.14300 28.09200 29.87900
C  50.10200 30.34400 27.69000
C  49.04400 29.91500 30.94800
O  49.51000 31.03400 31.22100
C  48.47900 28.92500 32.12000
C  49.59800 28.44300 32.98900
O  50.52500 27.74500 32.61500
O  49.59400 29.02000 34.23100
C  50.55200 28.54600 35.23700
H  45.20800 22.83900 31.58200
H  46.03500 23.18500 25.05800
H  48.95300 28.75300 25.68400
H  47.78500 25.98900 33.61600
H  45.08800 24.83800 33.25700
H  47.45400 23.94600 34.57300
H  47.29700 22.91200 33.11600
H  46.02000 23.02200 34.15200
H  45.07800 26.83400 34.36000
H  45.73900 28.19200 33.37500
H  47.05100 28.91400 34.78500
H  47.47600 27.49500 35.53800
H  43.07700 21.09600 29.29000
H  44.06200 21.32900 30.69500
H  44.45300 19.91100 29.60400
H  44.39100 19.37800 27.60700
H  43.51500 19.22000 26.01500
H  42.84000 20.22100 27.33300
H  46.25400 25.09900 23.68300
H  48.65600 26.99600 23.72300
H  48.24600 23.31200 24.00500
H  49.22400 24.65600 23.17300
H  47.85900 23.91000 22.47400
H  46.39400 28.44900 24.59300
H  45.66400 27.24900 23.70100
H  46.46800 28.57200 21.68800
H  48.08400 28.52200 22.30800
H  46.92200 29.71400 22.87900
H  50.79800 29.89800 26.98000
H  50.63100 30.83300 28.50800
H  49.51400 31.13500 27.22500
H  47.87000 29.57300 32.75000
H  51.18600 27.71300 34.93300
H  49.97800 28.24700 36.11500
H  51.26000 29.31900 35.53600

