158

Mg 55.46200 25.37100 45.57100
C  52.59600 27.10200 44.47100
C  54.08600 22.45600 44.79900
C  58.56000 24.09300 45.74400
C  56.79300 28.58500 46.59900
N  53.66100 24.92700 44.80000
C  52.59800 25.65600 44.37200
C  51.30700 24.80800 44.03700
C  51.71600 23.36100 44.65600
C  53.30800 23.55700 44.86600
C  51.07300 22.90000 45.95600
C  51.05900 24.76000 42.51500
C  49.51500 24.70600 42.23300
H  49.04100 23.59300 41.23700
N  56.19300 23.47000 45.41900
C  55.50400 22.43800 44.91500
C  56.38300 21.33100 44.74400
C  57.62500 21.70300 45.18300
C  57.52700 23.12700 45.57700
C  55.86800 20.00000 44.28600
C  58.87200 20.79600 45.23800
O  58.79600 19.64400 44.82700
C  60.23000 21.22000 45.78400
N  57.37800 26.21500 46.01500
C  58.50500 25.46900 46.04100
C  59.77400 26.25000 46.49600
C  59.18200 27.69900 46.61400
C  57.63900 27.53600 46.41100
C  60.47900 25.69000 47.75200
C  60.01400 28.69200 45.67800
C  59.57500 28.84700 44.19400
N  54.79100 27.44500 45.54800
C  55.46000 28.60900 46.04100
C  54.52200 29.71100 45.87600
C  53.40000 29.19000 45.27500
C  53.63100 27.82500 45.08000
C  54.87200 31.04000 46.42200
C  52.08600 29.49600 44.70400
O  51.43800 30.49400 44.58600
C  51.62300 28.10300 44.05400
C  51.51100 28.32000 42.54400
O  52.37900 28.58200 41.76300
O  50.24200 28.22000 42.20700
C  49.90900 28.43500 40.80000
H  53.65300 21.48500 44.54600
H  59.59200 23.74400 45.67500
H  57.33200 29.48000 46.91600
H  50.40000 25.12000 44.55500
H  51.58100 22.56400 43.92500
H  50.53200 21.95700 45.87300
H  50.31100 23.55000 46.38700
H  51.81000 22.92400 46.75900
H  51.46700 23.82400 42.13400
H  51.55300 25.61200 42.04700
H  49.24800 25.70400 41.88500
H  48.96200 24.54800 43.15900
H  54.93400 19.92000 44.84300
H  56.31500 19.07400 44.64900
H  55.73800 19.98200 43.20400
H  60.86200 21.60500 44.98400
H  60.68900 20.40400 46.34400
H  60.01800 21.94600 46.56900
H  60.49300 26.15200 45.68200
H  59.32000 28.02900 47.64400
H  61.54100 25.93800 47.74200
H  60.47800 24.60500 47.85800
H  59.98900 25.99600 48.67700
H  61.05400 28.37200 45.62300
H  60.05400 29.68400 46.12800
H  59.51800 29.86000 43.79700
H  58.63300 28.30900 44.08700
H  60.29600 28.44500 43.48300
H  55.92300 31.14000 46.69400
H  54.39700 31.26100 47.37800
H  54.53900 31.72400 45.64200
H  50.62000 27.90000 44.42900
H  49.51700 29.44800 40.70600
H  49.11900 27.73900 40.51700
H  50.68800 28.50500 40.04000
Mg 49.81600 45.83200 41.56300
C  46.58400 46.00800 40.34300
C  49.97400 42.54300 40.73100
C  53.10700 45.80500 42.44400
C  49.66200 49.22700 42.11200
N  48.44200 44.48300 40.45100
C  47.13600 44.73800 40.16700
C  46.44900 43.38300 39.75700
C  47.40800 42.29800 40.34000
C  48.70000 43.16400 40.51800
C  47.03900 41.75900 41.72500
C  46.28800 43.24900 38.16800
C  44.83800 43.07500 37.66600
H  44.43400 43.88500 36.41800
N  51.41400 44.35100 41.56100
C  51.27600 43.07600 41.12100
C  52.55600 42.37600 41.14600
C  53.47600 43.35700 41.58700
C  52.65300 44.55400 41.90700
C  52.79500 40.88600 40.65900
C  54.96500 43.15300 41.68100
O  55.46300 42.12400 41.20600
C  55.88700 44.05800 42.33200
N  51.20300 47.31000 42.25700
C  52.52800 47.09300 42.61200
C  53.22600 48.35700 43.06300
C  52.05800 49.46600 42.89500
C  50.90600 48.57800 42.42000
C  53.72200 48.21800 44.55000
C  52.40400 50.61600 41.90000
C  52.02200 52.04500 42.43300
N  48.45000 47.37900 41.34700
C  48.50400 48.71100 41.60400
C  47.19600 49.34700 41.36800
C  46.38600 48.32700 40.86800
C  47.22100 47.18700 40.83300
C  46.73100 50.80400 41.66500
C  45.04600 47.96900 40.38700
O  43.99900 48.62600 40.31100
C  45.12400 46.37600 39.97800
C  44.03300 45.72200 40.75900
O  44.10200 45.14400 41.82800
O  42.84200 45.84700 40.08900
C  41.72100 45.14600 40.71600
H  49.94400 41.45400 40.66300
H  54.15400 45.80100 42.75400
H  49.65700 50.31600 42.19000
H  45.46100 43.40000 40.21700
H  47.51600 41.40700 39.72100
H  46.50600 40.82000 41.57400
H  46.54800 42.55300 42.28800
H  47.94300 41.53200 42.29000
H  46.85500 42.39600 37.79400
H  46.61900 44.16800 37.68400
H  44.08400 43.21800 38.44000
H  44.64600 42.03200 37.41500
H  53.43200 40.92300 39.77500
H  51.79500 40.51900 40.42900
H  53.25500 40.34200 41.48400
H  55.63900 44.23900 43.37800
H  55.78800 45.00300 41.79700
H  56.88200 43.61600 42.36600
H  54.04600 48.47100 42.35400
H  51.81800 49.95100 43.84100
H  54.29200 47.29100 44.62700
H  52.87500 48.15200 45.23200
H  54.38300 49.00800 44.90700
H  52.01900 50.51400 40.88500
H  53.48200 50.66100 41.74600
H  51.89500 52.77900 41.63700
H  52.82600 52.41100 43.07200
H  51.12900 51.97300 43.05300
H  46.13400 50.82100 42.57700
H  46.10000 51.25000 40.89500
H  47.62800 51.41800 41.58900
H  45.04000 46.31500 38.89300
H  41.63300 45.27700 41.79500
H  41.76100 44.08200 40.48400
H  40.79200 45.48200 40.25500

