158

Mg 26.11100 1.39700 29.77700
C  27.93300 0.99100 32.67900
C  23.31600 1.93100 31.69200
C  24.08200 1.66200 26.96900
C  28.74400 0.54000 27.77700
N  25.70900 1.30000 31.89400
C  26.62100 1.22200 32.93200
C  26.00200 1.40500 34.31800
C  24.49600 1.61500 33.93400
C  24.53400 1.72300 32.40700
C  23.53200 0.46800 34.32200
C  26.52700 2.50400 35.18700
C  26.00700 2.60600 36.64500
H  26.95100 2.40100 37.83300
N  23.95200 1.67500 29.39500
C  22.99400 1.91100 30.33600
C  21.70000 2.24900 29.75000
C  21.96900 2.27100 28.29600
C  23.36000 1.86500 28.14000
C  20.46100 2.51700 30.57100
C  21.00000 2.54800 27.21100
O  21.35000 2.61200 26.04600
C  19.48300 2.76800 27.44200
N  26.39900 1.47700 27.62200
C  25.43100 1.44100 26.69000
C  25.88800 1.09900 25.19200
C  27.44300 0.82800 25.46500
C  27.54800 0.98800 27.06300
C  25.07600 0.07500 24.44000
C  28.46600 1.70500 24.71900
C  28.91600 1.13600 23.42700
N  28.01900 0.92400 30.07800
C  28.98500 0.60600 29.21500
C  30.17100 0.22300 29.90200
C  29.81700 0.41300 31.31000
C  28.46300 0.76200 31.34100
C  31.43200 -0.16200 29.34400
C  30.33600 0.46500 32.70300
O  31.51600 0.41000 33.13700
C  29.09700 0.68700 33.68900
C  28.87700 -0.37400 34.68500
O  28.18500 -1.37600 34.52300
O  29.61700 -0.06600 35.80600
C  29.56100 -0.98600 36.97200
H  22.47300 2.14200 32.35300
H  23.57700 1.70100 26.00200
H  29.55300 0.15300 27.15500
H  26.03900 0.44500 34.83300
H  24.15800 2.56400 34.35000
H  23.60000 -0.00600 35.30100
H  23.60500 -0.38400 33.64600
H  22.51100 0.83000 34.19900
H  26.51300 3.46600 34.67300
H  27.58400 2.33700 35.39500
H  25.24400 1.83500 36.75900
H  25.49600 3.56000 36.77600
H  20.55500 2.70900 31.64000
H  19.73800 1.74700 30.30200
H  20.02300 3.47100 30.27700
H  18.97400 2.97800 26.50100
H  19.34700 3.61500 28.11300
H  19.00600 1.82500 27.70600
H  25.76700 2.10300 24.78400
H  27.58600 -0.23300 25.26000
H  25.77100 -0.49200 23.82100
H  24.28200 0.58400 23.89400
H  24.43000 -0.48400 25.11800
H  29.38000 1.73700 25.31200
H  28.17900 2.75600 24.67200
H  28.71000 1.97200 22.75800
H  28.36500 0.20500 23.29400
H  29.96500 0.91100 23.23700
H  32.24500 -0.12000 30.06900
H  31.63200 0.52400 28.52100
H  31.26100 -1.18600 29.01200
H  29.31200 1.65800 34.13500
H  28.72200 -0.63000 37.57100
H  30.42600 -1.02300 37.63500
H  29.30900 -2.01400 36.71400
Mg 45.34200 4.15700 47.36000
C  43.44600 6.96100 46.85400
C  42.59900 2.21100 46.58100
C  47.34900 1.29000 47.26000
C  48.22600 6.13000 47.20200
N  43.28700 4.57300 46.73000
C  42.71600 5.81500 46.65900
C  41.25200 5.74000 46.37900
C  40.95000 4.24200 46.58700
C  42.34400 3.63000 46.59800
C  40.13100 3.93100 47.81000
C  40.97600 6.21700 44.89900
C  40.19000 7.48200 44.76200
H  40.42300 8.28800 43.53800
N  44.94600 2.05800 47.07800
C  43.76000 1.47700 46.77200
C  43.90000 0.03400 46.70500
C  45.25700 -0.22100 46.91100
C  45.97300 1.08100 47.04100
C  42.77200 -0.93900 46.52000
C  45.86000 -1.63700 46.92400
O  45.11600 -2.60300 46.82200
C  47.36700 -1.86100 46.90900
N  47.48500 3.78200 47.21600
C  48.03400 2.55700 47.36000
C  49.52900 2.61600 47.36200
C  49.82400 4.16000 47.35600
C  48.43300 4.74800 47.22900
C  50.14000 1.81800 48.58000
C  50.83800 4.69700 46.17200
C  52.35700 4.88600 46.61900
N  45.77900 6.23800 47.05200
C  47.01100 6.86800 47.12800
C  46.77000 8.27000 47.21400
C  45.35700 8.35800 47.14100
C  44.84200 7.08500 47.07100
C  47.72600 9.37000 47.19400
C  44.21900 9.26500 47.08900
O  44.26200 10.50700 47.13400
C  42.97300 8.44800 46.82200
C  41.98200 8.69400 47.88600
O  41.75800 7.93600 48.80500
O  41.24400 9.78200 47.55700
C  39.98400 9.99600 48.28900
H  41.74300 1.58400 46.32300
H  47.95500 0.39600 47.41700
H  49.15700 6.69800 47.25200
H  40.72700 6.38000 47.08700
H  40.48000 3.73500 45.74500
H  39.33100 4.65700 47.95300
H  40.72000 3.80700 48.71900
H  39.47400 3.07800 47.63800
H  40.55700 5.44100 44.25900
H  41.94500 6.43400 44.44900
H  40.31000 8.14300 45.62000
H  39.16900 7.11300 44.66400
H  43.01200 -1.75300 45.83600
H  41.94400 -0.55700 45.92100
H  42.33800 -1.23200 47.47500
H  47.64900 -2.89000 46.68600
H  47.71100 -1.90400 47.94300
H  48.06900 -1.23900 46.35300
H  49.81000 2.23500 46.38100
H  50.26300 4.44400 48.31300
H  49.37000 1.72400 49.34500
H  50.95600 2.39100 49.02100
H  50.54600 0.87700 48.20800
H  50.33900 5.53900 45.69100
H  50.75600 3.94300 45.38800
H  52.76800 5.81700 46.22900
H  52.89500 4.09000 46.10500
H  52.53300 4.77200 47.68900
H  48.29200 9.35200 46.26300
H  48.47700 9.15200 47.95400
H  47.17700 10.27400 47.45600
H  42.53400 8.64800 45.84500
H  40.14200 10.74300 49.06600
H  39.45600 9.16100 48.75100
H  39.39500 10.51000 47.53000

