158

Mg 2.65600 -1.53100 44.42400
C  6.00200 -0.83300 43.62800
C  1.64900 0.87900 42.33000
C  -0.52500 -2.55100 44.81400
C  3.76200 -4.70000 45.58700
N  3.72700 -0.09100 43.27400
C  5.09000 0.08300 43.06700
C  5.34100 1.12700 42.06400
C  3.90800 1.72700 41.78600
C  3.00900 0.76700 42.55700
C  3.67700 3.22900 42.16900
C  6.06400 0.54700 40.76000
C  6.92100 1.56800 40.10400
H  6.41900 2.07900 38.77000
N  0.83200 -0.83800 43.75200
C  0.61900 0.20400 42.93500
C  -0.73600 0.50000 42.78900
C  -1.47200 -0.59400 43.36700
C  -0.34700 -1.37500 44.06800
C  -1.15000 1.75700 41.98500
C  -2.93600 -0.75300 43.30700
O  -3.66300 0.10400 42.77200
C  -3.62500 -1.98200 43.87000
N  1.77100 -3.43000 45.04400
C  0.42100 -3.48000 45.22000
C  0.04500 -4.91000 45.79400
C  1.41800 -5.48300 46.23200
C  2.38100 -4.50000 45.61700
C  -1.03900 -5.01400 46.83800
C  1.69900 -6.93100 45.87000
C  2.46900 -7.84700 46.87700
N  4.47500 -2.58700 44.68300
C  4.74700 -3.79900 45.17500
C  6.14900 -3.99900 45.27600
C  6.72700 -2.82200 44.72800
C  5.63800 -2.04100 44.29700
C  6.84000 -5.21900 45.85600
C  7.91900 -2.12900 44.42000
O  9.07100 -2.43800 44.58000
C  7.48300 -0.83600 43.64400
C  8.10100 0.31300 44.37900
O  7.88800 0.56700 45.54500
O  8.66700 1.08000 43.40700
C  9.38300 2.34100 43.69500
H  1.43800 1.59700 41.53500
H  -1.54100 -2.94400 44.88900
H  4.09500 -5.70500 45.85600
H  5.97200 1.91300 42.47800
H  3.64200 1.79900 40.73100
H  4.68100 3.64300 42.26600
H  3.23100 3.35900 43.15500
H  3.10400 3.71800 41.38100
H  5.33300 0.12300 40.07100
H  6.65800 -0.33600 40.99000
H  7.90200 1.09800 40.03900
H  7.06100 2.48700 40.67300
H  -2.16300 2.12400 42.14700
H  -1.14600 1.57700 40.91000
H  -0.38500 2.46800 42.29600
H  -4.67800 -1.87100 43.61000
H  -3.38700 -1.85800 44.92600
H  -3.18800 -2.85900 43.39200
H  -0.16900 -5.63600 45.01000
H  1.49000 -5.25400 47.29600
H  -1.63500 -4.12000 46.65900
H  -0.83500 -5.23100 47.88600
H  -1.63800 -5.86800 46.52200
H  2.18600 -6.91100 44.89500
H  0.82000 -7.48400 45.53900
H  3.47400 -8.06300 46.51300
H  1.89800 -8.76700 46.99800
H  2.75900 -7.44600 47.84800
H  6.20200 -6.10200 45.88800
H  7.15400 -4.91700 46.85500
H  7.71000 -5.45200 45.24200
H  7.91800 -0.76900 42.64700
H  8.71800 3.16900 43.44900
H  10.20200 2.41600 42.97900
H  9.82100 2.36700 44.69300
Mg 17.61500 -1.71000 27.01400
C  16.89700 0.45800 29.73000
C  19.64000 -3.62200 29.00700
C  18.73000 -3.44100 24.31600
C  15.66500 0.32300 24.99700
N  18.12400 -1.54200 29.09800
C  17.67200 -0.65400 30.11000
C  18.08900 -1.09900 31.55100
C  19.08500 -2.30000 31.12800
C  18.93600 -2.55900 29.61700
C  20.61300 -2.18500 31.56300
C  16.90000 -1.44600 32.40100
C  17.00900 -1.24600 33.91600
H  18.18800 -0.54900 34.56900
N  18.90700 -3.35300 26.73500
C  19.64700 -4.03600 27.66700
C  20.34600 -5.15800 27.11100
C  20.10600 -5.13700 25.69300
C  19.26400 -3.92900 25.54300
C  21.16800 -6.20000 27.91000
C  20.64200 -6.13300 24.65800
O  20.37400 -6.04100 23.43200
C  21.51300 -7.35100 24.93300
N  17.29900 -1.46000 24.95400
C  17.92000 -2.27000 24.08000
C  17.49500 -1.82200 22.61000
C  16.34700 -0.83500 22.86300
C  16.37300 -0.60300 24.33800
C  18.68100 -1.28000 21.80200
C  14.91300 -1.27200 22.44000
C  14.12500 -2.25000 23.34000
N  16.40700 -0.02900 27.29900
C  15.65700 0.64300 26.37700
C  15.07100 1.76100 27.05900
C  15.53600 1.73400 28.37000
C  16.31300 0.60900 28.43200
C  14.11100 2.73300 26.49700
C  15.39300 2.38900 29.64300
O  14.65000 3.33100 29.96800
C  16.22300 1.51800 30.63000
C  17.21400 2.33700 31.44100
O  18.32800 2.71200 31.15800
O  16.54200 2.77300 32.60700
C  17.24100 3.62600 33.57400
H  20.10100 -4.27100 29.75500
H  19.09500 -3.90400 23.39600
H  15.09700 1.03300 24.39300
H  18.70800 -0.31500 31.98700
H  18.79600 -3.23000 31.61600
H  20.94000 -1.25300 32.02300
H  21.24800 -2.43700 30.71300
H  20.88700 -2.94100 32.29900
H  16.83100 -2.52300 32.24400
H  16.02300 -0.94200 31.99600
H  16.87300 -2.28300 34.22300
H  16.13600 -0.69200 34.26100
H  22.20100 -6.25700 27.56900
H  20.61600 -7.11900 27.71600
H  21.35900 -5.98300 28.96100
H  22.37800 -7.15000 25.56600
H  21.97300 -7.81000 24.05800
H  20.94600 -8.08000 25.51200
H  17.04800 -2.69900 22.14000
H  16.50400 0.12200 22.36600
H  18.37400 -0.82000 20.86200
H  19.35800 -2.12700 21.69200
H  19.20800 -0.45700 22.28400
H  15.06800 -1.81000 21.50400
H  14.37300 -0.37000 22.15300
H  13.31000 -1.68600 23.79300
H  14.71300 -2.69000 24.14600
H  13.67000 -3.00400 22.69700
H  13.65200 2.55400 25.52500
H  14.69300 3.65500 26.48200
H  13.35600 2.99600 27.23900
H  15.53500 1.06400 31.34300
H  16.85600 4.64500 33.55000
H  18.27200 3.78800 33.25900
H  17.16000 3.26100 34.59800

