158

Mg 45.20200 5.80800 48.52800
C  42.75100 8.28300 48.08400
C  42.58600 3.43500 47.75000
C  47.45600 3.22100 48.13900
C  47.71100 8.09800 48.12200
N  43.02900 5.84300 47.75200
C  42.26500 6.95600 47.88100
C  40.71500 6.62100 47.77200
C  40.71700 5.10200 47.48900
C  42.17500 4.77100 47.77900
C  39.64200 4.47700 48.46800
C  39.88400 7.49100 46.72900
C  40.52800 7.73600 45.32700
H  39.79800 7.05000 44.18000
N  45.01200 3.58800 48.18100
C  43.88100 2.86300 47.93400
C  44.23300 1.47000 47.69500
C  45.63200 1.38000 47.84500
C  46.11300 2.80200 48.06100
C  43.19900 0.39900 47.64300
C  46.44000 0.04900 47.78000
O  45.92100 -0.96400 47.37000
C  47.81600 -0.06600 48.27400
N  47.25100 5.68900 48.17000
C  47.92400 4.46600 48.09400
C  49.53400 4.78200 48.01800
C  49.48900 6.32300 48.19100
C  48.12900 6.72600 48.12000
C  50.43700 4.06100 49.03100
C  50.35400 7.11300 47.21500
C  51.14000 8.33200 47.81500
N  45.26300 7.74800 48.32800
C  46.33300 8.65200 48.18500
C  45.78400 9.98300 48.22100
C  44.38600 9.91400 48.19400
C  44.13000 8.49900 48.15300
C  46.70200 11.18700 48.32400
C  43.18600 10.71700 48.30000
O  43.00800 11.91900 48.39700
C  42.05900 9.65500 48.07600
C  41.11300 9.71000 49.22400
O  41.04500 9.01400 50.23900
O  40.25400 10.71400 48.96400
C  39.20400 11.07700 49.96400
H  41.88400 2.62000 47.56400
H  48.24100 2.54100 47.80000
H  48.59400 8.73500 48.03300
H  40.38300 6.92200 48.76500
H  40.41300 4.82700 46.47900
H  40.03500 4.35900 49.47800
H  39.18500 3.53600 48.16300
H  38.76300 5.11100 48.58100
H  39.57000 8.42800 47.18900
H  38.88900 7.05800 46.62600
H  41.46100 7.18200 45.42300
H  40.66200 8.81400 45.23900
H  42.16000 0.70400 47.76800
H  43.37900 -0.24200 48.50600
H  43.40300 -0.24200 46.78600
H  48.18400 -1.09200 48.29200
H  47.86300 0.45500 49.23000
H  48.37600 0.42400 47.47800
H  49.72800 4.53300 46.97500
H  49.89400 6.55000 49.17700
H  50.79600 3.10000 48.66200
H  49.92100 3.92800 49.98100
H  51.35800 4.62900 49.16000
H  49.80400 7.47700 46.34800
H  51.17100 6.43600 46.96300
H  52.21800 8.17700 47.78600
H  50.89100 8.61700 48.83700
H  50.83200 9.07900 47.08300
H  46.03500 11.99200 48.01600
H  47.59200 11.17200 47.69500
H  46.95400 11.24100 49.38300
H  41.45300 9.81600 47.18400
H  39.18400 10.41700 50.83200
H  38.23100 11.07600 49.47300
H  39.43200 12.07500 50.33700
Mg 47.57800 24.54100 28.02400
C  48.34700 26.82100 30.58700
C  46.72400 22.18700 30.61200
C  47.00300 22.17700 25.81500
C  48.97400 26.59800 25.68900
N  47.49300 24.56800 30.31800
C  47.75900 25.61900 31.06300
C  47.50100 25.24100 32.61500
C  47.08800 23.76900 32.57500
C  47.09900 23.47100 31.09000
C  47.98200 22.84300 33.44800
C  46.58400 26.30900 33.25700
C  45.75700 25.81100 34.42000
H  45.55800 26.65900 35.70600
N  46.98000 22.44300 28.15700
C  46.59700 21.70600 29.25200
C  45.96800 20.49800 28.86700
C  46.11200 20.41500 27.48500
C  46.80600 21.65300 27.09500
C  45.39200 19.45800 29.75800
C  45.61600 19.35500 26.48900
O  45.76200 19.42600 25.27700
C  44.89700 18.11700 26.94600
N  48.05100 24.32500 26.06300
C  47.51000 23.39400 25.28400
C  47.60400 23.65300 23.81700
C  48.12000 25.11600 23.83300
C  48.39000 25.35700 25.27400
C  48.60000 22.70700 23.03900
C  47.08000 26.15000 23.35000
C  47.58400 26.98800 22.21100
N  48.42600 26.38200 28.09700
C  48.91700 27.11000 27.05900
C  49.38100 28.39600 27.63500
C  49.17800 28.25900 29.03000
C  48.63000 27.01900 29.25400
C  50.10000 29.54100 26.95300
C  49.45700 29.02200 30.23900
O  49.95200 30.09000 30.46100
C  48.76600 28.12500 31.28300
C  49.74900 28.07800 32.44500
O  50.82600 27.58400 32.40200
O  49.18400 28.57100 33.55100
C  49.91000 28.58600 34.81700
H  46.34500 21.51000 31.38000
H  46.67400 21.49000 25.03200
H  49.13000 27.45200 25.02700
H  48.47000 25.33700 33.10600
H  46.01600 23.72700 32.76400
H  48.74100 23.35900 34.03600
H  48.41900 22.12600 32.75400
H  47.41300 22.13800 34.05300
H  45.87500 26.51700 32.45600
H  47.07800 27.24000 33.53900
H  46.22800 24.87500 34.72000
H  44.75200 25.66400 34.02500
H  44.36600 19.32500 29.41400
H  45.31900 19.82800 30.78000
H  45.94800 18.52700 29.64500
H  44.33000 17.67700 26.12600
H  44.04300 18.52900 27.48400
H  45.55500 17.51000 27.56800
H  46.56800 23.56900 23.48600
H  49.06000 25.19300 23.28700
H  48.04200 21.79900 22.80800
H  49.49600 22.40900 23.58300
H  48.90600 23.30500 22.18100
H  46.78200 26.80600 24.16800
H  46.13000 25.70800 23.05100
H  48.62300 26.81700 21.93000
H  47.41100 28.03200 22.47400
H  47.01700 26.81200 21.29700
H  49.68000 29.65800 25.95300
H  51.17100 29.34400 26.99700
H  50.05100 30.49000 27.48800
H  47.88500 28.67100 31.62100
H  49.92100 29.57700 35.27100
H  50.90100 28.15200 34.95300
H  49.41700 27.91700 35.52200

