158

Mg 24.23900 -7.31200 48.28300
C  26.61700 -4.97500 47.04500
C  21.98500 -6.18000 45.73900
C  22.10600 -9.47300 49.33600
C  26.83500 -8.61900 50.18000
N  24.31600 -5.78900 46.70500
C  25.37600 -5.00400 46.35100
C  24.99600 -3.93900 45.34800
C  23.41500 -4.09700 45.24700
C  23.19500 -5.44800 45.97200
C  22.62000 -2.87600 45.81200
C  25.77300 -4.03900 43.97000
C  26.45400 -2.76300 43.52300
H  25.87300 -2.10800 42.30500
N  22.31500 -7.83800 47.55500
C  21.48900 -7.24600 46.55200
C  20.23300 -7.89700 46.51100
C  20.14700 -8.73600 47.59600
C  21.56200 -8.76900 48.22500
C  19.14900 -7.50300 45.46600
C  18.90700 -9.57600 48.00600
O  17.85500 -9.46400 47.37600
C  18.91400 -10.59700 49.09900
N  24.42300 -8.95300 49.44100
C  23.35300 -9.60200 49.90200
C  23.72500 -10.75400 50.91400
C  25.31400 -10.53300 51.03400
C  25.55200 -9.27500 50.17200
C  22.93100 -10.70300 52.32000
C  26.28000 -11.71200 50.69100
C  26.82100 -11.80300 49.22200
N  26.33200 -6.86100 48.70000
C  27.28200 -7.49000 49.43200
C  28.59700 -6.82700 49.35300
C  28.38200 -5.71200 48.45400
C  27.01800 -5.83700 48.04700
C  29.84900 -7.25700 50.07800
C  28.96200 -4.58000 47.73400
O  30.13700 -4.19600 47.67300
C  27.85200 -4.11100 46.75500
C  27.73600 -2.66500 47.09100
O  27.11000 -2.19400 48.06100
O  28.18400 -1.90600 46.07100
C  27.72700 -0.51900 46.19200
H  21.29200 -5.81500 44.97800
H  21.36500 -10.17100 49.73300
H  27.63400 -9.13400 50.71800
H  25.20700 -2.94000 45.72800
H  23.03500 -4.23000 44.23400
H  23.26600 -2.02300 46.02100
H  22.04400 -3.35000 46.60700
H  21.90700 -2.50500 45.07700
H  24.96000 -4.10900 43.24800
H  26.44800 -4.89400 43.92500
H  27.46900 -3.08500 43.29000
H  26.52000 -1.96200 44.26000
H  18.50400 -6.68100 45.77600
H  18.55000 -8.38400 45.23500
H  19.48000 -7.26900 44.45500
H  17.95400 -11.07100 49.30000
H  19.14100 -10.05400 50.01600
H  19.71200 -11.32900 48.97800
H  23.57600 -11.69500 50.38600
H  25.44000 -10.09100 52.02300
H  22.43200 -9.74600 52.46900
H  23.61700 -10.83600 53.15700
H  22.23600 -11.54200 52.33000
H  25.91900 -12.68100 51.03600
H  27.05200 -11.71100 51.46000
H  26.88800 -12.88100 49.07900
H  27.76800 -11.27000 49.13800
H  25.98300 -11.47200 48.60800
H  30.26000 -8.20800 49.73700
H  29.51100 -7.51300 51.08200
H  30.61300 -6.48100 50.04000
H  28.21600 -4.14000 45.72800
H  28.15400 0.02300 45.34800
H  28.17200 0.03500 47.01900
H  26.64200 -0.56400 46.10400
Mg 17.54900 -2.10100 28.37000
C  16.67800 0.23400 31.02800
C  19.52400 -3.70700 30.66000
C  18.90200 -3.70800 25.82200
C  15.83500 0.05800 26.21400
N  18.15200 -1.60800 30.52400
C  17.57800 -0.78000 31.44400
C  18.01000 -1.08200 32.86300
C  19.07300 -2.20600 32.62200
C  18.96000 -2.53900 31.13500
C  20.50800 -1.79300 32.96200
C  16.77700 -1.43300 33.83700
C  16.84100 -0.75700 35.24600
H  18.21500 -1.07000 35.82200
N  18.82400 -3.64300 28.30500
C  19.59800 -4.17200 29.30900
C  20.33600 -5.35600 28.84600
C  20.17000 -5.34500 27.40100
C  19.27000 -4.19800 27.10700
C  21.16100 -6.24800 29.71600
C  20.80000 -6.24500 26.27400
O  20.65200 -6.04400 25.08900
C  21.78400 -7.44300 26.56400
N  17.37500 -1.86100 26.28500
C  18.08400 -2.61300 25.45500
C  17.72300 -2.29900 23.99900
C  16.59800 -1.18000 24.06400
C  16.50500 -1.04800 25.59900
C  19.03200 -1.97000 23.14500
C  15.32800 -1.34000 23.31400
C  13.95600 -1.64000 24.06700
N  16.46300 -0.22300 28.50400
C  15.81200 0.51700 27.55500
C  15.17900 1.69400 28.10600
C  15.44800 1.62600 29.47400
C  16.25800 0.44500 29.70700
C  14.37200 2.63300 27.30800
C  15.20700 2.32700 30.71200
O  14.55300 3.31700 31.07600
C  16.00700 1.40000 31.82100
C  16.89600 2.40000 32.53100
O  18.08200 2.41900 32.44300
O  16.17400 3.27300 33.31400
C  17.04700 4.11200 34.17900
H  20.03500 -4.30500 31.41700
H  19.16900 -4.21600 24.89300
H  15.34200 0.64200 25.43400
H  18.52800 -0.18200 33.19400
H  18.91700 -3.05700 33.28400
H  20.53100 -0.71800 33.14100
H  21.23200 -2.15400 32.23100
H  20.78100 -2.13000 33.96200
H  16.69200 -2.50700 34.00000
H  15.79800 -1.20600 33.41500
H  16.23300 -1.24200 36.01000
H  16.66500 0.31700 35.31600
H  21.37000 -7.18600 29.20100
H  20.55100 -6.47900 30.58900
H  22.12400 -5.78300 29.92600
H  22.62000 -6.99700 27.10200
H  21.97600 -8.04400 25.67500
H  21.23800 -8.13800 27.20100
H  17.36100 -3.19400 23.49300
H  17.10500 -0.27400 23.73100
H  18.95500 -0.99700 22.65900
H  19.03500 -2.68400 22.32100
H  19.93700 -2.04800 23.74700
H  15.61300 -2.10200 22.58800
H  15.25800 -0.41200 22.74700
H  13.26600 -1.98100 23.29400
H  13.58600 -0.75000 24.57700
H  14.10700 -2.49200 24.72900
H  14.23500 3.61000 27.77100
H  13.42700 2.22200 26.95000
H  14.94300 2.93300 26.43000
H  15.35600 0.81700 32.47300
H  17.45800 3.53000 35.00400
H  16.37000 4.89100 34.53100
H  17.80900 4.61300 33.58200

