158

Mg 0.52400 7.50400 26.93800
C  1.52000 9.40700 29.60900
C  0.62100 4.70300 28.77400
C  0.32400 5.87800 24.07600
C  0.74000 10.59300 24.94800
N  1.01700 7.19100 28.94400
C  1.15900 8.11200 29.93400
C  0.90500 7.45400 31.31000
C  0.87000 5.93700 31.03500
C  0.84200 5.95200 29.47600
C  2.10900 5.04900 31.51800
C  -0.31800 8.09800 32.08200
C  -0.09100 8.32800 33.64200
H  0.93400 7.52300 34.34000
N  0.47300 5.45000 26.45300
C  0.44000 4.44700 27.42600
C  0.14600 3.26400 26.66500
C  0.01000 3.59200 25.27700
C  0.21200 5.06100 25.23900
C  -0.11700 1.94900 27.35000
C  -0.27100 2.72200 24.07900
O  -0.48800 3.13400 22.92500
C  -0.34200 1.30900 24.36500
N  0.55300 8.19500 24.76300
C  0.54200 7.26200 23.79200
C  0.68700 7.90300 22.43900
C  0.34400 9.39900 22.72400
C  0.60100 9.44300 24.24800
C  2.00000 7.59700 21.58200
C  -1.15400 9.81700 22.35100
C  -1.39500 10.41300 20.96500
N  0.90700 9.57000 27.11000
C  0.99200 10.72000 26.26900
C  1.51600 11.85100 26.97800
C  1.68300 11.45400 28.28800
C  1.40500 9.98400 28.28800
C  1.76100 13.21100 26.35300
C  2.08600 11.82400 29.59900
O  2.44900 12.87900 30.01400
C  1.65000 10.60600 30.50500
C  2.74000 10.53100 31.53500
O  3.81000 9.94100 31.41200
O  2.32400 11.15300 32.64200
C  3.34000 11.02800 33.73000
H  0.62900 3.80000 29.38800
H  0.37900 5.29500 23.15400
H  0.78300 11.49700 24.33700
H  1.83500 7.58800 31.86200
H  -0.07000 5.47900 31.34400
H  2.71900 5.35000 32.37000
H  2.77200 4.98800 30.65400
H  1.61100 4.15900 31.90200
H  -1.24000 7.55500 31.87300
H  -0.38300 9.10200 31.66300
H  -1.07900 8.43100 34.09000
H  0.29500 9.34400 33.73100
H  -0.17300 2.00100 28.43700
H  0.73400 1.29500 27.16500
H  -1.05400 1.51900 26.99500
H  -1.32100 1.11800 24.80500
H  0.56900 1.08000 24.91700
H  -0.17800 0.81500 23.40800
H  -0.17300 7.52000 21.89000
H  1.11000 10.03500 22.28000
H  2.88600 7.42900 22.19400
H  2.32700 8.47200 21.02100
H  1.86900 6.73300 20.93000
H  -1.66300 10.41600 23.10700
H  -1.69900 8.87900 22.44800
H  -0.58900 10.23800 20.25200
H  -1.57200 11.47300 21.14700
H  -2.30200 10.03400 20.49300
H  2.54000 13.72700 26.91400
H  0.80500 13.73200 26.39000
H  2.03500 13.05000 25.31000
H  0.71100 10.84000 31.00700
H  4.30700 11.49400 33.53700
H  3.44300 9.96800 33.96000
H  2.99800 11.58800 34.60100
Mg -2.02200 33.81600 27.24000
C  -3.56200 32.00500 29.75800
C  -0.51900 35.74200 29.66900
C  -0.76400 35.92300 24.86300
C  -3.56500 32.01700 24.76400
N  -2.11400 33.82300 29.46500
C  -2.74200 32.96200 30.32700
C  -2.61200 33.31400 31.74800
C  -1.77900 34.67600 31.63600
C  -1.34700 34.73600 30.15200
C  -2.53400 35.90600 32.16100
C  -1.98800 32.18400 32.61400
C  -2.71000 31.84900 33.93200
H  -1.92500 32.14200 35.18700
N  -0.68200 35.49700 27.30100
C  -0.11400 36.10400 28.39600
C  0.70200 37.24400 27.95300
C  0.68000 37.26500 26.54400
C  -0.32500 36.22100 26.18800
C  1.47400 38.18600 28.94400
C  1.42200 38.10200 25.52700
O  1.22200 38.13900 24.28200
C  2.47100 39.20300 26.08500
N  -2.21300 33.94500 25.17300
C  -1.57700 34.90700 24.42000
C  -1.79800 34.68300 22.90600
C  -2.52100 33.30600 22.89800
C  -2.78300 33.06500 24.37600
C  -2.73600 35.82100 22.25600
C  -1.71000 32.14900 22.18800
C  -2.51500 30.92400 21.69800
N  -3.43800 32.40100 27.22400
C  -3.91700 31.70800 26.09800
C  -4.85600 30.71600 26.65500
C  -4.72100 30.72600 28.10400
C  -3.76600 31.76700 28.36800
C  -5.72400 29.80800 25.86100
C  -5.04800 30.09400 29.32600
O  -5.80500 29.12500 29.50200
C  -4.28300 30.84300 30.45300
C  -5.31200 31.31500 31.38900
O  -6.04700 32.29300 31.28500
O  -5.44800 30.38300 32.37400
C  -6.25100 30.81100 33.44700
H  -0.19600 36.50000 30.38700
H  -0.34600 36.57400 24.09300
H  -3.96000 31.30600 24.03500
H  -3.54400 33.58300 32.24600
H  -0.94200 34.60700 32.33000
H  -2.52000 36.75600 31.47900
H  -1.95600 36.19300 33.03900
H  -3.56700 35.66800 32.41600
H  -1.04100 32.66100 32.86800
H  -1.75100 31.24400 32.11600
H  -2.93900 30.78500 33.86000
H  -3.60600 32.46900 33.93100
H  2.52200 37.96200 28.74700
H  1.24800 37.87700 29.96500
H  1.22200 39.24000 28.83000
H  3.19400 38.61600 26.65200
H  2.01600 40.03000 26.63000
H  2.95000 39.59200 25.18700
H  -0.80800 34.71500 22.45100
H  -3.44800 33.36500 22.32800
H  -2.89500 36.49100 23.10200
H  -3.69600 35.53900 21.82300
H  -2.23200 36.31500 21.42600
H  -0.97600 31.82300 22.92600
H  -1.13500 32.53100 21.34400
H  -3.56900 31.13600 21.51600
H  -2.50100 30.12700 22.44200
H  -2.16500 30.48300 20.76400
H  -5.10900 28.95900 25.56300
H  -5.88800 30.29600 24.90000
H  -6.61200 29.45900 26.38900
H  -3.62100 30.16200 30.98700
H  -6.19400 30.04700 34.22200
H  -7.31500 30.83100 33.21200
H  -5.89700 31.79300 33.76100

