158

Mg 48.51900 35.05100 28.04400
C  47.04900 33.20400 30.55400
C  48.34900 37.79200 30.04400
C  49.89800 36.65500 25.52000
C  47.89100 32.26500 25.83300
N  47.68100 35.41700 30.12500
C  47.31400 34.48900 30.93900
C  47.10400 35.10200 32.38200
C  47.14400 36.66600 31.98000
C  47.78000 36.61400 30.60300
C  45.80600 37.50500 32.06200
C  48.23900 34.60800 33.37900
C  48.70500 35.53700 34.55700
H  47.73900 36.56400 35.14300
N  49.08700 36.99300 27.85400
C  48.92000 37.98800 28.76800
C  49.64800 39.13300 28.23800
C  50.07100 38.85600 26.88500
C  49.66000 37.45500 26.67500
C  50.00200 40.38300 29.05800
C  50.83400 39.75300 25.85900
O  51.39900 39.30200 24.87600
C  51.00500 41.19300 26.10700
N  48.80400 34.61100 25.98000
C  49.51500 35.40300 25.16100
C  49.91100 34.79000 23.87400
C  49.25700 33.32000 23.98200
C  48.54500 33.40400 25.32400
C  49.39400 35.58300 22.61200
C  50.34900 32.27400 24.06100
C  50.00300 30.87200 23.54400
N  47.68800 32.97900 28.11100
C  47.46300 32.04000 27.14900
C  46.82500 30.87000 27.77800
C  46.59700 31.31500 29.10900
C  47.12300 32.61300 29.25000
C  46.24200 29.68700 27.06000
C  46.05500 30.92900 30.42600
O  45.45400 29.91800 30.74700
C  46.48200 32.06100 31.37600
C  47.43000 31.62700 32.48000
O  48.65500 31.58900 32.37900
O  46.79600 31.27000 33.59700
C  47.55600 31.13900 34.85500
H  48.42500 38.63200 30.73700
H  50.45300 37.16200 24.72800
H  47.74300 31.43500 25.13900
H  46.14700 34.73100 32.74800
H  47.78700 37.26600 32.62400
H  45.78800 38.01100 33.02800
H  44.95100 36.83000 32.08500
H  45.91400 38.26700 31.29100
H  49.11000 34.26200 32.82200
H  47.84700 33.76900 33.95200
H  49.56700 36.06900 34.15400
H  48.96700 34.85000 35.36200
H  49.79000 41.28200 28.47900
H  50.99500 40.31300 29.50200
H  49.36000 40.42700 29.93800
H  51.54100 41.26500 27.05400
H  50.02800 41.67500 26.14900
H  51.59800 41.59200 25.28400
H  50.99400 34.72300 23.77700
H  48.64400 33.06500 23.11700
H  48.70900 36.37500 22.91400
H  48.90700 34.95400 21.86700
H  50.19200 36.03700 22.02500
H  50.70300 32.07300 25.07300
H  51.15700 32.69100 23.46100
H  50.84300 30.40700 23.02700
H  49.07000 30.87300 22.98100
H  49.76400 30.11800 24.29400
H  47.09700 29.08500 26.75000
H  45.77400 30.10100 26.16800
H  45.47100 29.13300 27.59600
H  45.59700 32.42700 31.89600
H  48.45700 31.74800 34.93900
H  47.94700 30.12200 34.89700
H  46.81100 31.35700 35.62000
Mg -2.76100 34.81000 26.57800
C  -4.22400 33.00800 28.98300
C  -1.71900 37.04800 28.84900
C  -1.27600 36.65800 24.12800
C  -3.90600 32.57800 24.13500
N  -3.05400 35.04700 28.78900
C  -3.62400 34.12000 29.56900
C  -3.39900 34.47600 31.01800
C  -2.89000 35.98400 30.96200
C  -2.56100 36.08100 29.44500
C  -3.92500 37.04300 31.45400
C  -2.40000 33.58700 31.71800
C  -2.94200 32.55500 32.76000
H  -2.15900 32.41200 34.07500
N  -1.59800 36.61900 26.49200
C  -1.26600 37.30600 27.56200
C  -0.40600 38.43300 27.20700
C  -0.43200 38.45200 25.80600
C  -1.10700 37.22400 25.38300
C  0.27000 39.34100 28.20300
C  0.32000 39.45200 24.93700
O  0.36000 39.31400 23.70700
C  0.91400 40.70500 25.53800
N  -2.57300 34.66700 24.36900
C  -1.97600 35.54000 23.55700
C  -1.80500 34.99500 22.15600
C  -2.52200 33.62100 22.31400
C  -3.11100 33.67800 23.68300
C  -2.16300 35.85400 20.85100
C  -1.70000 32.35100 21.91800
C  -0.33000 32.23900 22.67900
N  -3.96300 33.22200 26.49700
C  -4.38500 32.39300 25.44500
C  -5.20800 31.36400 25.94500
C  -5.16900 31.54500 27.27300
C  -4.41600 32.72700 27.61100
C  -5.96400 30.26700 25.21700
C  -5.61700 31.08100 28.57000
O  -6.39500 30.20100 28.74400
C  -4.94200 31.90600 29.70200
C  -5.93700 32.36200 30.68800
O  -6.62600 33.33100 30.55500
O  -6.02900 31.53300 31.78300
C  -6.89900 31.79100 32.92900
H  -1.48000 37.77900 29.62500
H  -0.75000 37.22100 23.35400
H  -4.10400 31.85500 23.34100
H  -4.37700 34.57300 31.49000
H  -1.93800 36.10200 31.47900
H  -3.74200 37.25600 32.50700
H  -4.88600 36.53000 31.43400
H  -3.96800 37.92700 30.81700
H  -1.66600 34.18100 32.26100
H  -1.77500 33.04400 31.01000
H  -3.12000 31.57400 32.31900
H  -3.95600 32.85900 33.01900
H  1.27600 39.53900 27.83100
H  0.26100 38.95800 29.22300
H  -0.21500 40.31600 28.23400
H  0.33700 41.17500 26.33400
H  0.98400 41.42900 24.72600
H  1.90700 40.49000 25.93200
H  -0.73900 34.78700 22.06200
H  -3.39300 33.56400 21.66000
H  -2.61700 36.80400 21.13200
H  -2.88500 35.25200 20.30000
H  -1.30000 36.05300 20.21500
H  -1.50600 32.35100 20.84600
H  -2.20200 31.41300 22.15600
H  -0.29500 32.97400 23.48400
H  0.39600 32.42100 21.88700
H  -0.28900 31.28500 23.20700
H  -5.38000 29.35100 25.12600
H  -6.18200 30.66400 24.22600
H  -6.97100 30.21000 25.63000
H  -4.24800 31.31300 30.29800
H  -6.37300 32.50900 33.55800
H  -7.17900 30.85100 33.40400
H  -7.82600 32.18000 32.50700

