158

Mg 47.78700 15.63000 27.62800
C  46.08500 15.79400 30.67200
C  50.17900 17.64300 28.89700
C  49.12300 15.79300 24.54400
C  44.92900 14.02300 26.33900
N  48.11800 16.57500 29.61800
C  47.33500 16.46600 30.71300
C  47.99500 17.06300 31.88600
C  49.26600 17.80700 31.30100
C  49.12600 17.39500 29.79600
C  49.33200 19.31200 31.63100
C  48.38600 15.98800 33.01800
C  47.94700 16.38800 34.45800
H  47.76600 17.86200 34.88600
N  49.47100 16.54600 26.81500
C  50.36900 17.32100 27.53700
C  51.48300 17.84000 26.66000
C  51.19600 17.23000 25.39800
C  49.91600 16.52300 25.50900
C  52.62700 18.62000 27.13700
C  52.03000 17.19200 24.14200
O  51.74400 16.56000 23.10800
C  53.31000 17.89900 24.10200
N  47.23300 14.86000 25.74100
C  47.93200 15.12400 24.62400
C  47.14600 14.70100 23.37800
C  45.82900 14.11700 23.98700
C  45.99100 14.37300 25.45800
C  46.99000 15.91200 22.39400
C  45.46300 12.64000 23.60500
C  46.17100 11.59100 24.40700
N  45.86800 14.92100 28.42000
C  44.84200 14.30300 27.69000
C  43.71200 14.00100 28.63600
C  44.17800 14.52300 29.87700
C  45.50400 15.10000 29.68000
C  42.48700 13.22900 28.30900
C  43.91600 14.79300 31.32100
O  42.92500 14.52700 31.99000
C  45.13900 15.46900 31.89300
C  44.65100 16.74100 32.58000
O  44.58600 17.90600 32.25600
O  44.15700 16.30200 33.77300
C  43.40000 17.21800 34.63500
H  50.95500 18.26500 29.34800
H  49.49500 16.03500 23.54600
H  43.99900 13.65100 25.90500
H  47.33700 17.81200 32.32600
H  50.18300 17.27000 31.54100
H  49.23600 19.86500 30.69600
H  50.28700 19.67000 32.01700
H  48.47300 19.67600 32.19400
H  49.47100 15.93000 32.93500
H  48.05500 14.97800 32.77700
H  48.72800 15.93000 35.06500
H  47.09600 15.76800 34.73800
H  52.89100 19.56400 26.66000
H  53.50700 17.98000 27.08100
H  52.42700 18.92500 28.16400
H  53.06900 18.94000 24.31400
H  53.87700 17.73100 23.18700
H  53.92700 17.49000 24.90200
H  47.73100 13.84800 23.03300
H  45.02300 14.79900 23.71800
H  47.57200 15.65200 21.51000
H  47.51100 16.76100 22.83600
H  45.96400 16.04900 22.05400
H  45.78300 12.64900 22.56300
H  44.38700 12.47600 23.54900
H  46.73100 11.96900 25.26200
H  46.65500 10.95900 23.66300
H  45.44700 10.89600 24.83200
H  42.16700 13.36200 27.27600
H  41.60000 13.52200 28.87000
H  42.47500 12.15600 28.50400
H  45.63600 14.87900 32.66200
H  42.66100 17.82100 34.10800
H  44.11000 17.78700 35.23500
H  42.77100 16.58200 35.25700
Mg -0.30000 42.89000 26.54800
C  1.92600 43.12600 29.26100
C  -2.80900 42.66600 28.76200
C  -2.28500 42.19900 23.95100
C  2.47600 43.19300 24.30200
N  -0.40800 42.62900 28.81100
C  0.61700 42.90900 29.65200
C  0.04900 42.87500 31.12900
C  -1.48100 42.47900 30.90700
C  -1.59600 42.56900 29.41100
C  -1.86700 41.02700 31.47800
C  0.36000 44.23100 31.90100
C  1.00700 44.39700 33.33400
H  0.71400 43.24300 34.36200
N  -2.30500 42.59200 26.33700
C  -3.12700 42.61800 27.36700
C  -4.47800 42.51400 26.85400
C  -4.39500 42.16500 25.46000
C  -2.94000 42.33900 25.15100
C  -5.77100 42.83800 27.72900
C  -5.46800 41.73700 24.40700
O  -5.15600 41.46100 23.25200
C  -6.86700 41.73000 24.86800
N  0.06800 42.78900 24.35300
C  -0.93700 42.38900 23.56200
C  -0.37700 42.42400 22.06800
C  1.10400 42.88000 22.16600
C  1.22300 42.98000 23.68600
C  -0.49100 40.94600 21.58200
C  1.28900 44.19700 21.41500
C  1.97000 44.12900 20.00100
N  1.74100 43.04300 26.67500
C  2.75400 43.21200 25.74200
C  4.01500 43.41200 26.46000
C  3.73100 43.26700 27.81500
C  2.37400 43.12700 27.90500
C  5.26400 43.83700 25.72900
C  4.26800 43.43400 29.13300
O  5.44200 43.61100 29.45600
C  3.10000 43.36200 30.15300
C  3.44200 42.17900 30.97000
O  3.68600 41.02400 30.54100
O  3.71200 42.62700 32.25000
C  4.28500 41.50300 33.11100
H  -3.69500 42.57700 29.39400
H  -2.88900 42.04400 23.05400
H  3.29900 43.41100 23.61700
H  0.58900 42.04700 31.58800
H  -2.16500 43.27600 31.19700
H  -0.94900 40.53000 31.79100
H  -2.38900 40.41800 30.73900
H  -2.54300 41.05000 32.33300
H  -0.56600 44.80600 31.91500
H  1.04400 44.84900 31.32000
H  0.60300 45.31100 33.77000
H  2.08100 44.56600 33.25600
H  -6.40800 43.46900 27.10900
H  -5.68500 43.43600 28.63600
H  -6.30500 41.92400 27.98700
H  -6.85500 41.55800 25.94400
H  -7.52900 41.03800 24.34700
H  -7.36600 42.68800 24.73000
H  -1.04900 42.99900 21.43100
H  1.83200 42.12300 21.87300
H  0.23200 40.44100 22.22300
H  -0.23300 40.74100 20.54300
H  -1.41700 40.38900 21.72000
H  1.96200 44.82800 21.99500
H  0.36900 44.75300 21.23600
H  1.16900 44.39000 19.31000
H  2.35100 43.14000 19.74700
H  2.75800 44.86600 19.84500
H  5.63000 42.96200 25.19200
H  6.02300 44.27300 26.37900
H  4.84000 44.55400 25.02500
H  2.96700 44.36700 30.55300
H  4.58400 40.55100 32.67200
H  3.50200 41.23800 33.82100
H  5.08600 41.96300 33.69000

