158

Mg 0.84800 8.41700 26.59300
C  1.45200 10.32700 29.45300
C  1.09100 5.52200 28.50400
C  0.72900 6.50700 23.80900
C  0.93500 11.29300 24.74400
N  1.30200 7.96800 28.79200
C  1.30000 8.96800 29.74800
C  1.22300 8.32000 31.15300
C  1.22300 6.79400 30.80000
C  1.31800 6.66800 29.26000
C  2.22400 6.01200 31.68800
C  -0.11400 8.64400 31.91200
C  -0.01500 8.95500 33.39500
H  1.12800 8.37500 34.19200
N  0.96400 6.28100 26.17300
C  1.05700 5.29900 27.09100
C  1.04200 3.97700 26.43900
C  0.81800 4.16500 25.02700
C  0.88500 5.69700 24.90800
C  1.16800 2.70000 27.32400
C  0.54900 3.09400 23.94800
O  0.56700 3.41900 22.75900
C  0.67600 1.58300 24.32800
N  0.80600 8.82100 24.61400
C  0.79800 7.89200 23.61700
C  0.67400 8.54200 22.22300
C  0.62400 10.10400 22.58200
C  0.69900 10.12200 24.07500
C  1.96200 8.11500 21.41700
C  -0.58300 10.83800 22.00700
C  -1.16900 10.42600 20.54600
N  1.17400 10.44900 26.92100
C  1.22200 11.51500 26.07500
C  1.59300 12.69400 26.79600
C  1.73100 12.24100 28.09100
C  1.40100 10.92200 28.17500
C  1.64800 14.07300 26.34600
C  2.10000 12.67900 29.44500
O  2.44800 13.78500 29.88700
C  1.64500 11.50700 30.35000
C  2.78600 11.27700 31.27100
O  3.94900 11.12600 30.95400
O  2.33400 11.46600 32.58200
C  3.27900 11.81500 33.59100
H  0.80700 4.67000 29.12500
H  0.68600 5.93300 22.88100
H  0.94700 12.17000 24.09500
H  2.17500 8.52300 31.64100
H  0.25600 6.33200 30.99700
H  3.04200 6.70100 31.90100
H  2.71700 5.23500 31.10400
H  1.75700 5.59800 32.58200
H  -0.89900 7.92200 31.68800
H  -0.54300 9.50600 31.40100
H  -0.95300 8.63300 33.84700
H  0.13000 10.02900 33.50900
H  1.20900 2.77500 28.41100
H  2.13000 2.27600 27.03400
H  0.32900 2.01100 27.22600
H  0.72600 0.94600 23.44500
H  -0.19700 1.49800 24.97500
H  1.60700 1.38000 24.85700
H  -0.24500 8.15700 21.78200
H  1.55800 10.50300 22.18700
H  2.19500 8.97700 20.79200
H  1.74100 7.31300 20.71400
H  2.78000 7.90900 22.10800
H  -0.30400 11.88600 21.90500
H  -1.49300 10.70600 22.59200
H  -2.12200 9.91400 20.67700
H  -0.47400 9.66700 20.18400
H  -1.22600 11.27700 19.86700
H  2.00200 14.13500 25.31700
H  2.36000 14.64800 26.93800
H  0.66000 14.52500 26.43600
H  0.69700 11.72000 30.84500
H  3.90600 12.70100 33.49900
H  4.07000 11.08300 33.75600
H  2.78000 12.00400 34.54200
Mg 24.48900 -4.62400 45.70600
C  26.62700 -2.24100 44.46200
C  22.00900 -3.43100 43.67800
C  22.73100 -7.31200 46.55100
C  27.20300 -5.88400 47.67100
N  24.31000 -2.94200 44.33800
C  25.34000 -2.15300 43.87600
C  24.88100 -1.31100 42.65400
C  23.29600 -1.43700 42.76800
C  23.15600 -2.69500 43.65200
C  22.62400 -0.19600 43.41100
C  25.39900 -1.81700 41.31100
C  26.15500 -0.85500 40.34300
H  25.67500 -0.82900 38.84600
N  22.56800 -5.26100 45.21400
C  21.74100 -4.65700 44.35100
C  20.60800 -5.50000 44.10300
C  20.70300 -6.59200 44.97200
C  21.98500 -6.39200 45.66700
C  19.49900 -5.11700 43.06200
C  19.64900 -7.67800 45.15000
O  18.61000 -7.71100 44.49800
C  19.80000 -8.70800 46.26000
N  24.99400 -6.53800 46.82400
C  24.00600 -7.39000 47.10000
C  24.53500 -8.49200 48.01500
C  25.73200 -7.78200 48.72000
C  26.07400 -6.68800 47.68200
C  23.61500 -9.14500 49.04800
C  26.92600 -8.69500 49.05300
C  27.21700 -8.82900 50.55400
N  26.46500 -4.13800 46.13300
C  27.45600 -4.71400 46.89600
C  28.61000 -3.80800 46.84900
C  28.35300 -2.83300 45.90900
C  27.04500 -3.18900 45.48500
C  29.93700 -3.91800 47.63400
C  28.90300 -1.62800 45.22300
O  29.93700 -0.95400 45.35400
C  27.84200 -1.40000 44.06100
C  27.58300 -0.00400 44.00500
O  26.99100 0.66600 44.86000
O  28.17300 0.50700 42.87100
C  28.15600 1.99100 42.75900
H  21.28600 -2.94700 43.01800
H  22.22000 -8.23900 46.81600
H  28.04800 -6.16100 48.30400
H  25.29600 -0.30800 42.75300
H  22.73400 -1.51400 41.83700
H  23.28900 0.66800 43.40800
H  22.31700 -0.44800 44.42600
H  21.71900 0.12000 42.89300
H  24.56800 -2.21000 40.72500
H  26.04900 -2.63900 41.61300
H  27.20000 -1.16800 40.34300
H  26.00700 0.13900 40.76400
H  19.05800 -5.99100 42.58300
H  20.01700 -4.78000 42.16400
H  18.82400 -4.28500 43.26500
H  20.15800 -8.22300 47.16800
H  20.58200 -9.44500 46.07500
H  18.88900 -9.29600 46.37300
H  24.88100 -9.31700 47.39200
H  25.50200 -7.24800 49.64200
H  23.93900 -9.03500 50.08300
H  23.44700 -10.21000 48.89300
H  22.64400 -8.66100 48.94000
H  27.81400 -8.62000 48.42500
H  26.57500 -9.68100 48.74900
H  28.26700 -9.10800 50.64500
H  26.48100 -9.50900 50.98200
H  27.25300 -7.87700 51.08300
H  29.82700 -4.24800 48.66700
H  30.40600 -2.93600 47.69400
H  30.58500 -4.54600 47.02200
H  28.26700 -1.81200 43.14500
H  28.57800 2.60900 43.55200
H  27.10500 2.25900 42.64500
H  28.62900 2.33400 41.84000

