158

Mg 17.35000 -1.57700 27.63400
C  16.19200 0.62800 30.01700
C  19.18700 -3.30600 29.93800
C  18.82300 -3.27500 25.14700
C  16.16500 0.82000 25.24400
N  17.51100 -1.42900 29.79300
C  16.94100 -0.44800 30.55900
C  17.29200 -0.70100 32.01200
C  18.46100 -1.74700 31.90200
C  18.35600 -2.27600 30.48200
C  19.91800 -1.35400 32.50900
C  16.03300 -1.08800 32.85800
C  15.89800 -0.28300 34.21000
H  17.15600 0.17400 34.84400
N  18.63400 -3.27200 27.56600
C  19.31900 -3.79400 28.64400
C  20.11600 -4.92400 28.12700
C  19.99200 -4.95200 26.74200
C  19.13300 -3.80300 26.42000
C  20.87300 -5.84700 29.16500
C  20.65200 -5.91300 25.74500
O  20.50900 -5.83900 24.53500
C  21.59800 -6.96100 26.27300
N  17.37800 -1.35200 25.55800
C  18.02100 -2.24000 24.67200
C  18.00300 -1.80600 23.22000
C  17.04800 -0.53700 23.30300
C  16.82900 -0.33600 24.80200
C  19.37000 -1.48600 22.63200
C  15.70500 -0.72000 22.54100
C  15.23800 0.51500 21.81600
N  16.33500 0.36000 27.60300
C  15.91300 1.14100 26.51400
C  15.14700 2.21900 26.99800
C  15.17000 2.03200 28.38000
C  15.92700 0.92800 28.67200
C  14.51600 3.34800 26.12900
C  14.72600 2.57600 29.66400
O  13.98800 3.53600 29.91200
C  15.51000 1.78100 30.72300
C  16.35000 2.76600 31.51200
O  17.56300 2.93100 31.45800
O  15.55600 3.36400 32.50900
C  16.18400 4.36200 33.45700
H  19.91900 -3.69400 30.64900
H  19.40400 -3.72200 24.33900
H  15.76600 1.50400 24.49100
H  17.73600 0.23000 32.36300
H  18.19000 -2.58300 32.54700
H  20.58100 -1.22600 31.65300
H  20.22300 -2.07800 33.26400
H  19.75000 -0.35700 32.91600
H  16.02400 -2.09400 33.27600
H  15.14400 -0.83800 32.28000
H  15.31200 -0.80600 34.96500
H  15.37400 0.61900 33.89300
H  21.94600 -5.84900 28.97200
H  20.45700 -6.82800 29.39200
H  20.77200 -5.39500 30.15200
H  22.35800 -6.55000 26.93800
H  22.03800 -7.41500 25.38500
H  20.97900 -7.67900 26.81100
H  17.49700 -2.52000 22.57100
H  17.51600 0.36900 22.91900
H  19.91600 -1.07100 23.47900
H  19.25800 -0.87500 21.73700
H  19.90900 -2.38200 22.32300
H  14.90600 -0.99500 23.22900
H  15.89600 -1.45600 21.76000
H  14.97000 0.21400 20.80400
H  16.01000 1.28500 21.80100
H  14.35200 0.94500 22.28300
H  14.16900 2.99500 25.15700
H  15.11800 4.24400 25.97900
H  13.55400 3.53100 26.60700
H  14.82100 1.23200 31.36600
H  15.70700 5.33100 33.60700
H  17.21600 4.58600 33.18400
H  16.26500 3.79400 34.38300
Mg 34.71400 3.46100 29.13200
C  32.54100 4.13700 31.72400
C  37.27700 3.02500 31.48100
C  36.76200 2.62000 26.71000
C  32.14200 3.82300 26.92500
N  34.84400 3.56000 31.41000
C  33.80400 3.87800 32.22200
C  34.15400 3.75800 33.74100
C  35.80800 3.57800 33.61200
C  36.04300 3.37500 32.09100
C  36.73700 4.78000 34.11300
C  33.42200 2.56200 34.35000
C  32.97200 2.81300 35.78100
H  34.01400 3.47300 36.73300
N  36.75200 2.88800 29.07200
C  37.63700 2.73600 30.12100
C  38.96100 2.42500 29.62700
C  38.79000 2.29500 28.19300
C  37.38800 2.56300 27.89000
C  40.15600 2.21100 30.46500
C  39.86200 1.84800 27.18400
O  39.65000 1.85100 25.96900
C  41.27900 1.43800 27.64700
N  34.47800 3.10500 27.12200
C  35.52300 2.90900 26.32600
C  35.12000 2.96200 24.86000
C  33.55700 3.21000 24.86300
C  33.34600 3.34200 26.41600
C  35.91500 4.00000 23.93300
C  32.83600 2.00300 24.35300
C  32.84300 1.64800 22.82800
N  32.79500 4.00600 29.24700
C  31.86300 4.12700 28.25800
C  30.63400 4.69300 28.77700
C  30.86500 4.73700 30.11800
C  32.19200 4.23500 30.39000
C  29.44800 5.05100 28.00500
C  30.31800 5.10400 31.38900
O  29.25900 5.70200 31.67200
C  31.32000 4.57300 32.48500
C  31.65800 5.72800 33.31300
O  32.36900 6.68600 33.04800
O  31.06100 5.56200 34.54000
C  31.59800 6.48200 35.52900
H  38.03400 2.89200 32.25700
H  37.45100 2.60100 25.86300
H  31.32300 3.92800 26.21000
H  33.90100 4.67000 34.28200
H  36.20100 2.69500 34.11600
H  36.01500 5.59600 34.14800
H  37.55100 5.03700 33.43600
H  37.10400 4.48600 35.09600
H  34.09300 1.70600 34.27500
H  32.50400 2.31800 33.81400
H  32.60800 1.82900 36.07600
H  32.06000 3.40000 35.89100
H  40.59700 1.25300 30.19000
H  39.87600 2.11700 31.51400
H  40.81600 3.07900 30.48700
H  41.89100 2.09500 28.26600
H  41.87200 1.39500 26.73300
H  41.25500 0.48400 28.17300
H  35.39000 2.03000 24.36500
H  33.30100 4.14300 24.36100
H  36.43600 4.61700 24.66400
H  35.21400 4.46000 23.23700
H  36.67200 3.50100 23.32900
H  31.77700 2.12200 24.58400
H  33.16800 1.11000 24.88300
H  33.49800 2.15200 22.11700
H  31.79000 1.67400 22.55000
H  33.28300 0.65000 22.84000
H  29.19900 4.25800 27.30000
H  29.58100 6.05000 27.58900
H  28.61400 5.14100 28.70100
H  31.01400 3.74600 33.12500
H  30.88600 7.30500 35.58200
H  32.66400 6.69900 35.45900
H  31.44500 5.86300 36.41200

