158

Mg -1.84200 18.23100 27.02100
C  -2.34200 16.08900 29.66100
C  -2.83900 20.88900 28.82300
C  -1.62600 20.07000 24.17600
C  -1.71200 15.30900 25.01700
N  -2.35400 18.45900 29.01100
C  -2.37900 17.46500 29.97700
C  -2.69400 18.03300 31.36600
C  -3.16300 19.49600 31.07800
C  -2.80100 19.65900 29.56600
C  -4.65000 19.95300 31.49400
C  -1.51400 17.85400 32.34300
C  -1.87800 17.37400 33.74400
H  -0.78400 17.39400 34.81900
N  -2.09000 20.22500 26.56300
C  -2.43000 21.20700 27.44600
C  -2.32000 22.52500 26.79700
C  -1.83300 22.24900 25.46800
C  -1.82500 20.81400 25.38200
C  -2.40900 23.85800 27.48700
C  -1.36400 23.22800 24.37300
O  -1.00000 22.89400 23.29900
C  -1.30900 24.67000 24.73700
N  -1.69400 17.76200 24.95200
C  -1.58900 18.73200 23.97400
C  -1.36300 18.06300 22.53800
C  -1.06600 16.56200 22.95900
C  -1.58500 16.49900 24.37300
C  -2.46300 18.34700 21.44300
C  0.46400 16.03200 22.83400
C  1.59900 16.95700 23.50600
N  -1.97100 16.12200 27.24200
C  -1.84500 15.09500 26.35200
C  -1.80700 13.79700 27.06800
C  -2.04500 14.15300 28.39800
C  -2.15400 15.54300 28.40600
C  -1.58000 12.40900 26.43000
C  -2.17200 13.67300 29.71600
O  -2.17100 12.50400 30.12200
C  -2.33600 14.86100 30.63800
C  -1.24300 14.69200 31.60400
O  -0.15400 15.07500 31.33000
O  -1.66600 14.04000 32.73800
C  -0.46700 13.59500 33.52700
H  -3.03000 21.77300 29.43600
H  -1.48000 20.57800 23.22100
H  -1.51700 14.43200 24.39600
H  -3.49900 17.41100 31.75600
H  -2.58500 20.25200 31.60800
H  -5.11400 19.12700 32.03300
H  -5.22300 20.40400 30.68400
H  -4.56900 20.66100 32.31900
H  -1.01500 18.80300 32.53600
H  -0.74000 17.24400 31.87700
H  -2.19000 16.33100 33.69000
H  -2.77300 17.83600 34.16000
H  -2.58700 23.75500 28.55800
H  -3.19800 24.46000 27.03900
H  -1.54200 24.50900 27.37500
H  -0.55600 24.67700 25.52500
H  -2.33400 24.83800 25.06600
H  -1.09700 25.29800 23.87100
H  -0.47900 18.49200 22.06700
H  -1.67500 15.99600 22.25500
H  -3.30800 17.66200 21.50300
H  -2.09900 18.39800 20.41700
H  -2.83100 19.32300 21.76100
H  0.64700 15.95200 21.76300
H  0.50200 15.15400 23.47900
H  1.19500 17.94400 23.73200
H  2.55200 16.95900 22.97800
H  1.77900 16.55000 24.50100
H  -2.52000 12.04400 26.01700
H  -1.25900 11.62800 27.12000
H  -0.82900 12.52900 25.64900
H  -3.30900 14.71400 31.10600
H  -0.45900 14.14100 34.47000
H  0.51700 13.73100 33.07700
H  -0.61500 12.52900 33.70300
Mg -1.80100 35.16400 26.27600
C  -3.86500 33.75100 28.91200
C  -0.93100 37.66000 28.59800
C  -0.30500 36.96800 23.81300
C  -3.33500 33.05700 24.05000
N  -2.43000 35.66000 28.53100
C  -3.16500 34.82900 29.40200
C  -3.24200 35.45200 30.73400
C  -2.34100 36.72800 30.71100
C  -1.94400 36.76300 29.16000
C  -3.00200 37.97200 31.31500
C  -3.05700 34.40000 31.90400
C  -2.55300 34.99800 33.23400
H  -3.24800 34.44700 34.51000
N  -0.64900 36.98700 26.20000
C  -0.32300 37.76800 27.29400
C  0.59200 38.83400 26.79600
C  0.75300 38.63500 25.41200
C  -0.07900 37.50100 25.08300
C  1.13200 39.88200 27.77600
C  1.75800 39.34200 24.35300
O  1.66600 39.12500 23.16400
C  2.81000 40.33200 24.82500
N  -1.95400 35.07800 24.18100
C  -1.15500 35.82800 23.41700
C  -1.12400 35.28300 21.98100
C  -1.96000 34.04300 21.96700
C  -2.43400 33.98500 23.48700
C  -1.23500 36.34300 20.84700
C  -1.13200 32.83400 21.53000
C  -1.99200 31.60100 21.13800
N  -3.23600 33.60700 26.41500
C  -3.74600 32.82100 25.38300
C  -4.71400 31.88800 25.94900
C  -4.77700 32.23000 27.34600
C  -3.82200 33.20800 27.58000
C  -5.39600 30.73500 25.28100
C  -5.37300 31.85200 28.55200
O  -6.23400 30.99300 28.77800
C  -4.73900 32.76600 29.63200
C  -5.92100 33.44700 30.28600
O  -6.56300 34.36500 29.83000
O  -6.14800 32.84300 31.54600
C  -7.27400 33.27900 32.36800
H  -0.53000 38.30400 29.38300
H  0.19700 37.34200 22.91900
H  -3.68200 32.27800 23.36700
H  -4.29600 35.72700 30.76100
H  -1.37400 36.54000 31.17800
H  -2.26000 38.46100 31.94600
H  -3.84900 37.73500 31.96000
H  -3.35500 38.66600 30.55200
H  -2.31000 33.66900 31.59400
H  -3.98500 33.88800 32.15900
H  -2.77800 36.06300 33.28100
H  -1.48100 34.80000 33.21400
H  0.82200 40.85400 27.39000
H  2.22000 39.87500 27.71900
H  0.84600 39.93400 28.82600
H  3.48600 40.50800 23.98800
H  3.41600 39.90600 25.62400
H  2.38900 41.31400 25.04000
H  -0.05400 35.09700 21.89600
H  -2.93800 34.04000 21.48500
H  -1.82900 35.93600 20.02900
H  -0.27500 36.71500 20.49000
H  -1.78400 37.19700 21.24300
H  -0.58500 32.43200 22.38300
H  -0.43900 33.09700 20.73000
H  -1.55700 31.19400 20.22500
H  -3.03200 31.91100 21.03600
H  -1.95200 30.85400 21.93100
H  -4.53300 30.39600 24.70700
H  -6.18700 30.98300 24.57200
H  -5.62000 29.97000 26.02400
H  -4.17700 32.18200 30.36100
H  -8.05800 33.57300 31.67100
H  -6.91700 34.14100 32.93200
H  -7.58400 32.43300 32.98100

