158

Mg 40.54200 41.09000 27.18300
C  40.10000 43.53700 29.77100
C  41.96800 39.05300 29.66800
C  41.31300 38.88100 24.82500
C  39.89100 43.44600 24.81100
N  40.78000 41.20900 29.52000
C  40.40100 42.26900 30.25700
C  40.64200 41.90300 31.78600
C  41.33700 40.44400 31.76600
C  41.35200 40.19600 30.25400
C  42.67700 40.38900 32.54200
C  39.34700 41.99300 32.61600
C  39.27700 41.16200 33.95200
H  38.53800 41.75800 35.21500
N  41.55200 39.26700 27.24000
C  41.97400 38.57100 28.33000
C  42.47300 37.25200 27.93300
C  42.15000 37.12100 26.57700
C  41.60200 38.45400 26.16300
C  43.18800 36.33300 28.80800
C  42.25300 35.93500 25.65000
O  41.93800 36.01300 24.47500
C  42.88800 34.67500 26.13300
N  40.85600 41.23300 25.06300
C  40.93000 40.09900 24.32200
C  40.71400 40.41400 22.76400
C  40.18400 41.89800 22.81600
C  40.34800 42.20200 24.28400
C  41.93200 40.23700 21.82000
C  38.78000 42.14400 22.24700
C  37.64800 41.61600 23.09400
N  40.10700 43.14900 27.23800
C  39.84000 43.91300 26.17900
C  39.39800 45.21100 26.67000
C  39.54900 45.12300 28.07200
C  39.96500 43.85200 28.37700
C  38.97300 46.34100 25.76500
C  39.45700 45.86100 29.25500
O  38.99100 46.99000 29.46800
C  39.86100 44.87100 30.43000
C  41.04700 45.31000 31.10300
O  42.05700 45.67200 30.59100
O  40.85800 45.22600 32.44100
C  41.96500 45.57200 33.35100
H  42.54100 38.32500 30.24500
H  41.39300 38.16300 24.00500
H  39.67300 44.19100 24.04300
H  41.35100 42.63400 32.17400
H  40.66100 39.69300 32.17500
H  43.51700 39.99000 31.97500
H  42.41300 39.67100 33.31800
H  43.02900 41.29000 33.04600
H  38.61700 41.64300 31.88600
H  39.06600 43.02900 32.80700
H  40.25600 40.83500 34.30300
H  38.64500 40.28700 33.80200
H  42.42300 35.66000 29.19500
H  43.80600 36.85200 29.54100
H  43.96700 35.77500 28.28700
H  42.84600 33.90500 25.36200
H  42.39600 34.29900 27.03000
H  43.96800 34.81100 26.19400
H  39.97400 39.63000 22.60200
H  40.84200 42.65000 22.38000
H  42.04000 41.11800 21.18600
H  41.69700 39.37000 21.20200
H  42.82700 40.21400 22.44200
H  38.80800 41.72100 21.24300
H  38.73900 43.22100 22.08400
H  37.36000 42.37100 23.82500
H  37.95600 40.78000 23.72200
H  36.82500 41.26300 22.47200
H  39.03800 46.01500 24.72700
H  39.60300 47.21200 25.94800
H  37.97500 46.66600 26.05800
H  39.06900 44.92900 31.17600
H  41.99100 46.63800 33.57700
H  42.89600 45.34200 32.83300
H  41.79300 45.01600 34.27300
Mg 6.38700 54.77500 40.79200
C  5.90300 51.30500 40.62900
C  9.56200 54.38400 39.55500
C  6.70800 58.13400 40.33800
C  3.04700 55.12100 41.92500
N  7.49000 53.04200 39.99400
C  7.15400 51.66700 40.13200
C  8.28600 50.80000 39.49300
C  9.46900 51.79900 39.29300
C  8.82700 53.16100 39.69000
C  10.77100 51.53500 40.09500
C  7.92200 50.00700 38.17900
C  6.84600 50.56000 37.17800
H  7.45000 50.79200 35.80500
N  7.96300 56.09800 40.06500
C  9.17400 55.70300 39.64700
C  10.05000 56.92400 39.52800
C  9.21500 58.05000 39.80200
C  7.85600 57.49300 40.06900
C  11.46600 56.85100 39.09200
C  9.65800 59.49200 39.80400
O  10.81200 59.68700 39.63400
C  8.68600 60.62200 39.93100
N  4.98600 56.39400 40.99200
C  5.40800 57.68200 40.74700
C  4.21200 58.65500 40.84200
C  3.13800 57.75100 41.45900
C  3.69100 56.31400 41.46400
C  4.62300 59.83000 41.78300
C  1.70000 58.06100 40.89700
C  1.15800 57.24000 39.56500
N  4.81000 53.56400 41.25100
C  3.55700 53.82500 41.77700
C  2.89900 52.55500 42.09900
C  3.74400 51.54100 41.75500
C  4.89700 52.21500 41.16100
C  1.46000 52.38700 42.53100
C  3.87900 50.10300 41.66000
O  3.11100 49.21500 42.02000
C  5.27000 49.94100 40.91200
C  4.98600 49.09500 39.73200
O  4.59500 49.60600 38.64000
O  5.44500 47.84500 39.88400
C  5.50700 46.96000 38.70300
H  10.53700 54.20500 39.09600
H  6.67400 59.19900 40.09900
H  2.08300 55.31100 42.40100
H  8.47600 50.05700 40.26700
H  9.77500 51.93200 38.25500
H  11.23900 50.63800 39.69000
H  10.44200 51.16000 41.06500
H  11.44600 52.38600 40.17900
H  7.64500 49.00100 38.49600
H  8.87000 49.79500 37.68600
H  6.38300 51.45100 37.60200
H  6.13000 49.78400 36.90800
H  11.66500 57.21400 38.08400
H  11.87400 55.84600 39.19700
H  12.09900 57.43600 39.75900
H  8.03900 60.41200 39.08000
H  9.28600 61.52900 39.84300
H  8.08100 60.52200 40.83200
H  3.81600 59.02600 39.89700
H  3.19200 58.00200 42.51800
H  3.74600 60.22400 42.29700
H  4.84700 60.66700 41.12200
H  5.45200 59.67200 42.47300
H  1.75500 59.12800 40.68300
H  0.99800 57.78100 41.68200
H  0.09200 57.04400 39.68300
H  1.81300 56.37200 39.48600
H  1.30500 57.84700 38.67100
H  1.22200 51.35400 42.78600
H  0.79900 52.70800 41.72600
H  1.24000 52.95200 43.43700
H  5.83000 49.34200 41.63000
H  6.24700 46.16100 38.74100
H  5.79500 47.48700 37.79300
H  4.52300 46.54300 38.49100

