158

Mg 15.80000 -1.70500 27.24700
C  15.01200 0.52500 29.91000
C  18.18500 -3.26400 29.36900
C  17.49500 -2.92600 24.66500
C  14.24700 0.59400 25.14700
N  16.46200 -1.35800 29.32300
C  15.82600 -0.56800 30.24800
C  16.35300 -0.81300 31.64200
C  17.59600 -1.79000 31.35500
C  17.46600 -2.19800 29.95000
C  18.98700 -1.15000 31.64500
C  15.22800 -1.26300 32.55000
C  15.19000 -0.74500 33.98800
H  16.45600 -0.18200 34.64000
N  17.23600 -3.31100 27.06200
C  18.11300 -3.79800 28.03900
C  18.87700 -4.85500 27.51000
C  18.63600 -4.78500 26.10200
C  17.68100 -3.63800 25.86800
C  19.66600 -5.85400 28.30500
C  19.30600 -5.61600 25.02000
O  19.19400 -5.29500 23.82700
C  20.23500 -6.77000 25.33800
N  15.95100 -1.18600 25.26400
C  16.75700 -1.82300 24.37500
C  16.67500 -1.27200 22.96200
C  15.38900 -0.34700 23.11900
C  15.14100 -0.29200 24.62100
C  17.98100 -0.53000 22.63800
C  14.04400 -0.93700 22.44800
C  13.14500 0.08200 21.59500
N  14.71400 0.18600 27.43800
C  14.03400 0.87600 26.52300
C  13.30400 2.00800 27.12600
C  13.68400 1.91600 28.48400
C  14.54700 0.76100 28.60800
C  12.49400 3.03500 26.50300
C  13.63300 2.58700 29.76800
O  13.12300 3.61800 30.22300
C  14.40700 1.68200 30.78200
C  15.43200 2.54300 31.50200
O  16.54100 2.83100 31.05500
O  14.89000 3.05800 32.64600
C  15.88500 3.84600 33.46700
H  18.95200 -3.79300 29.93900
H  18.04200 -3.24700 23.77600
H  13.57700 1.18700 24.52200
H  16.76100 0.06600 32.14200
H  17.45400 -2.64900 32.01000
H  18.93800 -0.09100 31.90200
H  19.67100 -1.18100 30.79700
H  19.46900 -1.67000 32.47400
H  15.19200 -2.35000 32.61500
H  14.30200 -0.93900 32.07400
H  14.84000 -1.54900 34.63600
H  14.59500 0.16700 34.03000
H  20.73000 -5.81600 28.06900
H  19.30400 -6.85900 28.08600
H  19.51200 -5.69800 29.37200
H  19.65300 -7.60100 25.73500
H  21.03100 -6.46200 26.01700
H  20.68400 -7.02000 24.37700
H  16.62300 -2.12800 22.28900
H  15.61200 0.63100 22.69200
H  17.76400 0.52700 22.49000
H  18.38300 -0.96000 21.72000
H  18.79300 -0.71800 23.34100
H  13.43500 -1.35500 23.24900
H  14.26700 -1.77700 21.79000
H  13.59900 1.07300 21.60000
H  12.14400 0.11500 22.02500
H  13.06500 -0.23300 20.55400
H  11.87900 2.70300 25.66700
H  13.13800 3.81200 26.09100
H  12.05700 3.39900 27.43300
H  13.62400 1.30000 31.43600
H  15.43400 3.81000 34.45800
H  15.84900 4.86000 33.06900
H  16.90500 3.55000 33.22000
Mg 0.74600 42.71400 25.95500
C  1.77200 42.70200 29.21000
C  -2.38900 41.38900 26.96100
C  0.04500 41.90500 22.78000
C  4.06300 43.77200 24.99400
N  -0.16300 42.06600 27.88700
C  0.42200 42.29600 29.10700
C  -0.53300 41.90000 30.25800
C  -1.71100 41.25400 29.50200
C  -1.43000 41.58200 27.97100
C  -1.97800 39.68000 29.74300
C  -0.88400 43.07700 31.18000
C  -0.98700 42.68900 32.67100
H  -1.65900 41.31600 33.11300
N  -1.00900 41.94300 24.98900
C  -2.20600 41.55700 25.56100
C  -3.21800 41.42800 24.55000
C  -2.50200 41.46500 23.27100
C  -1.04700 41.71700 23.61700
C  -4.63200 41.23800 24.85300
C  -2.99500 41.18100 21.87600
O  -2.19100 41.17700 20.90700
C  -4.40200 40.99200 21.56700
N  1.84600 42.77700 24.20200
C  1.36400 42.34500 23.02700
C  2.27500 42.79000 21.90800
C  3.44600 43.58200 22.52300
C  3.11000 43.44900 24.00600
C  2.74900 41.62200 21.08600
C  3.43500 45.08300 22.08900
C  3.60500 45.32500 20.59200
N  2.52400 43.19400 26.87600
C  3.76900 43.63300 26.40000
C  4.68400 43.80100 27.44500
C  3.95600 43.39300 28.57000
C  2.62300 43.11400 28.16600
C  6.14800 44.28000 27.32900
C  4.07100 43.23300 29.98400
O  4.98200 43.39700 30.71400
C  2.67000 42.82700 30.44300
C  2.84900 41.46900 31.03000
O  3.57600 40.55800 30.66000
O  2.15800 41.48400 32.19400
C  2.45300 40.25200 32.96900
H  -3.37000 41.08600 27.33200
H  -0.12300 41.92500 21.70200
H  5.02200 44.19000 24.68000
H  -0.07300 41.18600 30.94100
H  -2.60600 41.77700 29.83900
H  -1.29300 39.23300 30.46300
H  -1.92500 39.23100 28.75100
H  -3.02500 39.53900 30.01000
H  -1.84500 43.53300 30.94600
H  -0.20400 43.91600 31.02800
H  -1.58400 43.50000 33.08700
H  0.06000 42.69900 32.97300
H  -5.27000 42.09400 24.63200
H  -4.77700 40.98000 25.90200
H  -5.03100 40.40000 24.28300
H  -4.70900 39.94900 21.65300
H  -4.61400 41.33000 20.55300
H  -4.94500 41.67900 22.21600
H  1.77900 43.46300 21.21000
H  4.37600 43.05600 22.30600
H  1.94600 41.28600 20.42900
H  2.95400 40.79600 21.76600
H  3.62700 41.86000 20.48500
H  4.18300 45.58800 22.70000
H  2.43300 45.43700 22.33100
H  2.68400 45.51200 20.03900
H  4.12500 44.49500 20.11300
H  4.25300 46.19800 20.51500
H  6.37900 44.42500 26.27400
H  6.85000 43.55300 27.73900
H  6.09800 45.22000 27.87900
H  2.22000 43.50200 31.17100
H  3.49800 40.39600 33.24400
H  2.26100 39.31300 32.45100
H  1.87900 40.37400 33.88800

