158

Mg 52.89700 23.58400 44.97100
C  50.11400 25.60600 44.26700
C  51.13800 20.98400 43.59300
C  55.64800 21.71500 45.04100
C  54.64100 26.51100 45.83400
N  50.97800 23.45700 43.78900
C  50.01400 24.37300 43.57500
C  48.90500 23.81000 42.62200
C  49.08900 22.24200 42.87200
C  50.50100 22.18700 43.43300
C  48.15300 21.60200 43.96900
C  49.02300 24.25700 41.20100
C  47.78600 24.61600 40.41000
H  47.30100 23.56200 39.45900
N  53.34300 21.52200 44.59500
C  52.50200 20.62700 44.02400
C  53.05200 19.32300 43.94500
C  54.35200 19.43300 44.46000
C  54.50600 20.91700 44.83000
C  52.29500 18.17300 43.29300
C  55.40100 18.37600 44.64200
O  55.17100 17.17600 44.42200
C  56.80100 18.55200 45.25900
N  54.86600 24.12000 45.22500
C  55.80400 23.11000 45.28600
C  57.18200 23.76200 45.56600
C  56.87000 25.25500 45.83000
C  55.36300 25.35400 45.55000
C  58.04400 23.09900 46.75900
C  57.67600 26.21800 44.99100
C  58.38200 27.41000 45.69800
N  52.51000 25.69000 45.14000
C  53.35800 26.75200 45.56300
C  52.44500 27.89000 45.82000
C  51.15700 27.46600 45.34400
C  51.25600 26.15100 44.89100
C  52.80500 29.16900 46.48600
C  49.77500 27.84900 45.14200
O  49.22600 28.86400 45.49900
C  49.01200 26.64700 44.42300
C  48.45500 27.18300 43.15700
O  49.09700 27.57000 42.20200
O  47.10100 27.31300 43.32200
C  46.44800 28.04800 42.21600
H  50.49100 20.15700 43.29200
H  56.53300 21.07600 45.00300
H  55.33900 27.26400 46.20500
H  47.92100 24.06900 43.01400
H  49.00600 21.68000 41.94200
H  47.49100 22.36800 44.37400
H  48.72200 21.12200 44.76400
H  47.54000 20.81000 43.53900
H  49.47900 23.46000 40.61400
H  49.69900 25.11000 41.26400
H  47.94400 25.54900 39.86800
H  47.00700 24.83400 41.14000
H  52.30400 18.30200 42.21100
H  51.27800 18.14200 43.68300
H  52.77400 17.24200 43.59500
H  57.10700 17.56000 45.59100
H  56.86100 19.19900 46.13400
H  57.51100 18.80700 44.47200
H  57.66300 23.62700 44.59700
H  57.00800 25.40600 46.90000
H  58.79900 22.40100 46.39600
H  57.30800 22.53200 47.32800
H  58.44200 23.73400 47.55100
H  57.04800 26.57100 44.17400
H  58.51400 25.72900 44.49400
H  58.00900 28.35600 45.30700
H  59.47200 27.39700 45.68100
H  58.01600 27.43600 46.72500
H  52.67300 29.91300 45.70000
H  53.86000 29.04400 46.72800
H  52.18500 29.47500 47.32900
H  48.14900 26.29300 44.98600
H  46.95800 28.97700 41.96100
H  45.44800 28.41000 42.45600
H  46.41100 27.30700 41.41800
Mg 35.95300 50.09000 26.23400
C  35.57400 48.07100 29.13100
C  35.04300 52.81500 28.18200
C  36.40600 51.98400 23.59100
C  36.71400 47.13400 24.46500
N  35.46700 50.38800 28.30900
C  35.42300 49.44800 29.30200
C  35.42600 50.14900 30.69400
C  34.69400 51.51900 30.35300
C  35.08100 51.59300 28.84900
C  33.19000 51.56500 30.59000
C  36.79400 50.28600 31.34800
C  36.76100 50.09400 32.86400
H  35.48700 50.15900 33.66600
N  35.77500 52.10900 25.90500
C  35.40700 53.07300 26.83700
C  35.42600 54.33300 26.28800
C  35.94200 54.21800 24.91200
C  36.10400 52.74900 24.71200
C  34.95100 55.48700 27.05200
C  36.28200 55.28400 23.83700
O  36.63400 54.93800 22.73200
C  36.05400 56.73300 24.18000
N  36.27900 49.58900 24.29900
C  36.53900 50.57600 23.39100
C  36.84600 49.97900 22.03200
C  37.34000 48.56500 22.43500
C  36.64500 48.33500 23.77600
C  35.57200 50.07600 21.13000
C  38.85300 48.35100 22.52600
C  39.44500 47.26600 21.67700
N  36.13400 47.97300 26.68700
C  36.41800 46.91300 25.87000
C  36.42400 45.71800 26.64100
C  36.18300 46.10700 27.89400
C  35.94500 47.46600 27.90100
C  36.72400 44.34500 26.17400
C  36.01700 45.68000 29.26500
O  36.10500 44.57400 29.72400
C  35.63400 46.95200 30.16000
C  34.37100 46.75900 30.92700
O  33.22200 47.03500 30.57800
O  34.60000 46.13300 32.16100
C  33.41200 45.76700 32.87600
H  34.58200 53.53300 28.86300
H  36.77100 52.63400 22.79400
H  36.96700 46.22800 23.90900
H  34.77700 49.49700 31.27900
H  35.06500 52.32300 30.98800
H  32.88100 50.66000 31.11200
H  32.73200 51.64000 29.60400
H  32.82000 52.36900 31.22600
H  37.34500 51.17900 31.05500
H  37.42500 49.51500 30.90500
H  37.46200 50.72500 33.40900
H  37.14700 49.07700 32.92500
H  35.74800 55.90800 27.66400
H  34.10400 55.22500 27.68700
H  34.59400 56.27400 26.38800
H  36.47000 57.29000 23.34100
H  36.69800 57.00500 25.01700
H  35.01000 57.03700 24.25900
H  37.74000 50.44500 21.61600
H  36.94500 47.87100 21.69200
H  35.23900 51.10100 20.96700
H  34.64500 49.56300 21.38700
H  35.87700 49.72700 20.14400
H  39.13200 48.32400 23.57900
H  39.34700 49.23800 22.13100
H  40.02700 46.71400 22.41500
H  39.96600 47.62200 20.78800
H  38.67600 46.56500 21.35200
H  37.13200 44.43500 25.16700
H  35.85400 43.69400 26.08700
H  37.46800 44.02600 26.90400
H  36.48600 47.17200 30.80300
H  33.62500 45.12300 33.72900
H  32.59000 45.35600 32.28800
H  32.99800 46.62700 33.40200

