158

Mg 0.91700 -1.52200 42.37000
C  4.55100 -1.17300 41.47600
C  0.48100 1.50900 40.93400
C  -2.18300 -2.29400 42.17500
C  1.80000 -4.97800 42.93000
N  2.29800 -0.11000 41.28500
C  3.75100 -0.06600 41.16300
C  4.24300 1.32500 40.82500
C  2.92500 2.19800 41.03200
C  1.78900 1.10000 41.03700
C  2.95400 3.05900 42.31000
C  4.95300 1.52000 39.44700
C  4.39400 0.78800 38.19800
H  5.40100 -0.14400 37.49900
N  -0.72400 -0.37400 41.98200
C  -0.69000 0.86100 41.30300
C  -2.00200 1.32100 41.16400
C  -2.85500 0.14700 41.47100
C  -1.94400 -0.90300 41.93700
C  -2.33300 2.69900 40.63400
C  -4.36800 0.07100 41.25500
O  -5.04500 1.01500 40.84100
C  -5.16400 -1.11800 41.57600
N  -0.02200 -3.35800 42.54300
C  -1.35000 -3.34600 42.55100
C  -1.92200 -4.70500 42.73400
C  -0.65300 -5.54200 43.06200
C  0.48000 -4.53900 42.87800
C  -3.08600 -4.86400 43.74400
C  -0.56000 -6.93000 42.20000
C  -0.36600 -8.26000 43.02600
N  2.82100 -2.86800 42.38200
C  2.94300 -4.21700 42.62900
C  4.31900 -4.56700 42.59100
C  5.01800 -3.40700 42.17400
C  4.01800 -2.40000 42.04900
C  4.84200 -5.92700 42.74000
C  6.32600 -2.80300 41.75800
O  7.40100 -3.29000 41.67700
C  6.03000 -1.37100 41.34700
C  6.89800 -0.48100 42.18900
O  7.76600 0.28300 41.71700
O  6.72500 -0.58700 43.58500
C  7.58300 0.21300 44.40300
H  0.42000 2.51600 40.51600
H  -3.21200 -2.65900 42.16400
H  2.01900 -6.04400 43.02700
H  4.99600 1.50600 41.59200
H  2.66600 2.91300 40.25200
H  2.06900 2.78900 42.88600
H  2.95400 4.12200 42.07100
H  3.88900 2.89600 42.84600
H  5.97800 1.26500 39.71700
H  4.93100 2.56900 39.15200
H  4.16500 1.62100 37.53400
H  3.43900 0.27700 38.31600
H  -3.09800 3.07900 41.31200
H  -2.59600 2.76200 39.57800
H  -1.46500 3.35400 40.70500
H  -6.23600 -0.97100 41.44600
H  -5.00900 -1.55100 42.56400
H  -5.03600 -1.90800 40.83600
H  -2.32400 -5.02200 41.77200
H  -0.75500 -5.80000 44.11600
H  -3.99200 -5.03800 43.16400
H  -3.15500 -3.82500 44.06500
H  -2.92200 -5.59900 44.53100
H  0.36600 -6.85600 41.63000
H  -1.39700 -7.09400 41.52200
H  -1.37000 -8.68500 43.00800
H  -0.10100 -8.06000 44.06400
H  0.38700 -8.90900 42.57900
H  4.37300 -6.29000 43.65400
H  5.92200 -5.98600 42.86700
H  4.66600 -6.45700 41.80300
H  6.39500 -1.34300 40.32000
H  8.06300 -0.37200 45.18900
H  7.00100 1.05600 44.77500
H  8.42400 0.67600 43.88600
Mg -11.81100 38.57900 40.76900
C  -9.55500 35.91200 40.27100
C  -9.37100 40.66900 39.18100
C  -13.99300 41.03900 40.43900
C  -14.15800 36.26200 41.85700
N  -9.63400 38.32400 39.87200
C  -8.97200 37.14100 39.75800
C  -7.73300 37.28100 38.88000
C  -7.46000 38.83000 39.03800
C  -8.91500 39.32800 39.37300
C  -6.28700 39.07100 39.99400
C  -7.96800 36.81000 37.45200
C  -6.95100 35.81600 36.90000
H  -6.02900 36.31200 35.74000
N  -11.68700 40.64500 39.95400
C  -10.65100 41.25000 39.38200
C  -10.98000 42.68600 39.19300
C  -12.29400 42.84400 39.56500
C  -12.74600 41.48700 40.02400
C  -10.15600 43.71200 38.49900
C  -13.19800 44.11200 39.40200
O  -12.76500 45.15200 38.87200
C  -14.60900 44.20700 39.86900
N  -13.78400 38.59800 40.88800
C  -14.49800 39.76700 40.83900
C  -15.89400 39.67500 41.50200
C  -15.90400 38.14000 41.93300
C  -14.54700 37.58900 41.57300
C  -15.99700 40.58700 42.65600
C  -17.06800 37.26800 41.29700
C  -18.21600 37.02200 42.24900
N  -11.87700 36.53400 41.15800
C  -12.90200 35.74500 41.61600
C  -12.35300 34.36700 41.89000
C  -11.07600 34.39000 41.29100
C  -10.81600 35.74100 40.90800
C  -12.97800 33.11000 42.62100
C  -9.84200 33.59200 40.91500
O  -9.61300 32.41200 41.11100
C  -8.88000 34.52900 40.18900
C  -7.62500 34.47100 40.85700
O  -6.63600 33.92800 40.34700
O  -7.70600 35.19100 42.02400
C  -6.64500 35.19800 43.03800
H  -8.58700 41.37700 38.90200
H  -14.83800 41.73100 40.41800
H  -14.96900 35.64400 42.24900
H  -6.93800 36.68000 39.32400
H  -7.23500 39.30300 38.08200
H  -5.52300 38.29700 39.92600
H  -6.71500 38.90400 40.98300
H  -5.84500 40.06700 39.99200
H  -8.04300 37.69800 36.82400
H  -8.97500 36.39300 37.42000
H  -7.36900 34.83000 36.69700
H  -6.24200 35.58900 37.69700
H  -10.43100 43.98700 37.48000
H  -9.12400 43.36200 38.52900
H  -10.07100 44.58200 39.15000
H  -14.64600 43.88500 40.91000
H  -15.24700 43.58300 39.24300
H  -15.08500 45.17800 39.72900
H  -16.60600 39.88300 40.70300
H  -15.93100 38.05400 43.02000
H  -16.53100 41.53100 42.55200
H  -14.99800 40.93600 42.91700
H  -16.45600 40.16400 43.54900
H  -16.69800 36.33500 40.87300
H  -17.52100 37.73700 40.42300
H  -18.19900 37.48800 43.23400
H  -18.26800 35.94500 42.40900
H  -19.14900 37.25400 41.73600
H  -12.58400 32.14100 42.31500
H  -14.06500 33.14100 42.55900
H  -12.74000 33.46100 43.62600
H  -8.84500 34.22600 39.14200
H  -5.93900 34.39800 42.81100
H  -7.17500 35.04000 43.97700
H  -6.11300 36.14600 43.10400

