158

Mg 2.98300 -1.16300 44.52500
C  6.45700 -0.70500 44.24600
C  2.61100 1.43400 42.15600
C  -0.17200 -2.16000 43.84200
C  3.50600 -4.12300 46.24200
N  4.35900 0.18400 43.33100
C  5.77200 0.14700 43.39300
C  6.35400 1.22000 42.33700
C  5.11500 2.15300 42.02600
C  3.97500 1.22300 42.54400
C  5.18700 3.49300 42.69500
C  7.02300 0.46300 41.16400
C  8.53700 0.67300 40.93800
H  8.98300 1.22200 39.54800
N  1.46100 -0.40500 43.34900
C  1.47700 0.69600 42.54400
C  0.09600 0.97500 42.06500
C  -0.75400 -0.08900 42.54500
C  0.21200 -0.98200 43.28800
C  -0.22700 2.20900 41.28100
C  -2.31800 -0.19200 42.34400
O  -2.94300 0.68700 41.69700
C  -3.19500 -1.23300 42.96900
N  1.85600 -3.11100 44.69700
C  0.59100 -3.09700 44.55300
C  -0.05900 -4.21800 45.36800
C  1.15100 -4.96000 46.07300
C  2.28700 -4.03200 45.63700
C  -1.17400 -3.67000 46.26800
C  1.41700 -6.41700 45.61600
C  1.50900 -7.50500 46.67400
N  4.62200 -2.16700 45.19900
C  4.67800 -3.35200 45.92800
C  6.04700 -3.71000 46.27900
C  6.81300 -2.59100 45.69900
C  5.84100 -1.78700 44.97500
C  6.44900 -4.90200 47.16900
C  8.08400 -1.96600 45.50100
O  9.17500 -2.25900 45.83500
C  7.87500 -0.68500 44.66800
C  8.16500 0.58400 45.33500
O  7.47700 1.26000 46.11500
O  9.35900 1.06800 44.81600
C  9.41400 2.53900 44.94600
H  2.51300 2.21300 41.39600
H  -1.22200 -2.45800 43.82100
H  3.66900 -5.04500 46.80400
H  7.05000 1.85100 42.88900
H  4.94300 2.27000 40.95600
H  6.23400 3.79600 42.70300
H  4.63100 3.46800 43.63300
H  4.69200 4.27900 42.12400
H  6.54100 0.82800 40.25700
H  6.86900 -0.61300 41.07900
H  9.08900 -0.26500 40.99900
H  8.88200 1.34800 41.72100
H  0.39800 2.31900 40.39500
H  0.06600 3.06900 41.88300
H  -1.28200 2.42500 41.10900
H  -4.24600 -1.00800 42.79100
H  -2.85400 -1.19300 44.00400
H  -2.95800 -2.22400 42.58300
H  -0.52000 -4.90000 44.65300
H  1.11700 -4.95400 47.16200
H  -1.31600 -2.59200 46.18900
H  -1.08200 -4.02600 47.29400
H  -2.07900 -4.08100 45.82100
H  2.41300 -6.45300 45.17500
H  0.72100 -6.92300 44.94700
H  2.43900 -8.06500 46.57700
H  0.65100 -8.11800 46.39500
H  1.32200 -7.21200 47.70700
H  5.83300 -5.13800 48.03600
H  7.44600 -4.63400 47.51900
H  6.53300 -5.82900 46.60100
H  8.52500 -0.84700 43.80700
H  8.48000 2.98600 44.60400
H  10.16400 2.87100 44.22900
H  9.78800 2.88800 45.90800
Mg 48.96800 44.80100 43.01200
C  45.75700 45.69000 41.96300
C  48.58900 41.82700 41.53700
C  52.33900 44.55600 43.19800
C  49.39600 48.19700 44.02700
N  47.31100 43.91500 41.98200
C  46.12800 44.38500 41.59500
C  45.24300 43.35500 40.80000
C  46.12500 42.09400 40.93500
C  47.41000 42.60900 41.55800
C  45.42500 40.91900 41.66500
C  44.91300 43.75200 39.34700
C  43.51900 43.33800 38.81700
H  43.43100 42.09500 37.88900
N  50.23700 43.30500 42.65900
C  49.87300 42.07300 42.06200
C  51.04900 41.30000 41.81800
C  52.18100 42.13600 42.13600
C  51.61900 43.36900 42.76800
C  50.97200 39.84600 41.28400
C  53.63400 41.79500 41.77200
O  54.00400 40.68700 41.35700
C  54.73300 42.83400 42.03000
N  50.71700 46.30700 43.46800
C  51.99800 45.86600 43.51900
C  52.90500 46.91600 44.03600
C  51.91400 48.05700 44.39600
C  50.58000 47.51200 43.96900
C  54.01000 46.54200 45.11000
C  52.21400 49.49700 43.99300
C  52.78000 50.44200 45.08300
N  47.78100 46.60100 43.21100
C  48.06600 47.80000 43.72000
C  46.85100 48.58000 43.79200
C  45.89800 47.77900 43.11500
C  46.58200 46.58400 42.75000
C  46.78600 50.00200 44.14600
C  44.49400 47.74700 42.55800
O  43.55300 48.54400 42.59500
C  44.53100 46.45300 41.65900
C  43.29500 45.65300 41.93100
O  42.48200 45.28300 41.13500
O  43.14000 45.46300 43.26500
C  41.85500 44.89000 43.76900
H  48.36900 40.81700 41.18300
H  53.41800 44.42700 43.30200
H  49.48700 49.19200 44.46700
H  44.31500 43.12500 41.32400
H  46.38700 41.68300 39.96000
H  44.37900 40.96400 41.96800
H  45.90000 40.74200 42.63000
H  45.59100 40.03300 41.05200
H  45.59300 43.25800 38.65300
H  44.96000 44.83900 39.28000
H  42.97800 44.10500 38.26400
H  42.93600 43.03800 39.68800
H  51.12000 39.78300 40.20600
H  50.02800 39.34700 41.50500
H  51.64200 39.12400 41.74900
H  54.47400 43.78100 41.55500
H  55.60800 42.48400 41.48200
H  54.82400 42.82600 43.11600
H  53.49400 47.16800 43.15400
H  51.84200 48.06400 45.48400
H  53.81200 45.56300 45.54500
H  53.92100 47.10400 46.04000
H  55.06000 46.50300 44.82100
H  51.33900 49.95400 43.52900
H  52.86400 49.39200 43.12400
H  52.10300 51.28400 45.23200
H  53.75900 50.75200 44.71700
H  53.02100 50.03300 46.06400
H  45.73300 50.28300 44.13700
H  47.15200 50.61300 43.32100
H  47.25500 50.20100 45.11000
H  44.42000 46.79000 40.62800
H  41.74600 45.24100 44.79500
H  41.76200 43.81400 43.62700
H  41.05100 45.30900 43.16300

