158

Mg 37.29100 50.21400 24.18400
C  36.79100 48.69500 27.46400
C  36.87400 53.19500 25.88100
C  37.37400 51.65600 21.17100
C  37.67400 47.10100 22.96600
N  36.65000 50.83200 26.44900
C  36.55300 50.05700 27.51800
C  36.57700 50.91500 28.88200
C  36.44900 52.38300 28.37000
C  36.64000 52.10800 26.81200
C  35.09900 53.10700 28.69200
C  37.83000 50.69100 29.84900
C  37.49800 50.20400 31.30600
H  36.12100 50.65600 31.86100
N  37.16900 52.16100 23.63000
C  37.06100 53.20400 24.44300
C  37.02900 54.33400 23.59500
C  37.14500 53.96300 22.25300
C  37.21300 52.53200 22.26600
C  36.78300 55.78000 24.11200
C  37.16500 54.84800 21.01500
O  37.29800 54.34500 19.84300
C  37.10100 56.34500 21.11700
N  37.17100 49.47700 22.32300
C  37.46400 50.25400 21.20500
C  37.62800 49.38900 19.91900
C  38.11800 48.05500 20.58300
C  37.58600 48.19900 22.03800
C  36.40500 49.25300 18.93000
C  39.66400 47.68500 20.38900
C  39.87500 46.32300 19.66400
N  37.15900 48.20800 24.90600
C  37.32700 47.02600 24.31300
C  37.31800 45.94400 25.29300
C  37.16700 46.56200 26.52200
C  37.03600 47.96800 26.25900
C  37.53500 44.52000 25.04700
C  37.02300 46.28700 27.90700
O  37.16500 45.25200 28.55400
C  36.76000 47.66000 28.62100
C  35.46900 47.56300 29.30800
O  34.40000 47.88800 28.81300
O  35.53300 47.00500 30.51900
C  34.29300 46.75400 31.29400
H  36.88100 54.18300 26.34600
H  37.40300 51.99900 20.13400
H  38.09100 46.19300 22.52700
H  35.68200 50.69100 29.46300
H  37.33800 52.94800 28.64900
H  35.38900 54.07000 29.11400
H  34.51800 52.63100 29.48200
H  34.42900 53.31800 27.85900
H  38.44500 51.59000 29.88700
H  38.50200 50.00100 29.33900
H  38.22000 50.58500 32.02800
H  37.48100 49.11400 31.33000
H  36.22900 55.81100 25.05100
H  36.05900 56.19300 23.41000
H  37.64300 56.44700 24.16800
H  36.15200 56.69800 21.52000
H  37.15000 56.71400 20.09200
H  37.98000 56.87900 21.47600
H  38.46700 49.75100 19.32600
H  37.59100 47.21400 20.13100
H  35.59300 49.94700 19.14900
H  35.99900 48.24400 18.86000
H  36.89000 49.59300 18.01600
H  40.05800 47.80700 21.39800
H  40.24200 48.35900 19.75800
H  39.89000 45.53000 20.41200
H  40.88300 46.31900 19.24900
H  39.16500 46.28500 18.83900
H  37.94600 44.36700 24.04900
H  36.53300 44.09300 25.00400
H  38.10400 44.26100 25.94000
H  37.69900 47.79600 29.15900
H  33.63900 47.61300 31.14000
H  34.50600 46.55200 32.34300
H  33.67000 45.99600 30.81900
Mg -1.28400 34.19700 27.38800
C  -3.02800 32.90900 30.07100
C  0.37300 36.34600 29.40100
C  -0.34800 36.10400 24.64900
C  -3.32700 32.39800 25.16000
N  -1.31700 34.51500 29.51700
C  -2.04100 33.80500 30.50300
C  -1.65500 34.21300 31.92000
C  -0.63800 35.39100 31.68600
C  -0.41700 35.35300 30.11200
C  -1.25000 36.76400 32.23500
C  -1.01900 33.03000 32.71500
C  -1.71000 32.54600 34.03500
H  -0.78000 32.08600 35.15100
N  -0.07700 35.99900 27.06100
C  0.50300 36.65500 28.04000
C  1.38400 37.72100 27.48600
C  1.08100 37.78600 26.11500
C  0.17200 36.60100 25.87600
C  2.42900 38.41800 28.29700
C  1.53100 38.72600 25.08700
O  1.24300 38.70100 23.92400
C  2.43800 39.85600 25.47600
N  -1.71000 34.11800 25.24300
C  -1.17900 35.01700 24.33300
C  -1.71700 34.68800 22.93300
C  -2.17300 33.26900 23.00100
C  -2.37900 33.21100 24.60600
C  -2.65400 35.73900 22.24300
C  -1.31100 32.09600 22.42700
C  -0.30500 31.51300 23.35100
N  -2.84700 32.97100 27.58800
C  -3.62600 32.32500 26.56500
C  -4.55000 31.40600 27.21800
C  -4.36400 31.58500 28.57200
C  -3.35800 32.62900 28.76200
C  -5.38700 30.39900 26.51500
C  -4.74700 31.06400 29.84900
O  -5.47600 30.19000 30.22700
C  -3.91100 31.94600 30.85200
C  -4.84300 32.71900 31.66200
O  -5.25300 33.83500 31.29700
O  -5.13400 32.18200 32.84800
C  -6.01900 32.96900 33.66700
H  1.06100 36.95500 29.99200
H  0.01500 36.72100 23.82400
H  -3.86100 31.81100 24.40900
H  -2.59000 34.58400 32.34000
H  0.35700 35.15400 32.06400
H  -2.10800 36.52300 32.86200
H  -1.49500 37.33600 31.34100
H  -0.40900 37.23000 32.75000
H  0.04900 33.18800 32.86100
H  -1.08700 32.25100 31.95600
H  -2.26100 31.63500 33.79900
H  -2.52400 33.21400 34.31800
H  3.33600 38.72800 27.77900
H  2.78800 37.81200 29.12900
H  1.96800 39.29100 28.76000
H  3.43300 39.50600 25.75200
H  2.01800 40.39000 26.32900
H  2.57800 40.62100 24.71300
H  -0.76700 34.62000 22.40300
H  -3.17700 33.12200 22.60200
H  -2.31800 36.19400 21.31200
H  -2.80800 36.61800 22.86800
H  -3.60100 35.22100 22.08600
H  -0.74900 32.53600 21.60200
H  -2.00100 31.39700 21.95500
H  0.67200 31.98400 23.24500
H  -0.26700 30.43900 23.16700
H  -0.70600 31.47600 24.36400
H  -4.75400 29.64900 26.04100
H  -6.00200 30.84300 25.73300
H  -6.06600 30.06200 27.29800
H  -3.35400 31.34600 31.57200
H  -6.48100 32.23000 34.32200
H  -6.68900 33.71900 33.24600
H  -5.37100 33.65000 34.21900

