158

Mg 54.14500 23.79800 44.07400
C  51.32900 25.56400 43.14300
C  52.81600 20.98400 42.45100
C  57.16300 22.23200 44.18600
C  55.56600 26.76200 45.06400
N  52.25000 23.35400 42.91100
C  51.30200 24.24100 42.61800
C  50.15400 23.59500 41.74900
C  50.43400 22.06200 41.93700
C  51.91100 22.10500 42.42100
C  49.36900 21.38000 42.94000
C  50.39100 24.03300 40.33700
C  49.19300 24.54800 39.41500
H  48.74900 23.69700 38.24400
N  54.87500 21.87300 43.59000
C  54.12600 20.81100 43.02300
C  54.90400 19.65200 42.96500
C  56.04700 19.97800 43.72800
C  56.10300 21.44400 43.88800
C  54.39500 18.33700 42.38400
C  57.13000 19.04200 44.28800
O  57.07400 17.87000 43.94500
C  58.24400 19.42800 45.20700
N  56.19800 24.49900 44.25600
C  57.26000 23.61000 44.40400
C  58.53800 24.33600 44.98000
C  57.98100 25.78400 45.10800
C  56.52900 25.68000 44.80000
C  59.07700 23.75700 46.30600
C  58.78700 26.85400 44.25800
C  59.13000 28.15900 45.01200
N  53.51400 25.78000 44.38400
C  54.13400 26.87500 44.83800
C  53.19600 28.01700 45.03800
C  52.04600 27.53700 44.35600
C  52.29800 26.18400 43.96500
C  53.54300 29.42200 45.53600
C  50.70600 27.89600 43.80900
O  50.19300 29.02000 43.86400
C  50.23300 26.62000 43.09600
C  49.75700 27.00200 41.76400
O  50.47300 27.17100 40.76000
O  48.36100 27.16900 41.80700
C  47.57900 27.65400 40.63500
H  52.40000 19.99800 42.23400
H  58.16100 21.79800 44.27600
H  56.08800 27.57200 45.57800
H  49.13700 23.89200 42.00500
H  50.35400 21.46100 41.03100
H  48.90600 22.05100 43.66400
H  49.82100 20.46700 43.32700
H  48.54900 21.04300 42.30700
H  50.94600 23.29000 39.76400
H  51.06400 24.89000 40.34500
H  49.42700 25.52200 38.98400
H  48.32900 24.83000 40.01600
H  54.12400 18.66100 41.38000
H  53.53900 17.88100 42.88100
H  55.13000 17.53300 42.34600
H  59.09800 19.91800 44.74000
H  58.54000 18.48900 45.67500
H  57.92000 20.12400 45.98000
H  59.33800 24.27500 44.24300
H  58.23500 25.98900 46.14800
H  59.02500 22.67300 46.20900
H  58.39300 24.08600 47.08800
H  60.08900 24.12500 46.47800
H  58.11000 27.25800 43.50600
H  59.63800 26.31500 43.84100
H  60.15400 28.14500 45.38700
H  58.44500 28.40900 45.82200
H  59.18400 28.95000 44.26300
H  54.34700 29.87800 44.95900
H  53.80700 29.32000 46.58900
H  52.75100 30.16800 45.46700
H  49.42200 26.21000 43.69700
H  47.81300 28.68900 40.38500
H  46.51400 27.65800 40.86900
H  47.63600 27.10400 39.69600
Mg 15.64400 51.10300 26.48500
C  17.91300 50.47500 29.14100
C  13.38200 52.09000 28.74200
C  13.55200 51.24200 23.96000
C  18.19400 50.04200 24.19900
N  15.77400 51.41000 28.67600
C  16.74700 51.01000 29.60000
C  16.35400 51.27100 31.02500
C  14.79100 51.57700 30.87500
C  14.59900 51.66300 29.34600
C  13.96700 50.34200 31.41100
C  17.15200 52.43900 31.62700
C  17.88000 52.13600 32.94700
H  17.00700 51.53900 34.00500
N  13.77500 51.65000 26.35400
C  12.99800 52.09400 27.38500
C  11.60700 52.27600 26.86000
C  11.64600 52.00300 25.48400
C  13.05400 51.61700 25.21800
C  10.51000 52.65500 27.82900
C  10.48900 52.15300 24.42500
O  10.61700 51.83400 23.22700
C  9.10200 52.43900 24.94400
N  15.88500 50.78200 24.30200
C  14.81900 50.84400 23.49200
C  15.14400 50.39400 22.05200
C  16.65800 50.00700 22.20300
C  16.98100 50.32300 23.66500
C  14.24800 49.33800 21.35000
C  17.58100 50.89000 21.26700
C  18.61800 50.10500 20.53300
N  17.49100 50.27600 26.58000
C  18.42900 49.96800 25.63100
C  19.68900 49.52600 26.20500
C  19.51700 49.64100 27.59500
C  18.17200 50.15100 27.78100
C  20.97300 49.01400 25.44100
C  20.12600 49.49300 28.87500
O  21.23900 49.19100 29.25000
C  19.06200 49.92000 29.94000
C  18.63500 48.73000 30.70400
O  17.98000 47.84500 30.22100
O  19.10900 48.83300 32.01200
C  18.58800 47.83200 32.94600
H  12.66000 52.31400 29.52900
H  12.88100 51.08300 23.11200
H  19.00500 49.69700 23.55500
H  16.47800 50.42800 31.70500
H  14.40800 52.49900 31.31300
H  13.57400 49.79400 30.55500
H  13.18400 50.73100 32.06100
H  14.59000 49.63200 31.95600
H  16.43300 53.23200 31.83300
H  17.86200 53.01400 31.03200
H  18.43500 52.98600 33.34300
H  18.58600 51.35400 32.66400
H  10.14200 51.76600 28.34200
H  9.70700 53.25900 27.40700
H  10.94200 53.22300 28.65400
H  8.96100 53.50500 25.12100
H  8.76900 51.87100 25.81300
H  8.37000 52.13400 24.19600
H  15.01100 51.24900 21.39000
H  16.72000 48.94100 21.98300
H  13.85600 48.63000 22.08000
H  14.80800 48.85300 20.55100
H  13.38500 49.86600 20.94600
H  17.98700 51.73000 21.83000
H  16.98100 51.42500 20.53100
H  18.60000 50.49500 19.51500
H  18.42700 49.03500 20.62400
H  19.52900 50.34800 21.07900
H  21.13900 49.81400 24.72000
H  20.78000 48.08400 24.90600
H  21.78800 48.85200 26.14600
H  19.33500 50.68700 30.66500
H  17.50200 47.90300 32.89000
H  18.92000 47.83200 33.98400
H  18.75000 46.80200 32.62800

