158

Mg 53.57900 23.75900 44.90300
C  51.19800 26.11600 44.01300
C  51.56900 21.26900 43.53900
C  56.20300 21.70900 45.26200
C  55.61200 26.43900 45.98000
N  51.71000 23.81600 43.74700
C  50.89500 24.84200 43.49000
C  49.71000 24.38500 42.62100
C  49.60200 22.86300 43.07200
C  51.05800 22.60200 43.47200
C  48.59000 22.55500 44.15000
C  49.97400 24.39400 41.05100
C  51.38700 24.76100 40.59900
H  51.55100 25.37500 39.17700
N  53.84000 21.70500 44.41400
C  52.90600 20.83000 43.92400
C  53.50800 19.48700 43.90700
C  54.79800 19.62900 44.46700
C  54.97400 21.05300 44.77400
C  52.87900 18.33100 43.33000
C  55.70000 18.44100 44.77900
O  55.44100 17.36400 44.29900
C  56.85300 18.46400 45.70000
N  55.70200 24.09600 45.43700
C  56.50000 23.03200 45.59300
C  57.86600 23.52000 46.22500
C  57.75500 25.08600 46.22900
C  56.23400 25.27800 45.86400
C  58.11900 22.88600 47.64100
C  58.82000 25.84100 45.26100
C  58.43800 25.96200 43.77800
N  53.47300 25.83500 45.07000
C  54.32600 26.74300 45.58600
C  53.72900 28.09900 45.62000
C  52.43500 27.85000 44.99300
C  52.38400 26.46700 44.66000
C  54.32800 29.32400 46.22700
C  51.26100 28.51500 44.50200
O  50.93300 29.69700 44.57700
C  50.45000 27.38600 43.81300
C  50.18600 27.86400 42.38900
O  51.02800 28.13200 41.55900
O  48.85000 27.81400 42.19800
C  48.33600 27.84600 40.83500
H  50.93600 20.39000 43.40100
H  57.10500 21.12500 45.45700
H  56.20300 27.25100 46.40700
H  48.69500 24.73000 42.82200
H  49.32200 22.21200 42.24300
H  47.61500 22.23800 43.78100
H  48.39900 23.46700 44.71500
H  48.99200 21.79900 44.82600
H  49.43500 25.27200 40.69500
H  49.72400 23.50000 40.47900
H  51.87100 23.78500 40.56200
H  51.77200 25.48600 41.31700
H  53.48800 17.99200 42.49300
H  51.88000 18.65400 43.03700
H  52.72800 17.46800 43.97800
H  56.83100 17.50400 46.21600
H  56.70600 19.23400 46.45700
H  57.78700 18.58400 45.15000
H  58.69300 23.21500 45.58400
H  57.87000 25.49000 47.23400
H  58.60200 23.69800 48.18400
H  58.76200 22.01100 47.54100
H  57.16300 22.58100 48.06600
H  59.80500 25.37600 45.31400
H  58.90800 26.86800 45.61400
H  57.94800 26.92900 43.66300
H  57.68100 25.23100 43.49500
H  59.22600 25.86500 43.03100
H  53.85900 30.22900 45.84000
H  55.32500 29.53100 45.84000
H  54.25700 29.27600 47.31400
H  49.47100 27.42400 44.29100
H  48.11500 28.88900 40.60900
H  47.49400 27.19100 40.61100
H  49.05400 27.44200 40.12200
Mg -11.56400 38.52300 42.37500
C  -9.50600 35.81200 41.86900
C  -9.08100 40.50300 40.95900
C  -13.70200 41.17700 42.22100
C  -14.08500 36.40100 43.33000
N  -9.66700 38.16100 41.18700
C  -9.00900 36.95000 41.23000
C  -7.68600 37.01000 40.48200
C  -7.40700 38.52400 40.53100
C  -8.80600 39.09700 40.88300
C  -6.23300 38.98600 41.63000
C  -7.92000 36.35000 39.07900
C  -6.81400 35.64200 38.23800
H  -6.32600 36.36500 36.96300
N  -11.38000 40.60900 41.87500
C  -10.23100 41.19200 41.36900
C  -10.52900 42.60700 41.06600
C  -11.90600 42.86300 41.35600
C  -12.35800 41.55800 41.83100
C  -9.49600 43.57800 40.29400
C  -12.72800 44.07300 41.19600
O  -12.21400 45.15500 40.72900
C  -14.27200 44.16700 41.29300
N  -13.62700 38.74800 42.57300
C  -14.25100 39.94000 42.61300
C  -15.56000 39.81900 43.34400
C  -15.78000 38.25800 43.45900
C  -14.42000 37.73300 43.02000
C  -15.49200 40.64400 44.68500
C  -17.02900 37.64200 42.65200
C  -17.79700 36.66900 43.39900
N  -11.84100 36.51500 42.66600
C  -12.85700 35.80800 43.11200
C  -12.41900 34.51800 43.46400
C  -11.06300 34.38000 42.98600
C  -10.81900 35.69200 42.41100
C  -13.30900 33.39600 44.09200
C  -9.93100 33.58500 42.82900
O  -9.88500 32.41900 43.09900
C  -8.85200 34.43000 41.98500
C  -7.62900 34.44500 42.92300
O  -7.61100 34.62400 44.11700
O  -6.55000 34.10400 42.19600
C  -5.32600 33.89800 43.00000
H  -8.37600 41.22100 40.53500
H  -14.39700 41.99800 42.40900
H  -14.80100 35.75300 43.84000
H  -6.85700 36.49100 40.96200
H  -7.01600 38.88200 39.57900
H  -5.26600 39.14000 41.15200
H  -6.12400 38.23600 42.41300
H  -6.42400 39.94800 42.10500
H  -8.22500 37.22500 38.50600
H  -8.84500 35.77400 39.10500
H  -7.22400 34.65800 38.01100
H  -5.94900 35.62000 38.90100
H  -8.64900 43.01300 39.90300
H  -9.33600 44.43600 40.94800
H  -10.00300 43.98500 39.42000
H  -14.63100 43.35200 40.66500
H  -14.70600 45.14000 41.06700
H  -14.53000 44.06100 42.34700
H  -16.30300 40.18500 42.63500
H  -15.94800 38.07400 44.52000
H  -15.93400 40.14700 45.54900
H  -15.99000 41.61300 44.65100
H  -14.43900 40.85200 44.87300
H  -16.61100 37.16800 41.76400
H  -17.74600 38.39100 42.31600
H  -18.84500 36.93900 43.27400
H  -17.70200 36.75700 44.48100
H  -17.69000 35.64700 43.03500
H  -12.71200 32.53500 44.39200
H  -14.17200 33.08100 43.50600
H  -13.81800 33.83100 44.95200
H  -8.83900 34.03500 40.97000
H  -5.48200 33.02500 43.63300
H  -5.09500 34.65400 43.75100
H  -4.47200 33.67700 42.36100

