158

Mg 2.11700 -1.75900 43.27600
C  5.34300 -0.82200 43.02800
C  1.15400 1.00600 41.44200
C  -1.02600 -3.05800 43.13600
C  3.24000 -4.90300 44.60700
N  3.20800 -0.22500 42.11300
C  4.53300 0.01100 42.20400
C  4.93300 1.20200 41.34100
C  3.56400 1.97200 41.23200
C  2.54600 0.85000 41.63200
C  3.43200 3.29700 42.12300
C  5.60300 0.90800 39.96900
C  6.47900 2.08200 39.46800
H  6.05000 2.68400 38.07100
N  0.33300 -1.07100 42.46900
C  0.07100 0.11100 41.78300
C  -1.35100 0.37500 41.63800
C  -2.01700 -0.76200 42.22000
C  -0.91900 -1.70200 42.60100
C  -1.94700 1.61800 40.96900
C  -3.55900 -0.90300 42.32900
O  -4.23500 0.02500 41.81600
C  -4.19500 -1.93700 43.21800
N  1.17200 -3.66400 43.91800
C  -0.12000 -3.93600 43.75100
C  -0.52800 -5.29400 44.24700
C  0.91200 -5.96600 44.64100
C  1.86500 -4.78300 44.32300
C  -1.43800 -5.32500 45.52200
C  1.30400 -7.28800 43.95900
C  0.40300 -8.51200 44.32300
N  3.82100 -2.65400 43.83500
C  4.14700 -3.84900 44.44000
C  5.54700 -3.87200 44.81100
C  6.09700 -2.72700 44.33000
C  4.99800 -2.02800 43.72900
C  6.39400 -4.93900 45.46200
C  7.29100 -1.92500 44.15200
O  8.45400 -2.08100 44.45300
C  6.84500 -0.63900 43.24700
C  7.28500 0.58500 43.99600
O  7.03900 0.73400 45.15700
O  7.88600 1.58400 43.24500
C  8.47600 2.72800 43.99800
H  0.89500 1.97800 41.01700
H  -2.04400 -3.44200 43.04200
H  3.50300 -5.81900 45.14000
H  5.72700 1.77800 41.81600
H  3.44400 2.35800 40.21900
H  4.24500 3.44100 42.83500
H  2.47000 3.21900 42.62800
H  3.43500 4.15100 41.44500
H  4.87200 0.69100 39.18900
H  6.16100 -0.01800 40.11000
H  7.41700 1.54500 39.32300
H  6.48900 2.94000 40.14000
H  -2.18400 1.49200 39.91300
H  -1.33500 2.50200 41.14600
H  -2.79700 1.87000 41.60300
H  -4.57300 -2.82300 42.70700
H  -4.94600 -1.39100 43.78900
H  -3.49600 -2.16900 44.02100
H  -0.98600 -5.75100 43.37000
H  0.99200 -6.24800 45.69100
H  -1.38700 -4.27000 45.79400
H  -1.08300 -6.01800 46.28500
H  -2.48200 -5.50400 45.26400
H  2.29500 -7.57300 44.31400
H  1.40800 -7.16200 42.88100
H  0.92400 -9.22200 44.96500
H  0.19900 -8.99900 43.37000
H  -0.53100 -8.27700 44.83400
H  6.38200 -5.76600 44.75300
H  6.05200 -5.23100 46.45500
H  7.39300 -4.55400 45.67100
H  7.24100 -0.74600 42.23700
H  7.75600 3.53100 43.84200
H  9.35800 3.12700 43.49700
H  8.72300 2.41300 45.01200
Mg 40.81300 10.30200 30.42700
C  42.71300 11.65600 33.21800
C  38.60300 9.09500 32.71500
C  39.10100 9.01500 27.93900
C  43.37800 11.16700 28.37700
N  40.74800 10.32300 32.76100
C  41.53100 11.06400 33.67700
C  40.87800 10.97600 35.03800
C  39.58700 10.07700 34.89100
C  39.67500 9.74600 33.35600
C  39.46300 8.73500 35.64800
C  40.63500 12.34200 35.67200
C  39.66800 12.45000 36.91000
H  39.85800 13.44500 37.98800
N  39.14300 9.27500 30.32900
C  38.34300 8.84700 31.37100
C  37.16400 8.17800 30.87000
C  37.18600 8.21500 29.43600
C  38.52400 8.83500 29.17900
C  36.14200 7.56700 31.81300
C  36.16200 7.70600 28.36400
O  36.30100 7.90000 27.16500
C  34.85500 7.03800 28.80500
N  41.25500 9.97200 28.45900
C  40.33000 9.55000 27.52700
C  40.81200 9.55800 26.09900
C  42.27500 10.28100 26.31300
C  42.34000 10.42700 27.86900
C  40.79200 8.20300 25.32400
C  42.32700 11.56400 25.54100
C  41.58000 12.82800 25.95800
N  42.62600 11.23400 30.66200
C  43.62300 11.46800 29.72900
C  44.69200 12.19900 30.30800
C  44.36000 12.29900 31.64200
C  43.11800 11.63300 31.81600
C  45.98000 12.64700 29.67400
C  44.84300 12.78500 32.85600
O  45.92100 13.29100 33.08400
C  43.76600 12.49600 33.99700
C  44.39900 11.71400 35.02000
O  44.77600 10.59200 34.79100
O  44.49100 12.41100 36.22800
C  44.92000 11.55000 37.35700
H  37.77700 8.78000 33.35700
H  38.59500 8.59000 27.06900
H  44.10000 11.47900 27.61900
H  41.54800 10.48900 35.74700
H  38.64500 10.61600 34.99500
H  39.15100 7.91000 35.00900
H  38.57600 8.79000 36.27900
H  40.29100 8.38800 36.26600
H  40.35200 13.03500 34.87900
H  41.53900 12.78100 36.09400
H  39.49100 11.47000 37.35200
H  38.77000 12.66200 36.33000
H  35.84900 8.20900 32.64400
H  36.62300 6.80000 32.42000
H  35.28700 7.16300 31.27100
H  34.26900 7.76000 29.37400
H  35.08900 6.16200 29.40900
H  34.26100 6.80800 27.92000
H  40.22100 10.27000 25.52200
H  43.10700 9.66500 25.97200
H  41.69200 8.00100 24.74300
H  39.86400 8.22200 24.75300
H  40.70800 7.37000 26.02100
H  41.90100 11.36400 24.55700
H  43.40500 11.62200 25.39200
H  41.09400 12.78300 26.93300
H  40.76500 12.99800 25.25600
H  42.17700 13.73400 25.85300
H  46.04200 12.11300 28.72600
H  46.72300 12.33500 30.40700
H  45.85600 13.72000 29.52200
H  43.35600 13.44300 34.34800
H  44.43400 11.85700 38.28300
H  45.99600 11.40000 37.45500
H  44.59700 10.51900 37.21000

