158

Mg 16.95700 -2.13800 28.27400
C  15.83900 -0.06200 31.00000
C  18.74300 -3.79800 30.76600
C  18.27500 -3.84500 25.85500
C  15.32400 0.11100 26.13200
N  17.23200 -1.89200 30.64500
C  16.67900 -1.05100 31.49600
C  17.25400 -1.22700 32.88600
C  18.41900 -2.23600 32.66000
C  18.09500 -2.67700 31.27400
C  19.91500 -1.78900 32.85800
C  16.19500 -1.71800 33.95600
C  15.77200 -0.79200 35.04800
H  16.86700 -0.36200 36.02200
N  18.28800 -3.72100 28.33500
C  18.87500 -4.30600 29.42100
C  19.67500 -5.40400 28.94100
C  19.38800 -5.56400 27.50300
C  18.58600 -4.40700 27.14700
C  20.38200 -6.31800 29.86400
C  19.94500 -6.62600 26.52500
O  19.61700 -6.64700 25.36000
C  20.90200 -7.64800 27.01300
N  16.98100 -1.77500 26.28600
C  17.58900 -2.63400 25.44200
C  17.41200 -2.22600 23.92100
C  16.34600 -1.09600 24.03100
C  16.16100 -0.92100 25.57300
C  18.73300 -1.67000 23.32100
C  15.03500 -1.37600 23.30500
C  13.97300 -2.05200 24.22900
N  15.75300 -0.37900 28.47700
C  15.15600 0.35700 27.51000
C  14.29300 1.31600 28.09900
C  14.58600 1.21600 29.47800
C  15.43500 0.16200 29.63700
C  13.47300 2.32000 27.42900
C  14.25100 1.74200 30.77800
O  13.48200 2.68100 31.09600
C  15.10800 1.00400 31.81000
C  16.03100 2.14900 32.27600
O  17.04700 2.55300 31.70600
O  15.43300 2.71200 33.33100
C  16.01500 4.02100 33.84600
H  19.36400 -4.31100 31.50400
H  18.64600 -4.46600 25.03700
H  14.78600 0.76800 25.44500
H  17.58300 -0.25700 33.25900
H  18.22600 -3.05200 33.35700
H  20.52800 -2.50400 32.30900
H  20.17800 -1.96800 33.90100
H  20.13400 -0.76200 32.56800
H  16.54600 -2.58500 34.51500
H  15.31100 -2.08000 33.43100
H  15.02600 -1.42100 35.53300
H  15.27700 0.03300 34.53700
H  20.59600 -5.82000 30.81000
H  21.35300 -6.62200 29.47300
H  19.85300 -7.21200 30.19500
H  21.29800 -8.14400 26.12700
H  20.38500 -8.35000 27.66800
H  21.76400 -7.23400 27.53600
H  16.99800 -3.04300 23.33000
H  16.72500 -0.09000 23.84900
H  19.32100 -1.18000 24.09700
H  18.57600 -1.03300 22.45000
H  19.35200 -2.51600 23.02400
H  15.29800 -1.93400 22.40700
H  14.60800 -0.47300 22.86900
H  14.37300 -2.68300 25.02200
H  13.33400 -2.70900 23.63800
H  13.31200 -1.33600 24.71700
H  12.86500 2.87200 28.14600
H  12.82100 1.94700 26.63900
H  14.04500 3.09400 26.91700
H  14.51800 0.61300 32.63900
H  15.98700 4.82400 33.10900
H  16.88900 3.87400 34.48000
H  15.28900 4.38200 34.57400
Mg 40.29600 9.82100 29.39100
C  42.19800 11.06600 32.07200
C  37.86100 8.90100 31.72200
C  38.32900 8.78700 26.81100
C  42.89800 10.36000 27.23400
N  39.99100 10.07700 31.67000
C  40.89800 10.76600 32.49600
C  40.32500 10.79500 33.97200
C  38.94600 9.99000 33.78700
C  38.88100 9.67400 32.28600
C  38.68900 8.81900 34.81800
C  40.26200 12.17900 34.66500
C  40.94800 12.33900 36.04100
H  40.04600 12.89900 37.11100
N  38.38800 9.04400 29.28700
C  37.53800 8.63800 30.33100
C  36.33100 8.06800 29.82400
C  36.33100 8.26700 28.38300
C  37.69200 8.83500 28.09900
C  35.18100 7.61800 30.67400
C  35.29200 8.04600 27.23700
O  35.38600 8.55200 26.14900
C  33.95400 7.45800 27.71900
N  40.63000 9.47400 27.34400
C  39.67500 8.96000 26.46000
C  40.26700 8.61400 25.11400
C  41.67100 9.27700 25.20100
C  41.83200 9.68300 26.66800
C  40.11000 7.03700 24.90300
C  41.85600 10.49500 24.19600
C  41.51900 11.89700 24.66200
N  42.23200 10.55500 29.60600
C  43.16600 10.70600 28.62900
C  44.37900 11.19900 29.20500
C  44.01500 11.50400 30.56400
C  42.70300 10.92800 30.79600
C  45.61000 11.46300 28.41100
C  44.48100 12.00600 31.81900
O  45.56400 12.54100 32.15100
C  43.31700 11.77200 32.79100
C  43.83600 10.76700 33.72700
O  44.29200 9.66000 33.42000
O  44.00200 11.29300 34.97900
C  44.68900 10.56200 36.02600
H  37.15900 8.49100 32.45000
H  37.74300 8.40800 25.97100
H  43.74000 10.43200 26.54300
H  41.00800 10.13400 34.50500
H  38.09300 10.64000 33.98200
H  38.98500 7.87400 34.36200
H  37.67000 8.84500 35.20400
H  39.34600 8.95000 35.67800
H  39.20100 12.40300 34.77100
H  40.65000 12.95600 34.00500
H  41.77500 13.03000 35.87600
H  41.29900 11.34300 36.31000
H  34.78800 6.66200 30.32900
H  34.40400 8.36100 30.49300
H  35.59200 7.59600 31.68300
H  33.53000 8.18000 28.41700
H  34.30200 6.52200 28.15400
H  33.34000 7.34400 26.82600
H  39.57200 9.11700 24.44100
H  42.36400 8.50500 24.86800
H  41.02100 6.84400 24.33500
H  39.25800 6.76900 24.27900
H  40.10500 6.52900 25.86700
H  41.10300 10.31000 23.42900
H  42.91600 10.41700 23.95700
H  40.85400 11.90600 25.52500
H  41.02700 12.40800 23.83400
H  42.38000 12.54600 24.82400
H  46.38900 11.34600 29.16400
H  45.68100 12.49400 28.06400
H  45.80000 10.79500 27.57100
H  42.92800 12.60200 33.38200
H  45.74600 10.36700 35.84400
H  44.14100 9.62100 36.08400
H  44.58600 11.09300 36.97200

