158

Mg -1.81400 17.17400 26.21400
C  -1.93500 14.82000 28.65900
C  -1.96500 19.80000 28.45700
C  -1.79700 19.39800 23.66100
C  -2.10900 14.57800 23.85500
N  -2.06000 17.27500 28.27500
C  -1.98900 16.16200 29.10300
C  -1.98100 16.68800 30.61500
C  -2.18600 18.25200 30.47800
C  -2.03300 18.49400 28.97400
C  -3.45900 18.74200 31.14600
C  -0.76500 16.24700 31.61500
C  -0.43100 17.15300 32.75800
H  -0.28800 16.62800 34.19000
N  -1.88600 19.33600 26.08900
C  -1.96900 20.21900 27.09400
C  -2.06200 21.52200 26.59500
C  -2.03100 21.45100 25.11700
C  -1.86600 20.02300 24.88900
C  -2.29500 22.70700 27.59300
C  -2.18600 22.47400 24.05100
O  -2.28400 22.25100 22.88100
C  -2.25600 23.84100 24.52200
N  -2.08100 17.07000 24.05000
C  -1.89100 18.12900 23.23200
C  -1.83600 17.76300 21.71800
C  -1.79000 16.16100 21.87900
C  -2.00700 15.88600 23.34600
C  -3.04100 18.24800 20.96400
C  -0.49100 15.54500 21.34000
C  -0.56400 14.77000 20.05700
N  -1.97500 15.16000 26.25600
C  -2.07300 14.21600 25.22700
C  -2.18100 12.87500 25.78200
C  -2.03300 13.05400 27.17700
C  -1.88500 14.42300 27.37100
C  -2.53600 11.74300 24.94900
C  -2.10400 12.32600 28.38700
O  -2.00000 11.13700 28.66500
C  -2.10700 13.54800 29.50700
C  -0.99500 13.32000 30.46000
O  0.19900 13.47200 30.17000
O  -1.51900 12.73600 31.60000
C  -0.55100 12.24000 32.54000
H  -1.98500 20.56200 29.23900
H  -1.62500 20.00700 22.77200
H  -2.06400 13.77600 23.11600
H  -2.90600 16.30300 31.04400
H  -1.38400 18.80800 30.96300
H  -4.19600 17.98500 31.41400
H  -3.92400 19.37400 30.39000
H  -3.19400 19.33700 32.02000
H  0.20200 16.13100 31.12400
H  -1.17700 15.35200 32.08100
H  -1.31900 17.77400 32.88200
H  0.44900 17.77900 32.60900
H  -2.74900 22.48400 28.55800
H  -2.83800 23.59000 27.25800
H  -1.33000 23.13900 27.85800
H  -3.13600 23.98500 25.14900
H  -2.43500 24.36700 23.58400
H  -1.34200 24.11800 25.04800
H  -0.98800 18.22500 21.21200
H  -2.55400 15.65900 21.28500
H  -3.80200 18.68900 21.60700
H  -3.51100 17.37600 20.50900
H  -2.83500 18.98700 20.18900
H  0.10100 14.99300 22.07100
H  0.26400 16.32200 21.22000
H  -0.08600 15.48000 19.38200
H  -1.59600 14.55900 19.77900
H  0.02000 13.86100 20.19900
H  -1.75200 11.04100 24.66600
H  -3.07400 12.02700 24.04500
H  -3.16900 11.16800 25.62400
H  -3.07800 13.60500 30.00000
H  -0.28600 11.23000 32.22800
H  -1.03400 12.35600 33.51000
H  0.36000 12.83400 32.61600
Mg -10.41600 40.21000 42.42500
C  -9.45400 36.98400 41.51100
C  -7.60600 41.34700 40.56700
C  -11.58000 43.35700 42.47100
C  -13.50100 38.94500 43.30400
N  -8.85700 39.26200 40.92200
C  -8.59500 37.89900 40.95100
C  -7.28700 37.57100 40.18400
C  -6.53300 39.00900 40.19200
C  -7.75900 39.92600 40.61300
C  -5.29300 39.20400 41.15100
C  -7.59000 37.04100 38.76800
C  -6.82800 35.84000 38.15000
H  -5.75400 36.13300 37.13900
N  -9.61500 42.06400 41.74800
C  -8.48100 42.29400 41.02300
C  -8.24500 43.77700 41.02000
C  -9.35000 44.40400 41.66900
C  -10.23900 43.27600 41.97800
C  -7.10900 44.40200 40.26800
C  -9.53300 45.93100 41.84500
O  -8.81700 46.80400 41.35100
C  -10.62400 46.41900 42.63100
N  -12.34400 41.06900 42.83500
C  -12.58100 42.33000 42.86600
C  -14.09000 42.55500 43.16500
C  -14.53400 41.16500 43.73200
C  -13.41400 40.32400 43.20800
C  -14.49600 43.80600 44.09800
C  -16.01200 40.76500 43.32600
C  -16.90000 40.27200 44.48500
N  -11.32200 38.29500 42.53900
C  -12.55000 37.93400 42.97800
C  -12.65100 36.50600 42.97600
C  -11.53800 36.04600 42.35800
C  -10.70200 37.22600 42.13900
C  -13.78100 35.64300 43.49900
C  -10.76400 34.93200 41.78400
O  -11.06100 33.73500 41.72700
C  -9.38400 35.49100 41.21800
C  -8.25900 34.78300 41.91100
O  -7.77400 35.09800 42.98400
O  -7.84000 33.72400 41.20100
C  -6.77600 32.86300 41.71600
H  -6.73500 41.66900 39.99200
H  -12.10300 44.31500 42.47300
H  -14.45800 38.46700 43.52500
H  -6.57700 36.93200 40.71000
H  -6.23300 39.25600 39.17300
H  -4.58300 38.45200 40.80300
H  -5.61300 38.96700 42.16500
H  -5.02800 40.25900 41.08000
H  -7.45200 37.88600 38.09300
H  -8.65600 36.81800 38.72100
H  -7.54300 35.19300 37.64100
H  -6.35200 35.36200 39.00600
H  -7.25600 44.48700 39.19100
H  -6.19800 43.81200 40.37000
H  -6.85200 45.37200 40.69400
H  -10.72800 45.80500 43.52500
H  -11.55900 46.32700 42.07800
H  -10.45000 47.45000 42.93800
H  -14.52200 42.59500 42.16500
H  -14.33900 41.12300 44.80400
H  -13.64400 44.47300 44.23200
H  -14.72300 43.55400 45.13400
H  -15.31700 44.29600 43.57600
H  -15.98600 40.03200 42.52000
H  -16.59100 41.63900 43.02700
H  -16.29400 40.01600 45.35400
H  -17.36400 39.35000 44.13400
H  -17.67100 41.02600 44.64900
H  -14.20600 35.96400 44.45000
H  -13.42900 34.61400 43.56800
H  -14.57300 35.69100 42.75200
H  -9.49400 35.20900 40.17100
H  -7.09800 32.15100 42.47600
H  -6.03500 33.46200 42.24600
H  -6.20400 32.42900 40.89700

