158

Mg 17.68600 -1.94800 28.44000
C  16.74700 0.31300 31.08400
C  19.47900 -3.76000 30.58300
C  18.29700 -4.01400 25.90400
C  16.35200 0.39600 26.33100
N  18.24400 -1.54800 30.52700
C  17.72900 -0.64800 31.41300
C  18.20400 -1.04500 32.80500
C  19.14500 -2.24300 32.61900
C  18.85300 -2.61700 31.14700
C  20.67100 -1.88100 32.98000
C  17.04700 -1.31400 33.80400
C  17.09000 -0.72600 35.21300
H  18.35500 -0.65800 35.94800
N  18.66100 -3.76300 28.34600
C  19.38800 -4.30700 29.31500
C  19.99200 -5.55600 28.83600
C  19.72500 -5.66700 27.44500
C  18.81300 -4.49000 27.15900
C  20.56600 -6.54400 29.78900
C  20.17700 -6.75200 26.36000
O  19.79400 -6.73800 25.19200
C  21.05400 -7.88700 26.82400
N  17.44700 -1.78600 26.37900
C  17.71600 -2.79200 25.54500
C  17.50000 -2.38300 24.03900
C  16.77200 -0.97800 24.19400
C  16.92300 -0.70400 25.70400
C  18.61500 -2.48700 23.03800
C  15.31100 -0.85800 23.61600
C  15.24900 -0.19300 22.25800
N  16.73200 0.02300 28.57100
C  16.15800 0.73800 27.61100
C  15.43700 1.84500 28.13100
C  15.67500 1.78500 29.51100
C  16.48000 0.60100 29.76300
C  14.64000 2.81700 27.26200
C  15.45900 2.40900 30.79100
O  14.80600 3.38500 31.16900
C  16.11400 1.42000 31.82500
C  17.10700 2.16600 32.66400
O  18.32100 2.33800 32.41600
O  16.42700 2.79400 33.64400
C  17.33100 3.77000 34.39700
H  19.94600 -4.39500 31.33900
H  18.53600 -4.59100 25.00800
H  15.97900 1.10900 25.59300
H  18.75400 -0.13000 33.02600
H  18.77600 -3.01000 33.30100
H  20.95200 -2.02500 34.02400
H  20.90100 -0.82900 32.80700
H  21.32900 -2.50000 32.37000
H  17.11500 -2.37100 34.06300
H  16.09300 -1.13800 33.30800
H  16.43300 -1.20900 35.93600
H  16.53800 0.21400 35.19000
H  21.48000 -6.07400 30.15300
H  20.95600 -7.51100 29.47100
H  20.00300 -6.67300 30.71300
H  21.38200 -8.53400 26.01000
H  20.41900 -8.42900 27.52400
H  21.89300 -7.41000 27.32900
H  16.76300 -3.10200 23.68200
H  17.32900 -0.27100 23.57900
H  19.54700 -2.74500 23.54100
H  18.85900 -1.51300 22.61400
H  18.36400 -3.24000 22.29200
H  14.74100 -0.32100 24.37300
H  14.80000 -1.81800 23.54400
H  16.21900 -0.00400 21.79800
H  14.79400 0.79400 22.34300
H  14.72900 -0.90100 21.61300
H  15.24300 3.58800 26.78400
H  14.06400 3.33000 28.03200
H  13.95400 2.39700 26.52600
H  15.23500 1.14700 32.40900
H  16.97100 4.78200 34.21600
H  18.40300 3.74000 34.20400
H  17.16200 3.68100 35.47000
Mg -0.69100 44.01900 24.87500
C  1.75000 43.24900 27.28600
C  -3.14800 43.25100 27.26800
C  -2.94700 44.55600 22.53200
C  1.80500 44.43300 22.59000
N  -0.66600 43.22300 26.94400
C  0.44000 43.05200 27.74900
C  0.01900 42.93900 29.17600
C  -1.51700 42.65400 29.12200
C  -1.82500 42.99400 27.67000
C  -1.92400 41.23600 29.49100
C  0.30900 44.32500 29.92500
C  1.03100 44.12600 31.32400
H  0.69600 42.81500 32.07100
N  -2.78200 43.96100 24.93200
C  -3.61600 43.62400 25.99400
C  -5.00100 43.79400 25.51500
C  -4.96400 44.20800 24.18400
C  -3.51600 44.26700 23.81100
C  -6.15600 43.51600 26.44700
C  -6.10500 44.50700 23.15000
O  -5.92200 44.86100 21.96100
C  -7.49800 44.44800 23.66400
N  -0.55200 44.40700 22.79800
C  -1.58200 44.52700 22.02200
C  -1.30400 44.76000 20.53000
C  0.28000 44.87900 20.63100
C  0.56700 44.55600 22.08600
C  -1.84600 43.46700 19.71000
C  0.81000 46.26000 20.18600
C  1.14500 47.30700 21.33300
N  1.29000 43.81000 24.88400
C  2.15500 44.00600 23.85800
C  3.54200 43.87500 24.38000
C  3.44300 43.64300 25.72300
C  2.05400 43.57500 25.95200
C  4.83500 44.04800 23.57600
C  4.15600 43.42100 26.93100
O  5.37700 43.29600 27.09400
C  3.05800 43.27400 27.99000
C  3.35000 42.03400 28.75500
O  2.95600 40.93600 28.39900
O  4.30800 42.25000 29.70400
C  4.67200 41.17800 30.65000
H  -3.85900 43.04600 28.07000
H  -3.66000 44.60000 21.70600
H  2.66500 44.54400 21.92600
H  0.48700 42.10600 29.70100
H  -2.06900 43.25600 29.84300
H  -2.59800 40.93900 28.68800
H  -2.34700 41.11900 30.48800
H  -1.11200 40.51500 29.38900
H  -0.61900 44.87900 30.06700
H  0.91500 45.00500 29.32500
H  0.74100 44.91200 32.02200
H  2.10900 44.15100 31.16500
H  -6.78500 42.86000 25.84600
H  -6.64500 44.47600 26.61800
H  -5.93100 43.09400 27.42700
H  -8.23700 44.94500 23.03500
H  -7.55400 44.93000 24.64000
H  -7.76400 43.39600 23.76500
H  -1.77700 45.67300 20.16700
H  0.78700 44.14600 20.00400
H  -1.91900 42.57700 20.33500
H  -1.12700 43.20300 18.93500
H  -2.75600 43.71000 19.16000
H  0.18800 46.77800 19.45500
H  1.76600 46.09200 19.69000
H  1.26600 48.33400 20.98800
H  2.08900 46.86500 21.65300
H  0.43600 47.31700 22.16100
H  4.69600 43.36900 22.73500
H  5.75700 43.71600 24.05300
H  4.85200 45.05900 23.16800
H  3.13200 44.14400 28.64300
H  5.23700 40.39400 30.14500
H  3.77500 40.79900 31.13900
H  5.33900 41.60900 31.39700

