158

Mg 47.42600 16.34100 28.70000
C  45.19800 16.18200 31.59600
C  49.55500 18.25300 30.63400
C  49.06900 17.02700 25.98100
C  44.74400 15.01400 26.82900
N  47.43500 16.98100 30.99400
C  46.39900 16.94500 31.88100
C  46.80600 17.55400 33.27000
C  48.14900 18.35800 32.88400
C  48.44600 17.84600 31.44900
C  47.98400 19.94000 32.99600
C  47.11400 16.45700 34.28500
C  46.65000 16.64800 35.70300
H  46.51300 18.12900 36.22800
N  49.26000 17.26500 28.42000
C  49.94300 18.02600 29.29200
C  51.16000 18.47100 28.67000
C  51.00800 18.09800 27.28500
C  49.75800 17.38500 27.18700
C  52.30400 19.16300 29.41200
C  51.95200 18.28400 26.04200
O  51.73700 17.81800 24.94800
C  53.24900 19.04400 26.30900
N  46.99900 15.95500 26.74200
C  47.82000 16.45300 25.77100
C  47.10700 16.41600 24.39500
C  45.94900 15.37800 24.67000
C  45.86800 15.44800 26.17800
C  46.49300 17.79500 23.92400
C  46.22600 13.86900 24.12100
C  45.00400 13.15400 23.55400
N  45.38600 15.57400 29.07900
C  44.44900 15.06600 28.23000
C  43.37900 14.48200 28.97800
C  43.61400 14.88100 30.29900
C  44.81800 15.65500 30.28300
C  42.37900 13.52500 28.40800
C  43.10100 14.76600 31.61800
O  42.10900 14.18100 32.09700
C  44.12100 15.65700 32.52800
C  43.32800 16.67600 33.38800
O  42.86100 17.71900 32.96500
O  43.34200 16.29000 34.67100
C  42.77700 17.37500 35.60400
H  50.24200 18.89400 31.19100
H  49.59100 17.32200 25.06900
H  44.04000 14.46300 26.20100
H  46.03000 18.21100 33.66400
H  48.99600 18.00700 33.47300
H  48.36700 20.28500 32.03600
H  48.53200 20.31500 33.86100
H  46.97100 20.27600 33.21900
H  48.15400 16.14200 34.18800
H  46.56500 15.64600 33.80600
H  47.12400 15.88400 36.31900
H  45.62000 16.29100 35.71000
H  52.22800 19.08200 30.49600
H  52.19100 20.22500 29.19200
H  53.23400 18.76600 29.00400
H  53.08200 19.89700 26.96700
H  53.51200 19.46800 25.34000
H  54.08400 18.39400 26.57000
H  47.82200 16.06100 23.65300
H  45.01000 15.72500 24.24100
H  46.85700 18.48800 24.68300
H  45.41100 17.77500 23.78800
H  47.03500 18.00700 23.00300
H  46.51700 13.23800 24.96100
H  47.00400 13.99400 23.36800
H  45.19100 12.10800 23.79800
H  45.04900 13.25800 22.47000
H  44.05800 13.47200 23.99100
H  42.72400 12.49300 28.33800
H  42.12100 13.94500 27.43600
H  41.46300 13.58800 28.99700
H  44.53100 14.91800 33.21600
H  41.70800 17.18200 35.69300
H  42.88400 18.36200 35.15300
H  43.31700 17.21900 36.53800
Mg 35.44300 49.75600 25.65400
C  36.03300 47.87100 28.51600
C  34.27500 52.25800 27.82600
C  34.46700 51.52300 23.16900
C  36.24200 46.87000 23.64200
N  35.16800 49.99100 27.95200
C  35.54300 49.13200 28.92400
C  35.41300 49.68400 30.37300
C  34.61300 51.08700 30.11100
C  34.65700 51.08500 28.52800
C  33.16800 51.04000 30.64800
C  36.73200 49.91500 31.08700
C  36.90100 49.11500 32.43800
H  36.72800 49.92700 33.68500
N  34.71200 51.71300 25.50000
C  34.35100 52.59400 26.44900
C  34.03400 53.87800 25.83600
C  33.94500 53.67700 24.46300
C  34.33000 52.21100 24.33600
C  33.79700 55.12300 26.66800
C  33.59700 54.65300 23.33200
O  33.42000 54.24300 22.19900
C  33.55600 56.16600 23.57000
N  35.41000 49.26500 23.74300
C  34.88000 50.21500 22.89500
C  34.77400 49.62800 21.41800
C  35.47600 48.20600 21.59000
C  35.67700 48.04200 23.10800
C  33.35600 49.54900 20.82900
C  36.88100 48.03400 20.84000
C  37.48600 46.56700 20.54500
N  36.05100 47.79300 25.94600
C  36.40100 46.75700 25.05500
C  36.83900 45.56600 25.86100
C  36.74500 45.97700 27.17800
C  36.35100 47.34100 27.20900
C  37.38100 44.33800 25.19000
C  37.01500 45.58900 28.54600
O  37.44100 44.46900 28.93100
C  36.58000 46.81200 29.45500
C  35.54700 46.34700 30.45000
O  34.31800 46.44100 30.32100
O  36.10000 45.85500 31.54300
C  35.22500 45.55200 32.68500
H  33.94700 53.06300 28.48700
H  34.20100 52.06300 22.25800
H  36.60800 46.06700 23.00000
H  34.77100 49.03900 30.97300
H  35.12000 51.98800 30.45700
H  32.82400 51.78500 31.36600
H  32.79100 50.12500 31.10500
H  32.61000 51.17600 29.72200
H  36.63900 50.94000 31.44600
H  37.64600 49.70800 30.53100
H  37.89300 48.66400 32.41900
H  36.16000 48.31500 32.43400
H  34.42500 55.93000 26.29100
H  34.10100 55.06500 27.71300
H  32.75400 55.33500 26.43200
H  34.37900 56.43100 24.23300
H  32.57500 56.31400 24.02200
H  33.51400 56.65000 22.59400
H  35.37900 50.21900 20.73100
H  34.75300 47.42000 21.37000
H  33.45500 49.95800 19.82300
H  32.72300 50.26200 21.35700
H  32.88600 48.56600 20.86900
H  37.56900 48.40400 21.60100
H  36.92700 48.70600 19.98400
H  37.98700 46.48000 19.58100
H  36.58500 45.95300 20.55000
H  38.29200 46.34100 21.24200
H  38.47100 44.32100 25.18800
H  36.86400 44.27600 24.23300
H  37.19000 43.51800 25.88300
H  37.43800 47.19100 30.01000
H  35.66700 45.96300 33.59300
H  35.06300 44.53500 33.04000
H  34.23400 46.00100 32.75300

