158

Mg -2.18400 17.00400 26.38700
C  -2.68700 14.67300 28.85500
C  -2.97900 19.50600 28.62800
C  -2.35600 19.18800 23.68500
C  -1.67100 14.36800 24.05600
N  -2.59000 17.08000 28.49500
C  -2.61500 15.96400 29.33900
C  -2.97400 16.42600 30.72400
C  -3.23300 17.97500 30.62100
C  -2.95100 18.21600 29.19000
C  -4.64000 18.49600 31.08800
C  -1.84900 16.07100 31.81700
C  -1.77200 17.10300 32.96700
H  -1.46200 16.41700 34.30900
N  -2.59700 19.13300 26.19300
C  -2.77100 19.97500 27.24800
C  -2.98700 21.32200 26.67500
C  -2.77600 21.21700 25.25600
C  -2.53600 19.77300 25.00100
C  -3.43400 22.52200 27.60600
C  -2.88400 22.26300 24.23100
O  -2.71900 22.05500 23.02500
C  -3.26800 23.63300 24.58600
N  -2.05100 16.81900 24.20200
C  -2.07400 17.86200 23.34500
C  -1.81000 17.33800 21.82500
C  -1.27200 15.89100 22.00500
C  -1.73900 15.61900 23.50100
C  -2.96800 17.58400 20.81200
C  0.25000 15.77600 21.76800
C  1.30500 16.20900 22.86600
N  -2.21600 14.98700 26.42000
C  -2.00100 14.02000 25.37300
C  -2.12600 12.71700 25.85800
C  -2.32900 12.94700 27.27600
C  -2.45400 14.31800 27.53800
C  -2.16500 11.43200 25.03100
C  -2.54200 12.25200 28.46300
O  -2.67200 11.08700 28.63700
C  -2.79900 13.31100 29.62900
C  -1.71000 13.02100 30.62900
O  -0.53600 13.24800 30.56700
O  -2.33900 12.49300 31.74400
C  -1.56400 12.29200 32.94500
H  -3.36600 20.28500 29.28700
H  -2.10400 19.91200 22.90700
H  -1.59100 13.54400 23.34400
H  -3.90900 15.87800 30.84200
H  -2.49000 18.63500 31.07000
H  -5.15000 19.00000 30.26700
H  -4.34300 19.23100 31.83700
H  -5.20500 17.70100 31.57400
H  -0.89600 16.07800 31.28800
H  -2.09700 15.08100 32.19800
H  -2.71600 17.61500 33.15400
H  -1.00100 17.79800 32.63400
H  -4.49100 22.69400 27.81000
H  -2.95700 23.46300 27.33000
H  -2.90800 22.54300 28.56100
H  -3.08200 24.27800 23.72800
H  -2.64200 24.13000 25.32700
H  -4.34500 23.59700 24.74900
H  -1.07100 18.04400 21.44600
H  -1.85900 15.28200 21.31900
H  -2.49300 17.61400 19.83200
H  -3.41100 18.54200 21.08600
H  -3.75400 16.82900 20.82400
H  0.50200 16.42700 20.93100
H  0.31200 14.74200 21.43100
H  1.93900 15.37700 23.17300
H  0.83600 16.53800 23.79300
H  1.91300 16.94800 22.34500
H  -1.53800 11.53800 24.14600
H  -3.22300 11.20900 24.89100
H  -1.64000 10.71700 25.66500
H  -3.77200 13.26100 30.11700
H  -2.16700 12.78300 33.70900
H  -0.58400 12.76800 32.94600
H  -1.52000 11.21300 33.09600
Mg 23.80700 -6.47700 46.62200
C  26.50000 -4.42100 45.68200
C  22.02500 -4.91500 44.18000
C  21.45400 -8.65400 47.35700
C  26.06300 -8.25700 48.57800
N  24.30600 -4.94700 44.99500
C  25.38000 -4.10800 44.94100
C  25.29300 -3.00900 43.78000
C  23.78800 -3.16200 43.34200
C  23.31700 -4.41000 44.21900
C  22.90400 -1.89400 43.48100
C  26.27400 -3.17800 42.59800
C  26.97700 -1.84500 42.23300
H  27.03200 -1.34700 40.73600
N  21.99100 -6.78900 45.80600
C  21.36100 -5.96400 44.88300
C  19.96800 -6.40800 44.76900
C  19.72100 -7.39800 45.71500
C  21.08300 -7.70800 46.36600
C  18.99300 -5.81600 43.75000
C  18.45800 -8.04900 45.96100
O  17.43200 -7.73400 45.32700
C  18.24300 -9.12700 47.01100
N  23.82700 -8.19200 47.73500
C  22.67100 -8.84000 47.93000
C  22.91300 -10.12200 48.81700
C  24.34300 -9.98400 49.29000
C  24.80400 -8.76700 48.47000
C  21.89800 -10.11000 50.00300
C  25.20500 -11.23500 49.04100
C  25.72600 -11.63800 47.69200
N  25.87500 -6.21200 47.25900
C  26.67900 -7.13100 48.00100
C  28.01800 -6.55300 48.15700
C  28.00300 -5.42400 47.34500
C  26.67800 -5.35800 46.73400
C  29.22800 -7.25000 48.85000
C  28.78600 -4.36500 46.74600
O  30.02700 -4.19100 46.81700
C  27.86500 -3.72900 45.65100
C  27.91100 -2.28900 45.80500
O  28.65200 -1.51300 45.26400
O  26.88500 -1.87900 46.55100
C  26.66700 -0.44000 46.69800
H  21.47800 -4.25000 43.50800
H  20.69100 -9.36400 47.68100
H  26.71000 -8.82500 49.25000
H  25.52500 -2.08500 44.30800
H  23.85600 -3.46700 42.29800
H  22.53700 -1.51900 42.52500
H  23.37100 -1.00000 43.89400
H  22.06400 -2.17300 44.11700
H  25.86900 -3.63200 41.69300
H  27.05800 -3.86700 42.90900
H  27.99200 -1.99300 42.60100
H  26.54100 -1.04100 42.82500
H  18.84300 -6.46200 42.88500
H  19.30500 -4.81100 43.46900
H  18.02800 -5.74100 44.25100
H  17.19000 -9.39500 47.09800
H  18.61400 -8.74600 47.96300
H  18.78000 -10.03800 46.74700
H  22.82500 -10.95300 48.11800
H  24.36500 -9.75300 50.35500
H  22.18900 -10.23800 51.04600
H  21.22200 -10.95600 49.87600
H  21.42600 -9.12900 49.95200
H  24.66700 -12.09200 49.44400
H  25.97300 -11.12900 49.80700
H  26.73500 -12.02600 47.83200
H  25.88900 -10.68700 47.18500
H  25.12000 -12.38500 47.17800
H  28.98900 -8.31300 48.80800
H  29.29500 -6.92300 49.88700
H  30.18700 -7.01200 48.38900
H  28.42400 -3.77600 44.71600
H  27.42400 0.08300 47.28200
H  25.78800 -0.20900 47.30000
H  26.53300 0.06400 45.74100

