158

Mg 25.73100 0.36400 29.41900
C  27.81000 0.21200 32.32100
C  23.01800 0.82100 31.52900
C  23.77000 0.10200 26.71200
C  28.55000 -0.70200 27.50800
N  25.42900 0.47900 31.65400
C  26.42800 0.40100 32.62200
C  25.80300 0.53200 34.03100
C  24.26900 0.65500 33.74800
C  24.21400 0.67300 32.20000
C  23.31600 -0.36800 34.46000
C  26.50100 1.59100 34.94300
C  25.50400 2.09000 36.06300
H  25.95500 1.97800 37.44300
N  23.73100 0.60000 29.12900
C  22.79100 0.79100 30.10200
C  21.48200 0.85100 29.45900
C  21.74600 0.86400 28.02700
C  23.17600 0.46900 27.94300
C  20.20300 1.01800 30.28300
C  20.79200 1.11100 26.82200
O  21.02100 1.11100 25.57700
C  19.52600 1.76300 27.21600
N  26.15300 -0.39700 27.37800
C  25.16100 -0.27800 26.40600
C  25.61200 -0.85500 25.03800
C  27.17400 -0.96600 25.25200
C  27.33100 -0.65500 26.76100
C  24.99300 -2.17000 24.74300
C  28.02000 0.06400 24.40900
C  27.56500 1.46600 24.54900
N  27.76300 -0.05800 29.75300
C  28.73200 -0.52600 28.93800
C  29.98600 -0.62900 29.67600
C  29.65800 -0.37600 31.02100
C  28.28700 -0.10100 31.05700
C  31.23800 -1.07000 29.01300
C  30.18200 -0.25900 32.37000
O  31.36600 -0.33200 32.78200
C  29.02200 0.03200 33.27200
C  28.82400 -1.00900 34.33900
O  28.64000 -2.17800 34.11300
O  29.11400 -0.45900 35.59800
C  29.10200 -1.42600 36.79000
H  22.11800 0.97900 32.12600
H  23.03600 -0.11000 25.93200
H  29.40200 -1.11400 26.96400
H  26.05200 -0.41000 34.52000
H  23.91200 1.64100 34.04400
H  22.51900 0.16800 34.97500
H  23.84800 -1.02700 35.14700
H  22.92700 -1.00400 33.66500
H  26.96500 2.34200 34.30300
H  27.34900 1.03100 35.33700
H  24.59100 1.49700 36.11100
H  25.34400 3.16300 35.95400
H  20.33600 0.59000 31.27700
H  19.26200 0.67600 29.85200
H  19.93200 2.07100 30.37000
H  18.83400 1.08900 27.72000
H  19.02300 2.14400 26.32700
H  19.81300 2.67900 27.73200
H  25.34000 -0.19400 24.21500
H  27.55800 -1.96700 25.05500
H  24.17600 -2.37000 25.43600
H  25.73000 -2.91300 25.04800
H  24.63300 -2.27700 23.71900
H  28.00200 -0.30800 23.38400
H  29.06300 -0.07900 24.69200
H  26.72200 1.67100 25.20900
H  27.35600 1.85800 23.55400
H  28.32200 2.10700 25.00000
H  31.75700 -1.43200 29.90000
H  31.89900 -0.30900 28.59900
H  30.94800 -1.79500 28.25200
H  29.23600 1.01300 33.69600
H  29.03100 -2.47500 36.50000
H  28.23200 -1.36600 37.44400
H  29.97200 -1.33300 37.44000
Mg 16.39300 52.88300 26.51200
C  18.42400 51.34000 29.15300
C  14.12200 53.68300 28.98800
C  14.56400 54.02000 24.18000
C  18.69700 51.53900 24.23600
N  16.24300 52.45700 28.83200
C  17.25800 51.96700 29.61400
C  16.89500 52.31100 31.03100
C  15.36300 52.59200 30.90800
C  15.26200 52.98700 29.50200
C  14.44400 51.32400 31.25500
C  17.79900 53.44300 31.48400
C  17.87600 53.77300 33.01700
H  16.96100 53.01400 34.02800
N  14.63300 53.85300 26.59700
C  13.84700 54.11200 27.67800
C  12.66700 54.83500 27.26300
C  12.74900 54.92800 25.85600
C  13.99900 54.28600 25.43900
C  11.49200 55.19800 28.16800
C  11.68000 55.42000 24.81900
O  11.94000 55.46200 23.60900
C  10.25500 55.92000 25.30000
N  16.54700 52.68900 24.51000
C  15.63900 53.30300 23.76300
C  15.80100 53.01600 22.28900
C  17.28800 52.37700 22.29900
C  17.62300 52.25500 23.75000
C  14.72000 52.20700 21.69700
C  18.40200 53.16700 21.52900
C  19.29600 52.24200 20.73700
N  18.22000 51.71700 26.60400
C  19.04200 51.23100 25.59100
C  20.21300 50.62100 26.09700
C  20.00700 50.64400 27.48800
C  18.78400 51.30400 27.75300
C  21.36600 49.96300 25.36600
C  20.67500 50.26000 28.70900
O  21.78800 49.78000 28.85900
C  19.71800 50.80300 29.91000
C  19.35400 49.68100 30.84000
O  19.07700 48.53300 30.53400
O  19.49600 50.03000 32.16400
C  19.55300 48.92500 33.17600
H  13.32100 53.79300 29.72200
H  13.95200 54.42600 23.37100
H  19.51300 51.28300 23.55600
H  17.16900 51.51500 31.72400
H  15.02800 53.35700 31.60800
H  14.29900 51.22700 32.33100
H  15.03400 50.53500 30.78800
H  13.50800 51.42500 30.70500
H  17.53300 54.37200 30.97700
H  18.81800 53.35500 31.10900
H  17.49400 54.79400 33.01700
H  18.87900 53.84000 33.43800
H  10.76000 54.39200 28.22100
H  10.90600 56.05700 27.84100
H  11.98800 55.45100 29.10500
H  10.35300 56.88000 25.80700
H  9.95300 55.13000 25.98700
H  9.63800 56.12200 24.42400
H  15.85300 54.01100 21.84800
H  17.25200 51.34600 21.94700
H  15.23400 51.54300 21.00300
H  13.91500 52.74900 21.20000
H  14.21700 51.61600 22.46300
H  19.03700 53.80500 22.14500
H  17.91400 53.87700 20.86100
H  19.27000 51.20700 21.07700
H  20.34300 52.43700 20.96700
H  19.14500 52.37700 19.66600
H  22.30300 49.96300 25.92400
H  21.60200 50.49700 24.44600
H  21.18400 48.88800 25.33600
H  20.17600 51.59600 30.50000
H  19.54200 49.45300 34.13000
H  20.42600 48.28100 33.07500
H  18.62300 48.36800 33.06200

