158

Mg 30.12800 57.95100 39.92600
C  27.24300 56.04100 38.89700
C  32.04700 55.17300 39.06800
C  32.74200 59.98200 40.18900
C  27.97600 60.71200 40.47300
N  29.68400 55.85900 38.90200
C  28.40700 55.27400 38.72000
C  28.56300 53.85700 38.43700
C  30.06500 53.54900 38.91000
C  30.67200 54.92600 38.92800
C  30.22500 52.83000 40.32500
C  28.20100 53.21700 37.09800
C  28.77100 53.94700 35.93500
H  27.96400 54.71700 34.91600
N  32.13900 57.64500 39.63800
C  32.70900 56.42700 39.30300
C  34.12800 56.70300 39.18400
C  34.38500 58.07700 39.51300
C  33.04900 58.64200 39.75000
C  35.17600 55.64300 38.89800
C  35.71800 58.74900 39.48700
O  36.73800 58.04800 39.45500
C  35.83000 60.26100 39.52200
N  30.33400 60.14300 40.16400
C  31.51900 60.69700 40.30500
C  31.45900 62.18400 40.63700
C  29.93100 62.39500 40.95400
C  29.38400 61.04000 40.42300
C  32.42600 62.75200 41.79700
C  29.34200 63.68000 40.27400
C  28.92600 64.86300 41.18000
N  27.99700 58.33500 39.87600
C  27.33000 59.43800 40.11600
C  25.96300 59.11000 40.16900
C  25.84200 57.84900 39.58900
C  27.10300 57.32400 39.44200
C  24.85200 60.13600 40.33400
C  24.89800 56.77600 39.10100
O  23.65600 56.76200 38.99600
C  25.78700 55.62200 38.61500
C  25.24700 54.43200 39.36700
O  25.32200 54.25500 40.54400
O  24.61200 53.60400 38.43700
C  23.79200 52.64700 39.14100
H  32.67200 54.28000 39.01500
H  33.57800 60.68000 40.26800
H  27.26500 61.51400 40.68300
H  27.85300 53.29200 39.04100
H  30.60300 52.92000 38.20000
H  30.67600 51.84200 40.23400
H  29.27600 52.75500 40.85600
H  30.75400 53.46800 41.03300
H  27.14600 53.00300 36.92800
H  28.71800 52.25900 37.15400
H  29.42700 53.26600 35.39200
H  29.24600 54.79400 36.43000
H  34.76900 54.63800 39.01100
H  35.93300 55.75600 39.67500
H  35.50400 55.74300 37.86300
H  36.81000 60.58300 39.16800
H  35.69100 60.71900 40.50100
H  35.16400 60.64800 38.75100
H  31.71200 62.70900 39.71600
H  29.80400 62.45900 42.03400
H  32.76100 63.75700 41.54200
H  33.32000 62.17900 42.04600
H  31.80200 62.87600 42.68300
H  28.42400 63.47200 39.72300
H  30.01100 64.11700 39.53300
H  27.83800 64.91500 41.22000
H  29.41100 65.82300 40.99900
H  29.09000 64.62700 42.23200
H  23.95200 59.71800 40.78500
H  24.70500 60.53300 39.33000
H  25.18400 60.97800 40.94200
H  25.62400 55.47700 37.54700
H  24.35400 52.18400 39.95200
H  23.57000 51.80200 38.48900
H  22.82200 53.00700 39.48400
Mg 36.29600 49.29700 24.85400
C  36.39300 47.45900 27.80300
C  34.87800 51.93400 26.72800
C  35.83700 51.00600 22.00700
C  37.30200 46.53900 23.11900
N  35.66100 49.63700 26.95100
C  36.02600 48.81600 27.97600
C  35.82800 49.41900 29.37000
C  35.06400 50.79000 29.02100
C  35.22500 50.81100 27.45300
C  33.57800 50.81600 29.45700
C  37.18500 49.71200 30.04500
C  37.27800 49.60800 31.57300
H  35.95900 49.66400 32.43500
N  35.49400 51.27100 24.43200
C  35.04200 52.16200 25.31400
C  34.86800 53.41400 24.61900
C  35.18000 53.27500 23.27300
C  35.53800 51.80700 23.15900
C  34.49900 54.68000 25.38000
C  35.33000 54.27400 22.21000
O  35.70100 53.97200 21.11300
C  34.78600 55.63700 22.43800
N  36.33900 48.71600 22.78900
C  36.23800 49.66900 21.78700
C  36.58300 49.11600 20.37000
C  37.29100 47.82500 20.85800
C  36.98400 47.65100 22.32200
C  35.28400 48.92900 19.50600
C  38.82000 47.74100 20.75900
C  39.57400 48.22700 19.50400
N  36.76600 47.33400 25.29100
C  37.15200 46.32000 24.53600
C  37.51100 45.20700 25.34200
C  37.17700 45.55600 26.64100
C  36.75800 46.90000 26.51800
C  38.18900 44.01900 24.90200
C  37.03100 45.10200 27.96100
O  37.20100 43.98400 28.48900
C  36.68800 46.37500 28.83100
C  35.53500 46.01600 29.70100
O  34.38100 45.63200 29.41800
O  35.89000 46.02900 31.02900
C  34.96200 45.25600 31.87300
H  34.49100 52.73800 27.35700
H  35.78000 51.45000 21.01100
H  37.74200 45.69800 22.57800
H  35.31900 48.73900 30.05300
H  35.61200 51.64500 29.41600
H  32.87400 51.04500 28.65600
H  33.33500 51.54100 30.23300
H  33.36100 49.81100 29.82000
H  37.54300 50.70400 29.77200
H  37.80400 48.95100 29.56900
H  37.91900 50.41300 31.93100
H  37.77400 48.64500 31.70100
H  34.14700 54.45800 26.38700
H  33.67800 55.15900 24.84600
H  35.41500 55.26700 25.30600
H  35.47200 56.02200 23.19200
H  33.73900 55.44900 22.67800
H  34.93600 56.36300 21.63900
H  37.36000 49.72300 19.90500
H  36.87100 46.93600 20.38700
H  34.44700 49.00700 20.20100
H  35.37300 47.98700 18.96500
H  35.34700 49.78400 18.83300
H  38.90900 46.65600 20.71100
H  39.29600 48.04400 21.69200
H  38.99900 48.50500 18.62100
H  40.23400 47.41900 19.18600
H  40.27200 49.03600 19.71900
H  37.96800 43.14400 25.51400
H  39.26100 44.20900 24.95900
H  37.72300 43.86800 23.92900
H  37.56000 46.72600 29.38200
H  35.64900 45.01500 32.68300
H  34.58700 44.33300 31.43000
H  34.21000 45.96200 32.22600

