158

Mg 8.76700 3.97800 28.02000
C  10.15500 2.18700 30.81300
C  6.93900 5.81300 30.34400
C  7.24600 5.44500 25.57600
C  10.16100 1.56300 25.94800
N  8.58600 3.97600 30.37000
C  9.39000 3.21800 31.23800
C  9.18100 3.74800 32.64800
C  7.98500 4.78400 32.45600
C  7.75500 4.83400 30.96000
C  6.67900 4.29800 33.15700
C  10.47000 4.52300 33.23600
C  10.34100 5.20300 34.60000
H  11.14800 4.57500 35.68100
N  7.33900 5.54300 27.96400
C  6.70800 6.13900 28.98200
C  5.84900 7.12500 28.51700
C  5.93700 7.06400 27.05700
C  6.89000 6.02700 26.79600
C  5.13300 8.04900 29.43900
C  5.17400 7.91300 25.98700
O  5.32000 7.73100 24.76700
C  4.29500 9.02000 26.41200
N  8.59100 3.44600 26.04200
C  7.99500 4.30000 25.21400
C  8.37200 3.97500 23.69800
C  9.41800 2.75800 23.84900
C  9.42200 2.61500 25.39300
C  7.10300 3.69600 22.81400
C  10.88300 3.13800 23.35200
C  11.51400 2.25400 22.15000
N  9.92600 2.23900 28.29900
C  10.37100 1.46800 27.29600
C  11.32500 0.47700 27.83700
C  11.17500 0.68800 29.27200
C  10.31400 1.78300 29.47300
C  12.10700 -0.62000 27.12400
C  11.67200 0.27300 30.52400
O  12.34300 -0.67300 30.87100
C  11.06300 1.26600 31.54700
C  10.33000 0.55800 32.70800
O  9.36600 -0.19800 32.68200
O  11.03200 0.90800 33.83500
C  10.42500 0.41700 35.06500
H  6.53900 6.43000 31.15100
H  6.85700 6.00300 24.72300
H  10.69300 0.78700 25.39400
H  8.88500 2.93100 33.30500
H  8.18000 5.77100 32.87400
H  6.66800 4.71700 34.16300
H  6.79000 3.21600 33.23400
H  5.74100 4.48400 32.63400
H  10.63800 5.32400 32.51600
H  11.31500 3.83500 33.24400
H  9.31300 5.33900 34.93500
H  10.75100 6.19700 34.42300
H  4.08100 7.86000 29.22600
H  5.40300 9.10300 29.37600
H  5.16400 7.78300 30.49500
H  3.91600 9.44500 25.48200
H  4.96800 9.74200 26.87400
H  3.47800 8.70300 27.06000
H  8.84500 4.87500 23.30400
H  8.89800 1.89200 23.43800
H  6.16700 3.76900 23.36800
H  7.19400 2.75700 22.26900
H  7.11600 4.40100 21.98300
H  11.64800 3.00400 24.11700
H  10.95200 4.17700 23.03100
H  10.89000 1.36400 22.06900
H  12.53600 1.90700 22.30200
H  11.62400 2.81900 21.22500
H  13.06000 -0.14000 26.90100
H  11.66100 -0.84300 26.15500
H  12.24700 -1.50200 27.74700
H  11.88600 1.85800 31.94800
H  9.34700 0.47400 35.21100
H  10.82900 0.99800 35.89500
H  10.79100 -0.60300 35.17700
Mg -10.37300 17.43700 40.58200
C  -6.97300 17.03200 40.82900
C  -9.86700 20.87600 39.88300
C  -13.57500 17.64600 39.50300
C  -10.52900 13.88100 40.28400
N  -8.55900 18.80800 40.39700
C  -7.30600 18.41800 40.63400
C  -6.36300 19.61200 40.48100
C  -7.37500 20.87400 40.58800
C  -8.64800 20.17800 40.27000
C  -7.40000 21.61800 41.99900
C  -5.82500 19.52200 38.93000
C  -4.32300 19.39600 38.75800
H  -3.88500 18.59600 37.58300
N  -11.54500 19.07700 40.07000
C  -11.20000 20.38800 39.75400
C  -12.27400 21.02300 39.20900
C  -13.43600 20.18400 39.39800
C  -12.87900 18.85700 39.63400
C  -12.30700 22.48400 38.74800
C  -14.88000 20.71200 39.40100
O  -15.17900 21.89200 39.07100
C  -16.03700 19.82100 39.75000
N  -11.72400 16.03300 39.89300
C  -12.98700 16.33800 39.64000
C  -13.83600 15.03700 39.28700
C  -12.89600 13.85400 39.50200
C  -11.62200 14.61700 39.90400
C  -15.09300 15.00100 40.20500
C  -12.59500 13.04400 38.21600
C  -13.83400 12.53400 37.48700
N  -9.10700 15.68200 40.70800
C  -9.32300 14.34000 40.55800
C  -8.03800 13.61900 40.86500
C  -7.02900 14.69500 40.94900
C  -7.75600 15.89300 40.91600
C  -7.73100 12.13800 40.86000
C  -5.61100 14.91700 41.11400
O  -4.70200 14.13800 41.28800
C  -5.55600 16.51900 41.03500
C  -4.94400 16.99900 42.27600
O  -4.10600 17.89400 42.30500
O  -5.39600 16.31800 43.37300
C  -4.77100 16.72600 44.67700
H  -9.77000 21.95200 39.72400
H  -14.62100 17.66600 39.18900
H  -10.77400 12.81700 40.30100
H  -5.57600 19.62600 41.23500
H  -7.23700 21.60200 39.78900
H  -6.50300 21.23400 42.48400
H  -8.30200 21.22100 42.46400
H  -7.33800 22.70400 41.93100
H  -6.03100 20.44800 38.39400
H  -6.34400 18.70300 38.43200
H  -3.78200 19.20500 39.68500
H  -3.97300 20.40800 38.55800
H  -12.97100 22.63600 37.89700
H  -11.33000 22.76100 38.35200
H  -12.54600 23.20100 39.53300
H  -16.89800 20.40200 40.07900
H  -15.72700 19.05800 40.46500
H  -16.35300 19.39500 38.79800
H  -14.09100 15.15600 38.23400
H  -13.25300 13.14300 40.24600
H  -15.15700 15.95400 40.72900
H  -15.02700 14.23900 40.98200
H  -15.99300 14.87300 39.60300
H  -12.03800 12.19000 38.60000
H  -11.90000 13.56500 37.55700
H  -14.71700 12.96200 37.96200
H  -13.80300 11.44600 37.42600
H  -13.82400 12.90300 36.46200
H  -6.81300 11.98800 41.42900
H  -7.54200 11.89700 39.81400
H  -8.62500 11.58800 41.15300
H  -4.86900 16.82700 40.24700
H  -5.37200 17.52800 45.10600
H  -3.76800 17.12000 44.51000
H  -4.72600 15.88600 45.37000

