158

Mg 23.77500 -5.72500 45.05700
C  25.84500 -3.30700 43.68900
C  21.15700 -4.50800 43.11900
C  22.08800 -8.56100 45.57800
C  26.53700 -7.16400 46.51900
N  23.62700 -4.22400 43.35000
C  24.57200 -3.24900 43.09500
C  23.99200 -2.12800 42.14300
C  22.41500 -2.40900 42.18100
C  22.38400 -3.82900 42.90000
C  21.36500 -1.40800 42.83200
C  24.57900 -2.41000 40.69200
C  25.10300 -1.11400 40.02600
H  24.75100 -0.95000 38.46000
N  21.78200 -6.38000 44.57100
C  20.88500 -5.70200 43.79400
C  19.60400 -6.35200 43.99200
C  19.83500 -7.65300 44.51000
C  21.27000 -7.63200 44.87400
C  18.31500 -5.81600 43.40500
C  18.83500 -8.68600 44.74400
O  17.66300 -8.40100 44.49700
C  19.12800 -10.01600 45.39000
N  24.23300 -7.61600 45.84500
C  23.32900 -8.57700 46.06600
C  23.82700 -9.68000 46.91900
C  25.29200 -9.10500 47.28300
C  25.34500 -7.91700 46.45100
C  22.95800 -10.15400 48.13300
C  26.48900 -10.11200 47.04400
C  27.37500 -10.43500 48.26800
N  25.75600 -5.40900 45.12200
C  26.78300 -6.02500 45.79600
C  27.99800 -5.22700 45.74100
C  27.66100 -4.23800 44.83200
C  26.30700 -4.31500 44.53000
C  29.31800 -5.64100 46.37700
C  28.19800 -3.14800 44.08600
O  29.33600 -2.69900 44.09100
C  27.02700 -2.55700 43.23000
C  26.82500 -1.09700 43.45600
O  26.20400 -0.52000 44.39700
O  27.51500 -0.41000 42.51100
C  27.46300 1.08200 42.50100
H  20.25300 -3.98100 42.80500
H  21.69000 -9.54100 45.84700
H  27.40000 -7.48100 47.10900
H  24.14600 -1.17900 42.65700
H  22.05800 -2.60400 41.16900
H  20.96400 -0.72500 42.08300
H  21.95100 -0.83100 43.54800
H  20.52800 -1.91000 43.31600
H  23.79400 -2.78800 40.03700
H  25.31600 -3.21300 40.67300
H  26.13700 -1.05300 40.36400
H  24.65300 -0.22800 40.47600
H  18.31100 -6.08300 42.34800
H  18.29300 -4.72700 43.40300
H  17.44600 -6.13600 43.98100
H  18.28300 -10.70200 45.33700
H  19.45000 -9.82900 46.41400
H  19.98800 -10.46800 44.89500
H  23.85100 -10.54800 46.26000
H  25.36600 -8.61600 48.25400
H  23.54000 -10.28600 49.04500
H  22.59000 -11.12400 47.79800
H  22.15800 -9.41800 48.22100
H  27.18400 -9.57000 46.40300
H  26.14200 -11.06200 46.63800
H  28.34000 -9.96000 48.09400
H  27.51800 -11.48700 48.51700
H  26.93900 -10.08600 49.20400
H  29.05000 -5.97900 47.37800
H  30.07600 -4.86900 46.24600
H  29.62900 -6.46300 45.73200
H  27.21200 -2.82600 42.19000
H  28.31600 1.61100 42.92500
H  26.70300 1.39000 43.21900
H  27.18000 1.46700 41.52200
Mg 47.69000 35.71900 27.06200
C  45.87300 34.23000 29.75500
C  48.07900 38.42000 28.95400
C  49.09900 37.08000 24.40900
C  46.65800 32.90400 25.11100
N  47.05200 36.19800 29.12700
C  46.47800 35.44100 30.05900
C  46.69800 36.07900 31.48200
C  47.05000 37.54800 31.05800
C  47.40400 37.40600 29.61300
C  45.94500 38.62600 31.30200
C  47.86000 35.42800 32.28200
C  47.63100 35.21300 33.80400
H  46.75400 36.28800 34.50900
N  48.52100 37.56500 26.72200
C  48.60500 38.54200 27.68200
C  49.52000 39.56000 27.17700
C  49.71700 39.26600 25.75700
C  49.10400 37.91500 25.52600
C  50.23500 40.53700 28.02200
C  50.50400 39.99800 24.58400
O  50.56200 39.52100 23.47000
C  51.05000 41.32400 24.92400
N  47.72300 35.13600 24.98400
C  48.54500 35.80900 24.17200
C  48.85900 34.94500 22.94000
C  48.13700 33.65500 23.22900
C  47.46000 33.90000 24.53200
C  48.40900 35.65000 21.59600
C  49.07400 32.41400 23.14700
C  49.81900 32.01900 21.89100
N  46.38900 33.94600 27.26500
C  46.16700 32.88300 26.40700
C  45.33800 31.97200 27.08700
C  45.17500 32.46500 28.35000
C  45.87700 33.63100 28.44200
C  44.86700 30.69400 26.57400
C  44.73400 32.15000 29.66500
O  44.23400 31.13900 30.12100
C  44.90900 33.40500 30.55100
C  45.30400 33.01700 31.91300
O  46.36700 32.49400 32.24100
O  44.31800 33.28200 32.77400
C  44.44800 32.90600 34.16100
H  48.27000 39.17600 29.71800
H  49.79600 37.35500 23.61500
H  46.51200 32.03300 24.46900
H  45.69500 36.00400 31.90200
H  47.93100 37.88700 31.60300
H  46.32200 39.42000 31.94700
H  45.06400 38.20800 31.78800
H  45.72800 38.97000 30.29100
H  48.70800 36.10900 32.35300
H  47.98900 34.40800 31.92100
H  48.65100 35.35300 34.16200
H  47.30800 34.21100 34.08700
H  49.91100 41.52900 27.70800
H  51.29900 40.42000 27.81600
H  50.01100 40.42000 29.08200
H  51.20600 41.93100 24.03200
H  52.04600 41.26900 25.36500
H  50.35300 41.92700 25.50600
H  49.93500 34.77800 22.97500
H  47.43800 33.41300 22.42900
H  47.40700 35.39200 21.25200
H  49.17400 35.43200 20.85100
H  48.37400 36.73000 21.73800
H  48.51500 31.52700 23.44600
H  49.84300 32.60700 23.89500
H  49.52900 32.72000 21.10900
H  49.60600 30.97600 21.65700
H  50.88100 32.06400 22.13400
H  44.72600 30.73700 25.49400
H  43.95300 30.42500 27.10300
H  45.68400 29.97800 26.65500
H  44.04100 34.05800 30.65300
H  45.50100 32.73500 34.38200
H  43.82400 32.09800 34.54500
H  44.12500 33.72900 34.79900

