158

Mg -1.97400 17.00300 27.47200
C  -2.31000 14.72000 30.09400
C  -2.36700 19.56300 29.56400
C  -1.93900 18.91500 24.73800
C  -2.17400 14.14400 25.18200
N  -2.34800 17.06700 29.55500
C  -2.46000 16.09700 30.45000
C  -3.05000 16.64700 31.80100
C  -2.89700 18.19300 31.65100
C  -2.58700 18.31100 30.15800
C  -4.09200 19.08500 32.18300
C  -2.22300 16.02400 32.91000
C  -2.04400 16.64600 34.28800
H  -2.24100 15.76800 35.52900
N  -2.03400 18.89900 27.19200
C  -2.17400 19.90500 28.19100
C  -2.14200 21.18300 27.56700
C  -1.88100 21.07100 26.16000
C  -1.94500 19.58600 26.01300
C  -2.34700 22.46600 28.43900
C  -1.58500 22.13500 25.09900
O  -1.41800 21.92600 23.89400
C  -1.42100 23.61600 25.55900
N  -2.00900 16.59700 25.20600
C  -2.05800 17.56400 24.35500
C  -2.07100 17.13400 22.89000
C  -2.12900 15.61400 23.05600
C  -2.06700 15.42200 24.60100
C  -3.22600 17.81000 22.02900
C  -1.16100 14.85800 22.12900
C  0.19900 14.43400 22.79200
N  -2.20000 14.87400 27.51600
C  -2.27300 13.84500 26.54200
C  -2.33700 12.55500 27.25800
C  -2.36100 12.90800 28.62500
C  -2.30600 14.27400 28.73500
C  -2.51900 11.14900 26.66100
C  -2.50400 12.29100 29.93800
O  -2.54200 11.08700 30.19600
C  -2.39000 13.42900 30.98100
C  -1.14700 13.22200 31.72500
O  -0.13000 13.79700 31.44900
O  -1.28000 12.31500 32.78400
C  -0.10900 12.19400 33.64500
H  -2.40600 20.48300 30.15200
H  -1.95900 19.64800 23.92900
H  -2.35100 13.26100 24.56400
H  -4.11100 16.39500 31.79000
H  -2.10500 18.64900 32.24500
H  -4.88200 18.55900 32.71800
H  -4.59500 19.63600 31.38800
H  -3.82100 19.81300 32.94700
H  -1.20500 15.88400 32.54600
H  -2.63000 15.05000 33.18200
H  -2.70700 17.51100 34.27300
H  -1.00100 16.96000 34.32200
H  -1.33500 22.70900 28.76300
H  -3.01700 22.32500 29.28700
H  -2.85900 23.23000 27.85400
H  -1.07700 24.25200 24.74300
H  -0.72700 23.67500 26.39700
H  -2.46500 23.91200 25.67000
H  -1.10300 17.46100 22.51100
H  -3.13300 15.22200 22.89700
H  -2.91700 18.76500 21.60400
H  -4.10800 18.16900 22.55900
H  -3.52300 17.17000 21.19800
H  -0.95900 15.59000 21.34600
H  -1.66000 13.95500 21.77900
H  1.04100 14.87700 22.26100
H  0.37900 13.36500 22.90700
H  0.27800 14.89900 23.77500
H  -2.18900 11.05700 25.62600
H  -3.58200 10.91000 26.67900
H  -1.84700 10.63600 27.34900
H  -3.21500 13.39800 31.69200
H  0.65800 12.96500 33.57700
H  0.38500 11.25900 33.37800
H  -0.43800 12.17200 34.68400
Mg -5.62100 24.32500 26.24900
C  -4.20600 25.95400 28.91400
C  -7.58100 22.47700 28.23000
C  -6.73300 22.52900 23.49400
C  -3.48000 26.12400 24.16400
N  -5.73700 24.24100 28.34800
C  -5.08200 25.03400 29.31800
C  -5.61000 24.65500 30.73900
C  -6.42800 23.31900 30.43500
C  -6.61300 23.33900 28.91700
C  -5.62800 22.01900 30.88600
C  -6.46700 25.81300 31.41400
C  -6.38400 26.02700 33.01300
H  -5.67500 24.94800 33.80500
N  -6.98700 22.71200 25.89300
C  -7.74000 22.19700 26.85300
C  -8.72600 21.31500 26.22100
C  -8.58200 21.36700 24.82000
C  -7.40000 22.21700 24.69200
C  -9.75700 20.47700 27.01700
C  -9.32700 20.64500 23.63500
O  -9.05300 20.76100 22.49900
C  -10.50100 19.67000 23.90000
N  -5.07400 24.24400 24.18300
C  -5.68100 23.39700 23.27600
C  -4.92800 23.33800 21.98700
C  -4.12200 24.66600 22.11800
C  -4.24800 25.10500 23.55200
C  -4.08400 22.09300 21.90100
C  -4.47800 25.78100 21.08700
C  -3.37400 26.62300 20.38800
N  -4.10500 25.76800 26.37900
C  -3.29500 26.39400 25.49600
C  -2.42300 27.33000 26.19700
C  -2.79200 27.20900 27.50900
C  -3.80300 26.22200 27.56500
C  -1.38400 28.10100 25.54800
C  -2.50700 27.71000 28.81600
O  -1.78300 28.63300 29.22400
C  -3.41900 26.87900 29.76800
C  -2.53100 26.08700 30.70600
O  -2.11800 24.96800 30.51300
O  -2.52000 26.77400 31.88200
C  -1.70400 26.09200 32.94300
H  -8.12100 21.83300 28.92600
H  -6.98200 21.95100 22.60100
H  -2.84400 26.70200 23.49100
H  -4.76700 24.35000 31.35900
H  -7.43200 23.18200 30.83600
H  -5.19500 21.57300 29.99100
H  -6.17700 21.27800 31.46800
H  -4.74500 22.28100 31.46800
H  -7.51900 25.62100 31.20400
H  -6.17600 26.77400 30.98900
H  -7.39100 26.20200 33.39400
H  -5.84400 26.95100 33.21700
H  -9.55200 19.41100 26.92100
H  -10.71400 20.65500 26.52600
H  -9.77700 20.60100 28.10000
H  -11.06300 19.34200 23.02500
H  -11.20500 20.12300 24.59800
H  -10.15900 18.75600 24.38400
H  -5.58900 23.31500 21.12100
H  -3.08300 24.37100 21.97500
H  -3.17200 22.44000 21.41500
H  -4.46900 21.26500 21.30500
H  -3.74200 21.74700 22.87600
H  -5.15200 26.50400 21.54700
H  -4.97600 25.32400 20.23300
H  -3.69400 26.89200 19.38200
H  -2.42400 26.09800 20.29600
H  -3.27000 27.55600 20.94200
H  -1.54100 29.17900 25.51900
H  -1.24700 27.76900 24.51800
H  -0.45700 27.80600 26.04000
H  -4.04400 27.59600 30.30100
H  -0.75700 26.63000 32.97200
H  -1.55200 25.02400 32.79200
H  -2.19900 26.11100 33.91400

