158

Mg 46.59900 24.54100 28.30700
C  47.45800 26.82600 30.78500
C  45.64800 22.38000 30.79200
C  45.74700 22.38200 25.96300
C  47.32500 26.85900 25.88800
N  46.46600 24.66700 30.54300
C  46.83400 25.70200 31.33700
C  46.61600 25.45200 32.89000
C  46.17000 23.90300 32.81800
C  46.06900 23.60400 31.26700
C  47.22300 22.97700 33.47500
C  45.47700 26.43600 33.50200
C  45.90900 27.13600 34.77300
H  44.87200 27.40200 35.85100
N  45.78300 22.60400 28.34400
C  45.43400 21.91600 29.43000
C  44.92900 20.69900 29.04400
C  45.17400 20.56100 27.68100
C  45.53900 21.89800 27.22300
C  44.51400 19.61700 30.04100
C  45.05600 19.32300 26.82000
O  45.02100 19.40100 25.57300
C  44.81100 17.98900 27.42900
N  46.70500 24.49800 26.21100
C  46.24700 23.54300 25.42200
C  46.30900 23.81500 23.95700
C  46.55700 25.35800 23.98400
C  46.93700 25.60800 25.45900
C  47.49700 23.15900 23.28100
C  45.35000 26.24500 23.51300
C  44.09300 26.01600 24.24900
N  47.46500 26.43900 28.30100
C  47.61800 27.30400 27.23900
C  48.26800 28.52100 27.74300
C  48.22300 28.40400 29.15700
C  47.65300 27.13500 29.46100
C  48.75500 29.63100 26.85100
C  48.57000 29.05600 30.45600
O  49.05800 30.17400 30.70000
C  47.92000 28.12000 31.53300
C  48.94100 27.87000 32.57600
O  49.91000 27.20500 32.41200
O  48.55900 28.47200 33.70900
C  49.51500 28.54800 34.81500
H  45.47600 21.71000 31.63700
H  45.43000 21.77400 25.11300
H  47.40400 27.63300 25.12100
H  47.52900 25.44800 33.48600
H  45.20700 23.72500 33.29600
H  47.04600 21.93900 33.19300
H  47.11800 23.06400 34.55600
H  48.20500 23.23100 33.07600
H  44.55100 25.89000 33.68000
H  45.18900 27.24900 32.83500
H  46.24500 28.14000 34.51700
H  46.69200 26.56700 35.27600
H  45.32100 18.88400 30.05400
H  43.53500 19.24300 29.74300
H  44.51400 20.04900 31.04100
H  43.93000 17.72000 28.01200
H  45.64400 17.93900 28.13100
H  44.97500 17.21700 26.67800
H  45.38500 23.60800 23.41700
H  47.44900 25.72500 23.47600
H  48.34200 23.84300 23.19500
H  47.08500 22.86200 22.31700
H  47.83500 22.28500 23.83800
H  45.20000 26.12200 22.44000
H  45.60500 27.30200 23.57800
H  43.28100 25.92000 23.52900
H  43.82000 26.82800 24.92300
H  44.16300 25.12500 24.87400
H  48.81800 30.58300 27.37900
H  48.04000 29.74300 26.03600
H  49.68100 29.32600 26.36400
H  47.09900 28.62500 32.04100
H  50.21900 27.72000 34.73200
H  48.93800 28.33500 35.71500
H  49.93800 29.55300 34.82500
Mg 46.65100 34.69300 27.45100
C  45.00700 32.85400 29.98000
C  47.03400 37.18500 29.65200
C  47.72900 36.47100 24.90400
C  45.89200 32.06200 25.21000
N  46.23500 34.85700 29.59800
C  45.60100 34.06500 30.44200
C  45.88400 34.48600 31.88100
C  46.08100 36.07700 31.72800
C  46.46200 36.06300 30.21900
C  44.83200 36.93400 32.07400
C  47.22100 33.73500 32.32100
C  47.51000 33.56100 33.80800
H  46.72000 34.39700 34.82700
N  47.46100 36.50200 27.33500
C  47.58500 37.37800 28.32900
C  48.43600 38.44900 27.90800
C  48.51100 38.33400 26.47300
C  47.88000 37.03800 26.17100
C  49.20400 39.40900 28.80000
C  49.23000 39.19000 25.48200
O  49.37700 38.80800 24.29200
C  49.70000 40.55000 25.84200
N  46.73500 34.30500 25.42900
C  47.32900 35.16500 24.57400
C  47.20800 34.76500 23.08900
C  46.83400 33.28400 23.19700
C  46.43700 33.20000 24.67800
C  46.30900 35.56100 22.14200
C  47.98700 32.24300 22.74100
C  49.33800 32.15900 23.49300
N  45.63400 32.79100 27.53900
C  45.40600 31.83500 26.54800
C  44.84700 30.68800 27.14000
C  44.54300 31.07000 28.47300
C  45.07200 32.35100 28.63500
C  44.44800 29.37100 26.51800
C  43.92200 30.70700 29.74200
O  43.38100 29.66400 30.00800
C  44.08800 31.88000 30.69800
C  44.75500 31.32500 31.94100
O  45.82100 30.75000 31.96000
O  43.88700 31.46800 32.99500
C  44.42700 31.29700 34.37100
H  47.07900 37.98600 30.39300
H  48.01000 36.98900 23.98400
H  45.82400 31.22700 24.51000
H  45.10200 34.20900 32.58800
H  46.83500 36.39200 32.45000
H  43.93700 36.31800 32.16700
H  44.65100 37.68200 31.30300
H  44.90300 37.50400 33.00100
H  47.99500 34.30500 31.80600
H  47.29900 32.76700 31.82600
H  48.57000 33.64900 34.04300
H  47.24400 32.52600 34.02600
H  49.19500 39.03300 29.82300
H  48.77400 40.41100 28.79800
H  50.27100 39.40900 28.57500
H  50.35100 40.47600 26.71300
H  48.82600 41.19400 25.93500
H  50.37800 40.99300 25.11200
H  48.19600 35.02800 22.71300
H  45.96800 33.07200 22.57000
H  46.09500 36.49100 22.66800
H  45.43400 34.97300 21.86500
H  46.85900 35.83600 21.24200
H  48.26400 32.57700 21.74100
H  47.52200 31.26900 22.58800
H  49.36400 31.17600 23.96300
H  49.42200 32.96200 24.22600
H  50.25200 32.39100 22.94700
H  44.88500 29.20400 25.53300
H  43.37300 29.38200 26.33600
H  44.80800 28.58400 27.18000
H  43.17200 32.34000 31.06700
H  45.50400 31.45300 34.31500
H  44.33800 30.31400 34.83500
H  43.86300 31.99900 34.98500

