158

Mg 26.75700 0.82800 29.31300
C  28.45900 1.01700 32.35100
C  23.82700 1.73700 31.09300
C  24.98900 0.62500 26.43100
C  29.55000 -0.21800 27.74300
N  26.20500 1.40200 31.51500
C  27.04100 1.34700 32.61600
C  26.34900 1.65800 34.02500
C  24.87300 1.69000 33.49100
C  24.98800 1.58900 31.91000
C  24.01700 0.54700 34.08900
C  26.82700 3.02200 34.53900
C  27.50300 3.00500 35.90000
H  26.82600 3.67100 37.04400
N  24.65000 1.07900 28.86600
C  23.63400 1.41900 29.69700
C  22.43300 1.58900 28.99100
C  22.75800 1.33300 27.63200
C  24.18100 0.90400 27.57300
C  21.06400 1.85400 29.69900
C  21.88600 1.43100 26.35900
O  22.27200 1.20900 25.17200
C  20.44500 1.91900 26.54800
N  27.22700 0.38800 27.40100
C  26.34400 0.32200 26.35200
C  27.01800 0.09800 25.03100
C  28.54200 -0.22400 25.41200
C  28.49300 0.04900 26.90900
C  26.33500 -0.94500 24.12300
C  29.55700 0.64300 24.55400
C  30.53900 -0.21000 23.71700
N  28.56700 0.36900 29.93700
C  29.65000 -0.00600 29.12100
C  30.84100 0.01800 29.92600
C  30.49400 0.36600 31.16200
C  29.03100 0.57000 31.14300
C  32.13200 -0.27500 29.42700
C  30.92100 0.77200 32.47500
O  32.05000 0.89800 32.98900
C  29.65000 0.95300 33.35300
C  29.69200 -0.13500 34.41200
O  29.35600 -1.29500 34.19800
O  30.16500 0.32600 35.64700
C  29.88100 -0.51600 36.79000
H  23.01300 2.05100 31.75000
H  24.41700 0.64600 25.50100
H  30.52500 -0.38500 27.28100
H  26.63400 0.88500 34.73900
H  24.32500 2.60200 33.73000
H  23.27500 1.08400 34.68000
H  24.75700 -0.13200 34.51300
H  23.61800 -0.04900 33.26900
H  26.07000 3.80300 34.60200
H  27.60500 3.29900 33.82800
H  28.46700 3.49400 35.76300
H  27.72000 1.97700 36.19000
H  20.51500 2.61300 29.14100
H  21.12400 2.06500 30.76600
H  20.55700 0.90300 29.53800
H  20.01700 1.82200 25.55100
H  20.54000 2.96800 26.82500
H  19.83800 1.43300 27.31200
H  26.97500 1.07500 24.54800
H  28.71100 -1.28900 25.25000
H  25.58900 -1.46600 24.72300
H  27.12400 -1.58500 23.72700
H  25.83800 -0.38600 23.33000
H  30.06000 1.26300 25.29600
H  28.97700 1.15400 23.78600
H  31.54500 0.15100 23.93000
H  30.38800 0.01900 22.66200
H  30.46500 -1.28800 23.85900
H  32.56200 0.57600 28.89900
H  31.98900 -1.10300 28.73100
H  32.82500 -0.59700 30.20400
H  29.91400 1.85600 33.90400
H  29.48600 0.06300 37.62400
H  30.79300 -0.94500 37.20400
H  29.09700 -1.23900 36.56900
Mg 34.49600 47.59300 24.69200
C  35.09500 46.21200 27.86700
C  32.87000 50.32700 26.09900
C  33.62900 48.58400 21.65600
C  36.22800 44.94100 23.25400
N  34.07400 48.29300 26.77500
C  34.36300 47.51000 27.86900
C  33.91200 48.27800 29.17000
C  33.18800 49.57100 28.55400
C  33.36700 49.42500 27.07100
C  31.70200 49.85700 29.06600
C  35.00500 48.38000 30.24500
C  34.76400 47.68500 31.58200
H  33.40000 47.57100 32.24500
N  33.47700 49.30500 23.99800
C  32.88300 50.29400 24.72500
C  32.29800 51.27500 23.79200
C  32.33300 50.69900 22.55100
C  33.14100 49.43400 22.69700
C  31.72200 52.69700 24.28500
C  31.83500 51.25500 21.23500
O  31.84200 50.66200 20.17300
C  31.09400 52.60900 21.21400
N  34.90500 46.86100 22.72700
C  34.50500 47.50900 21.66000
C  35.13000 46.90500 20.36800
C  36.08600 45.84600 20.96500
C  35.76600 45.89800 22.38600
C  34.19200 46.37400 19.22100
C  37.55200 45.96000 20.55900
C  38.45600 44.68600 20.62700
N  35.39500 45.97000 25.36500
C  36.03300 44.91200 24.63300
C  36.39400 43.85000 25.59500
C  36.05400 44.25900 26.89000
C  35.49100 45.58700 26.65900
C  37.09600 42.55100 25.21700
C  36.05700 43.88600 28.29500
O  36.48200 42.88200 28.87800
C  35.36500 45.11700 29.02900
C  34.06400 44.71700 29.77200
O  32.92500 44.59800 29.27200
O  34.32100 44.47400 31.12000
C  33.21000 43.77300 31.80300
H  32.50700 51.26300 26.52900
H  33.37100 48.94500 20.65900
H  36.76800 44.05900 22.90500
H  33.09800 47.68800 29.59100
H  33.67600 50.46000 28.95300
H  31.05100 49.91900 28.19400
H  31.65400 50.84400 29.52600
H  31.41000 49.06200 29.75300
H  35.06400 49.45200 30.42900
H  35.95800 48.03300 29.84500
H  35.27000 48.31500 32.31400
H  35.19400 46.68500 31.63500
H  32.23900 53.48900 23.74200
H  31.96400 52.79300 25.34300
H  30.66200 52.81100 24.05800
H  31.80200 53.33800 21.61100
H  30.15600 52.72800 21.75700
H  30.76300 52.84100 20.20200
H  35.74500 47.68500 19.91900
H  35.76000 44.82300 20.77600
H  33.18000 46.52400 19.59600
H  34.31300 45.30000 19.08100
H  34.27600 46.85000 18.24400
H  37.97600 46.66100 21.27700
H  37.58100 46.46200 19.59200
H  39.24900 44.83900 21.35900
H  38.87200 44.58000 19.62500
H  37.87000 43.82000 20.93300
H  37.94700 42.71400 24.55600
H  36.47200 41.81200 24.71300
H  37.54900 42.16100 26.12900
H  35.96300 45.44200 29.88000
H  33.68500 43.42600 32.72000
H  32.78500 42.95900 31.21600
H  32.39700 44.46600 32.02000

