158

Mg 25.10700 -5.25700 45.90700
C  26.95500 -2.76900 44.40200
C  22.29700 -4.22000 44.07700
C  23.59700 -8.11900 46.87000
C  28.07900 -6.47900 47.54100
N  24.66300 -3.68000 44.43600
C  25.65800 -2.80300 43.94400
C  25.06600 -1.96700 42.84700
C  23.48200 -2.08500 43.17900
C  23.43700 -3.41300 43.96600
C  22.93400 -0.99900 44.12000
C  25.52400 -2.55600 41.45300
C  26.37400 -1.62500 40.52000
H  25.95600 -1.54000 39.02000
N  23.24900 -6.01700 45.54500
C  22.21500 -5.44300 44.82300
C  21.13000 -6.32700 44.80700
C  21.34700 -7.45500 45.56500
C  22.79500 -7.24000 46.04400
C  19.81800 -5.92700 44.18200
C  20.50800 -8.65800 45.75800
O  19.34200 -8.63800 45.35300
C  20.82500 -9.73700 46.66300
N  25.75600 -7.16700 46.94600
C  24.87100 -8.10200 47.26700
C  25.48800 -9.04000 48.30300
C  26.87800 -8.44300 48.62400
C  26.97500 -7.27500 47.62500
C  24.65800 -9.58400 49.58400
C  28.10800 -9.42000 48.63600
C  28.76900 -9.50500 49.97800
N  27.07500 -4.78600 46.03100
C  28.14900 -5.34700 46.72200
C  29.35400 -4.49300 46.48700
C  28.87300 -3.61800 45.48900
C  27.52800 -3.72800 45.35100
C  30.67800 -4.61100 46.99300
C  29.38000 -2.63100 44.57500
O  30.44100 -2.22000 44.43600
C  28.12000 -1.99600 43.83500
C  28.06900 -0.58400 44.16200
O  27.85600 -0.13300 45.27500
O  28.35400 0.20600 43.08700
C  28.85000 1.50600 43.41100
H  21.42100 -3.78800 43.58900
H  23.12300 -9.00000 47.30900
H  28.92600 -6.74500 48.17700
H  25.42600 -0.95800 43.05200
H  22.78700 -2.29400 42.36600
H  22.40600 -0.28100 43.49200
H  23.73500 -0.42200 44.58200
H  22.32500 -1.37800 44.94000
H  24.65000 -2.92000 40.91100
H  26.02100 -3.51900 41.56900
H  27.41800 -1.93300 40.55500
H  26.28600 -0.58700 40.83900
H  19.16300 -6.78900 44.05100
H  19.95400 -5.60300 43.15000
H  19.27600 -5.17600 44.75700
H  19.89700 -10.28300 46.83600
H  21.09600 -9.28600 47.61700
H  21.65000 -10.36000 46.31800
H  25.61900 -9.96700 47.74300
H  26.79800 -8.01100 49.62200
H  25.21300 -9.62200 50.52100
H  24.24200 -10.58200 49.44500
H  23.84700 -8.85600 49.58700
H  28.82300 -9.11300 47.87200
H  27.90100 -10.45800 48.37500
H  28.02200 -9.57800 50.76900
H  29.27000 -8.56300 50.20000
H  29.51700 -10.29700 50.00000
H  31.36400 -3.85400 46.61300
H  30.92500 -5.63000 46.69600
H  30.62600 -4.55400 48.08100
H  28.30200 -2.12600 42.76800
H  28.99800 2.12000 42.52200
H  29.87000 1.37600 43.77400
H  28.27100 2.17200 44.05000
Mg 45.52900 17.34000 28.89700
C  44.04500 16.48800 31.83900
C  47.78000 19.40100 30.57600
C  47.01500 18.15600 25.82700
C  43.09100 15.49500 27.18400
N  45.70700 18.00400 30.87800
C  45.13700 17.33500 31.97300
C  45.88600 17.66000 33.25100
C  46.65900 18.94200 32.78800
C  46.73400 18.78800 31.30300
C  46.03500 20.27100 33.23200
C  46.70800 16.58200 33.88400
C  46.65200 16.56900 35.51300
H  46.58500 17.87100 36.23800
N  47.12800 18.51500 28.32800
C  47.89300 19.35000 29.13900
C  48.72900 20.18900 28.33900
C  48.61900 19.79300 26.99800
C  47.56200 18.81200 27.01100
C  49.62700 21.25600 28.85600
C  49.15300 20.44200 25.71200
O  48.61200 20.28000 24.64800
C  50.32700 21.36100 25.77400
N  45.27000 16.73800 26.75200
C  45.93700 17.25300 25.71600
C  45.37200 16.68900 24.41900
C  44.05400 15.85700 24.84100
C  44.12200 16.01400 26.35500
C  45.14800 17.79300 23.34100
C  44.06100 14.31000 24.36200
C  44.61800 13.20900 25.25000
N  43.94700 16.26100 29.36500
C  43.05700 15.57900 28.60300
C  41.92300 14.96100 29.44700
C  42.42000 15.27400 30.74300
C  43.53600 16.06700 30.63000
C  40.69200 14.12600 29.03800
C  42.15500 15.04800 32.14000
O  41.24400 14.34700 32.66000
C  43.15700 15.82000 32.86300
C  42.56700 16.72900 33.75900
O  41.83100 17.65700 33.42400
O  42.89000 16.41400 35.05800
C  42.29900 17.30100 36.11200
H  48.52700 19.99900 31.10200
H  47.55500 18.31000 24.89000
H  42.28200 14.90800 26.74300
H  45.13800 17.99300 33.97000
H  47.68000 19.02800 33.15900
H  45.87200 20.92000 32.37100
H  46.78000 20.76700 33.85500
H  45.20100 20.18200 33.92800
H  47.73200 16.62500 33.51200
H  46.30300 15.61800 33.57800
H  47.59000 16.04100 35.68700
H  45.86300 15.91600 35.88700
H  50.66000 20.97900 28.64700
H  49.45800 21.56500 29.88700
H  49.31600 22.17700 28.36300
H  50.03700 22.36400 26.08800
H  50.63300 21.31400 24.72900
H  51.05700 20.93500 26.46300
H  46.15500 16.01300 24.07800
H  43.16300 16.42000 24.56400
H  45.84300 17.62700 22.51800
H  45.30300 18.79000 23.75200
H  44.14100 17.80400 22.92300
H  44.52400 14.16900 23.38500
H  43.03400 14.00400 24.16500
H  43.83000 12.47900 25.44200
H  45.12300 13.56200 26.14900
H  45.45300 12.76500 24.70800
H  40.78500 13.99500 27.96000
H  39.85800 14.75400 29.35000
H  40.81400 13.19900 29.59800
H  43.80700 15.16100 33.44000
H  42.68900 18.30500 35.94600
H  42.58600 16.81600 37.04500
H  41.21500 17.18800 36.11800

