158

Mg 47.82500 15.07800 28.75900
C  45.67200 15.08700 31.48000
C  49.86700 17.21100 30.62200
C  49.78600 15.20600 26.08400
C  45.47700 13.23600 26.95900
N  47.64600 16.15000 30.86000
C  46.79000 15.83700 31.75600
C  47.15600 16.52800 33.08900
C  48.42800 17.34900 32.78900
C  48.62000 16.97800 31.30600
C  48.23300 18.96100 33.01000
C  47.42400 15.30800 34.05600
C  46.65100 15.46400 35.39000
H  47.53800 16.21700 36.42900
N  49.55800 15.95900 28.43300
C  50.29200 16.73900 29.32300
C  51.65300 16.85800 28.78100
C  51.63000 16.43700 27.48800
C  50.31300 15.83700 27.27400
C  52.71400 17.39300 29.60400
C  52.67900 16.46800 26.44500
O  52.54400 15.89700 25.38100
C  53.93500 17.25100 26.78200
N  47.55800 14.48000 26.68500
C  48.56200 14.62900 25.76900
C  48.22400 13.95200 24.46900
C  46.91000 13.19500 24.85600
C  46.59900 13.64600 26.28000
C  48.20700 14.84500 23.22400
C  47.05000 11.69500 24.52400
C  47.64000 10.79700 25.69900
N  45.92800 14.32700 29.07100
C  45.11200 13.54600 28.31300
C  43.86800 13.21300 29.03200
C  44.02800 13.86200 30.27000
C  45.29800 14.45900 30.27200
C  42.77000 12.33500 28.55800
C  43.44000 14.09400 31.59900
O  42.40300 13.67600 32.07200
C  44.50700 14.85600 32.36100
C  43.91900 16.12800 32.87800
O  43.91200 17.21000 32.36600
O  43.36900 15.75800 34.09900
C  42.75500 16.78600 34.97100
H  50.50800 17.92800 31.13900
H  50.47800 15.12700 25.24300
H  44.79100 12.64300 26.35100
H  46.37500 17.23500 33.36800
H  49.26200 17.05400 33.42600
H  47.22200 19.25900 33.29000
H  48.60900 19.48200 32.12900
H  48.90000 19.16100 33.84800
H  48.48600 15.25000 34.29100
H  47.34600 14.34000 33.56000
H  46.43300 14.45000 35.72300
H  45.73900 16.03200 35.20600
H  53.08200 18.33900 29.20600
H  53.55400 16.69900 29.63400
H  52.41400 17.59200 30.63300
H  54.39900 16.71100 27.60700
H  53.72600 18.29200 27.02800
H  54.67600 17.21700 25.98300
H  49.06300 13.25600 24.44700
H  46.06600 13.51900 24.24700
H  48.69400 14.36400 22.37600
H  48.57400 15.86000 23.38000
H  47.16800 15.01600 22.94300
H  47.63700 11.56500 23.61400
H  46.01900 11.42700 24.29200
H  47.88000 11.41400 26.56500
H  48.63800 10.49700 25.38000
H  47.06000 9.92200 25.99100
H  42.37400 12.58400 27.57400
H  42.00700 12.38700 29.33500
H  43.10500 11.29800 28.57800
H  44.90400 14.35700 33.24400
H  43.40000 17.05500 35.80700
H  41.82700 16.29200 35.26100
H  42.48300 17.66600 34.38700
Mg 48.19300 46.01400 43.27200
C  45.02100 44.46100 43.58900
C  49.52200 42.79700 42.85700
C  51.01300 47.40100 42.45600
C  46.44700 49.09700 42.91700
N  47.36800 43.82100 43.31700
C  46.07200 43.49800 43.56700
C  45.91400 41.95200 43.49600
C  47.36700 41.45900 43.13000
C  48.18400 42.70700 43.20500
C  47.88400 40.31900 44.10400
C  44.81000 41.37800 42.55000
C  44.78600 41.83100 41.13700
H  45.14700 40.79100 40.07200
N  50.04200 45.18900 42.75700
C  50.38700 43.89000 42.64600
C  51.81000 43.83900 42.32800
C  52.29500 45.18500 42.24100
C  51.06600 45.98600 42.45900
C  52.56200 42.54000 42.20700
C  53.67000 45.58600 41.88200
O  54.52200 44.73100 41.93900
C  54.03500 46.97200 41.51500
N  48.57900 47.95300 42.44500
C  49.90700 48.29600 42.43100
C  50.11600 49.83100 42.56200
C  48.60500 50.35400 42.52100
C  47.76200 49.07200 42.58300
C  50.91100 50.19200 43.86800
C  48.05200 51.32000 41.41900
C  47.93700 52.78600 41.90900
N  46.15700 46.70500 43.28200
C  45.64900 47.93700 43.18200
C  44.26100 47.86500 43.42000
C  43.91600 46.54700 43.55100
C  45.14200 45.84600 43.45000
C  43.37100 49.05000 43.46200
C  42.90800 45.56300 43.84100
O  41.71000 45.75700 44.03100
C  43.53600 44.18800 43.89700
C  43.28700 43.78100 45.28700
O  43.54700 44.43500 46.31900
O  43.02300 42.43800 45.27000
C  43.23700 41.83700 46.58400
H  49.98700 41.83900 42.61600
H  51.93800 47.98100 42.41000
H  45.89200 50.03700 42.94600
H  45.70900 41.64400 44.52100
H  47.27800 41.12200 42.09700
H  46.99600 39.72600 44.31800
H  48.24500 40.76400 45.03100
H  48.73400 39.75900 43.71300
H  43.84100 41.41700 43.04800
H  44.82600 40.29400 42.43000
H  45.43800 42.69800 41.03300
H  43.78700 42.21700 40.93500
H  52.93700 42.39700 41.19300
H  52.08700 41.63500 42.58500
H  53.45900 42.58100 42.82400
H  53.26800 47.37600 40.85400
H  55.01300 47.02300 41.03600
H  54.24500 47.55700 42.41000
H  50.62900 50.13000 41.64800
H  48.40600 50.90500 43.44000
H  50.63400 51.10600 44.39500
H  51.94900 50.34300 43.57100
H  50.86100 49.36600 44.57700
H  47.18100 50.90200 40.91400
H  48.73700 51.22100 40.57700
H  48.02500 53.24400 40.92400
H  48.75900 53.03200 42.58200
H  46.99700 52.85800 42.45700
H  42.33600 48.70800 43.49100
H  43.57000 49.57600 42.52800
H  43.66900 49.71500 44.27200
H  43.01600 43.51000 43.22100
H  44.25700 41.65200 46.92000
H  42.87100 40.81100 46.54900
H  42.74100 42.40700 47.36900

