158

Mg 41.09900 8.60100 29.25900
C  42.90600 9.83600 31.98400
C  38.98900 7.02100 31.62700
C  39.25900 7.40700 26.73900
C  43.63000 9.59500 27.19100
N  40.97000 8.52800 31.57000
C  41.78500 9.11300 32.46800
C  41.23800 9.09000 33.89400
C  39.93300 8.20400 33.80200
C  39.99100 7.88600 32.22200
C  39.77900 7.09900 34.84400
C  41.09300 10.51800 34.51300
C  40.23700 10.68800 35.78800
H  40.87300 11.62900 36.81800
N  39.33500 7.40300 29.23700
C  38.64600 6.91200 30.29800
C  37.31500 6.37900 29.85300
C  37.40100 6.41600 28.46200
C  38.73400 7.01800 28.05300
C  36.13700 6.07900 30.76400
C  36.32400 6.02900 27.45500
O  36.56300 6.11700 26.25400
C  35.07000 5.46300 27.87300
N  41.35500 8.55900 27.25300
C  40.41300 8.00700 26.37400
C  40.82500 8.26100 24.94000
C  42.29800 8.74700 25.14400
C  42.50000 9.04500 26.59300
C  40.61400 6.97300 24.03000
C  42.64300 10.00700 24.22500
C  43.72100 9.76600 23.12300
N  42.89900 9.44000 29.47900
C  43.86700 9.80700 28.55900
C  45.03300 10.34900 29.21700
C  44.61500 10.38100 30.56800
C  43.34100 9.94300 30.67700
C  46.28700 10.77400 28.62500
C  45.12700 10.78100 31.89600
O  46.23300 11.27500 32.26400
C  43.98100 10.42900 32.86300
C  44.41700 9.36300 33.77500
O  44.60100 8.17700 33.51500
O  44.71000 9.97300 34.98700
C  45.47900 9.22600 35.92600
H  38.37600 6.54100 32.39200
H  38.53200 7.13200 25.97200
H  44.54800 9.61600 26.59900
H  41.99800 8.62900 34.52500
H  39.10500 8.91300 33.77600
H  38.94700 7.03400 35.54500
H  40.62300 7.35300 35.48600
H  39.98500 6.12400 34.40300
H  40.81500 11.16100 33.67800
H  42.06500 10.89500 34.83000
H  40.10500 9.67500 36.16900
H  39.26300 11.13100 35.58300
H  36.06500 4.99300 30.81700
H  35.24400 6.63100 30.47300
H  36.43000 6.40000 31.76300
H  34.66800 5.02900 26.95800
H  34.45000 6.31800 28.14100
H  35.09500 4.72200 28.67300
H  40.14600 8.99900 24.51500
H  42.95400 7.92900 24.84700
H  41.50800 6.95100 23.40700
H  39.75300 7.15100 23.38500
H  40.51900 6.01300 24.53600
H  42.97500 10.77100 24.92700
H  41.77700 10.40600 23.69600
H  44.66500 10.13100 23.52800
H  43.49600 10.43900 22.29600
H  43.86500 8.76200 22.72300
H  46.90200 11.16300 29.43700
H  46.15100 11.59300 27.91800
H  46.87200 10.01600 28.10300
H  43.64900 11.36200 33.31800
H  46.47300 8.94200 35.58000
H  44.88600 8.38600 36.28900
H  45.68200 9.78300 36.84100
Mg -10.26800 17.12300 41.05300
C  -6.77500 17.14300 41.13900
C  -10.18400 20.60200 40.24100
C  -13.53800 16.90100 40.36300
C  -10.23700 13.70300 41.74300
N  -8.69800 18.63800 40.63200
C  -7.35200 18.35700 40.73300
C  -6.57800 19.68700 40.52500
C  -7.64100 20.81500 40.62600
C  -8.94700 20.01600 40.49700
C  -7.59800 21.80400 41.89100
C  -5.81700 19.66000 39.16200
C  -4.38400 19.42600 39.14300
H  -3.81000 18.45700 38.04900
N  -11.70000 18.52400 40.41900
C  -11.46500 19.92500 40.18500
C  -12.68200 20.48300 39.75800
C  -13.61100 19.45300 39.66400
C  -13.01800 18.22100 40.16700
C  -12.85200 21.99100 39.38900
C  -15.03700 19.59600 39.15100
O  -15.43800 20.69000 38.74500
C  -16.07000 18.60200 39.12800
N  -11.65800 15.47800 40.86700
C  -12.95700 15.77600 40.82000
C  -13.81000 14.47200 41.17300
C  -12.77200 13.45200 41.62600
C  -11.49600 14.23100 41.43900
C  -14.94000 14.78700 42.26000
C  -12.70500 12.07700 40.82800
C  -13.07300 10.89100 41.72900
N  -8.81300 15.62900 41.46400
C  -8.96100 14.30000 41.78400
C  -7.58000 13.76100 41.98600
C  -6.69800 14.85800 41.84100
C  -7.46600 15.95600 41.46700
C  -7.36400 12.33000 42.37700
C  -5.23900 15.27700 41.87900
O  -4.24200 14.68400 42.15100
C  -5.25300 16.83500 41.45200
C  -4.70000 17.53200 42.68500
O  -3.49600 17.65800 42.98200
O  -5.71000 18.21900 43.34900
C  -5.19000 18.96400 44.49400
H  -10.11700 21.69000 40.19300
H  -14.60200 16.67000 40.28400
H  -10.29900 12.74000 42.25400
H  -5.71500 19.76400 41.18600
H  -7.67300 21.53900 39.81200
H  -7.20300 22.71600 41.44300
H  -6.81800 21.51800 42.59600
H  -8.55900 22.05200 42.34000
H  -6.09900 20.55700 38.61000
H  -6.19200 18.79500 38.61600
H  -4.21600 18.89400 40.07900
H  -3.75200 20.30800 39.24700
H  -11.87200 22.44500 39.24400
H  -13.33200 22.40100 40.27800
H  -13.41400 22.16200 38.47100
H  -15.77300 17.79600 38.45800
H  -17.01300 19.06700 38.83900
H  -16.11400 18.20700 40.14300
H  -14.31300 14.16200 40.25700
H  -12.90000 13.17100 42.67100
H  -14.95700 15.81200 42.62900
H  -14.91000 14.06700 43.07800
H  -15.87100 14.59600 41.72500
H  -11.80300 11.85300 40.25800
H  -13.47700 12.09100 40.05800
H  -14.13300 10.64000 41.76600
H  -12.73000 11.19100 42.71900
H  -12.63700 9.98900 41.29900
H  -7.86100 12.17700 43.33500
H  -6.33400 11.97600 42.34800
H  -7.93400 11.69700 41.69600
H  -4.59600 16.93600 40.58800
H  -4.36300 19.61500 44.21200
H  -4.80800 18.29600 45.26700
H  -5.97700 19.56700 44.94800

