158

Mg 0.86100 9.24900 27.06400
C  1.46800 11.27100 29.89300
C  1.18600 6.50500 29.22900
C  0.44800 7.36100 24.55300
C  1.09800 12.22200 25.09100
N  1.35600 8.98400 29.25100
C  1.44400 9.91400 30.25900
C  1.29600 9.40100 31.64800
C  1.49600 7.83600 31.40700
C  1.23100 7.72900 29.90400
C  2.82400 7.30500 31.87200
C  -0.10300 9.85100 32.23400
C  -0.41800 9.25900 33.67700
H  0.74200 8.69800 34.55900
N  0.84000 7.28500 26.86800
C  1.04300 6.28600 27.86600
C  0.84100 4.96000 27.26400
C  0.49400 5.20900 25.90400
C  0.55200 6.62900 25.72700
C  0.96400 3.67000 28.00900
C  -0.03800 4.26500 24.74100
O  -0.37100 4.66800 23.60700
C  -0.15000 2.75300 24.86300
N  0.71100 9.81800 25.15400
C  0.55200 8.80400 24.27100
C  0.65800 9.31500 22.75000
C  0.42900 10.86400 23.04800
C  0.75100 10.99300 24.54100
C  2.00700 9.02700 22.14700
C  -0.98700 11.36100 22.81400
C  -1.16200 11.89100 21.35100
N  1.20400 11.38500 27.35000
C  1.27300 12.42900 26.49700
C  1.48000 13.64400 27.24300
C  1.67000 13.25000 28.58800
C  1.34800 11.85200 28.58800
C  1.57600 15.02800 26.63600
C  1.97600 13.56500 29.93800
O  2.47600 14.60000 30.34800
C  1.73700 12.42800 30.81800
C  2.85400 12.18600 31.81400
O  3.96600 11.83100 31.45200
O  2.48700 12.52700 33.10500
C  3.40700 12.33500 34.18500
H  1.22700 5.58000 29.80800
H  0.33700 6.84100 23.59900
H  1.26600 13.02800 24.37300
H  2.04100 9.82100 32.32400
H  0.69700 7.28000 31.89800
H  3.25900 6.83100 30.99200
H  2.83100 6.56700 32.67400
H  3.41200 8.16300 32.19800
H  -0.92400 9.36400 31.70800
H  -0.19800 10.93500 32.30000
H  -1.05100 8.39600 33.46700
H  -0.89600 10.02100 34.29200
H  -0.02500 3.29100 28.26600
H  1.62100 3.76500 28.87500
H  1.53000 3.03000 27.33200
H  0.18500 2.26900 25.78000
H  0.41100 2.27700 24.05800
H  -1.21800 2.61800 24.69200
H  -0.12400 8.93000 22.09700
H  1.20400 11.47500 22.58500
H  2.58200 8.55500 22.94400
H  2.51600 9.92400 21.79400
H  1.80300 8.32300 21.34000
H  -1.17700 12.22900 23.44500
H  -1.76000 10.60500 22.95000
H  -0.30300 11.55000 20.77300
H  -1.16800 12.97900 21.29100
H  -2.07700 11.41600 20.99600
H  2.56600 15.26600 26.24800
H  1.14500 15.74300 27.33700
H  0.99900 15.04700 25.71200
H  0.85900 12.66000 31.42200
H  3.66200 13.37500 34.39300
H  4.23000 11.69700 33.86400
H  2.98000 11.86900 35.07300
Mg 50.92200 45.64700 42.45500
C  47.74600 46.72400 41.05300
C  49.99400 42.53900 41.09300
C  54.06200 44.72700 42.76300
C  51.72700 49.02300 42.80100
N  49.13800 44.77300 41.01700
C  47.94500 45.40200 40.86500
C  46.99700 44.37500 40.29500
C  47.55600 43.04400 40.71900
C  49.01000 43.46100 40.99400
C  46.92800 42.31700 42.04000
C  46.71700 44.57600 38.79300
C  45.36300 44.42200 38.16000
H  45.33400 43.53300 36.94100
N  51.92900 43.88600 41.92100
C  51.31400 42.68700 41.52300
C  52.36500 41.70200 41.66100
C  53.58000 42.31000 42.10900
C  53.20600 43.66500 42.38000
C  52.22700 40.27800 41.21700
C  54.88200 41.52300 42.41500
O  54.99700 40.32100 42.12900
C  56.05300 42.05700 43.06300
N  52.64600 46.69600 42.72100
C  53.81800 46.06800 42.96000
C  55.00700 47.04800 43.26300
C  54.21400 48.45600 43.15000
C  52.80500 48.10100 42.87200
C  55.67000 46.73700 44.59100
C  54.89300 49.43200 42.07800
C  55.27000 50.81000 42.61700
N  49.90400 47.56900 42.28900
C  50.37300 48.84000 42.47200
C  49.27100 49.74600 42.29700
C  48.24100 49.00400 41.72000
C  48.66800 47.66900 41.68800
C  49.36300 51.26900 42.46500
C  46.93500 49.03700 41.24200
O  46.09100 49.96200 41.18800
C  46.56700 47.57800 40.71300
C  45.36100 47.09200 41.43500
O  45.27200 46.84500 42.63700
O  44.25200 47.09700 40.58600
C  42.83800 46.94200 41.07900
H  49.87700 41.46800 40.91400
H  55.08500 44.56700 43.10700
H  52.10000 50.04700 42.87300
H  46.06000 44.37000 40.85100
H  47.48600 42.25100 39.97400
H  46.29900 41.48100 41.73300
H  46.25500 43.03700 42.50600
H  47.69500 41.96300 42.72800
H  47.50900 44.03800 38.27200
H  46.94800 45.62200 38.59200
H  44.64900 45.24500 38.13400
H  44.84900 43.73200 38.82900
H  52.69500 39.61600 41.94700
H  52.80400 40.20200 40.29500
H  51.25400 39.90100 40.90500
H  55.78100 42.65700 43.93100
H  56.60300 42.65000 42.33200
H  56.74200 41.26100 43.34400
H  55.73400 46.95000 42.45700
H  54.39200 48.89100 44.13400
H  56.66300 46.32400 44.41600
H  55.13500 46.01700 45.21100
H  55.73800 47.67500 45.14200
H  54.15200 49.66400 41.31300
H  55.70500 49.06800 41.44900
H  54.63500 51.52500 42.09200
H  56.29000 51.16600 42.47600
H  54.96600 50.91600 43.65800
H  50.37900 51.66000 42.51200
H  48.97200 51.49000 43.45800
H  48.83800 51.71000 41.61800
H  46.30200 47.66600 39.65900
H  42.76400 47.34800 42.08800
H  42.47200 45.92100 41.19400
H  42.17300 47.50800 40.42700

