158

Mg 16.80600 -1.60800 27.74200
C  15.45500 0.59400 30.20500
C  18.78300 -2.96800 30.23300
C  18.35700 -3.33500 25.33200
C  15.33100 0.53900 25.40500
N  17.16600 -1.13600 29.94800
C  16.40500 -0.33100 30.72700
C  16.59100 -0.71600 32.20700
C  17.86400 -1.61700 32.22700
C  17.98900 -1.90300 30.65500
C  19.11700 -1.02000 32.74100
C  15.42000 -1.22000 33.05800
C  15.15800 -0.51100 34.38300
H  16.41100 0.06100 35.17100
N  18.24900 -3.07400 27.76700
C  18.88000 -3.54200 28.89200
C  19.67300 -4.67600 28.53200
C  19.56700 -4.88800 27.17000
C  18.69200 -3.78600 26.69600
C  20.53200 -5.43300 29.50200
C  20.21300 -5.89400 26.21300
O  19.97900 -5.87200 25.01300
C  21.14600 -6.98500 26.76700
N  17.05200 -1.27700 25.73500
C  17.59700 -2.21700 24.91900
C  17.30500 -1.88000 23.41600
C  16.24900 -0.72600 23.45200
C  16.27200 -0.42800 24.96100
C  18.45300 -1.58000 22.47100
C  14.80400 -1.05400 22.88800
C  13.79800 -1.63300 23.91400
N  15.57600 0.25100 27.73100
C  14.90700 0.81000 26.65700
C  13.93600 1.74800 27.18000
C  14.12400 1.71100 28.59100
C  15.13900 0.78200 28.83300
C  12.83300 2.47700 26.38300
C  13.52900 2.16500 29.76300
O  12.54400 2.87100 30.06500
C  14.46800 1.52400 30.93100
C  15.24800 2.58500 31.58100
O  16.35200 2.95500 31.21000
O  14.68500 2.90000 32.80500
C  15.35900 3.90900 33.68400
H  19.39200 -3.50500 30.96400
H  18.72500 -3.99500 24.54300
H  14.86100 0.99600 24.53100
H  16.94800 0.23200 32.61000
H  17.74200 -2.58400 32.71500
H  19.38600 -1.35100 33.74400
H  19.00000 0.06000 32.64900
H  19.91500 -1.37500 32.09000
H  15.52700 -2.29500 33.20500
H  14.48900 -1.14900 32.49600
H  14.89900 -1.26100 35.13000
H  14.39600 0.24100 34.17800
H  21.53600 -5.29400 29.10100
H  20.29800 -6.49400 29.59200
H  20.59000 -5.02200 30.50900
H  20.66300 -7.67900 27.45400
H  22.05400 -6.56200 27.19900
H  21.67400 -7.44400 25.93100
H  16.84300 -2.83300 23.15900
H  16.58300 0.07100 22.78700
H  18.35900 -0.55600 22.10900
H  18.43100 -2.20700 21.57900
H  19.44500 -1.67800 22.91100
H  14.96500 -1.61800 21.96900
H  14.42400 -0.08100 22.57400
H  13.22100 -0.75800 24.21500
H  14.35500 -2.07600 24.73900
H  13.17800 -2.33700 23.35900
H  13.15700 3.50600 26.22400
H  11.88300 2.49100 26.91700
H  12.58600 1.91400 25.48400
H  13.81200 0.99300 31.62100
H  15.96800 3.32900 34.37700
H  14.72800 4.58300 34.26300
H  16.01900 4.57600 33.12800
Mg 17.51100 50.69800 26.57500
C  19.65600 49.42300 29.07600
C  15.23300 51.52900 28.93700
C  15.81800 51.98000 24.09500
C  19.99700 49.59100 24.19800
N  17.35600 50.20500 28.71000
C  18.35700 49.87500 29.56300
C  18.04600 50.16700 31.07400
C  16.53800 50.55500 30.90800
C  16.39500 50.85400 29.40200
C  15.50600 49.54400 31.50500
C  18.87200 51.39300 31.65600
C  19.04600 51.49700 33.18600
H  18.11800 50.77200 34.10500
N  15.70800 51.53700 26.53800
C  14.95200 51.85600 27.59400
C  13.88600 52.64000 27.09600
C  14.09700 52.93800 25.76800
C  15.31000 52.13700 25.41800
C  12.79000 53.08800 27.96600
C  13.35800 53.85300 24.83100
O  13.72300 54.02300 23.67700
C  12.14200 54.53900 25.29800
N  17.92400 50.72400 24.39200
C  16.93400 51.27100 23.61100
C  17.28000 51.08500 22.14300
C  18.59700 50.27800 22.14200
C  18.84900 50.16600 23.67700
C  16.14500 50.50100 21.25700
C  19.82900 50.92600 21.44900
C  20.51600 50.15800 20.26200
N  19.35200 49.60100 26.59900
C  20.28500 49.31500 25.58500
C  21.55800 48.87400 26.13200
C  21.31600 48.88200 27.53400
C  20.01400 49.34600 27.75600
C  22.74000 48.62700 25.34800
C  21.90700 48.46100 28.80500
O  23.00600 47.93100 28.99200
C  20.87500 48.88400 29.94700
C  20.55300 47.62100 30.60100
O  19.85500 46.72100 30.09500
O  21.02300 47.62100 31.89800
C  20.23600 46.79200 32.80200
H  14.59600 51.90100 29.74300
H  15.21200 52.34100 23.26100
H  20.69000 49.29300 23.40800
H  18.20600 49.29100 31.70300
H  16.31200 51.47600 31.44500
H  15.97000 48.82000 32.17400
H  14.97200 49.12200 30.65300
H  14.77700 50.08200 32.11100
H  18.37500 52.30800 31.33700
H  19.88600 51.31700 31.26400
H  19.06400 52.50900 33.58900
H  19.98600 51.03500 33.49000
H  11.82400 52.72200 27.61900
H  12.99700 54.15000 28.09300
H  12.84200 52.61100 28.94500
H  11.51700 53.75900 25.73200
H  11.63500 55.01600 24.45900
H  12.28700 55.29500 26.07000
H  17.45000 52.09400 21.76900
H  18.47700 49.32200 21.63200
H  16.00200 51.18500 20.42000
H  15.17100 50.54400 21.74400
H  16.44200 49.52800 20.86500
H  20.58500 51.20200 22.18500
H  19.52200 51.89200 21.04800
H  20.83800 49.14400 20.49900
H  21.37800 50.72500 19.91100
H  19.85900 50.24200 19.39600
H  22.69000 49.35400 24.53700
H  22.62400 47.66300 24.85200
H  23.66100 48.66900 25.93000
H  21.33500 49.61200 30.61500
H  20.72400 45.84900 33.04800
H  19.28300 46.47500 32.37800
H  20.11900 47.43200 33.67600

