158

Mg 30.96800 58.29100 40.12200
C  28.36500 56.20700 38.80300
C  33.24600 56.11600 38.67100
C  33.32800 60.66300 40.79400
C  28.54700 60.68500 40.93000
N  30.77100 56.35600 38.80800
C  29.67100 55.66200 38.51300
C  30.04200 54.31500 37.74300
C  31.61400 54.16500 38.08000
C  31.92300 55.61300 38.48800
C  32.03700 53.07200 39.08100
C  29.65400 54.27800 36.25000
C  29.43900 55.73000 35.50600
H  29.01700 55.61800 33.99800
N  32.94700 58.37300 39.93500
C  33.71000 57.34100 39.32100
C  35.07100 57.81300 39.31400
C  35.12100 58.97300 40.08900
C  33.77000 59.42400 40.32700
C  36.10800 56.90500 38.61000
C  36.46000 59.68100 40.40400
O  37.50300 59.26200 39.91600
C  36.65000 60.91700 41.33000
N  30.98000 60.41700 40.73200
C  32.10200 61.17700 41.06400
C  31.75600 62.56400 41.53100
C  30.21900 62.46300 41.81100
C  29.88700 61.08700 41.18600
C  32.52900 63.09200 42.69900
C  29.47300 63.65900 41.17700
C  28.52400 64.35300 42.10700
N  28.84500 58.42600 39.98800
C  28.04300 59.48100 40.30600
C  26.63600 59.19500 39.87000
C  26.70600 57.86400 39.40900
C  28.08300 57.48800 39.35300
C  25.43900 60.05300 39.83600
C  26.00500 56.72000 38.85000
O  24.80000 56.56200 38.71800
C  27.02700 55.64000 38.34300
C  26.69600 54.25200 38.75900
O  26.79700 53.75200 39.85600
O  26.20400 53.62600 37.60700
C  25.84400 52.26400 37.79100
H  34.03500 55.43600 38.34500
H  34.07300 61.44600 40.95000
H  27.78500 61.43200 41.16200
H  29.51100 53.49800 38.23300
H  32.22800 53.96900 37.20100
H  32.27000 53.59700 40.00800
H  32.96800 52.58500 38.79000
H  31.32800 52.27200 39.29300
H  28.75000 53.69400 36.07800
H  30.38400 53.68800 35.69500
H  30.45200 56.12900 35.44800
H  28.87600 56.50500 36.02600
H  37.05500 57.44400 38.56800
H  35.75600 56.84100 37.58000
H  36.13900 55.97800 39.18200
H  37.66600 60.99300 41.71800
H  35.89800 61.05000 42.10800
H  36.40900 61.71400 40.62800
H  32.00600 63.05500 40.59000
H  30.03100 62.35000 42.87900
H  33.31900 63.72900 42.30100
H  32.86700 62.32600 43.39700
H  32.10800 63.76000 43.45000
H  28.80700 63.46300 40.33700
H  30.19700 64.39300 40.82100
H  27.54400 63.87500 42.09800
H  28.46000 65.41000 41.85100
H  28.82500 64.13100 43.13100
H  25.40000 60.80200 40.62700
H  24.52500 59.49500 40.04200
H  25.47000 60.66800 38.93700
H  27.26200 55.63200 37.27800
H  24.86700 52.25400 38.27600
H  26.49500 51.68300 38.44400
H  25.74800 51.70500 36.86000
Mg 9.56600 48.47200 25.95700
C  7.68000 48.40000 28.85100
C  12.14000 49.54300 27.88600
C  11.39300 48.49700 23.14700
C  6.59700 48.01100 24.06700
N  9.88800 48.87700 28.11900
C  8.98900 48.78200 29.10100
C  9.58200 49.33900 30.36100
C  10.91700 49.90100 29.98200
C  10.97700 49.52300 28.52800
C  11.00400 51.44700 30.13800
C  9.74600 48.25700 31.49100
C  9.05800 48.66200 32.82700
H  8.96500 47.54000 33.81800
N  11.53900 48.94200 25.56300
C  12.47100 49.24400 26.51000
C  13.82800 49.35200 25.87800
C  13.56100 48.99900 24.50500
C  12.13300 48.85300 24.35000
C  15.10200 49.61200 26.58400
C  14.54700 48.91800 23.33400
O  14.26200 48.82100 22.17000
C  15.97200 48.94500 23.66500
N  9.13500 48.21700 23.91400
C  10.05100 48.26600 22.95200
C  9.51400 47.75900 21.61000
C  7.98800 47.43200 21.99800
C  7.83500 47.93800 23.40700
C  9.73200 48.73100 20.38900
C  7.73100 45.89400 21.96600
C  8.29600 45.07100 23.11900
N  7.53900 48.22200 26.29100
C  6.46200 48.07000 25.44900
C  5.26100 47.80900 26.24700
C  5.70500 48.01100 27.54600
C  7.07600 48.19500 27.57300
C  3.94400 47.42500 25.69000
C  5.22100 48.02100 28.89200
O  4.06900 47.87400 29.25300
C  6.46400 48.18400 29.83200
C  6.64100 46.89300 30.69500
O  7.25000 45.91100 30.33300
O  6.04900 47.12300 31.83900
C  6.02700 45.99500 32.76500
H  13.05100 49.83800 28.41100
H  12.02000 48.50500 22.25400
H  5.70900 47.93600 23.43700
H  8.93300 50.11400 30.76900
H  11.75100 49.40800 30.48200
H  11.04900 51.87900 29.13900
H  11.96000 51.64100 30.62500
H  10.12400 51.78500 30.68500
H  10.78000 48.14600 31.81700
H  9.37300 47.29100 31.15100
H  8.07600 49.03400 32.53500
H  9.69800 49.39300 33.32100
H  15.41200 50.65500 26.51400
H  15.97600 48.98200 26.41700
H  14.79800 49.38700 27.60600
H  16.20500 48.12500 24.34500
H  16.14100 49.86400 24.22600
H  16.55000 48.87800 22.74300
H  10.07800 46.86100 21.36100
H  7.33600 47.86100 21.23600
H  10.34600 49.59200 20.65300
H  8.76000 49.16900 20.15900
H  10.21700 48.15800 19.59900
H  8.20600 45.45000 21.09100
H  6.65000 45.90400 21.83000
H  9.11900 45.49300 23.69600
H  8.56100 44.07400 22.76600
H  7.44300 44.83900 23.75800
H  4.02200 46.45800 25.19100
H  3.55000 48.22900 25.06900
H  3.24100 47.24000 26.50200
H  6.37800 49.05300 30.48400
H  6.01500 46.62300 33.65600
H  6.92900 45.39000 32.68400
H  5.11400 45.40400 32.83500

