158

Mg 17.25100 -1.87000 28.15400
C  15.79100 0.08000 30.93700
C  19.03800 -3.58900 30.36800
C  18.78900 -3.27400 25.56000
C  15.41700 0.29700 25.95200
N  17.34300 -1.70200 30.43100
C  16.70800 -0.93500 31.39600
C  17.09100 -1.37500 32.80700
C  18.12100 -2.58300 32.52900
C  18.17000 -2.66200 31.01700
C  19.55900 -2.43500 33.10000
C  15.88100 -1.89200 33.67500
C  16.15900 -2.17800 35.10100
H  17.46000 -1.73600 35.76200
N  18.60800 -3.29100 27.98400
C  19.27200 -3.88500 29.01300
C  20.11300 -4.94200 28.50900
C  19.97600 -4.93000 27.08600
C  19.12400 -3.81100 26.84300
C  20.90400 -5.85100 29.33300
C  20.67800 -5.66500 26.03400
O  20.40600 -5.56900 24.83500
C  21.91000 -6.57300 26.38900
N  16.92600 -1.62500 25.99400
C  17.82600 -2.28800 25.14900
C  17.65900 -1.70400 23.65500
C  16.45500 -0.78000 23.82400
C  16.19000 -0.66300 25.31600
C  19.05500 -1.08000 23.04900
C  15.17200 -1.19100 23.14700
C  15.29400 -1.15000 21.60500
N  15.84000 -0.25500 28.33400
C  15.23100 0.52300 27.33800
C  14.50000 1.55300 27.98400
C  14.61100 1.38400 29.33400
C  15.55500 0.37800 29.54100
C  13.60300 2.59400 27.31100
C  14.08100 1.91200 30.59900
O  13.22200 2.74600 30.79800
C  14.96900 1.19600 31.67000
C  15.85100 2.18200 32.24900
O  16.84800 2.69500 31.74700
O  15.50900 2.14500 33.55600
C  16.38500 2.82700 34.48200
H  19.65400 -4.14300 31.07900
H  19.33400 -3.64500 24.69000
H  15.13800 1.22200 25.44400
H  17.56200 -0.54100 33.32700
H  17.68700 -3.43200 33.05600
H  19.69000 -1.60700 33.79600
H  20.23300 -2.25800 32.26200
H  19.86500 -3.37500 33.55900
H  15.34500 -2.68600 33.15400
H  15.06200 -1.17200 33.68100
H  15.92800 -3.22800 35.28400
H  15.39500 -1.58400 35.60400
H  20.72200 -5.58600 30.37400
H  21.94300 -5.60400 29.11200
H  20.60600 -6.82200 28.93900
H  22.45500 -6.28500 27.28700
H  22.60400 -6.47300 25.55500
H  21.53700 -7.59200 26.50100
H  17.40300 -2.54600 23.01200
H  16.58400 0.28500 23.63100
H  19.82800 -1.25200 23.79700
H  18.87800 -0.02200 22.85700
H  19.37800 -1.61700 22.15700
H  14.42000 -0.47900 23.48700
H  15.02300 -2.20800 23.51000
H  14.30000 -0.98300 21.18900
H  15.72400 -2.05800 21.18300
H  15.89500 -0.29400 21.29600
H  13.53100 3.46100 27.96900
H  12.58000 2.22100 27.26700
H  14.08700 2.93200 26.39400
H  14.35000 0.68800 32.40900
H  16.09900 3.86100 34.67500
H  17.36800 3.06900 34.07900
H  16.48600 2.25500 35.40400
Mg 48.09100 45.07100 42.81600
C  44.68900 44.77100 42.84600
C  48.40100 41.80300 42.32300
C  51.43400 45.46900 42.69900
C  47.76900 48.58800 42.92500
N  46.72300 43.46000 42.62000
C  45.34800 43.53100 42.64100
C  44.68200 42.22900 42.55100
C  45.87200 41.22700 42.31500
C  47.10500 42.21900 42.49600
C  45.75600 39.92300 43.24300
C  43.57000 41.95000 41.56200
C  43.89800 42.15700 40.12600
H  44.24700 41.01600 39.20400
N  49.71500 43.84500 42.49100
C  49.64600 42.54700 42.40400
C  50.93600 41.96900 42.35200
C  51.88200 43.00800 42.38300
C  51.03600 44.18300 42.47900
C  51.18100 40.51400 42.02400
C  53.39800 42.85900 42.20500
O  53.98000 41.78200 42.37700
C  54.34300 44.05100 41.98500
N  49.43500 46.81200 42.54600
C  50.78000 46.67100 42.72200
C  51.41000 48.04500 42.88200
C  50.21600 49.04300 42.66800
C  49.04500 48.08500 42.73400
C  52.20800 48.24400 44.32600
C  50.34400 49.78600 41.33900
C  50.92600 51.16500 41.36500
N  46.56600 46.46200 42.74200
C  46.60500 47.77800 42.99000
C  45.26200 48.29800 43.18300
C  44.41000 47.19000 43.00900
C  45.27200 46.08600 42.89100
C  44.90000 49.77300 43.43600
C  43.05100 46.64000 43.11000
O  41.97500 47.22700 43.31900
C  43.22300 45.09000 42.91800
C  42.50900 44.38600 44.08400
O  41.71200 43.48400 43.86100
O  42.71400 45.00600 45.30500
C  42.07100 44.39700 46.45700
H  48.44100 40.73300 42.11000
H  52.48600 45.75000 42.61700
H  47.71200 49.65900 43.12900
H  44.15400 41.99000 43.47400
H  46.02800 40.92300 41.28000
H  44.76800 39.78400 43.68000
H  46.45500 39.81200 44.07200
H  45.81300 39.07400 42.56200
H  42.65300 42.51700 41.72600
H  43.19500 40.93700 41.70600
H  44.74800 42.83800 40.07700
H  43.15400 42.72600 39.56800
H  52.01000 40.24200 42.67700
H  51.50300 40.32100 41.00000
H  50.32800 39.92200 42.35500
H  53.91600 44.61600 41.15700
H  55.33000 43.68400 41.70100
H  54.44100 44.72700 42.83500
H  52.16900 48.06900 42.09900
H  50.20900 49.70400 43.53500
H  52.13800 47.29400 44.85600
H  51.70200 48.87300 45.05800
H  53.24400 48.54600 44.17600
H  49.32800 49.79300 40.94400
H  50.96000 49.15900 40.69500
H  50.15700 51.93500 41.29800
H  51.78800 51.21200 40.70000
H  51.55600 51.37100 42.23000
H  44.72500 50.16500 42.43400
H  45.63400 50.40600 43.93300
H  44.02000 49.72600 44.07800
H  42.73200 44.84300 41.97600
H  41.11900 44.92100 46.53900
H  42.73200 44.68300 47.27500
H  42.00600 43.30900 46.49000

