158

Mg 47.58900 33.85300 27.02700
C  46.17300 32.62600 29.88400
C  48.19400 36.94000 28.69500
C  48.86000 35.24900 24.06400
C  46.61500 31.09100 25.27300
N  47.29600 34.67900 29.07200
C  46.71400 33.93100 30.13200
C  47.02600 34.64500 31.47400
C  47.28600 36.05500 30.99000
C  47.71700 35.87300 29.53700
C  46.17100 37.12200 31.21500
C  48.16300 33.89100 32.14700
C  48.17800 33.92900 33.71600
H  47.23700 34.93300 34.35700
N  48.35700 35.75600 26.45800
C  48.49000 36.88800 27.28500
C  49.01000 37.98700 26.52800
C  49.20400 37.55000 25.23000
C  48.82200 36.13100 25.18000
C  49.44800 39.30900 27.17200
C  49.91700 38.24000 24.12400
O  50.26800 37.76500 23.05800
C  50.21100 39.69600 24.31400
N  47.74900 33.26300 24.97600
C  48.41500 33.93900 23.99400
C  48.37600 33.14600 22.65500
C  47.78700 31.72200 23.08500
C  47.26900 32.04200 24.51700
C  47.67600 33.87500 21.50900
C  48.80600 30.52000 23.02900
C  50.10000 30.63900 23.89400
N  46.59200 32.10100 27.45200
C  46.28900 31.02400 26.69700
C  45.58300 30.06700 27.47100
C  45.39700 30.68600 28.69800
C  46.10300 31.88300 28.69100
C  44.99800 28.78400 27.04300
C  44.83300 30.58400 30.02200
O  44.14000 29.67700 30.48700
C  45.20900 31.86900 30.76500
C  45.69900 31.57900 32.09400
O  46.58600 30.81800 32.43100
O  44.86800 32.15500 32.98300
C  44.90000 31.69100 34.38900
H  48.28300 37.83000 29.32200
H  49.39100 35.56100 23.16200
H  46.33200 30.27600 24.60400
H  46.16800 34.59800 32.14500
H  48.23500 36.44400 31.35900
H  45.27200 36.59000 31.52500
H  45.84100 37.58500 30.28500
H  46.44100 37.81500 32.01200
H  49.10000 34.32800 31.80100
H  48.18500 32.83400 31.87900
H  49.18600 34.15900 34.06200
H  48.05300 32.92700 34.12600
H  48.68000 40.08100 27.13600
H  50.42800 39.62800 26.81800
H  49.62700 39.15400 28.23600
H  49.38500 40.21200 24.80200
H  50.43000 40.09300 23.32300
H  51.16800 39.67400 24.83400
H  49.37800 32.96500 22.26900
H  46.90800 31.52000 22.47300
H  47.52000 34.95300 21.55400
H  46.67000 33.48800 21.34700
H  48.29800 33.67100 20.63800
H  49.08300 30.45300 21.97700
H  48.31900 29.56100 23.20300
H  50.33000 29.76000 24.49600
H  50.17500 31.59600 24.41000
H  50.92300 30.74300 23.18800
H  43.96700 28.73800 27.39500
H  45.54300 27.88900 27.34400
H  44.95900 28.60200 25.96900
H  44.32000 32.49500 30.84300
H  44.27300 32.31300 35.02800
H  45.94900 31.69500 34.68400
H  44.57800 30.65300 34.47100
Mg 0.59700 43.30000 26.37700
C  2.97100 43.38600 29.04700
C  -1.75700 42.65300 28.77700
C  -1.55700 42.40500 23.98500
C  3.08100 43.57800 24.20600
N  0.62200 42.97700 28.70400
C  1.68300 43.09600 29.52400
C  1.14900 43.07700 31.04900
C  -0.27700 42.39400 30.86400
C  -0.50500 42.80400 29.39000
C  -0.41200 40.89600 31.14100
C  1.11000 44.54300 31.68800
C  1.22700 44.80100 33.23200
H  0.99400 43.52700 34.13500
N  -1.43100 42.60800 26.35500
C  -2.21900 42.42500 27.47900
C  -3.56400 42.10400 27.02200
C  -3.54900 42.02700 25.61200
C  -2.15500 42.25300 25.26700
C  -4.73500 41.88700 28.04200
C  -4.67800 41.81000 24.56800
O  -4.44500 41.89800 23.34500
C  -6.02400 41.55500 24.93600
N  0.68900 43.16100 24.41100
C  -0.26400 42.69200 23.60700
C  0.19800 42.69700 22.10800
C  1.59200 43.31200 22.17600
C  1.80700 43.38100 23.71700
C  0.05500 41.36000 21.31700
C  1.81400 44.58000 21.28900
C  1.61800 45.89600 22.10500
N  2.61500 43.56300 26.52500
C  3.53000 43.74600 25.51200
C  4.84400 43.82300 26.11600
C  4.69100 43.65600 27.43300
C  3.27900 43.57900 27.68100
C  6.20000 43.91400 25.51700
C  5.37800 43.50400 28.70400
O  6.58800 43.73200 28.97200
C  4.28500 43.30500 29.76400
C  4.56400 42.09900 30.60200
O  4.71200 40.97700 30.12200
O  4.67000 42.43900 31.86900
C  5.11200 41.43300 32.86300
H  -2.47700 42.49600 29.58200
H  -2.16900 42.15500 23.11600
H  3.93700 43.61600 23.52900
H  1.66700 42.41800 31.74500
H  -0.96000 42.99600 31.46400
H  0.56200 40.50000 31.43100
H  -0.75600 40.36500 30.25400
H  -1.14000 40.81000 31.94700
H  0.17500 44.98500 31.34400
H  1.78700 45.13500 31.07200
H  0.39900 45.46900 33.46700
H  2.11100 45.31300 33.61400
H  -5.17200 40.90200 27.88000
H  -5.62100 42.51800 27.97500
H  -4.40000 41.90300 29.07900
H  -6.65800 41.22700 24.11300
H  -6.47600 42.49500 25.25400
H  -5.95400 40.86900 25.78000
H  -0.37000 43.48000 21.60700
H  2.34200 42.56500 21.91600
H  0.95400 40.75300 21.43200
H  -0.06500 41.71000 20.29200
H  -0.80300 40.74100 21.57700
H  1.17700 44.60400 20.40400
H  2.84500 44.54600 20.93900
H  1.13300 46.58000 21.40800
H  2.58000 46.21600 22.50300
H  0.85700 45.73300 22.86800
H  6.05600 43.60900 24.48000
H  6.93700 43.28200 26.01200
H  6.63000 44.91500 25.51900
H  4.56700 44.11300 30.44000
H  5.01900 40.38300 32.58400
H  4.58200 41.46900 33.81500
H  6.15600 41.62600 33.10800

