158

Mg 47.37600 44.66100 42.55200
C  44.00800 43.46000 42.41800
C  48.23800 41.20200 42.36700
C  50.37200 45.63200 42.36600
C  46.15300 47.89500 42.03300
N  46.20700 42.60100 42.50800
C  44.86000 42.33500 42.51100
C  44.51900 40.89000 42.28000
C  45.87000 40.14600 42.55600
C  46.88100 41.39400 42.52200
C  45.74300 39.30800 43.88000
C  43.84000 40.60900 40.83800
C  44.40600 41.24800 39.54500
H  44.15100 40.54700 38.20000
N  49.07500 43.55800 42.42900
C  49.30200 42.16200 42.35500
C  50.74200 41.95700 42.23300
C  51.40400 43.18400 42.20500
C  50.27700 44.19600 42.32600
C  51.33600 40.57000 42.22500
C  52.91500 43.34000 42.16600
O  53.62700 42.34000 42.00700
C  53.47400 44.67300 42.07100
N  48.16700 46.60600 42.23700
C  49.49400 46.70600 42.33200
C  49.88300 48.19800 42.42200
C  48.59400 48.87400 41.83800
C  47.56600 47.78100 42.01100
C  50.15300 48.64200 43.92400
C  48.84300 49.27800 40.38600
C  47.92500 50.23100 39.66700
N  45.54200 45.51700 42.15600
C  45.18500 46.86200 42.06400
C  43.72100 47.02200 42.01000
C  43.21700 45.68800 42.21700
C  44.34200 44.81700 42.25300
C  42.99000 48.38900 41.69600
C  42.00900 44.95100 42.27700
O  40.83400 45.32700 42.17300
C  42.44900 43.44800 42.51800
C  42.02800 42.95000 43.84000
O  41.52500 41.85000 44.11000
O  42.33800 43.89800 44.80100
C  41.80600 43.56200 46.10600
H  48.48800 40.13900 42.38800
H  51.32300 46.16300 42.28300
H  45.82700 48.89200 41.73100
H  43.66700 40.64700 42.91600
H  46.18400 39.42500 41.80200
H  46.17900 39.75100 44.77500
H  46.12400 38.29200 43.77800
H  44.68800 39.18000 44.12300
H  42.80600 40.94600 40.91500
H  43.77000 39.52200 40.79600
H  45.45600 41.53800 39.58200
H  43.88700 42.19600 39.40500
H  50.71800 39.69600 42.43000
H  52.18400 40.48700 42.90500
H  51.71900 40.28000 41.24700
H  53.27300 45.01700 41.05700
H  54.55800 44.59200 42.15200
H  53.02000 45.20200 42.90900
H  50.80500 48.43300 41.89200
H  48.30000 49.83100 42.27100
H  51.13200 49.10100 44.06000
H  50.12700 47.72400 44.51100
H  49.35900 49.28300 44.30500
H  48.86900 48.38700 39.76000
H  49.85700 49.67200 40.32100
H  48.60000 50.93900 39.18500
H  47.15000 50.67700 40.29000
H  47.47100 49.66400 38.85500
H  43.50800 49.05100 42.39000
H  41.96200 48.41800 42.05600
H  43.09300 48.75000 40.67300
H  41.88800 42.76100 41.88400
H  40.72300 43.47100 46.18800
H  42.21800 44.19700 46.89000
H  42.17400 42.61100 46.49100
Mg 8.68400 48.49400 27.87800
C  7.09900 47.68500 30.88100
C  11.62500 48.64400 29.70700
C  10.35500 49.66400 25.20300
C  5.73000 48.80300 26.36200
N  9.23500 48.22600 30.06500
C  8.45500 47.85300 31.13500
C  9.19100 47.88400 32.50800
C  10.67300 48.27200 32.01800
C  10.50700 48.40300 30.53500
C  11.25800 49.59600 32.66000
C  9.07000 46.68200 33.44100
C  8.74200 46.99000 34.90200
H  9.48300 46.03200 35.87700
N  10.72400 48.95600 27.44100
C  11.76000 48.83900 28.33900
C  12.96700 49.01200 27.64700
C  12.66600 49.31400 26.30100
C  11.19500 49.39500 26.25600
C  14.37700 48.85900 28.29000
C  13.56300 49.75700 25.09200
O  13.15800 50.14600 24.02600
C  15.06400 49.43900 25.18800
N  8.11700 49.11000 26.04200
C  9.00100 49.61800 25.07100
C  8.18800 50.15100 23.87400
C  6.72900 49.75400 24.24300
C  6.85300 49.08800 25.60400
C  8.39500 51.67400 23.60400
C  6.07400 48.78700 23.23100
C  6.73200 47.45800 22.75300
N  6.80000 48.05300 28.39900
C  5.65100 48.21300 27.66000
C  4.44900 47.89400 28.47400
C  5.00000 47.75000 29.72600
C  6.42600 47.83700 29.69100
C  2.97500 47.79300 27.98000
C  4.65300 47.38100 31.13800
O  3.55200 47.08100 31.54700
C  5.97700 47.27600 31.88300
C  6.05100 45.78200 32.24200
O  6.51800 44.95000 31.54100
O  5.39800 45.54000 33.46200
C  5.52000 44.16900 34.07200
H  12.57800 48.67200 30.23900
H  10.84700 50.07100 24.31700
H  4.78300 48.95100 25.83800
H  8.77700 48.75100 33.02400
H  11.32900 47.40200 32.03100
H  12.34200 49.51500 32.58300
H  10.91900 49.83200 33.66800
H  11.09800 50.41300 31.95600
H  10.03400 46.18100 33.52600
H  8.51300 45.92300 32.89100
H  7.68800 46.73700 35.01600
H  8.82800 48.05900 35.09600
H  14.82700 47.92300 27.96100
H  14.32900 48.94600 29.37500
H  14.99400 49.68100 27.92700
H  15.66500 50.18200 25.71200
H  15.42800 49.27800 24.17300
H  15.08400 48.50700 25.75300
H  8.55500 49.70800 22.94800
H  6.09600 50.63900 24.31100
H  9.21100 51.78000 22.89000
H  8.62400 52.08400 24.58700
H  7.58100 52.32200 23.27800
H  5.97600 49.36900 22.31500
H  5.04800 48.51200 23.47400
H  7.35900 47.63200 21.87800
H  5.91300 46.76300 22.56600
H  7.45300 47.08200 23.47900
H  2.57600 48.77500 27.72600
H  2.36700 47.35700 28.77300
H  2.97100 47.16100 27.09100
H  6.03200 47.86000 32.80200
H  6.33900 44.11800 34.79000
H  5.54700 43.35300 33.35000
H  4.62500 44.08300 34.68900

