158

Mg 44.19500 3.23600 47.64600
C  42.06700 5.83000 46.71500
C  41.58200 1.07000 47.44800
C  46.35000 0.58500 47.86200
C  46.90900 5.43700 47.44000
N  42.01400 3.49000 47.19300
C  41.38300 4.61900 46.77000
C  39.94000 4.30500 46.52700
C  39.79100 2.87000 47.21200
C  41.25400 2.41300 47.23100
C  39.14200 2.78500 48.65700
C  39.65800 4.30900 44.93600
C  38.45300 5.12700 44.47000
H  38.64900 6.22300 43.41500
N  43.90200 1.07300 47.73600
C  42.80800 0.45700 47.58200
C  42.98700 -0.99500 47.68400
C  44.39200 -1.17100 47.73100
C  44.97900 0.23400 47.80100
C  41.87400 -2.01000 47.52800
C  45.10500 -2.56300 47.68100
O  44.49000 -3.59800 47.73300
C  46.53100 -2.65300 47.57500
N  46.32400 3.06800 47.61300
C  46.98200 1.90400 47.85700
C  48.51500 2.02900 48.11300
C  48.64800 3.58700 47.99100
C  47.23300 4.09800 47.65500
C  48.88100 1.34700 49.52000
C  49.68000 4.05500 46.92600
C  50.73400 5.08900 47.21900
N  44.46900 5.15600 47.27000
C  45.64200 5.85000 47.12500
C  45.32900 7.23700 46.81600
C  43.94100 7.33300 46.79600
C  43.42100 6.06500 47.00600
C  46.39800 8.32400 46.76100
C  42.81000 8.20600 46.59400
O  42.74400 9.43100 46.51300
C  41.50100 7.20500 46.49700
C  40.66700 7.61900 47.65800
O  40.42300 6.82700 48.54300
O  40.11400 8.84500 47.55900
C  38.93500 8.95700 48.40400
H  40.77100 0.34200 47.38200
H  47.01500 -0.27200 47.98600
H  47.75700 6.12500 47.46700
H  39.26900 4.98700 47.05000
H  39.26700 2.20300 46.52700
H  39.06100 3.76200 49.13500
H  39.72500 2.15900 49.33200
H  38.16500 2.33200 48.48900
H  39.27700 3.31000 44.72400
H  40.52400 4.47800 44.29500
H  37.96500 5.65200 45.29200
H  37.65200 4.54600 44.01200
H  42.17000 -2.96700 47.09800
H  41.23200 -1.57800 46.76100
H  41.35100 -2.17500 48.47000
H  46.84600 -2.06400 46.71400
H  46.72800 -3.70000 47.34400
H  46.91700 -2.32000 48.53800
H  49.08100 1.54200 47.31900
H  48.92000 4.06600 48.93200
H  49.32600 2.14900 50.11000
H  49.47700 0.43700 49.44300
H  47.97300 1.10100 50.07000
H  49.20900 4.32700 45.98100
H  50.21300 3.14100 46.66600
H  51.73900 4.66600 47.21500
H  50.61900 5.61200 48.16800
H  50.78600 5.78600 46.38200
H  46.97100 8.24800 47.68500
H  45.97800 9.31600 46.93100
H  46.97100 8.22500 45.83900
H  40.99800 7.04300 45.54400
H  38.10500 8.38900 47.98500
H  38.57800 9.98700 48.42700
H  39.17000 8.78400 49.45400
Mg -0.28200 43.18900 26.26600
C  2.20300 42.48500 28.70800
C  -2.65300 41.82400 28.39400
C  -2.37500 43.19400 23.76700
C  2.41100 43.66000 23.90700
N  -0.22400 42.21400 28.36800
C  0.87500 42.24200 29.19300
C  0.44000 41.90400 30.65400
C  -1.06700 41.47200 30.46100
C  -1.37000 41.84900 28.95600
C  -1.26200 39.98500 30.69800
C  0.92100 43.12700 31.47800
C  0.27400 43.31200 32.93700
H  -0.25900 42.05500 33.71600
N  -2.28000 42.80200 26.18000
C  -3.10700 42.29400 27.15700
C  -4.48700 42.46300 26.71200
C  -4.39800 42.70100 25.32000
C  -2.97300 42.90600 25.01400
C  -5.66900 42.00300 27.49600
C  -5.48100 42.79600 24.25300
O  -5.25800 42.94500 23.09300
C  -6.91700 42.53600 24.60200
N  0.05600 43.37500 24.09600
C  -1.06500 43.48100 23.33300
C  -0.64300 44.02900 21.95100
C  0.84000 44.55000 22.11100
C  1.14700 43.82300 23.41100
C  -0.90600 42.81100 20.95100
C  1.09100 46.08300 22.40800
C  1.17700 46.97100 21.19400
N  1.87200 43.11000 26.22500
C  2.77800 43.32600 25.24500
C  4.07100 43.28500 25.83300
C  3.87900 42.83300 27.12400
C  2.56900 42.76800 27.38300
C  5.33100 43.50300 25.07100
C  4.61800 42.48100 28.32600
O  5.84200 42.33800 28.55000
C  3.57200 42.41200 29.45900
C  3.75800 41.09200 30.09900
O  3.43100 40.01800 29.63200
O  4.34600 41.21100 31.35600
C  4.54400 40.04900 32.24600
H  -3.43700 41.58300 29.11500
H  -2.97900 43.25800 22.85900
H  3.28100 43.91000 23.29600
H  1.11300 41.08400 30.90400
H  -1.61000 42.10200 31.16600
H  -0.37200 39.40300 30.93800
H  -1.72900 39.50400 29.83900
H  -1.82300 39.88600 31.62700
H  0.74800 44.02100 30.88000
H  1.99700 43.17200 31.64800
H  -0.50700 44.04300 32.73000
H  0.99700 43.70300 33.65200
H  -5.46500 41.59600 28.48600
H  -6.12100 41.19300 26.92400
H  -6.33300 42.86400 27.57200
H  -7.01300 41.53500 25.02200
H  -7.43100 42.52700 23.64200
H  -7.08800 43.24100 25.41600
H  -1.24600 44.88800 21.65400
H  1.53200 44.00800 21.46700
H  -1.38300 41.95400 21.42600
H  0.03500 42.33600 20.67300
H  -1.38000 43.19600 20.04800
H  1.94700 46.26200 23.05900
H  0.28900 46.51000 23.01000
H  0.88400 46.43200 20.29300
H  2.24300 47.15800 21.05900
H  0.61800 47.90400 21.26200
H  6.14400 43.88700 25.68800
H  5.29700 44.38300 24.42800
H  5.68800 42.65700 24.48500
H  3.60300 43.22200 30.18800
H  5.00800 39.25300 31.66400
H  3.54000 39.66900 32.43600
H  5.13000 40.24400 33.14400

