158

Mg 47.00600 17.21500 29.08400
C  44.76300 16.44300 31.74900
C  48.93300 18.90300 31.40700
C  48.92500 18.06600 26.59200
C  44.72100 15.61800 26.91800
N  46.80100 17.62200 31.31000
C  45.90100 17.08300 32.21000
C  46.37900 17.24800 33.64100
C  47.46300 18.35100 33.54100
C  47.79600 18.31300 32.02000
C  46.90100 19.77200 33.81200
C  46.68900 15.83200 34.29800
C  47.07900 15.89300 35.75300
H  46.82100 17.21700 36.44100
N  48.67400 18.42100 28.98900
C  49.43800 18.91600 30.06800
C  50.65200 19.51400 29.61500
C  50.65700 19.26100 28.15600
C  49.39000 18.50800 27.84300
C  51.68700 20.13800 30.47600
C  51.71900 19.59600 27.18400
O  51.61000 19.30600 25.99800
C  52.93000 20.34300 27.68900
N  46.96100 16.65100 27.09500
C  47.90200 17.20000 26.23500
C  47.53800 16.84000 24.72300
C  46.25100 15.84600 24.96800
C  45.98900 15.99200 26.43800
C  47.06600 18.19600 23.96500
C  46.60100 14.34400 24.50400
C  46.42600 14.00300 22.99600
N  45.12100 16.30400 29.14500
C  44.32400 15.71100 28.23300
C  43.02400 15.21300 28.83200
C  43.22300 15.52900 30.15700
C  44.46400 16.17000 30.36200
C  41.81600 14.47100 28.19700
C  42.57500 15.29200 31.40300
O  41.54400 14.65300 31.59100
C  43.51800 15.90300 32.51300
C  42.86100 16.93500 33.31900
O  42.35200 17.97900 32.91600
O  42.88800 16.53500 34.68200
C  42.42300 17.32400 35.81900
H  49.56100 19.36500 32.17100
H  49.40000 18.39900 25.66700
H  43.96400 15.19100 26.25700
H  45.54100 17.68200 34.18500
H  48.41500 18.13900 34.02700
H  46.12100 19.72800 34.57300
H  46.47200 20.20000 32.90700
H  47.72500 20.41700 34.11700
H  47.46300 15.35100 33.70000
H  45.76800 15.25100 34.27200
H  48.12600 15.58900 35.77800
H  46.55500 15.13900 36.34000
H  52.62200 19.57800 30.45900
H  51.29600 20.21100 31.49100
H  51.80700 21.16400 30.12600
H  52.74300 21.30800 28.16000
H  53.53700 20.46700 26.79200
H  53.40500 19.67500 28.40700
H  48.40700 16.38300 24.24900
H  45.42600 16.26800 24.39400
H  46.35100 17.98500 23.16900
H  48.00400 18.55500 23.54100
H  46.68600 19.00400 24.59000
H  46.19300 13.53600 25.11100
H  47.68300 14.34000 24.63600
H  47.19100 13.24800 22.81500
H  46.81700 14.80300 22.36600
H  45.37000 13.75900 22.87900
H  41.74300 14.75300 27.14700
H  40.88100 14.90400 28.55300
H  41.69900 13.39100 28.27900
H  43.69600 15.02400 33.13200
H  43.13300 17.18800 36.63500
H  41.42800 17.06000 36.17800
H  42.49000 18.36100 35.49100
Mg -11.03900 16.44400 42.84400
C  -7.79900 15.22900 42.29700
C  -9.97700 19.47300 41.57500
C  -14.31100 17.43000 42.55900
C  -12.04200 13.35900 44.08000
N  -9.14000 17.18500 41.77500
C  -7.96400 16.51200 41.88300
C  -6.88300 17.37800 41.35100
C  -7.48400 18.84300 41.37100
C  -8.96400 18.48700 41.68200
C  -6.79000 19.77300 42.46300
C  -6.43700 16.91800 39.91100
C  -4.92400 17.01900 39.55700
H  -4.31400 15.87200 38.66500
N  -11.98500 18.21800 42.05100
C  -11.40900 19.32000 41.52800
C  -12.39600 20.31200 41.12700
C  -13.69600 19.76200 41.54300
C  -13.40100 18.42400 42.16300
C  -11.88800 21.66000 40.62300
C  -14.95200 20.45200 41.35000
O  -14.96100 21.56500 40.84900
C  -16.19700 19.85100 41.88600
N  -12.91900 15.54600 43.20800
C  -14.10500 16.16200 43.05100
C  -15.32100 15.12300 43.30000
C  -14.56000 13.98400 43.87400
C  -13.05500 14.34700 43.82400
C  -16.40700 15.68300 44.25400
C  -14.95800 12.53900 43.31300
C  -14.83100 11.37600 44.30100
N  -10.22400 14.65800 43.15600
C  -10.69700 13.46000 43.69900
C  -9.64100 12.50200 43.81800
C  -8.48600 13.13400 43.26200
C  -8.86000 14.45400 42.86000
C  -9.74300 11.15700 44.41100
C  -7.10500 12.95100 42.94900
O  -6.40000 11.99000 43.12800
C  -6.59300 14.32400 42.35200
C  -5.59000 14.82600 43.27100
O  -5.71400 14.96800 44.45000
O  -4.42000 14.93700 42.60700
C  -3.38400 15.62600 43.35200
H  -9.46000 20.38700 41.27800
H  -15.40100 17.48900 42.51900
H  -12.38100 12.43400 44.54900
H  -6.08500 17.24300 42.08200
H  -7.35300 19.43600 40.46600
H  -6.06300 19.16500 43.00100
H  -7.61200 20.09200 43.10400
H  -6.37900 20.61800 41.91200
H  -7.06400 17.55000 39.28200
H  -6.77200 15.90700 39.67600
H  -4.36100 17.15800 40.48100
H  -4.83600 17.98800 39.06600
H  -10.91200 21.54800 40.15200
H  -11.76300 22.47000 41.34200
H  -12.63100 21.99000 39.89700
H  -16.95100 20.63300 41.97500
H  -16.01100 19.31400 42.81700
H  -16.66900 19.19000 41.15900
H  -15.89700 15.04300 42.37800
H  -14.75600 13.92900 44.94400
H  -16.97500 14.92800 44.79700
H  -17.18500 16.15600 43.65600
H  -15.95600 16.37100 44.97000
H  -14.35700 12.25400 42.45000
H  -15.98000 12.61200 42.94200
H  -15.83800 10.97600 44.41800
H  -14.41400 11.65400 45.26900
H  -14.15900 10.66900 43.81400
H  -10.12400 11.31200 45.42000
H  -8.79200 10.62600 44.35700
H  -10.57300 10.74800 43.83600
H  -6.31000 14.16200 41.31200
H  -2.37400 15.24100 43.21100
H  -3.46500 15.39000 44.41300
H  -3.40700 16.70300 43.18800

