158

Mg 25.08200 -4.81400 46.07900
C  26.87100 -2.07500 44.52200
C  22.44300 -3.88600 44.03700
C  23.54500 -7.45000 47.09500
C  28.00900 -5.83100 47.57800
N  24.63500 -2.96100 44.65200
C  25.56100 -2.09700 44.02500
C  24.94500 -1.32500 42.88000
C  23.40600 -1.73500 42.99600
C  23.43100 -2.89600 43.96500
C  22.41400 -0.59800 43.32600
C  25.68300 -1.73400 41.52000
C  26.39300 -0.59700 40.75600
H  25.94800 -0.51400 39.30000
N  23.21400 -5.53200 45.67000
C  22.31500 -5.06300 44.82600
C  21.11600 -5.88700 44.90000
C  21.37700 -6.95000 45.76800
C  22.71500 -6.70300 46.25400
C  19.86600 -5.57200 44.17000
C  20.36800 -7.98500 46.24000
O  19.16300 -7.87400 45.91200
C  20.65700 -9.15700 47.14800
N  25.68300 -6.42300 47.26500
C  24.85800 -7.32900 47.64300
C  25.47000 -8.52800 48.41800
C  27.00900 -8.02900 48.46400
C  26.92400 -6.67100 47.71800
C  24.82400 -8.67200 49.88600
C  28.07900 -8.91800 47.77600
C  29.30700 -9.43100 48.74000
N  27.04300 -4.11000 46.12900
C  28.04900 -4.56700 46.85000
C  29.26100 -3.74300 46.69400
C  28.80700 -2.75600 45.77100
C  27.49700 -2.97200 45.45400
C  30.61600 -4.05000 47.27800
C  29.20000 -1.56700 44.99200
O  30.18000 -0.81200 45.15700
C  28.00800 -1.23500 44.05100
C  27.85000 0.29200 44.26200
O  27.27500 0.74500 45.24400
O  28.33300 0.97900 43.07600
C  28.16000 2.39800 43.11600
H  21.57100 -3.67100 43.41600
H  22.99200 -8.35300 47.36200
H  28.90500 -6.18500 48.09200
H  25.02200 -0.24600 43.00800
H  23.04700 -2.06500 42.02100
H  21.63400 -0.42100 42.58400
H  22.85800 0.38400 43.48700
H  21.89300 -0.88200 44.24000
H  24.94100 -2.27500 40.93200
H  26.34100 -2.56600 41.76800
H  27.44900 -0.86000 40.81300
H  26.10300 0.32000 41.26900
H  20.08600 -5.55700 43.10200
H  19.54400 -4.58200 44.49400
H  19.04800 -6.29100 44.19200
H  19.75000 -9.61500 47.54300
H  21.21200 -8.74200 47.98900
H  21.33800 -9.86900 46.68300
H  25.45800 -9.51000 47.94500
H  27.19200 -7.69100 49.48400
H  25.32300 -8.10300 50.67000
H  24.87900 -9.75400 50.00500
H  23.80900 -8.27700 49.89300
H  28.60000 -8.44000 46.94600
H  27.70600 -9.89400 47.46500
H  30.11200 -8.80700 48.35300
H  29.48700 -10.49300 48.57800
H  29.09300 -9.12100 49.76300
H  31.45200 -3.54200 46.79800
H  30.70400 -5.13600 47.27200
H  30.55400 -3.74300 48.32200
H  28.18100 -1.35800 42.98100
H  28.11300 2.97300 42.19100
H  28.96700 2.85800 43.68600
H  27.23200 2.62200 43.64100
Mg 16.56700 -1.92400 28.11800
C  15.45500 0.01200 31.00000
C  18.71200 -3.49400 30.20100
C  17.76900 -3.29100 25.36000
C  14.89900 0.55100 26.14200
N  17.03800 -1.67800 30.29800
C  16.53600 -0.85600 31.27500
C  17.17200 -1.09100 32.60700
C  18.24600 -2.12900 32.30600
C  18.06200 -2.42000 30.84800
C  19.70600 -1.72100 32.70900
C  16.15800 -1.61700 33.69400
C  16.20700 -0.97600 35.10900
H  17.53200 -0.23400 35.47400
N  17.88200 -3.36100 27.84300
C  18.55800 -3.99400 28.87300
C  19.14400 -5.23200 28.31600
C  18.93400 -5.19500 26.88800
C  18.09600 -3.94300 26.63700
C  19.83100 -6.21700 29.20700
C  19.38500 -6.18000 25.83400
O  19.06300 -6.04900 24.68400
C  20.18000 -7.43800 26.24800
N  16.29400 -1.47700 26.05400
C  17.02100 -2.17000 25.12100
C  16.89200 -1.45300 23.74100
C  15.74700 -0.45300 23.92800
C  15.61300 -0.44200 25.41100
C  18.27600 -0.91800 23.25300
C  14.43100 -0.78300 23.18600
C  14.20000 -0.03900 21.84100
N  15.23200 -0.26900 28.38500
C  14.60700 0.56300 27.49600
C  13.83500 1.57400 28.17100
C  14.10100 1.36300 29.56700
C  14.99600 0.22700 29.66500
C  13.14700 2.70100 27.56600
C  13.87400 1.89300 30.91600
O  13.18300 2.88800 31.27500
C  14.78500 0.99200 31.95400
C  15.67600 2.05200 32.62500
O  16.84600 2.41900 32.38200
O  14.99800 2.65400 33.70500
C  15.69100 3.66200 34.48200
H  19.44700 -4.08000 30.75700
H  18.20100 -3.82600 24.51200
H  14.34500 1.21000 25.47000
H  17.61000 -0.15800 32.96100
H  18.16300 -3.01800 32.93100
H  20.37600 -1.71100 31.85000
H  20.03200 -2.41500 33.48400
H  19.73300 -0.77100 33.24200
H  16.20700 -2.69200 33.86700
H  15.18700 -1.44500 33.23100
H  15.77300 -1.63900 35.85600
H  15.47600 -0.16800 35.13400
H  19.22000 -6.42500 30.08600
H  20.76500 -5.80400 29.58600
H  19.92800 -7.22100 28.79500
H  19.41100 -8.02100 26.75500
H  21.08600 -7.20700 26.80800
H  20.37700 -7.96500 25.31400
H  16.64900 -2.28100 23.07500
H  16.09600 0.54600 23.66800
H  18.17100 0.15900 23.12300
H  18.63600 -1.37100 22.32900
H  19.04500 -1.08600 24.00700
H  13.62800 -0.47600 23.85500
H  14.40100 -1.87100 23.11400
H  15.12700 0.38300 21.45100
H  13.66000 0.84800 22.17200
H  13.51600 -0.65500 21.25800
H  13.22500 3.48100 28.32300
H  12.11500 2.38500 27.41800
H  13.43700 3.04600 26.57300
H  14.09500 0.47900 32.62400
H  15.67200 4.53600 33.83100
H  16.72400 3.39200 34.70300
H  15.13200 3.88600 35.39000

