158

Mg 24.98500 -7.95000 47.51900
C  26.81900 -5.46900 46.04000
C  22.31200 -7.26100 45.09500
C  23.29300 -10.78200 48.33600
C  27.89600 -9.27700 48.85900
N  24.66100 -6.64700 45.52200
C  25.53400 -5.53000 45.41400
C  24.93500 -4.52700 44.36900
C  23.43800 -4.99500 44.20600
C  23.44100 -6.39600 45.03100
C  22.43700 -3.96100 44.71400
C  25.67400 -4.41200 43.04700
C  25.58900 -2.97000 42.39300
H  24.98200 -2.87000 41.03500
N  23.08100 -8.82900 46.94300
C  22.20400 -8.45800 45.88500
C  21.05000 -9.34200 45.90800
C  21.24700 -10.29100 46.91300
C  22.60000 -9.98700 47.49500
C  19.90100 -9.09000 45.03100
C  20.26400 -11.40500 47.29600
O  19.18100 -11.32500 46.80700
C  20.57700 -12.41200 48.38600
N  25.46700 -9.71700 48.66700
C  24.62800 -10.74700 48.71900
C  25.33100 -11.96800 49.48700
C  26.78300 -11.50400 49.78700
C  26.73200 -10.08300 49.13500
C  24.56700 -12.53100 50.77500
C  27.86900 -12.36100 49.13600
C  27.88900 -12.51500 47.53700
N  26.88900 -7.42200 47.71500
C  28.00200 -7.97300 48.25700
C  29.12900 -7.04500 48.19300
C  28.66600 -6.04000 47.40500
C  27.33200 -6.35700 47.03000
C  30.46900 -7.27900 48.87400
C  29.09700 -4.75400 46.81900
O  30.17000 -4.14700 46.90900
C  27.91900 -4.30600 45.80700
C  27.44900 -2.92000 46.09400
O  27.71400 -1.96700 45.36400
O  26.58100 -2.80400 47.18600
C  25.72100 -1.64000 47.44300
H  21.47100 -7.01300 44.44400
H  22.94400 -11.71400 48.78600
H  28.89200 -9.66000 49.09000
H  24.97200 -3.50600 44.75000
H  23.25700 -5.21200 43.15300
H  22.90300 -3.20700 45.34900
H  21.63600 -4.37300 45.32700
H  21.89200 -3.55600 43.86100
H  25.25600 -5.18700 42.40500
H  26.73100 -4.60400 43.23200
H  26.58800 -2.56200 42.23900
H  25.04900 -2.32900 43.08900
H  20.22000 -8.65200 44.08500
H  19.28700 -8.34800 45.54100
H  19.23400 -9.93300 44.85100
H  21.26400 -13.21500 48.11900
H  19.61400 -12.92200 48.39300
H  20.80400 -12.00300 49.37100
H  25.45300 -12.72000 48.70700
H  26.97000 -11.39800 50.85500
H  23.70300 -11.91200 51.01600
H  25.26600 -12.60000 51.60900
H  24.25600 -13.57500 50.71600
H  27.86300 -13.36200 49.56700
H  28.78700 -11.83200 49.39400
H  28.64700 -11.81900 47.17800
H  27.07600 -12.01700 47.00900
H  28.01200 -13.56200 47.25900
H  30.80000 -6.35100 49.34100
H  31.27800 -7.43200 48.15900
H  30.42700 -8.10100 49.58900
H  28.24200 -4.40900 44.77100
H  24.84100 -1.88200 48.03900
H  25.44900 -1.17800 46.49400
H  26.35900 -0.97000 48.01800
Mg 53.65700 23.73000 44.51300
C  50.91900 25.72300 43.80900
C  51.99900 21.06400 43.04800
C  56.60800 22.04600 44.40700
C  55.42600 26.56800 45.41600
N  51.74800 23.55100 43.34100
C  50.76000 24.42700 43.38900
C  49.60900 23.91500 42.49200
C  49.75500 22.33700 42.61700
C  51.28800 22.28300 43.02000
C  48.66200 21.54200 43.52700
C  49.74000 24.36900 41.03000
C  48.45200 24.36800 40.14500
H  48.03000 22.95300 39.63100
N  54.18300 21.81600 43.82800
C  53.27100 20.82900 43.41800
C  53.89800 19.56700 43.42600
C  55.25900 19.81400 43.83200
C  55.44200 21.28400 44.02000
C  53.23200 18.26500 43.14600
C  56.32600 18.71300 43.87500
O  56.09900 17.55900 43.55800
C  57.69900 18.94900 44.28300
N  55.83900 24.29600 44.53300
C  56.77100 23.39000 44.67300
C  58.15400 23.99100 44.83400
C  57.82200 25.53000 45.15200
C  56.23300 25.49700 45.05000
C  58.98000 23.22300 45.91800
C  58.48700 26.58000 44.19800
C  59.65900 27.31300 44.81400
N  53.23100 25.70700 44.75500
C  54.04300 26.73900 45.17400
C  53.28700 27.93600 45.40900
C  52.02800 27.60900 44.87400
C  52.05900 26.23900 44.47000
C  53.79800 29.07900 46.14000
C  50.69800 28.12600 44.58800
O  50.18900 29.21700 44.81500
C  50.01100 26.88000 43.73900
C  49.55700 27.42100 42.47200
O  50.27800 27.88500 41.60700
O  48.23100 27.36400 42.44100
C  47.51000 28.06300 41.35700
H  51.51000 20.14400 42.72300
H  57.52600 21.48700 44.59800
H  55.97700 27.41900 45.82200
H  48.64400 24.27000 42.85400
H  49.70500 21.88000 41.62800
H  48.63600 21.88300 44.56200
H  49.01900 20.51300 43.56900
H  47.65600 21.35500 43.15300
H  50.40200 23.69700 40.48300
H  50.11800 25.37700 40.86100
H  48.75700 25.04400 39.34700
H  47.61100 24.77400 40.70700
H  53.70300 17.50900 43.77400
H  53.41500 17.97300 42.11200
H  52.17500 18.32800 43.40700
H  58.17200 19.37900 43.40100
H  58.11700 17.98000 44.55500
H  57.71800 19.53700 45.20100
H  58.53000 23.90300 43.81500
H  57.94900 25.81000 46.19800
H  59.48600 23.84800 46.65300
H  59.66900 22.54200 45.41600
H  58.25800 22.66300 46.51200
H  57.75900 27.38000 44.06600
H  58.91000 26.22300 43.25900
H  59.30800 28.31800 45.05000
H  60.57300 27.24100 44.22500
H  59.94900 26.88300 45.77300
H  54.86700 29.29600 46.13900
H  53.58400 29.03400 47.20800
H  53.26300 29.93500 45.72800
H  49.05600 26.72900 44.24100
H  47.95400 27.70500 40.42800
H  47.79500 29.11400 41.39300
H  46.42600 27.94900 41.33700

