158

Mg 48.61800 35.17200 27.44500
C  46.65600 33.87200 30.06900
C  49.30100 37.92100 29.34600
C  50.37800 36.28500 24.84700
C  47.55200 32.34600 25.49600
N  48.14900 35.70700 29.48900
C  47.40100 35.01100 30.42400
C  47.74500 35.58800 31.80600
C  47.94400 37.09400 31.46800
C  48.49500 36.95000 29.99100
C  46.80400 38.19100 31.64900
C  48.94500 34.78600 32.54900
C  48.98500 34.64900 34.09700
H  48.11800 35.56700 34.87300
N  49.56200 36.92100 27.10000
C  49.77600 37.88800 28.03000
C  50.64300 38.88600 27.40600
C  51.08600 38.39000 26.12300
C  50.36600 37.13300 25.97900
C  50.98100 40.25800 28.02600
C  52.16500 38.92300 25.22000
O  52.43900 38.40300 24.17700
C  52.97800 40.15500 25.63800
N  48.80100 34.45100 25.47600
C  49.63400 35.10700 24.62400
C  49.84200 34.37300 23.32500
C  48.92000 33.01900 23.51200
C  48.38400 33.29200 24.93700
C  49.34000 35.33100 22.24100
C  49.84200 31.65600 23.31900
C  49.50800 30.80600 22.06400
N  47.38300 33.50400 27.64700
C  47.05700 32.41900 26.84000
C  46.21100 31.52700 27.48900
C  46.04800 32.11100 28.75000
C  46.77700 33.27200 28.78100
C  45.60800 30.24600 26.98700
C  45.33000 31.89300 29.99500
O  44.49100 31.07500 30.27200
C  45.79400 33.01200 30.96700
C  46.56100 32.33200 32.06200
O  47.57000 31.66100 31.99900
O  45.72300 32.40600 33.16000
C  46.07400 31.48300 34.19500
H  49.57600 38.80700 29.92300
H  50.98000 36.60600 23.99400
H  47.23900 31.41500 25.01800
H  46.88100 35.53700 32.47000
H  48.75400 37.47600 32.08900
H  46.30000 38.42600 30.71100
H  47.07800 39.10200 32.18100
H  45.98500 37.75900 32.22400
H  49.89600 35.22200 32.24500
H  48.89000 33.77900 32.13500
H  49.99600 34.65100 34.50500
H  48.65800 33.63900 34.34300
H  50.18000 40.51900 28.71800
H  50.87900 40.92700 27.17100
H  51.89500 40.43500 28.59300
H  53.83100 40.21900 24.96200
H  53.20100 40.06500 26.70100
H  52.27800 40.96800 25.44800
H  50.90300 34.12900 23.29600
H  48.07100 33.17300 22.84600
H  48.64600 36.08600 22.61100
H  48.87000 34.84900 21.38400
H  50.15200 35.92300 21.82000
H  49.87700 30.93400 24.13400
H  50.84900 31.99900 23.08400
H  49.26400 29.82500 22.47200
H  50.37900 30.70100 21.41800
H  48.65100 31.22800 21.53900
H  45.39900 30.23700 25.91800
H  44.72000 30.02100 27.57700
H  46.37100 29.51100 27.24600
H  45.09900 33.71100 31.43100
H  45.51400 31.61800 35.12000
H  47.08500 31.55800 34.59500
H  46.01200 30.44200 33.87700
Mg 30.58200 58.27100 40.10800
C  28.01500 56.39500 38.70900
C  32.69100 55.74200 39.32400
C  33.16400 60.45300 40.38300
C  28.42400 60.86500 40.63900
N  30.32400 56.35100 39.05700
C  29.24100 55.68700 38.68000
C  29.53300 54.27900 38.04800
C  30.85700 53.96500 38.81000
C  31.35100 55.42700 39.22300
C  30.74200 53.02700 40.00900
C  29.71700 54.25800 36.48200
C  28.56700 53.73700 35.61100
H  27.85600 54.75100 34.65900
N  32.64800 58.13600 39.86900
C  33.35200 56.98800 39.53300
C  34.75100 57.20300 39.61200
C  34.86000 58.56700 40.06500
C  33.50400 59.13000 40.12700
C  35.76100 56.06600 39.43200
C  36.18000 59.23600 40.50300
O  37.27400 58.62900 40.39500
C  36.25600 60.61800 41.04800
N  30.76600 60.32900 40.61900
C  31.94000 61.03400 40.66900
C  31.77700 62.54700 40.84300
C  30.23500 62.58300 41.26100
C  29.76500 61.15200 40.74500
C  32.71000 63.06200 41.93100
C  29.42800 63.76100 40.62700
C  28.37600 64.50700 41.51500
N  28.58800 58.60700 39.82800
C  27.82500 59.68100 40.10000
C  26.51900 59.47800 39.63600
C  26.52300 58.16100 39.08100
C  27.86400 57.69900 39.17400
C  25.34600 60.36400 39.83800
C  25.66200 57.15600 38.52000
O  24.47500 57.21000 38.17900
C  26.64500 55.98000 38.25800
C  26.07100 54.79800 38.98900
O  26.56400 54.36300 40.05300
O  24.89200 54.38700 38.47900
C  24.18700 53.49500 39.38500
H  33.25900 54.81100 39.27200
H  33.90500 61.25500 40.42200
H  27.70800 61.68400 40.74400
H  28.71200 53.64600 38.38500
H  31.62400 53.48600 38.20200
H  30.78900 53.56200 40.95800
H  31.38700 52.15300 40.10800
H  29.73600 52.60900 40.02700
H  30.55300 53.58800 36.28200
H  30.06300 55.24500 36.17500
H  27.81100 53.37200 36.30500
H  28.92200 52.92500 34.97600
H  35.58000 55.21800 40.09300
H  36.75400 56.42600 39.70300
H  35.64100 55.87600 38.36500
H  37.25500 60.83700 41.42600
H  35.54900 60.76900 41.86400
H  35.98200 61.18800 40.16100
H  31.92700 63.07800 39.90300
H  30.11300 62.71400 42.33600
H  32.79400 64.09600 41.59500
H  33.60500 62.45500 42.06500
H  32.18000 63.09600 42.88300
H  29.01500 63.36800 39.69800
H  30.15000 64.53100 40.35700
H  28.18800 65.53900 41.22100
H  28.71700 64.42700 42.54700
H  27.39800 64.03800 41.40400
H  25.65400 61.40500 39.73800
H  24.84400 60.21400 40.79400
H  24.66700 60.29600 38.98800
H  26.72800 55.66500 37.21800
H  23.23700 53.39300 38.85900
H  24.03600 53.99000 40.34400
H  24.70000 52.53400 39.42300

