158

Mg 8.02500 2.77300 27.51600
C  9.54600 1.09700 30.25100
C  6.32500 4.51700 29.59100
C  6.30500 3.56300 24.80300
C  9.93100 0.33300 25.43500
N  7.98500 2.71000 29.66600
C  8.71600 2.06700 30.62500
C  8.65900 2.81100 31.99500
C  7.47800 3.77400 31.76300
C  7.23300 3.65800 30.23400
C  6.20800 3.27200 32.56200
C  10.04400 3.52600 32.44300
C  10.75100 3.09300 33.71200
H  10.68000 4.05100 34.92400
N  6.55200 4.04000 27.20900
C  5.87900 4.68600 28.25000
C  4.83500 5.54500 27.68400
C  4.79200 5.19100 26.28100
C  5.95600 4.24500 25.98300
C  3.93200 6.52900 28.62000
C  3.79200 5.69300 25.30000
O  3.78600 5.39800 24.09400
C  2.63200 6.59900 25.82100
N  8.22700 2.11900 25.38200
C  7.32800 2.59800 24.50800
C  7.65600 1.96400 23.11500
C  9.00600 1.26400 23.25000
C  9.06400 1.23700 24.74600
C  6.40400 1.15500 22.70500
C  10.23800 2.06300 22.56100
C  11.41400 1.13800 22.20900
N  9.40900 1.05700 27.72500
C  10.05300 0.20000 26.84200
C  10.78000 -0.81400 27.53000
C  10.70200 -0.45300 28.87800
C  9.82700 0.63400 28.94100
C  11.69000 -1.92300 26.92100
C  11.20500 -0.80700 30.16900
O  11.94300 -1.64000 30.64900
C  10.47900 0.20300 31.15300
C  9.56200 -0.48800 32.12400
O  8.46000 -1.06000 31.89500
O  10.13200 -0.41400 33.39000
C  9.42200 -0.92100 34.66000
H  5.93700 5.34400 30.18900
H  5.71700 3.91900 23.95500
H  10.48200 -0.33800 24.77300
H  8.37200 2.00000 32.66400
H  7.72100 4.77800 32.11200
H  5.40200 2.83500 31.97400
H  5.83700 4.14200 33.10400
H  6.44800 2.61500 33.39900
H  9.77300 4.55400 32.68400
H  10.74500 3.50100 31.60800
H  11.78300 2.80700 33.51200
H  10.15900 2.22300 33.99700
H  4.03600 7.50500 28.14500
H  4.20200 6.60900 29.67300
H  2.90600 6.17100 28.54200
H  1.93200 6.71300 24.99300
H  2.96400 7.47000 26.38500
H  2.09100 5.94600 26.50600
H  7.80100 2.76500 22.38900
H  8.86400 0.22900 22.93800
H  5.66600 1.12400 23.50700
H  6.63700 0.12100 22.45000
H  5.92800 1.59700 21.83000
H  10.49600 2.83600 23.28400
H  9.88700 2.50900 21.63000
H  11.46600 0.98600 21.13000
H  11.33400 0.22200 22.79400
H  12.33400 1.70600 22.34600
H  11.19700 -2.33800 26.04200
H  11.73300 -2.68200 27.70300
H  12.68300 -1.52700 26.70600
H  11.14600 0.80400 31.77200
H  8.68500 -1.68100 34.39800
H  9.06800 0.01000 35.10200
H  10.15400 -1.31700 35.36300
Mg 31.51100 57.81700 39.85500
C  28.53700 56.17400 38.84900
C  33.34000 55.23500 38.55900
C  34.22300 59.94500 40.03200
C  29.43900 60.66000 40.62000
N  30.97600 56.00500 38.79100
C  29.71800 55.51300 38.49200
C  29.84500 54.24000 37.65400
C  31.29800 53.81500 38.03900
C  31.93000 55.12900 38.38100
C  31.35600 52.96400 39.26300
C  29.55300 54.36100 36.05800
C  28.49500 53.49100 35.44700
H  27.42900 54.33500 34.68100
N  33.45600 57.62300 39.34500
C  34.08300 56.43700 38.93100
C  35.49100 56.69300 38.75300
C  35.76700 57.99100 39.16000
C  34.44700 58.59000 39.54800
C  36.51700 55.68200 38.29900
C  37.17100 58.70000 39.19900
O  38.18100 58.03000 38.92800
C  37.33200 60.13400 39.34500
N  31.77800 59.94800 40.27400
C  32.98200 60.48700 40.47300
C  32.90400 61.97400 40.90800
C  31.37700 62.16000 41.03000
C  30.81500 60.86900 40.59100
C  33.70000 62.34900 42.10600
C  30.80300 63.36500 40.16900
C  30.18900 64.50000 41.10300
N  29.41800 58.25500 40.03800
C  28.74300 59.44700 40.28800
C  27.25900 59.23600 40.18500
C  27.19400 57.85100 39.78100
C  28.47400 57.38200 39.54900
C  26.04700 60.26200 40.38600
C  26.26900 56.73900 39.38700
O  25.02400 56.73400 39.37700
C  27.11200 55.59100 38.75600
C  26.88800 54.38400 39.49000
O  27.65200 53.76000 40.22500
O  25.69000 53.91800 39.02600
C  25.31300 52.63700 39.58700
H  34.02100 54.45600 38.21000
H  35.10500 60.57700 40.15800
H  28.80200 61.48200 40.95300
H  29.21900 53.43600 38.04100
H  31.92900 53.40500 37.25000
H  32.41300 52.77300 39.45000
H  30.75600 52.07900 39.05100
H  30.83800 53.34900 40.14100
H  30.49600 54.11100 35.57200
H  29.20700 55.38400 35.90900
H  27.85000 52.99600 36.17300
H  29.06500 52.86000 34.76500
H  37.47600 56.05400 37.93700
H  36.16400 54.98700 37.53800
H  36.75500 55.00900 39.12400
H  37.04300 60.49300 40.33200
H  36.78900 60.64000 38.54700
H  38.34500 60.48400 39.14500
H  33.21800 62.64100 40.10500
H  31.03200 62.32100 42.05100
H  33.10300 62.48400 43.00700
H  34.20300 63.27800 41.84000
H  34.43200 61.66700 42.54100
H  29.93100 63.09100 39.57600
H  31.62600 63.79900 39.60000
H  30.51000 65.40100 40.58100
H  30.62000 64.39900 42.09900
H  29.10400 64.57800 41.17200
H  26.34100 61.04800 41.08200
H  25.21100 59.69200 40.79100
H  25.74700 60.69800 39.43400
H  26.80000 55.35100 37.73900
H  25.03100 52.70700 40.63700
H  26.07100 51.87100 39.42600
H  24.34800 52.32200 39.18900

