158

Mg 44.40700 4.48300 46.78800
C  42.27700 7.21800 46.28800
C  41.83300 2.39500 46.21400
C  46.68300 1.97600 46.79000
C  47.11500 6.81000 46.39800
N  42.33900 4.79500 46.26200
C  41.66600 5.98200 46.13400
C  40.13900 5.71400 46.01900
C  40.01800 4.15000 46.14800
C  41.50300 3.77100 46.27100
C  39.22500 3.63800 47.39600
C  39.37900 6.26200 44.80900
C  40.04400 6.13700 43.44200
H  40.68200 7.31900 42.67500
N  44.31700 2.39700 46.69600
C  43.11000 1.70000 46.41200
C  43.38400 0.31900 46.40600
C  44.77100 0.16200 46.53500
C  45.34200 1.55000 46.70500
C  42.27000 -0.66300 46.13900
C  45.57000 -1.15200 46.57000
O  44.98500 -2.26700 46.31000
C  46.99900 -1.23200 46.97800
N  46.62200 4.39900 46.78100
C  47.26100 3.25000 46.78300
C  48.75600 3.42400 46.55500
C  48.79000 4.96000 46.18100
C  47.41800 5.43000 46.37700
C  49.69800 3.00900 47.67100
C  49.40400 5.20900 44.76600
C  50.91600 5.48500 44.80300
N  44.68600 6.58700 46.49300
C  45.81100 7.34100 46.38500
C  45.47700 8.72400 46.14600
C  44.09400 8.74800 46.25200
C  43.63200 7.38300 46.46100
C  46.32300 9.84800 46.01200
C  42.92400 9.64700 46.42300
O  42.83400 10.89700 46.51700
C  41.71300 8.60300 46.31200
C  40.87600 8.92200 47.41600
O  41.00800 8.38200 48.50600
O  39.95200 9.77000 47.07800
C  39.06100 10.12000 48.19800
H  40.91900 1.80800 46.10500
H  47.53200 1.29200 46.85100
H  47.95300 7.47700 46.18500
H  39.74600 6.17500 46.92500
H  39.64300 3.65700 45.25100
H  38.40100 4.34000 47.52800
H  39.92400 3.55400 48.22800
H  38.82000 2.64900 47.18000
H  39.25300 7.32400 45.02100
H  38.42900 5.74500 44.68000
H  39.28900 5.80200 42.73100
H  40.76900 5.32600 43.50200
H  41.98400 -0.68800 45.08700
H  41.30800 -0.30200 46.50300
H  42.50400 -1.65900 46.51700
H  47.13500 -2.19400 47.47200
H  47.14300 -0.51200 47.78300
H  47.65900 -0.91400 46.17100
H  49.08800 2.88600 45.66700
H  49.36900 5.55500 46.88800
H  50.25400 2.11800 47.38100
H  49.09700 2.67700 48.51700
H  50.43400 3.73600 48.01500
H  48.89400 6.04600 44.28800
H  49.20400 4.39100 44.07400
H  51.43400 5.00700 45.63400
H  50.98400 6.56200 44.95800
H  51.44300 5.28300 43.87000
H  47.30100 9.40400 45.82700
H  46.30800 10.48600 46.89600
H  45.97300 10.59100 45.29500
H  41.26400 8.84200 45.34800
H  38.46900 9.25900 48.50900
H  38.29900 10.81400 47.84400
H  39.51200 10.60900 49.06100
Mg 40.58500 8.44700 28.92700
C  42.14900 9.42500 31.93200
C  38.21100 6.79300 30.80100
C  39.28800 7.41300 26.14000
C  43.39500 9.75100 27.19200
N  40.27100 8.12200 31.14000
C  40.90200 8.75300 32.17300
C  40.37300 8.34600 33.50700
C  39.29600 7.30800 33.17300
C  39.29000 7.28500 31.60100
C  39.47100 5.89600 33.87900
C  39.89300 9.41500 34.48000
C  40.32800 9.24100 35.98200
H  40.47600 10.58500 36.83000
N  38.90800 7.39900 28.54600
C  37.98800 6.82800 29.42900
C  36.88300 6.25200 28.63800
C  37.13500 6.55900 27.28100
C  38.46300 7.18400 27.25600
C  35.70200 5.55200 29.36600
C  36.31800 6.31800 26.00500
O  36.75100 6.74800 24.90600
C  34.96300 5.66800 25.99400
N  41.24800 8.53200 26.96900
C  40.47800 8.10300 25.97500
C  41.01700 8.34200 24.61800
C  42.39300 9.16500 24.83100
C  42.40300 9.10200 26.39100
C  41.26200 7.01400 23.85500
C  42.45400 10.53900 24.20500
C  41.24700 11.43100 24.36700
N  42.36300 9.43200 29.37800
C  43.39400 9.89100 28.59600
C  44.34800 10.59500 29.42700
C  43.90200 10.40300 30.71200
C  42.70400 9.65600 30.64700
C  45.49100 11.41400 28.92400
C  44.21100 10.76200 32.13800
O  45.11400 11.41700 32.68700
C  43.08700 10.15900 32.92800
C  43.74000 9.27200 33.97500
O  44.36400 8.28400 33.74700
O  43.62700 9.88300 35.19000
C  44.33600 9.25600 36.30100
H  37.54600 6.17100 31.40300
H  38.93400 7.08300 25.16100
H  44.23800 10.20100 26.66400
H  41.18700 7.87200 34.05600
H  38.32700 7.70100 33.47900
H  40.37200 5.87900 34.49200
H  39.48000 5.05600 33.18500
H  38.73300 5.86400 34.68100
H  38.80400 9.41200 34.52800
H  40.06900 10.43400 34.13600
H  41.24000 8.64500 35.98200
H  39.57300 8.69800 36.55100
H  34.76500 6.10400 29.44300
H  35.94200 5.48500 30.42700
H  35.67200 4.58300 28.86900
H  34.48500 5.74400 26.97100
H  35.12200 4.61200 25.77700
H  34.28800 6.15000 25.28700
H  40.40200 9.00700 24.01200
H  43.34000 8.63000 24.76300
H  40.71200 6.97400 22.91400
H  41.08100 6.14900 24.49300
H  42.32900 6.96600 23.63700
H  42.51800 10.19300 23.17300
H  43.39400 11.02800 24.45900
H  41.55700 12.43800 24.64400
H  40.57100 11.06000 25.13800
H  40.62800 11.42900 23.47000
H  45.08900 11.90400 28.03800
H  46.18900 10.69000 28.50400
H  46.03400 11.99400 29.67100
H  42.53500 10.96500 33.41000
H  45.42400 9.23800 36.24700
H  44.04600 8.20500 36.27200
H  44.04500 9.64200 37.27800

