158

Mg 31.06900 58.30700 39.96200
C  28.18900 56.49500 38.95400
C  32.94200 55.60900 39.23100
C  33.77400 60.31300 40.04500
C  29.06700 61.21000 40.25600
N  30.58200 56.38900 39.08500
C  29.40200 55.82500 38.68600
C  29.54700 54.34800 38.24000
C  30.97100 54.01100 38.91000
C  31.55800 55.44900 39.05300
C  30.93300 53.07200 40.12900
C  29.54600 54.37600 36.72500
C  28.36400 53.66500 35.98400
H  27.35200 54.57500 35.24600
N  33.04300 58.01100 39.69200
C  33.65100 56.81900 39.45100
C  35.07900 57.01400 39.36700
C  35.36800 58.35900 39.70500
C  34.03700 59.01900 39.75300
C  35.99600 55.83400 39.08800
C  36.77800 58.93800 39.93800
O  37.76600 58.28500 39.63300
C  36.94700 60.33000 40.30900
N  31.41600 60.57100 39.79600
C  32.65000 61.06500 40.05500
C  32.62000 62.45900 40.58700
C  31.11600 62.70100 40.88100
C  30.44600 61.41000 40.28500
C  33.52300 62.69900 41.84700
C  30.40700 63.93000 40.23300
C  29.33600 64.73000 41.12600
N  29.00500 58.78300 39.70200
C  28.38700 60.00400 39.93600
C  26.96000 59.78700 39.84600
C  26.84000 58.39300 39.51900
C  28.12200 57.83200 39.36000
C  25.78100 60.78600 40.11100
C  25.87000 57.34600 39.37600
O  24.66100 57.38700 39.48400
C  26.73400 56.06700 38.85500
C  26.35100 54.85100 39.68000
O  27.00100 54.34300 40.53400
O  25.25200 54.23600 39.08400
C  24.79400 52.97100 39.60800
H  33.51700 54.69300 39.08500
H  34.60800 61.00700 40.16700
H  28.51200 62.07800 40.61800
H  28.73100 53.74500 38.63700
H  31.59400 53.64200 38.09400
H  29.93300 52.68000 40.31400
H  31.27000 53.69800 40.95500
H  31.63400 52.26000 39.93800
H  30.44500 53.92000 36.31000
H  29.72100 55.41300 36.43900
H  27.84100 52.99600 36.66700
H  28.83400 53.02100 35.24100
H  36.10000 55.83400 38.00300
H  35.71200 54.86100 39.48800
H  37.01800 55.82100 39.46500
H  36.47100 60.55900 41.26300
H  36.52500 60.92900 39.50200
H  38.01700 60.43000 40.49000
H  33.00900 63.10000 39.79500
H  30.96000 62.60800 41.95600
H  33.98100 61.78100 42.21400
H  32.89600 63.21600 42.57300
H  34.28300 63.38300 41.46800
H  30.08800 63.53400 39.27000
H  31.23600 64.60300 40.01200
H  28.44000 64.92200 40.53500
H  29.76400 65.66900 41.47600
H  28.99400 64.24100 42.03800
H  25.88000 61.40700 39.22100
H  25.93100 61.42200 40.98300
H  24.81300 60.28400 40.12000
H  26.45500 55.84200 37.82600
H  25.62400 52.26500 39.62500
H  23.95300 52.51900 39.08400
H  24.56300 53.09300 40.66600
Mg 36.29100 49.16000 25.38800
C  36.27700 47.15000 28.35200
C  35.07400 51.77100 27.36200
C  35.65800 50.85100 22.67100
C  36.98600 46.25700 23.60800
N  35.71300 49.45100 27.55700
C  35.91300 48.49400 28.55400
C  35.63800 49.05400 29.96600
C  35.10800 50.44600 29.63400
C  35.25500 50.59100 28.11000
C  33.60400 50.79000 30.05300
C  36.92000 49.10300 30.84100
C  36.77600 48.66300 32.27700
H  35.47500 49.00000 32.99000
N  35.44300 51.06700 25.01500
C  35.07600 52.00600 25.92500
C  34.94500 53.31600 25.30800
C  35.17300 53.07300 23.89800
C  35.48200 51.60400 23.79400
C  34.50900 54.57900 26.14400
C  35.06500 54.06100 22.82700
O  35.14000 53.65600 21.65100
C  34.84300 55.53900 23.14200
N  36.34900 48.58400 23.41100
C  35.96600 49.46100 22.48800
C  36.12200 48.80000 21.03800
C  36.79700 47.45100 21.40100
C  36.72800 47.41900 22.92700
C  34.76000 48.72200 20.29900
C  38.23900 47.36800 20.77900
C  39.48600 48.02600 21.53900
N  36.65000 47.13000 25.84000
C  37.00600 46.10400 24.96700
C  37.30100 44.91500 25.75800
C  36.98700 45.26000 27.08200
C  36.63000 46.64300 27.08800
C  37.89600 43.64700 25.25600
C  37.04700 44.78500 28.49500
O  37.38500 43.77100 29.04100
C  36.47000 46.06500 29.38800
C  35.19100 45.71600 30.09000
O  34.18500 45.23900 29.53400
O  35.36200 45.83400 31.42300
C  34.26000 45.25000 32.18800
H  34.71100 52.54200 28.04400
H  35.39800 51.41000 21.77000
H  37.23000 45.48000 22.88000
H  34.85500 48.41100 30.36700
H  35.65800 51.26100 30.10300
H  33.78200 51.60800 30.75100
H  33.38000 49.87400 30.60000
H  32.93500 51.07900 29.24300
H  37.20300 50.15200 30.92900
H  37.73800 48.55600 30.37400
H  37.44400 49.24000 32.91700
H  37.02500 47.60200 32.29100
H  35.32000 55.27600 25.93600
H  34.27700 54.36400 27.18800
H  33.56500 54.98900 25.78500
H  35.72800 55.94500 23.63100
H  33.84200 55.75200 23.51900
H  34.74400 55.94500 22.13500
H  36.79900 49.41100 20.44000
H  36.22700 46.59000 21.05100
H  33.94400 49.01700 20.95800
H  34.52000 47.70100 20.00200
H  34.68400 49.36300 19.42000
H  38.21800 47.78100 19.77000
H  38.55300 46.33100 20.66200
H  39.31900 48.36300 22.56300
H  39.80000 48.91800 20.99700
H  40.30600 47.31300 21.46700
H  38.37700 43.79400 24.28900
H  36.97300 43.11800 25.01700
H  38.54400 43.19700 26.00800
H  37.30400 46.44800 29.97600
H  34.57000 45.06000 33.21600
H  33.90400 44.32500 31.73300
H  33.41300 45.93500 32.16700

