158

Mg 46.27600 24.62600 27.92600
C  47.45700 26.72200 30.29700
C  45.16700 22.43100 30.40600
C  45.29100 22.52800 25.54100
C  47.70700 26.69500 25.38100
N  46.38900 24.54500 30.06100
C  46.79500 25.63200 30.89000
C  46.40500 25.48800 32.39400
C  45.75000 24.03300 32.36600
C  45.74400 23.57700 30.85500
C  46.31900 23.00000 33.38200
C  45.69300 26.66200 33.11100
C  44.91000 26.34700 34.34300
H  45.33100 26.92300 35.71700
N  45.45300 22.73100 27.99700
C  44.99800 22.03800 29.05300
C  44.50100 20.78500 28.65700
C  44.60600 20.69400 27.24300
C  45.15400 22.02600 26.90800
C  43.99300 19.76000 29.65400
C  44.43200 19.51300 26.25300
O  44.48200 19.54700 25.02200
C  43.95700 18.19700 26.80100
N  46.61000 24.50700 25.72600
C  45.83600 23.67300 25.08800
C  45.76500 24.12100 23.51200
C  46.63800 25.42200 23.42600
C  47.00200 25.60400 24.89300
C  46.24300 23.05000 22.50600
C  45.69000 26.59800 22.98300
C  45.49400 26.63600 21.43900
N  47.43200 26.29200 27.81100
C  47.94000 27.01800 26.73500
C  48.68300 28.18800 27.23300
C  48.42300 28.09900 28.64600
C  47.70700 26.90300 28.89300
C  49.39400 29.23100 26.47100
C  48.64100 28.79700 29.80700
O  49.13100 29.94300 29.90100
C  47.97800 27.97500 30.96100
C  48.95500 27.78300 32.07300
O  49.85300 26.94400 32.17300
O  48.65400 28.68700 33.04000
C  49.52800 28.67600 34.26200
H  44.80800 21.78600 31.21000
H  44.79400 21.90200 24.79700
H  48.04500 27.46500 24.68500
H  47.40000 25.47100 32.83800
H  44.70100 24.15100 32.63700
H  46.74500 22.17500 32.81100
H  45.66000 22.61800 34.16200
H  47.20800 23.35700 33.90300
H  45.13900 27.26100 32.38800
H  46.48700 27.32600 33.45200
H  44.86600 25.25800 34.37600
H  43.86700 26.55400 34.10200
H  43.07700 19.36800 29.21200
H  43.76100 20.19700 30.62500
H  44.76600 19.00700 29.80900
H  44.60600 17.84200 27.60200
H  44.11800 17.44700 26.02700
H  42.91800 18.27800 27.12000
H  44.68300 24.12200 23.38100
H  47.54200 25.30200 22.83000
H  46.79100 22.24200 22.99100
H  46.80200 23.43100 21.65100
H  45.41500 22.46700 22.10200
H  46.01500 27.61100 23.22100
H  44.71100 26.49300 23.45000
H  45.71500 25.70500 20.91800
H  45.97500 27.49300 20.96800
H  44.44200 26.81200 21.21500
H  50.46600 29.07200 26.59100
H  49.17200 30.23900 26.82300
H  49.12900 29.24200 25.41400
H  47.10300 28.56100 31.24400
H  50.53600 28.63600 33.84900
H  49.39300 27.78100 34.87000
H  49.39200 29.53300 34.92200
Mg 27.04300 51.68400 26.52000
C  24.91400 53.09900 28.95200
C  29.01500 50.48300 29.08600
C  29.16300 50.37200 24.19500
C  25.01600 52.86500 23.96200
N  27.02100 51.89100 28.69700
C  26.03300 52.38500 29.49700
C  26.24200 52.15100 30.96400
C  27.65500 51.50000 30.98000
C  27.86300 51.20200 29.51600
C  28.90800 52.28900 31.59000
C  25.09300 51.39500 31.75800
C  24.38500 52.17600 32.84100
H  25.21000 52.64100 33.98200
N  28.95800 50.73500 26.65200
C  29.58100 50.29700 27.80300
C  30.77600 49.57400 27.43000
C  30.86200 49.51500 25.99100
C  29.65000 50.26000 25.50700
C  31.63500 49.09900 28.53900
C  31.86700 48.77200 25.10500
O  31.75900 48.81200 23.89400
C  32.89500 47.95400 25.66900
N  27.13300 51.69600 24.42900
C  28.09300 51.03300 23.71100
C  27.63400 50.74700 22.30400
C  26.27900 51.57200 22.23100
C  26.12800 52.11000 23.60300
C  28.67300 51.07000 21.23900
C  25.14600 50.87800 21.49200
C  24.57800 49.61000 22.28600
N  25.33200 52.82300 26.42100
C  24.57200 53.22600 25.28900
C  23.49500 54.03100 25.79100
C  23.56400 53.92200 27.20000
C  24.69100 53.21000 27.54200
C  22.42000 54.73700 24.85000
C  22.81000 54.27400 28.42900
O  21.70400 54.79200 28.64000
C  23.74900 53.73900 29.57200
C  24.22100 54.80900 30.44100
O  25.30400 55.38500 30.30000
O  23.24400 55.07600 31.34300
C  23.65000 55.97500 32.42100
H  29.59100 49.97000 29.85900
H  29.64000 49.74800 23.43700
H  24.34700 53.12500 23.13900
H  26.26000 53.13600 31.43200
H  27.70500 50.59200 31.58200
H  28.58000 53.32000 31.72300
H  29.73600 52.32100 30.88200
H  29.27300 51.82400 32.50600
H  25.31100 50.44300 32.24200
H  24.38700 50.96900 31.04500
H  23.54200 51.59800 33.22100
H  23.94200 53.07000 32.40200
H  32.67500 49.15400 28.21500
H  31.41700 48.06500 28.80500
H  31.45600 49.63700 29.47100
H  33.63100 48.60900 26.13500
H  33.46000 47.45200 24.88400
H  32.53500 47.27800 26.44400
H  27.33400 49.71300 22.13500
H  26.44700 52.51700 21.71500
H  29.64400 51.36400 21.63600
H  28.49000 51.86500 20.51700
H  28.83900 50.10900 20.75200
H  25.54300 50.48900 20.55400
H  24.36200 51.63000 21.40000
H  24.52200 49.84600 23.34800
H  25.15900 48.75300 21.94600
H  23.51500 49.38900 22.18700
H  22.61400 54.65100 23.78100
H  22.60500 55.76300 25.16700
H  21.46200 54.40500 25.24900
H  23.22700 52.99000 30.16700
H  24.13500 56.85500 31.99800
H  24.30000 55.43100 33.10700
H  22.74300 56.22500 32.97200

