158

Mg 35.48700 -0.26700 29.83700
C  33.48300 1.22600 32.24200
C  37.85600 -1.02800 32.30900
C  37.77500 -1.13600 27.42300
C  33.23800 0.81600 27.39000
N  35.59300 0.16400 32.07700
C  34.63500 0.79100 32.83500
C  34.89400 0.58500 34.33300
C  36.49300 0.08700 34.23200
C  36.62900 -0.32300 32.75200
C  37.59700 1.14100 34.61000
C  33.95500 -0.39100 35.02500
C  33.64700 -0.11200 36.46800
H  34.22800 1.09400 37.20800
N  37.50300 -1.05400 29.90800
C  38.27800 -1.36600 31.00400
C  39.48500 -2.10000 30.62500
C  39.47800 -2.08400 29.22100
C  38.18800 -1.41900 28.77900
C  40.43100 -2.78800 31.61800
C  40.47300 -2.63200 28.21900
O  40.27700 -2.76700 27.01800
C  41.81900 -3.07900 28.72000
N  35.49000 -0.21000 27.74600
C  36.54700 -0.60900 26.95600
C  36.29800 -0.23600 25.46100
C  34.74800 0.18800 25.43200
C  34.45900 0.25000 26.95800
C  37.33800 0.76100 24.94200
C  33.75500 -0.79100 24.66100
C  32.39600 -0.17700 24.19100
N  33.64400 0.70600 29.75000
C  32.84700 1.08300 28.70500
C  31.66300 1.69800 29.19000
C  31.83800 1.84500 30.59600
C  33.13200 1.27700 30.84100
C  30.56100 2.13100 28.31400
C  31.29300 2.40500 31.84800
O  30.35800 3.16000 32.12800
C  32.27400 1.90100 32.93900
C  32.69000 3.11100 33.60100
O  33.61100 3.86400 33.34000
O  31.83500 3.22700 34.71700
C  32.01000 4.45000 35.53500
H  38.61700 -1.31000 33.04000
H  38.58300 -1.23100 26.69400
H  32.51500 1.23200 26.68600
H  34.88800 1.51200 34.90600
H  36.72800 -0.69500 34.95400
H  37.07700 2.02500 34.97800
H  38.16500 1.38400 33.71200
H  38.13700 0.77400 35.48300
H  34.57000 -1.28500 34.92100
H  33.05100 -0.49600 34.42400
H  33.95900 -0.97900 37.05000
H  32.56600 -0.00700 36.56200
H  40.32500 -3.85100 31.39900
H  40.09800 -2.51500 32.62000
H  41.45600 -2.42300 31.56600
H  42.32500 -3.42700 27.82000
H  41.79500 -3.85000 29.49100
H  42.27000 -2.18200 29.14300
H  36.43500 -1.11700 24.83500
H  34.71700 1.22700 25.10400
H  37.91400 1.14500 25.78400
H  36.75400 1.56800 24.50100
H  37.90100 0.40800 24.07700
H  33.47100 -1.68900 25.20900
H  34.31700 -1.16800 23.80700
H  32.34700 -0.63900 23.20400
H  32.57800 0.89200 24.29700
H  31.69600 -0.57400 24.92600
H  29.96000 1.24900 28.09600
H  30.97800 2.47500 27.36800
H  30.10100 3.01800 28.75000
H  31.83200 1.23200 33.67800
H  31.02200 4.85400 35.75400
H  32.46800 5.26000 34.96600
H  32.49000 4.29900 36.50200
Mg -5.97600 25.71900 25.57900
C  -4.22700 27.01400 28.44200
C  -6.98300 23.14400 27.67800
C  -7.36400 24.21700 22.97300
C  -4.24700 27.91500 23.61900
N  -5.73600 25.26900 27.84300
C  -5.13700 26.01200 28.83400
C  -5.52000 25.50800 30.23800
C  -6.02800 24.11000 29.93500
C  -6.33200 24.16300 28.37900
C  -5.08300 22.90900 30.50400
C  -6.66400 26.48200 30.76100
C  -6.57900 26.73700 32.29900
H  -6.45700 25.45900 33.21900
N  -7.03000 23.91200 25.33100
C  -7.38300 23.01300 26.30200
C  -8.04000 21.89700 25.70800
C  -8.29700 22.20000 24.30800
C  -7.54400 23.50300 24.16000
C  -8.41600 20.70900 26.57300
C  -9.16600 21.46200 23.28900
O  -9.44900 22.02600 22.19000
C  -9.82600 20.11300 23.57900
N  -5.93000 26.05000 23.63100
C  -6.59200 25.30700 22.66300
C  -6.25700 25.75400 21.25500
C  -5.55900 27.12800 21.58800
C  -5.18500 26.97700 23.07500
C  -5.38600 24.83500 20.38200
C  -6.39900 28.38100 21.47000
C  -6.44600 29.01400 20.13100
N  -4.54900 27.17600 25.95900
C  -3.90900 27.99400 25.02800
C  -2.95400 28.81900 25.64900
C  -3.01700 28.40700 27.02600
C  -4.00500 27.45400 27.12200
C  -1.94900 29.76600 25.05700
C  -2.36400 28.69700 28.33200
O  -1.55800 29.53600 28.66000
C  -3.25300 27.83300 29.26500
C  -2.38400 27.04000 30.24100
O  -1.54800 26.20300 29.97200
O  -2.66500 27.31800 31.57500
C  -1.91400 26.61500 32.66200
H  -7.31600 22.35600 28.35700
H  -7.92800 23.85900 22.10900
H  -3.72400 28.61100 22.95900
H  -4.63000 25.51200 30.86800
H  -7.02700 23.94100 30.33700
H  -4.40600 22.69600 29.67700
H  -5.59300 22.01500 30.86400
H  -4.50700 23.35200 31.31700
H  -7.65700 26.06200 30.59900
H  -6.72600 27.48800 30.34600
H  -7.39000 27.42300 32.54400
H  -5.74800 27.40600 32.52100
H  -9.20100 20.11800 26.10200
H  -8.58300 20.93900 27.62500
H  -7.59200 19.99700 26.62300
H  -9.00200 19.42700 23.77600
H  -10.44500 19.83700 22.72600
H  -10.51800 20.24600 24.41100
H  -7.19800 25.96000 20.74600
H  -4.68000 27.25300 20.95500
H  -4.41800 25.31900 20.24900
H  -5.79700 24.58800 19.40300
H  -5.37700 23.94600 21.01300
H  -6.24400 29.09300 22.28100
H  -7.44400 28.07200 21.47600
H  -7.17200 28.38600 19.61300
H  -5.54500 28.87500 19.53400
H  -6.55100 30.09900 20.14500
H  -1.90500 30.58400 25.77600
H  -2.16800 30.11700 24.04800
H  -1.00000 29.23500 24.97600
H  -3.87400 28.53100 29.82600
H  -2.73100 26.57100 33.38200
H  -1.04700 27.05300 33.15600
H  -1.80100 25.56900 32.37600

