158

Mg 17.12700 -2.60700 27.30200
C  16.03100 -0.51500 29.91000
C  18.83400 -4.59000 29.48400
C  18.52200 -4.02100 24.62900
C  15.43000 -0.38400 25.07900
N  17.37700 -2.53800 29.52700
C  16.85500 -1.56800 30.34500
C  17.43500 -1.87300 31.76800
C  18.22900 -3.19800 31.65200
C  18.17600 -3.47200 30.10500
C  19.66300 -3.09800 32.23600
C  16.28200 -1.96100 32.79600
C  16.44100 -1.09600 34.06200
H  17.78500 -0.43200 34.45800
N  18.39200 -4.12000 27.03800
C  18.91400 -4.96500 28.03700
C  19.49600 -6.19500 27.48500
C  19.44300 -5.99800 26.08400
C  18.82300 -4.62900 25.86400
C  19.92900 -7.35300 28.37400
C  19.85700 -6.89400 24.96700
O  19.79700 -6.63500 23.76800
C  20.46000 -8.27000 25.32800
N  17.06600 -2.15800 25.16200
C  17.74000 -2.89200 24.25200
C  17.62500 -2.33500 22.80400
C  16.51800 -1.24900 22.98800
C  16.38500 -1.22100 24.46500
C  18.93600 -1.70600 22.31300
C  15.19700 -1.39800 22.15400
C  14.64000 -0.13400 21.34600
N  15.88500 -0.94100 27.36400
C  15.27300 -0.12800 26.43300
C  14.51300 0.93400 26.97500
C  14.83300 0.89400 28.30400
C  15.57400 -0.30300 28.53200
C  13.68500 1.97500 26.25700
C  14.68500 1.53800 29.54500
O  14.15700 2.59200 29.90900
C  15.49800 0.71000 30.62000
C  16.55400 1.57700 31.26800
O  17.75200 1.59300 30.95100
O  16.02600 2.28900 32.30400
C  16.87600 3.18600 33.14700
H  19.35600 -5.21400 30.21200
H  19.14600 -4.46800 23.85300
H  14.80600 0.31800 24.52200
H  18.09900 -1.03900 31.99500
H  17.82400 -3.98300 32.29100
H  19.76600 -2.43100 33.09200
H  20.40300 -2.78000 31.50100
H  19.92700 -4.07300 32.64700
H  16.11300 -2.96700 33.18000
H  15.37700 -1.67300 32.26100
H  16.20600 -1.77600 34.88100
H  15.68400 -0.32100 34.18700
H  19.83800 -8.34000 27.91900
H  19.33400 -7.31900 29.28600
H  20.96500 -7.16100 28.65300
H  21.39400 -8.09900 25.86300
H  20.75500 -8.80100 24.42300
H  19.71800 -8.90700 25.80800
H  17.27500 -3.19900 22.23900
H  16.87600 -0.28200 22.63500
H  19.02200 -2.15500 21.32300
H  19.71400 -1.94200 23.03900
H  19.01500 -0.64500 22.07600
H  14.40400 -1.85900 22.74200
H  15.45200 -2.13100 21.38800
H  13.59700 0.08100 21.57700
H  14.81000 -0.27500 20.27800
H  15.17700 0.75800 21.66900
H  13.06600 1.52700 25.48000
H  14.41100 2.59100 25.72600
H  13.12700 2.56200 26.98600
H  14.80100 0.36100 31.38200
H  16.78100 2.94800 34.20600
H  16.32000 4.12200 33.09700
H  17.94100 3.28400 32.93700
Mg 47.06700 24.70100 28.71200
C  47.64000 27.01900 31.24500
C  45.99300 22.44700 31.15500
C  46.51400 22.44000 26.38500
C  48.69600 26.69600 26.37800
N  46.84100 24.75900 31.01200
C  47.06700 25.81400 31.80700
C  46.69100 25.49300 33.28500
C  46.32600 23.98300 33.24000
C  46.38500 23.67900 31.73000
C  47.17000 23.10100 34.17200
C  45.53800 26.43100 33.71400
C  45.92800 27.27000 34.94000
H  46.55000 26.54500 36.28000
N  46.25900 22.80800 28.77900
C  45.85100 22.05600 29.86000
C  45.24500 20.77300 29.38200
C  45.43200 20.74800 27.97600
C  46.00000 22.04400 27.60600
C  44.90400 19.64300 30.26500
C  45.18900 19.55000 26.98600
O  45.41600 19.58800 25.82100
C  44.80200 18.15700 27.44400
N  47.53100 24.60900 26.59700
C  47.24200 23.46000 25.93100
C  47.61400 23.64000 24.47900
C  48.35500 25.01300 24.51800
C  48.30400 25.43600 25.91900
C  48.33900 22.48000 23.71700
C  47.77900 26.13600 23.56700
C  46.35800 26.74300 23.88700
N  47.95800 26.47000 28.73200
C  48.57400 27.24800 27.70800
C  48.98200 28.53800 28.28700
C  48.72900 28.44000 29.64600
C  48.03400 27.19800 29.87700
C  49.66700 29.64000 27.50400
C  48.85700 29.15900 30.91100
O  49.36300 30.24200 31.22600
C  48.15000 28.27500 31.92900
C  49.22700 27.88900 32.96900
O  50.00600 26.90300 32.80600
O  49.16800 28.70200 34.08600
C  49.97300 28.18300 35.25400
H  45.67900 21.75800 31.94200
H  46.31400 21.73400 25.57700
H  49.27300 27.27200 25.65100
H  47.67200 25.66300 33.72800
H  45.31500 23.60200 33.38300
H  47.69700 22.22600 33.79100
H  46.46800 22.76200 34.93400
H  47.89500 23.75600 34.65400
H  44.50100 26.09600 33.71900
H  45.46800 27.16700 32.91300
H  44.95600 27.71800 35.14600
H  46.54500 28.12900 34.67800
H  45.62000 18.85000 30.05200
H  43.84500 19.40400 30.16200
H  45.12600 19.84300 31.31300
H  44.66200 17.43400 26.64000
H  43.85400 18.18900 27.98000
H  45.59200 17.77400 28.09000
H  46.69600 23.90100 23.95200
H  49.39400 24.91800 24.20100
H  49.14500 22.88600 23.10600
H  47.64900 22.01200 23.01600
H  48.77600 21.80800 24.45600
H  47.65700 25.63500 22.60700
H  48.58400 26.86700 23.48900
H  45.87900 26.51900 24.84000
H  45.73200 26.55300 23.01500
H  46.41800 27.82800 23.80900
H  50.70200 29.76300 27.82500
H  49.14500 30.55500 27.78300
H  49.59700 29.49800 26.42500
H  47.43900 28.88100 32.49000
H  49.58100 27.21600 35.56700
H  50.13200 28.95200 36.01000
H  50.95300 27.88900 34.87700

