158

Mg 36.01100 50.06700 25.40300
C  36.36400 48.32600 28.40100
C  34.70400 52.75300 27.10900
C  35.72500 51.65700 22.50200
C  37.46000 47.36900 23.75400
N  35.58500 50.50300 27.50900
C  35.81700 49.63700 28.56100
C  35.41900 50.24700 29.93600
C  34.70500 51.58900 29.51300
C  35.00100 51.62700 27.93100
C  33.19200 51.57500 29.82000
C  36.66500 50.46600 30.92100
C  36.39700 50.25000 32.38700
H  34.96600 50.09100 32.96600
N  35.18600 51.85400 24.83200
C  34.83300 52.84700 25.72600
C  34.55900 54.08400 24.98400
C  34.81800 53.78500 23.57400
C  35.26200 52.39600 23.56900
C  34.07700 55.33800 25.63800
C  34.80200 54.69000 22.30100
O  35.04700 54.17200 21.19800
C  34.48800 56.18300 22.41000
N  36.57400 49.56400 23.36200
C  36.34000 50.41300 22.33800
C  36.78900 49.79700 20.98300
C  37.66400 48.61100 21.55900
C  37.17300 48.43900 22.98000
C  35.59800 49.30600 20.16500
C  39.24500 48.98100 21.60700
C  40.18300 48.16100 20.62300
N  36.66800 48.21600 25.97200
C  37.26200 47.25400 25.18300
C  37.71900 46.12900 25.99900
C  37.31900 46.44600 27.31400
C  36.66700 47.73600 27.19500
C  38.50000 44.87700 25.58600
C  37.40500 46.02900 28.70800
O  37.88800 45.03100 29.21600
C  36.81700 47.33900 29.49000
C  35.75500 46.64700 30.37800
O  34.82300 46.01300 29.95800
O  36.15000 46.61200 31.74000
C  35.34100 45.63400 32.51000
H  34.27700 53.62500 27.60900
H  35.52600 52.11700 21.53100
H  38.23800 46.72200 23.34300
H  34.76200 49.53300 30.43300
H  35.18300 52.45600 29.96800
H  32.97300 50.69600 30.42700
H  32.54600 51.52200 28.94400
H  32.95700 52.49900 30.34800
H  37.14500 51.42100 30.70900
H  37.33900 49.66900 30.60500
H  36.82100 51.12500 32.87900
H  37.05300 49.42400 32.65900
H  34.10600 56.22300 25.00200
H  34.76000 55.52900 26.46600
H  33.11100 55.28000 26.13900
H  35.20300 56.71300 23.03900
H  33.45800 56.33200 22.73700
H  34.63300 56.54000 21.39100
H  37.42500 50.50400 20.45000
H  37.47500 47.65500 21.07100
H  35.79400 49.73700 19.18300
H  34.66100 49.65700 20.59700
H  35.61400 48.23100 19.98100
H  39.70000 48.72800 22.56500
H  39.40700 50.03400 21.38100
H  39.53000 47.95500 19.77500
H  40.59200 47.25400 21.06800
H  40.94700 48.88300 20.33500
H  39.26300 44.59500 26.31200
H  38.94400 45.12300 24.62200
H  37.86400 44.02200 25.36200
H  37.60000 47.70900 30.15300
H  35.34200 44.68900 31.96600
H  34.34400 45.97300 32.79000
H  35.75700 45.47900 33.50600
Mg -2.24400 33.72400 26.58900
C  -3.85300 31.94500 29.07700
C  -0.78800 35.78300 28.94500
C  -0.97300 35.59100 24.06100
C  -4.17000 31.94900 24.18900
N  -2.53500 33.91300 28.82000
C  -3.09600 32.97800 29.68400
C  -2.78300 33.31600 31.09800
C  -1.83000 34.54900 30.99200
C  -1.71700 34.82000 29.50900
C  -2.34200 35.80700 31.80500
C  -2.13100 32.09800 31.89100
C  -2.81600 31.75600 33.19100
H  -1.94600 31.46900 34.39100
N  -1.00100 35.41000 26.47000
C  -0.48600 36.11800 27.53300
C  0.51400 37.10700 27.03600
C  0.37400 37.05400 25.56300
C  -0.57200 35.95100 25.31700
C  1.33100 37.97400 27.98500
C  1.07400 37.89200 24.47300
O  0.73800 37.98000 23.27600
C  2.17700 38.69900 24.87400
N  -2.70800 33.89700 24.35900
C  -1.98500 34.70600 23.55700
C  -2.30200 34.47300 21.96200
C  -3.06200 33.13100 22.17400
C  -3.40200 32.96600 23.64900
C  -3.16400 35.69700 21.54400
C  -2.40100 31.90500 21.44900
C  -1.42700 31.12200 22.29000
N  -3.66500 32.20600 26.59000
C  -4.38500 31.58500 25.57300
C  -5.23800 30.57400 26.14400
C  -5.05500 30.71600 27.51300
C  -4.08000 31.67400 27.72100
C  -6.19100 29.74000 25.37100
C  -5.50400 30.22000 28.75000
O  -6.29800 29.36300 29.00800
C  -4.72500 31.00500 29.91500
C  -5.70900 31.65700 30.76400
O  -6.30500 32.68400 30.47300
O  -5.99500 30.85000 31.86000
C  -7.01900 31.36300 32.79700
H  -0.34200 36.45800 29.67900
H  -0.47300 36.16000 23.27500
H  -4.77400 31.40600 23.45900
H  -3.67100 33.59100 31.66700
H  -0.83500 34.31000 31.36900
H  -1.82200 35.84200 32.76200
H  -3.40900 35.69400 31.99500
H  -2.29800 36.68600 31.16300
H  -1.12000 32.37000 32.19500
H  -1.94500 31.28600 31.18800
H  -3.45800 30.91900 32.91500
H  -3.43500 32.56700 33.57400
H  2.31200 37.68200 27.61100
H  1.24900 37.67800 29.03100
H  1.22900 39.04100 27.78500
H  1.85100 39.50300 25.53400
H  2.62200 39.19600 24.01200
H  3.04000 38.13000 25.22100
H  -1.36600 34.40300 21.40700
H  -4.07100 33.32200 21.81100
H  -3.47600 36.43800 22.28000
H  -4.05200 35.26400 21.08400
H  -2.63600 36.17100 20.71700
H  -1.86500 32.11100 20.52300
H  -3.28000 31.29900 21.23000
H  -1.00300 31.83200 23.00000
H  -0.75900 30.62900 21.58400
H  -1.97200 30.35000 22.83200
H  -6.38100 30.28100 24.44400
H  -7.04900 29.67300 26.04000
H  -5.81800 28.73300 25.18300
H  -4.13700 30.31600 30.52100
H  -7.89300 31.70700 32.24500
H  -6.62400 32.20300 33.36900
H  -7.35400 30.63800 33.53900

