158

Mg 49.44100 35.00800 27.98800
C  47.20600 33.89400 30.62100
C  49.70200 37.92500 29.85900
C  50.89900 36.50600 25.31100
C  48.34000 32.49100 26.01400
N  48.40900 35.81900 29.97700
C  47.80800 35.09000 30.98000
C  47.68600 35.87300 32.25200
C  48.19900 37.31800 31.82300
C  48.86200 36.96700 30.48900
C  47.00900 38.38500 31.69300
C  48.29200 35.11000 33.44700
C  49.36900 35.83700 34.18000
H  49.13600 37.00400 35.12700
N  50.38400 36.81700 27.70800
C  50.30900 37.91900 28.51400
C  51.12900 38.97700 27.97100
C  51.54900 38.57100 26.66000
C  50.96900 37.23600 26.50600
C  51.61100 40.21300 28.88700
C  52.37700 39.28200 25.64000
O  52.70400 38.82600 24.53900
C  53.07500 40.70000 26.04200
N  49.71400 34.52300 25.94900
C  50.37400 35.29500 24.98500
C  50.16100 34.65900 23.57900
C  49.50800 33.28500 23.90100
C  49.12500 33.40300 25.35700
C  49.29500 35.58100 22.68100
C  50.40700 32.02400 23.73100
C  49.74000 30.68800 23.19800
N  48.17400 33.47800 28.29600
C  47.83300 32.49800 27.33100
C  47.18200 31.44300 28.04500
C  46.74700 32.00300 29.22300
C  47.42200 33.26600 29.37900
C  46.72100 30.09400 27.47900
C  45.99600 31.85700 30.41800
O  45.28200 30.90300 30.73800
C  46.06700 33.16400 31.26400
C  46.33600 32.70100 32.65400
O  47.30800 32.01300 33.01300
O  45.33600 33.21800 33.46200
C  45.38600 32.61500 34.81100
H  49.85900 38.84300 30.42900
H  51.20000 37.01700 24.39400
H  48.09700 31.61400 25.41000
H  46.65700 35.99000 32.59100
H  48.98400 37.71200 32.47000
H  46.89800 38.79000 30.68800
H  47.25100 39.26100 32.29500
H  46.09900 37.93000 32.08400
H  48.66600 34.21300 32.95500
H  47.50900 34.85000 34.15900
H  50.04700 36.14700 33.38500
H  49.92200 35.03100 34.66100
H  51.44400 40.06200 29.95300
H  51.32300 41.24800 28.70100
H  52.69800 40.21000 28.79900
H  53.78000 40.76400 26.87000
H  52.16800 41.24800 26.29900
H  53.44300 41.14100 25.11500
H  51.09900 34.50700 23.04600
H  48.56000 33.21000 23.36900
H  48.59300 34.97200 22.11300
H  49.97300 36.18200 22.07400
H  48.74500 36.27300 23.31800
H  50.96700 31.95700 24.66300
H  51.23900 32.21200 23.05200
H  50.02400 30.61300 22.14800
H  48.67300 30.59400 23.40300
H  50.22300 29.89600 23.76900
H  46.73500 29.25600 28.17700
H  47.40100 29.78200 26.68600
H  45.73800 30.13700 27.01200
H  45.11500 33.69300 31.19800
H  44.40100 32.76100 35.25500
H  46.13100 33.06400 35.46900
H  45.57800 31.55000 34.68400
Mg 6.62200 52.61700 41.32800
C  5.84500 49.18200 41.14600
C  9.84200 51.94300 40.42200
C  7.02600 55.96900 40.58500
C  3.16600 53.22500 41.75700
N  7.65600 50.76800 40.61500
C  7.17700 49.48300 40.83800
C  8.34200 48.51200 40.72300
C  9.59700 49.42200 40.74600
C  9.03800 50.77500 40.50100
C  10.37400 49.37100 42.10900
C  8.45600 47.62900 39.36300
C  8.39200 48.33500 37.95000
H  7.34300 47.87600 36.90400
N  8.29400 53.74200 40.69200
C  9.54600 53.28800 40.37000
C  10.39200 54.46400 40.01200
C  9.51900 55.60200 40.13400
C  8.16400 55.11000 40.41000
C  11.85600 54.32900 39.69500
C  10.03100 57.03600 39.98100
O  11.19300 57.16400 39.68500
C  9.22900 58.30300 40.18800
N  5.29300 54.32700 41.08100
C  5.76800 55.56400 40.96700
C  4.65500 56.63300 40.96300
C  3.36400 55.66800 40.84400
C  3.94100 54.34900 41.33200
C  4.58400 57.66100 42.20500
C  2.68100 55.64800 39.35900
C  1.34100 56.35800 39.26500
N  4.90600 51.48300 41.58500
C  3.52700 51.87400 41.86000
C  2.70100 50.62500 42.00900
C  3.67300 49.63800 41.72500
C  4.92600 50.15800 41.42900
C  1.31900 50.54500 42.53900
C  3.79500 48.16800 41.78400
O  2.92700 47.38500 42.16300
C  5.22000 47.79900 41.21900
C  4.99600 47.08000 39.91500
O  4.48700 47.64700 38.94100
O  5.36200 45.77100 39.96100
C  5.15900 45.04900 38.76700
H  10.91100 51.73800 40.33200
H  7.01100 57.05500 40.70000
H  2.07800 53.26400 41.83900
H  8.42100 47.86800 41.59800
H  10.28800 49.12300 39.95800
H  11.36000 48.92700 41.97300
H  9.79900 48.87500 42.89100
H  10.52600 50.37300 42.51100
H  7.59700 46.95900 39.37700
H  9.31200 46.97300 39.52500
H  9.43400 48.26500 37.63600
H  8.19700 49.38700 38.15500
H  12.07700 54.65100 38.67800
H  12.30200 53.34600 39.84600
H  12.51500 55.00500 40.24200
H  9.88400 59.17400 40.19400
H  8.78300 58.28900 41.18300
H  8.44300 58.34200 39.43300
H  4.61100 57.11200 39.98500
H  2.68300 56.13900 41.55300
H  4.42400 58.65300 41.78300
H  5.49800 57.63900 42.79800
H  3.80000 57.43500 42.92700
H  2.45700 54.59400 39.19800
H  3.35200 56.02500 38.58700
H  0.47300 55.71700 39.11500
H  1.27200 56.89200 38.31800
H  1.06500 57.08500 40.02800
H  1.00400 49.50200 42.51900
H  0.64100 51.18000 41.96900
H  1.35900 50.82400 43.59200
H  5.67800 47.16300 41.97700
H  4.42300 44.32500 39.11800
H  5.99400 44.40000 38.50500
H  4.82700 45.42500 37.79900

