158

Mg 53.27500 24.95900 45.46100
C  50.91100 27.34300 44.25800
C  51.64100 22.57700 43.64200
C  56.13300 23.09000 45.17000
C  55.35000 27.77400 46.02500
N  51.40600 24.97600 44.24400
C  50.59300 26.04000 43.81800
C  49.49800 25.50200 42.88600
C  49.59200 23.96800 43.12100
C  50.97500 23.80300 43.61900
C  48.58900 23.20100 44.03000
C  49.65300 25.94400 41.33300
C  51.01900 26.34900 40.76600
H  51.68000 25.29000 39.88700
N  53.72200 23.02400 44.89700
C  52.87400 22.17100 44.16300
C  53.52600 20.88400 43.96000
C  54.81500 20.97000 44.50600
C  54.99600 22.42500 44.84900
C  52.67500 19.62000 43.52100
C  55.75300 19.88400 44.64700
O  55.43300 18.71800 44.26700
C  57.11700 20.09400 45.20900
N  55.39900 25.35600 45.47300
C  56.40600 24.41700 45.39100
C  57.89000 25.07200 45.74000
C  57.50700 26.50500 46.15900
C  56.00300 26.52600 45.83300
C  58.81900 24.27300 46.71300
C  58.35200 27.53200 45.40300
C  59.06500 28.65700 46.17600
N  53.11100 27.06800 45.49200
C  54.02600 28.04800 45.77600
C  53.29500 29.28500 46.03000
C  52.10600 29.03200 45.43600
C  52.03600 27.67000 45.02200
C  53.77600 30.57600 46.54300
C  50.93000 29.70300 44.91900
O  50.55900 30.88400 44.98200
C  50.14100 28.59900 44.17100
C  49.87000 29.07800 42.79900
O  50.72900 29.53800 41.96700
O  48.55700 28.94400 42.57500
C  47.97500 29.44400 41.32100
H  51.13100 21.84900 43.00700
H  57.05500 22.50500 45.16500
H  56.01700 28.58200 46.33400
H  48.62500 25.98800 43.32100
H  49.59100 23.50200 42.13600
H  47.80900 23.94200 44.20300
H  48.93200 22.91200 45.02400
H  48.13000 22.35300 43.52100
H  48.99600 26.77900 41.09300
H  49.30000 25.10000 40.73900
H  51.67000 26.77900 41.52700
H  50.79800 27.23800 40.17500
H  52.43900 19.08000 44.43800
H  53.11700 18.92000 42.81100
H  51.68800 19.87000 43.13300
H  57.48700 19.12400 45.54000
H  56.95900 20.68900 46.10800
H  57.82100 20.53500 44.50300
H  58.34300 25.16100 44.75200
H  57.40000 26.67800 47.23000
H  58.56500 23.22400 46.86500
H  58.80800 24.72400 47.70600
H  59.82900 24.24800 46.30200
H  57.76700 28.05500 44.64700
H  59.18900 27.05300 44.89400
H  58.87400 28.45000 47.22900
H  58.58000 29.61200 45.96900
H  60.14000 28.69400 46.00100
H  54.86200 30.66700 46.56700
H  53.20700 30.76600 47.45300
H  53.44400 31.27800 45.77800
H  49.26300 28.53000 44.81400
H  46.90300 29.26600 41.23800
H  48.28300 28.92300 40.41500
H  48.08500 30.52100 41.19100
Mg 1.19100 41.97100 24.79800
C  3.32100 41.65600 27.60000
C  -1.47800 41.44500 26.85300
C  -0.59900 41.77300 22.08600
C  4.18800 42.31500 22.74800
N  0.98100 41.52000 26.91400
C  2.00000 41.56200 27.95500
C  1.46300 41.56100 29.33100
C  -0.05100 41.44700 29.04100
C  -0.25400 41.49300 27.48200
C  -0.90600 40.30500 29.72600
C  1.83700 42.85000 30.17900
C  2.12300 42.58200 31.69200
H  1.72400 41.15100 32.34500
N  -0.73900 41.66800 24.53000
C  -1.71800 41.47900 25.46300
C  -3.00500 41.26000 24.83300
C  -2.78400 41.25500 23.43600
C  -1.32300 41.63800 23.29500
C  -4.29600 40.93600 25.68400
C  -3.79800 40.93700 22.33100
O  -3.41600 41.09000 21.18200
C  -5.18600 40.63800 22.62300
N  1.71100 42.11900 22.70900
C  0.75200 42.05300 21.72200
C  1.28800 42.18400 20.32900
C  2.74300 42.64000 20.56300
C  2.89900 42.27500 22.09900
C  1.26500 40.90300 19.40200
C  2.97700 44.19900 20.37400
C  3.24500 44.60300 18.97100
N  3.35600 41.95100 25.00900
C  4.41300 42.10900 24.09000
C  5.65800 42.03000 24.84500
C  5.30700 41.81300 26.18300
C  3.88100 41.76700 26.26600
C  7.05500 41.96700 24.27200
C  5.81400 41.71800 27.54700
O  6.91000 41.72100 28.03000
C  4.46500 41.65300 28.43600
C  4.63000 40.49300 29.45500
O  4.12000 39.40900 29.37100
O  5.30000 41.04900 30.52300
C  5.38700 40.38900 31.78200
H  -2.38300 41.38100 27.46000
H  -1.27300 41.86800 21.23200
H  5.11700 42.53300 22.21700
H  1.87100 40.64000 29.74700
H  -0.47000 42.42900 29.25800
H  -1.53100 40.75300 30.49800
H  -0.16500 39.71400 30.26300
H  -1.58300 39.80800 29.03100
H  0.98200 43.52500 30.21800
H  2.61500 43.41200 29.66200
H  1.51600 43.28600 32.26100
H  3.16600 42.77900 31.94000
H  -4.78500 40.01800 25.35800
H  -5.05200 41.71900 25.72400
H  -4.09600 40.74000 26.73800
H  -5.18100 39.77800 23.29300
H  -5.75700 40.54700 21.70000
H  -5.60900 41.46700 23.19100
H  0.83400 42.97000 19.72600
H  3.50400 42.01800 20.09400
H  2.18200 40.70000 18.84900
H  0.55000 41.14100 18.61400
H  1.00600 40.12500 20.12100
H  3.76000 44.58400 21.02800
H  2.01300 44.64800 20.61100
H  4.21200 45.10200 19.03600
H  2.61600 45.37800 18.53400
H  3.34300 43.78200 18.26100
H  7.18000 41.29200 23.42600
H  7.77000 41.79500 25.07600
H  7.07000 42.98800 23.89000
H  4.52300 42.58500 29.00000
H  4.95800 41.10000 32.48800
H  6.43800 40.16200 31.96000
H  5.00000 39.37000 31.80500

