158

Mg -0.85500 5.99900 26.53400
C  0.11100 8.30700 29.03700
C  -0.47600 3.42500 28.89800
C  -1.83700 3.74000 24.20400
C  -0.86100 8.55600 24.15700
N  -0.40600 5.92400 28.83000
C  0.02500 6.99600 29.56200
C  0.30800 6.54200 30.96100
C  0.46900 5.01100 30.80800
C  -0.18800 4.74800 29.43300
C  1.98100 4.42700 30.85900
C  -0.74800 7.08000 31.89300
C  -0.40900 6.88600 33.41100
H  0.79400 5.92300 33.73300
N  -1.19000 3.84800 26.58100
C  -0.98800 3.02400 27.67100
C  -1.30500 1.68700 27.27400
C  -1.87000 1.75900 25.94900
C  -1.67200 3.12700 25.48900
C  -1.08100 0.47900 28.14900
C  -2.50600 0.66500 25.04700
O  -2.92700 0.93600 23.94700
C  -2.62800 -0.80500 25.59300
N  -1.01800 6.15200 24.51800
C  -1.54000 5.06900 23.78900
C  -1.89900 5.50900 22.33000
C  -1.81100 7.06000 22.41300
C  -1.20400 7.31400 23.72900
C  -0.89000 4.79600 21.27100
C  -3.15100 7.85800 22.26000
C  -3.24300 9.20900 21.59400
N  -0.47400 7.99000 26.52100
C  -0.42600 8.87000 25.48600
C  0.05900 10.17100 25.90700
C  0.24800 10.03400 27.33700
C  -0.12600 8.71100 27.68100
C  0.45300 11.39900 25.01400
C  0.61300 10.68600 28.64200
O  0.87000 11.81500 28.89200
C  0.47700 9.58800 29.69900
C  1.74500 9.48100 30.57900
O  2.83400 8.99100 30.29300
O  1.48600 9.91600 31.81000
C  2.51500 9.87000 32.81000
H  -0.13800 2.72900 29.66800
H  -2.34800 3.16600 23.42700
H  -0.90200 9.37200 23.43200
H  1.30100 6.89100 31.24500
H  -0.12200 4.44900 31.53100
H  2.23100 3.67300 30.11300
H  2.07700 3.96100 31.84000
H  2.75000 5.19500 30.77500
H  -1.59500 6.41100 31.74000
H  -1.18000 8.05900 31.68300
H  -1.35300 6.58700 33.86700
H  -0.05000 7.80400 33.87600
H  -0.28800 -0.09500 27.67000
H  -1.94300 -0.15000 28.36900
H  -0.61400 0.71000 29.10700
H  -1.60600 -1.06800 25.86600
H  -2.83300 -1.53100 24.80600
H  -3.33600 -1.05500 26.38300
H  -2.88800 5.10100 22.12100
H  -1.16600 7.48500 21.64400
H  -0.20200 5.61200 21.05000
H  -1.56600 4.47400 20.47900
H  -0.34000 4.00000 21.77300
H  -3.53000 7.96100 23.27700
H  -3.94800 7.26200 21.81600
H  -2.52600 9.24500 20.77300
H  -3.10200 10.08800 22.22200
H  -4.23000 9.30400 21.14200
H  -0.42000 11.67500 24.42200
H  1.21000 11.17600 24.26200
H  0.87500 12.18400 25.64100
H  -0.36600 9.88100 30.32400
H  3.57300 10.04400 32.61300
H  2.46900 8.93100 33.36100
H  2.33400 10.73300 33.45100
Mg 44.17300 4.62300 46.09200
C  42.35200 7.49500 46.36200
C  41.24000 2.87500 45.54100
C  46.00000 1.85100 45.44800
C  47.06900 6.45400 46.42600
N  42.07900 5.09300 45.95200
C  41.56300 6.38000 46.14400
C  40.05900 6.34600 46.31500
C  39.73900 4.82200 46.02000
C  41.10800 4.19200 45.89900
C  38.74500 4.16100 47.07500
C  39.20900 7.31700 45.41300
C  39.76800 7.90500 44.12300
H  39.15700 7.35900 42.86500
N  43.67600 2.67600 45.54700
C  42.42900 2.14800 45.36600
C  42.54900 0.75500 45.05500
C  43.96000 0.42800 45.05400
C  44.61700 1.69400 45.36400
C  41.38800 -0.16100 44.63300
C  44.60200 -0.97200 44.81400
O  43.84400 -1.90500 44.55200
C  46.01700 -1.24900 44.78700
N  46.34100 4.23000 45.71400
C  46.83000 2.95600 45.70200
C  48.33600 2.98800 45.85500
C  48.59700 4.46200 46.26400
C  47.28100 5.12500 46.08300
C  49.05100 1.97300 46.74700
C  49.69900 5.32700 45.56800
C  50.68800 6.08300 46.54300
N  44.65500 6.55300 46.40000
C  45.85700 7.12300 46.59000
C  45.65100 8.48900 46.94300
C  44.24700 8.70900 46.89700
C  43.75100 7.49700 46.49100
C  46.67300 9.55100 47.14100
C  43.15400 9.64600 47.10000
O  43.18400 10.85300 47.47100
C  41.88300 8.89900 46.74900
C  41.04800 9.02100 47.94700
O  40.98600 8.15400 48.82400
O  40.19100 10.10500 47.81900
C  39.24100 10.36500 48.89300
H  40.23200 2.47400 45.42100
H  46.66500 1.01300 45.23100
H  47.93600 6.94300 46.87500
H  39.83600 6.50100 47.37100
H  39.21500 4.71200 45.07100
H  39.39600 3.43000 47.55600
H  37.93700 3.79500 46.44200
H  38.42100 4.90700 47.80100
H  38.80700 8.09000 46.06800
H  38.26000 6.85600 45.13800
H  40.79800 7.57900 43.97600
H  39.58000 8.97800 44.07400
H  41.54400 -0.22600 43.55600
H  40.43100 0.26900 44.92900
H  41.51300 -1.12500 45.12500
H  46.11900 -2.31300 44.57500
H  46.51100 -1.11900 45.75000
H  46.47600 -0.64800 44.00200
H  48.77700 2.77300 44.88200
H  48.88900 4.41300 47.31300
H  49.73200 1.32800 46.19200
H  48.32000 1.39800 47.31500
H  49.59400 2.38500 47.59700
H  49.30900 5.98300 44.79000
H  50.23300 4.53300 45.04600
H  50.44100 7.13300 46.38900
H  51.72200 5.83300 46.30300
H  50.58600 5.86400 47.60600
H  46.59100 10.28700 46.34100
H  47.61800 9.04000 46.96000
H  46.64400 10.03900 48.11500
H  41.58700 9.47900 45.87500
H  39.41100 9.80800 49.81400
H  38.24000 10.14700 48.52200
H  39.24700 11.43000 49.12600

