158

Mg 16.98200 -1.34300 27.79400
C  15.81900 0.70700 30.26200
C  18.85700 -3.08000 30.22300
C  18.43400 -3.17300 25.33600
C  15.16400 0.49500 25.37500
N  17.43100 -1.00300 29.93300
C  16.67500 -0.25400 30.79900
C  16.94400 -0.58400 32.31900
C  18.15500 -1.57100 32.21000
C  18.22300 -1.95000 30.68100
C  19.50200 -1.04200 32.75200
C  15.75100 -1.29600 33.00900
C  15.71900 -1.33900 34.48400
H  16.96400 -0.84500 35.23500
N  18.33000 -2.99300 27.85000
C  18.95500 -3.54900 28.94700
C  19.72900 -4.70300 28.49200
C  19.57900 -4.75500 27.08700
C  18.74400 -3.62000 26.67500
C  20.31000 -5.64800 29.47800
C  20.29600 -5.74400 26.12900
O  20.13300 -5.69300 24.93800
C  21.09900 -6.94900 26.64800
N  16.73800 -1.42800 25.76000
C  17.52900 -2.19800 24.92200
C  17.30200 -1.81000 23.38300
C  16.12700 -0.79900 23.48800
C  15.96700 -0.52500 24.93100
C  18.55700 -1.29900 22.57700
C  14.77200 -1.25200 22.86700
C  14.11600 -0.30900 21.85600
N  15.81000 0.31800 27.77300
C  15.09700 0.92600 26.72600
C  14.33800 2.00900 27.29300
C  14.56900 1.95100 28.65200
C  15.55100 0.94500 28.86200
C  13.50000 3.04000 26.56000
C  14.17600 2.53100 29.90300
O  13.42200 3.46600 30.12800
C  14.93000 1.70600 31.03000
C  15.70900 2.43100 32.00700
O  16.71600 3.07400 31.79100
O  15.10600 2.31200 33.22100
C  15.43900 3.28700 34.25700
H  19.49800 -3.55900 30.96600
H  18.93200 -3.68000 24.50600
H  14.50000 1.00200 24.67200
H  17.24600 0.29900 32.88200
H  17.95300 -2.50900 32.72800
H  20.28700 -1.17600 32.00800
H  19.85200 -1.64200 33.59300
H  19.39800 0.02200 32.96200
H  15.75800 -2.35400 32.74300
H  14.81200 -0.86900 32.65700
H  15.50600 -2.34000 34.85800
H  14.84300 -0.78200 34.81700
H  19.99400 -6.63600 29.14200
H  20.01800 -5.57700 30.52600
H  21.39400 -5.54200 29.44700
H  21.50500 -7.61700 25.88900
H  20.37800 -7.63200 27.09600
H  21.92000 -6.75300 27.33800
H  16.94300 -2.66600 22.81100
H  16.46800 0.13500 23.04200
H  19.40600 -1.00800 23.19600
H  18.32700 -0.41200 21.98600
H  18.85300 -2.09900 21.89900
H  14.01800 -1.36600 23.64600
H  14.85700 -2.23800 22.41200
H  14.97000 0.26600 21.49900
H  13.37000 0.30200 22.36400
H  13.79200 -0.87000 20.97900
H  13.27000 2.61100 25.58500
H  14.07700 3.93300 26.31900
H  12.66500 3.39700 27.16300
H  14.15100 1.06400 31.44200
H  15.96400 4.16700 33.88500
H  16.07100 2.76300 34.97300
H  14.50600 3.51600 34.77200
Mg 29.65500 58.02700 40.63300
C  26.91200 56.34500 39.26300
C  31.71600 55.59200 39.21900
C  32.32600 60.16600 40.71800
C  27.51400 60.85200 41.54900
N  29.31200 56.22600 39.27700
C  28.13800 55.70400 38.82300
C  28.32300 54.34600 38.13300
C  29.83600 54.15700 38.25000
C  30.36200 55.37300 38.99900
C  30.38800 52.84900 38.87500
C  27.67700 54.01900 36.68400
C  27.50400 55.23000 35.65700
H  28.02300 55.15700 34.20400
N  31.74400 57.80000 40.32700
C  32.41600 56.68800 39.79000
C  33.77400 56.90100 39.87200
C  34.00500 58.28500 40.17100
C  32.64100 58.84400 40.38600
C  34.90500 55.91200 39.53700
C  35.39700 59.05000 40.09600
O  36.43700 58.44000 39.76200
C  35.52100 60.49300 40.23300
N  29.93000 60.17900 41.27500
C  31.14500 60.77800 41.14600
C  31.06600 62.29400 41.54400
C  29.52000 62.49400 41.77500
C  28.90100 61.05100 41.60400
C  32.05600 62.82600 42.67700
C  28.79600 63.63600 40.98300
C  28.18200 64.80600 41.72200
N  27.64300 58.47300 40.59500
C  26.93800 59.58000 41.10400
C  25.51300 59.32200 40.87900
C  25.46200 58.09000 40.21100
C  26.79100 57.63400 40.01200
C  24.35500 60.20400 41.22800
C  24.63300 57.07200 39.54400
O  23.41900 57.14200 39.36500
C  25.46300 55.94200 38.88100
C  25.10900 54.63400 39.46800
O  25.53500 54.20400 40.53700
O  24.15600 53.96100 38.73900
C  23.35500 52.82900 39.34100
H  32.29400 54.69600 38.98300
H  33.13900 60.87900 40.56400
H  26.86500 61.67300 41.86200
H  27.85400 53.56100 38.72600
H  30.16100 54.26300 37.21500
H  29.52100 52.21300 39.05500
H  30.94000 52.96900 39.80800
H  31.04300 52.44900 38.10200
H  26.67800 53.59500 36.78200
H  28.32400 53.24800 36.26600
H  27.91000 56.10200 36.16900
H  26.43100 55.42300 35.66400
H  35.49600 56.36500 38.74100
H  34.49400 55.01700 39.06900
H  35.45000 55.53100 40.40000
H  36.56700 60.76400 40.37100
H  34.95200 60.77600 41.11900
H  35.08400 61.00800 39.37700
H  31.34700 62.85300 40.65100
H  29.30300 62.75100 42.81200
H  32.53500 61.88800 42.95800
H  31.60200 63.11000 43.62700
H  32.82700 63.53600 42.37800
H  28.10200 63.20700 40.26000
H  29.56900 64.14200 40.40600
H  28.48200 65.83100 41.50400
H  28.45700 64.76100 42.77600
H  27.10300 64.86100 41.57400
H  24.26000 60.59100 42.24300
H  23.40300 59.68200 41.13200
H  24.38600 61.11900 40.63700
H  25.40600 56.02600 37.79500
H  23.73700 52.56600 40.32700
H  23.50900 51.93900 38.73000
H  22.30400 53.09100 39.46400

