158

Mg 24.01300 -4.88900 45.69100
C  25.88200 -2.46800 44.14900
C  21.32400 -3.71800 43.84000
C  22.35400 -7.61100 46.72700
C  26.85900 -6.02600 47.41000
N  23.67300 -3.44400 43.95800
C  24.62800 -2.50400 43.60600
C  23.92800 -1.43200 42.64100
C  22.45200 -1.62700 43.04500
C  22.43600 -3.05800 43.63900
C  21.99800 -0.59400 44.13400
C  24.30600 -1.74000 41.17200
C  24.87900 -0.64600 40.27400
H  24.95000 -0.97900 38.76200
N  22.12800 -5.57400 45.33900
C  21.11100 -4.98700 44.45500
C  19.93800 -5.83600 44.48600
C  20.27200 -6.90100 45.40100
C  21.65800 -6.74800 45.85300
C  18.69400 -5.47500 43.61600
C  19.26000 -8.01200 45.94200
O  18.10900 -8.06100 45.53600
C  19.57900 -8.90400 47.11400
N  24.55100 -6.52900 47.09100
C  23.62800 -7.52000 47.29100
C  24.29500 -8.68200 48.09700
C  25.68700 -8.10300 48.45300
C  25.75200 -6.81600 47.59900
C  23.47700 -9.23400 49.31400
C  26.83700 -9.04600 48.02300
C  28.20500 -8.99100 48.91800
N  25.97200 -4.44000 45.78000
C  27.00500 -4.89400 46.55600
C  28.17600 -4.07900 46.35500
C  27.78900 -3.15100 45.41100
C  26.41900 -3.32500 45.10800
C  29.48900 -4.20600 47.07200
C  28.25500 -1.97200 44.66500
O  29.34800 -1.49800 44.57500
C  27.02700 -1.54800 43.74600
C  26.73400 -0.13700 44.08700
O  25.90900 0.16100 44.97100
O  27.51100 0.76000 43.23700
C  27.22800 2.10000 43.46100
H  20.36900 -3.30700 43.50600
H  21.86000 -8.56400 46.92800
H  27.78600 -6.38200 47.86300
H  24.24000 -0.41300 42.87000
H  21.75900 -1.54000 42.20800
H  22.84000 -0.05500 44.57000
H  21.46400 -1.17500 44.88600
H  21.26000 -0.00700 43.58900
H  23.37100 -2.06000 40.71300
H  25.07300 -2.51100 41.23900
H  25.87400 -0.45600 40.67600
H  24.39800 0.31800 40.44100
H  18.95400 -5.14200 42.61100
H  18.14900 -4.59300 43.95100
H  18.15000 -6.41900 43.58200
H  18.61200 -9.15800 47.54800
H  20.20900 -8.42100 47.86100
H  19.98700 -9.83900 46.72900
H  24.45500 -9.47200 47.36400
H  25.88700 -7.86700 49.49800
H  23.39700 -10.29600 49.08000
H  22.44700 -8.88200 49.37100
H  23.95300 -8.94900 50.25200
H  27.01600 -8.91400 46.95600
H  26.52700 -10.07700 48.19200
H  28.47900 -9.97900 49.28800
H  28.17600 -8.22700 49.69600
H  29.04800 -8.66900 48.30600
H  30.42600 -3.94000 46.58200
H  29.56400 -5.25900 47.34200
H  29.45200 -3.76500 48.06800
H  27.22300 -1.67800 42.68200
H  27.01500 2.60400 42.51800
H  28.15400 2.59400 43.75700
H  26.48400 2.34100 44.22000
Mg 40.49500 9.36400 29.67700
C  42.58100 10.62500 32.28500
C  38.40500 8.26100 32.09100
C  38.65900 8.02900 27.27000
C  42.98300 10.32500 27.36200
N  40.52100 9.45900 31.97100
C  41.39800 10.06400 32.81600
C  41.08000 9.85100 34.28600
C  39.84200 8.78900 34.15600
C  39.54700 8.74400 32.68400
C  40.03900 7.39800 34.89400
C  40.77400 11.19600 35.06000
C  39.87300 11.08800 36.31000
H  40.30200 11.98900 37.49000
N  38.64800 8.55000 29.65800
C  37.92600 8.14900 30.77400
C  36.59000 7.68500 30.39600
C  36.69900 7.57600 28.93600
C  38.00700 8.07000 28.56000
C  35.51500 7.32200 31.36600
C  35.62500 7.18600 27.92600
O  35.88100 7.11300 26.74700
C  34.30200 6.70800 28.30700
N  40.87000 8.99600 27.65900
C  39.94100 8.45300 26.88200
C  40.33500 8.50100 25.40500
C  41.80100 9.11000 25.45600
C  41.87700 9.54600 26.95500
C  40.25400 7.04300 24.73900
C  42.22400 10.09500 24.30400
C  42.26700 11.64900 24.59800
N  42.46700 10.23900 29.73800
C  43.25300 10.70000 28.68400
C  44.29900 11.49400 29.28300
C  44.09700 11.45900 30.67800
C  42.95900 10.71000 30.94600
C  45.31000 12.24100 28.44400
C  44.52700 12.03400 31.90700
O  45.46200 12.82400 32.05000
C  43.51100 11.55100 32.99900
C  44.42400 10.91700 34.04200
O  44.61400 9.70200 34.21200
O  44.74500 11.86900 34.97500
C  45.57600 11.45400 36.08500
H  37.66200 8.16300 32.88500
H  38.12400 7.46600 26.50300
H  43.69800 10.75900 26.66100
H  41.88200 9.29000 34.76500
H  38.97400 9.17500 34.69000
H  41.01200 7.34600 35.38100
H  39.98400 6.60500 34.14800
H  39.21100 7.12800 35.54900
H  40.38200 11.94500 34.37200
H  41.69900 11.55200 35.51300
H  39.88900 10.03200 36.57700
H  38.83300 11.29200 36.05200
H  34.64400 7.96600 31.24100
H  35.86900 7.49300 32.38200
H  35.20100 6.28000 31.30700
H  33.86900 7.21900 29.16800
H  34.45100 5.64700 28.50700
H  33.69500 6.83600 27.41100
H  39.58700 9.12800 24.92100
H  42.49200 8.26700 25.47800
H  40.20300 6.36500 25.59000
H  41.22900 6.81800 24.30600
H  39.57300 6.92700 23.89600
H  41.52800 10.01400 23.46900
H  43.13300 9.79900 23.77900
H  41.75400 11.86800 25.53500
H  41.77800 12.02700 23.70000
H  43.31800 11.91600 24.48400
H  44.78400 12.85500 27.71300
H  45.93100 11.56300 27.85900
H  45.92500 12.91200 29.04300
H  43.08500 12.42600 33.48900
H  45.94100 12.34500 36.59600
H  46.41900 10.92800 35.63700
H  45.11000 10.79400 36.81600

