158

Mg 35.90300 49.57200 25.51700
C  36.00800 48.01500 28.57800
C  34.75700 52.47600 27.05700
C  35.43500 50.95900 22.42100
C  36.69400 46.45800 23.96500
N  35.29100 50.10700 27.51800
C  35.52200 49.32200 28.65000
C  35.33600 50.07100 29.94700
C  34.64000 51.47900 29.38800
C  34.89000 51.37400 27.91300
C  33.19800 51.76100 29.91500
C  36.63500 50.28900 30.78400
C  36.44300 50.25200 32.33700
H  35.00400 50.66100 32.93700
N  35.26300 51.51100 24.81300
C  34.86600 52.52800 25.59900
C  34.74100 53.73300 24.71800
C  35.01300 53.32500 23.34600
C  35.27100 51.88300 23.50000
C  34.46400 55.08600 25.34200
C  35.10900 54.13300 22.07900
O  35.26100 53.66000 21.00100
C  34.62300 55.61200 22.22600
N  36.07600 48.85300 23.47900
C  35.78400 49.58900 22.38300
C  36.01600 48.82700 21.13200
C  36.62600 47.40700 21.67000
C  36.46900 47.58700 23.12800
C  34.68500 48.82900 20.25300
C  38.13200 47.19500 21.22800
C  39.15400 48.27000 21.62100
N  36.29300 47.64100 26.10400
C  36.64600 46.52900 25.37300
C  36.95300 45.43300 26.28300
C  36.69300 45.97100 27.61100
C  36.31400 47.29600 27.39300
C  37.39700 44.14900 25.77800
C  36.69400 45.62900 29.08500
O  37.06900 44.64400 29.69700
C  36.20200 46.98300 29.74500
C  34.90200 46.68800 30.40600
O  33.85300 46.59100 29.78200
O  35.07900 46.66200 31.76300
C  33.91700 46.53700 32.60400
H  34.40000 53.37500 27.56400
H  35.45500 51.28600 21.38000
H  37.06000 45.50500 23.57900
H  34.67400 49.61100 30.68000
H  35.27200 52.28400 29.76200
H  32.83400 50.85900 30.40500
H  32.53000 52.10400 29.12500
H  33.14100 52.58000 30.63200
H  37.05900 51.27500 30.59300
H  37.34900 49.54400 30.43600
H  37.18800 50.97800 32.66300
H  36.74900 49.28300 32.73000
H  35.01500 55.78100 24.70800
H  34.79400 55.27900 26.36300
H  33.37800 55.15800 25.29200
H  35.46400 56.18700 22.61400
H  33.80000 55.71900 22.93200
H  34.31600 55.90200 21.22100
H  36.71100 49.42800 20.54500
H  36.05300 46.61400 21.18900
H  33.83500 49.11700 20.87300
H  34.48100 47.85900 19.80100
H  34.72000 49.62100 19.50500
H  38.18300 47.32800 20.14700
H  38.46900 46.18600 21.46600
H  38.75600 49.07200 22.24300
H  39.69900 48.56400 20.72400
H  39.87400 47.78300 22.27900
H  37.60600 43.54600 26.66200
H  38.31300 44.24000 25.19500
H  36.55800 43.70700 25.24000
H  36.99100 47.34700 30.40400
H  33.08100 47.07000 32.15100
H  34.27100 46.98700 33.53200
H  33.68000 45.49400 32.81400
Mg -0.17900 43.89700 26.47900
C  2.31700 43.42700 28.84200
C  -2.33700 42.72800 28.80700
C  -2.58800 43.85500 24.08800
C  2.25500 44.20200 24.07300
N  0.02900 42.97900 28.54300
C  1.01700 43.27100 29.36600
C  0.67100 43.03800 30.84800
C  -0.70900 42.42000 30.72400
C  -1.07100 42.73100 29.25600
C  -0.80700 40.85500 31.00700
C  0.69400 44.34900 31.60000
C  1.09300 44.19200 33.13700
H  0.72200 42.91600 33.75300
N  -2.12400 43.42700 26.49800
C  -2.86100 43.07200 27.56400
C  -4.28900 42.99800 27.15400
C  -4.45200 43.24800 25.78600
C  -3.01400 43.47200 25.39700
C  -5.33200 42.83200 28.25500
C  -5.70100 43.31100 24.92600
O  -5.62800 43.45000 23.70800
C  -7.15800 43.14800 25.52800
N  -0.11700 43.73600 24.29400
C  -1.27600 44.04000 23.63100
C  -0.93000 44.58400 22.24700
C  0.61700 44.83500 22.35300
C  0.93700 44.16700 23.66100
C  -1.29500 43.80400 21.00600
C  1.18400 46.29500 22.39300
C  0.47000 47.39700 21.56100
N  1.86200 44.00200 26.41700
C  2.70100 44.12300 25.35500
C  4.09900 44.08900 25.83200
C  3.96300 43.90900 27.22800
C  2.64600 43.74300 27.49000
C  5.34400 44.17900 24.94800
C  4.64700 43.75500 28.44300
O  5.83900 43.81500 28.71500
C  3.58900 43.61100 29.56400
C  3.97000 42.36600 30.34600
O  3.81500 41.21100 29.90200
O  4.38800 42.54000 31.61500
C  4.57500 41.37900 32.49100
H  -3.05900 42.50000 29.59400
H  -3.35700 43.95600 23.31900
H  3.03000 44.32300 23.31400
H  1.46100 42.39000 31.22800
H  -1.43100 42.86300 31.41000
H  -1.66700 40.72300 31.66400
H  0.13300 40.52500 31.44900
H  -1.01300 40.29800 30.09400
H  -0.25900 44.87800 31.59800
H  1.54600 44.96200 31.30400
H  0.61100 45.03100 33.63800
H  2.17400 44.28400 33.23800
H  -6.18600 43.47500 28.04200
H  -5.02200 43.19000 29.23700
H  -5.64300 41.79100 28.34600
H  -7.50900 44.15500 25.75500
H  -7.20800 42.44700 26.36100
H  -7.73100 42.76200 24.68500
H  -1.51300 45.50200 22.17800
H  1.25600 44.34800 21.61600
H  -1.99700 43.00900 21.26000
H  -0.37900 43.45900 20.52700
H  -1.67500 44.48200 20.24200
H  2.20800 46.45200 22.05600
H  1.12000 46.64100 23.42500
H  1.24000 47.86800 20.95000
H  0.24500 48.17200 22.29300
H  -0.35000 47.07800 20.91700
H  5.79500 43.18800 24.99500
H  6.12900 44.74600 25.45000
H  5.06500 44.49700 23.94300
H  3.54500 44.44700 30.26100
H  4.17200 41.47300 33.50000
H  5.63100 41.12900 32.58500
H  4.13300 40.43300 32.17700

