158

Mg 6.41100 54.69600 40.88900
C  6.05000 51.14900 40.80600
C  9.51700 54.42700 39.99900
C  6.43100 58.12200 40.52000
C  3.00700 54.81800 41.73100
N  7.61600 52.99800 40.38800
C  7.31700 51.66200 40.39600
C  8.41900 50.79500 39.78800
C  9.52100 51.91300 39.60200
C  8.91900 53.17600 40.11700
C  10.84400 51.60700 40.32300
C  8.17900 50.15300 38.35100
C  7.18400 50.88200 37.29900
H  7.56600 51.06300 35.84400
N  7.81300 56.10000 40.38700
C  9.07400 55.77600 40.01200
C  9.79800 56.89100 39.61300
C  8.90400 58.02000 39.73500
C  7.61300 57.45500 40.20600
C  11.28000 56.80000 39.24500
C  9.30800 59.52000 39.33300
O  10.42300 59.70300 38.84100
C  8.41600 60.60900 39.66900
N  4.90200 56.21000 41.00600
C  5.13800 57.57100 40.80700
C  3.86100 58.40200 41.07000
C  2.78900 57.22700 41.23500
C  3.58800 55.99100 41.32000
C  3.82200 59.37500 42.25700
C  1.66600 56.96400 40.04900
C  0.23300 57.20600 40.59500
N  4.83200 53.34400 41.22900
C  3.58300 53.53300 41.77900
C  2.93700 52.27100 42.12100
C  3.90200 51.31200 41.76400
C  5.01500 52.01100 41.31100
C  1.59400 52.08100 42.83900
C  4.17100 49.89500 41.73200
O  3.51100 49.01200 42.18500
C  5.53900 49.70900 41.10100
C  5.27900 48.81300 39.96600
O  4.95100 49.15000 38.85900
O  5.57800 47.51800 40.30600
C  5.29400 46.51500 39.30400
H  10.57700 54.37300 39.74200
H  6.32500 59.20300 40.39900
H  2.02900 54.91700 42.20800
H  8.59800 49.99500 40.50700
H  9.65100 52.08900 38.53400
H  10.84300 52.29500 41.16900
H  11.57500 51.71700 39.52200
H  10.81400 50.58900 40.71100
H  7.74300 49.16900 38.52600
H  9.16200 49.89100 37.95900
H  7.06900 51.89500 37.68300
H  6.22200 50.36900 37.28100
H  11.35200 56.06600 38.44200
H  11.63300 56.22800 40.10300
H  11.92700 57.67600 39.20400
H  8.86600 61.59800 39.59100
H  8.13200 60.47700 40.71300
H  7.61900 60.67000 38.92800
H  3.82500 59.03600 40.18400
H  2.31500 57.24200 42.21700
H  2.86600 59.42600 42.77800
H  3.92000 60.35000 41.78100
H  4.62200 59.14200 42.96000
H  1.70000 55.92000 39.73900
H  1.97800 57.55200 39.18600
H  0.29400 57.85500 41.46800
H  -0.28500 56.28000 40.84300
H  -0.28200 57.73000 39.79000
H  1.36700 53.04600 43.29000
H  1.85100 51.44200 43.68400
H  0.86700 51.55900 42.21700
H  6.26900 49.20700 41.73600
H  5.78800 45.61600 39.67300
H  5.79800 46.75600 38.36800
H  4.22300 46.39700 39.14400
Mg -11.01100 17.19700 41.24600
C  -7.47300 16.75900 41.60400
C  -10.30600 20.43800 40.67600
C  -14.11400 17.50500 40.47400
C  -11.26300 13.59000 41.44900
N  -9.10600 18.44300 41.09900
C  -7.80900 18.12600 41.34800
C  -6.84800 19.35500 41.21000
C  -7.86000 20.51900 41.44400
C  -9.20100 19.78500 41.01100
C  -7.95100 21.01500 42.93900
C  -6.15100 19.42700 39.78500
C  -4.68700 19.28700 39.83700
H  -4.10600 18.47200 38.68100
N  -12.09100 18.73100 40.51700
C  -11.60300 19.99000 40.38100
C  -12.71800 20.79100 39.95900
C  -13.90400 20.05900 39.86800
C  -13.44400 18.72800 40.31300
C  -12.54600 22.26100 39.67200
C  -15.29100 20.47100 39.37100
O  -15.55500 21.61000 38.97200
C  -16.47200 19.52200 39.47900
N  -12.34900 15.68400 40.75600
C  -13.63500 16.22800 40.80100
C  -14.61700 15.07900 40.90000
C  -13.79500 13.80900 41.20900
C  -12.34700 14.34700 41.15500
C  -15.81100 15.33800 41.81800
C  -14.01700 12.61000 40.18400
C  -14.70500 11.31200 40.67700
N  -9.73700 15.48900 41.61800
C  -10.01200 14.14200 41.64100
C  -8.77100 13.44300 41.93200
C  -7.68900 14.37400 41.96000
C  -8.34100 15.61800 41.73700
C  -8.75700 11.85900 42.19200
C  -6.28500 14.63700 42.17100
O  -5.37200 13.89000 42.48300
C  -6.06300 16.18200 41.89200
C  -5.36600 16.71200 43.13800
O  -4.14900 16.98700 43.21500
O  -6.18100 16.72800 44.26600
C  -5.61700 16.92500 45.58300
H  -10.11700 21.51100 40.76200
H  -15.18400 17.45100 40.26400
H  -11.56700 12.55000 41.59000
H  -6.17000 19.18800 42.04700
H  -7.46300 21.33300 40.83700
H  -7.38100 20.25900 43.48000
H  -8.96700 21.15700 43.30700
H  -7.43900 21.96000 43.11500
H  -6.25000 20.44900 39.42200
H  -6.49900 18.75300 39.00200
H  -4.32000 18.81100 40.74500
H  -4.09400 20.19600 39.93500
H  -12.28000 22.30100 38.61500
H  -11.75500 22.72700 40.25900
H  -13.50900 22.75300 39.80800
H  -16.31000 18.61200 38.90200
H  -17.31100 20.03500 39.00800
H  -16.55100 19.33400 40.55000
H  -15.17000 15.13200 39.96200
H  -13.96900 13.52100 42.24600
H  -16.24000 14.33600 41.82000
H  -16.48600 16.05800 41.35700
H  -15.54000 15.85700 42.73800
H  -13.07500 12.26600 39.75700
H  -14.56700 13.01700 39.33500
H  -14.70000 11.34600 41.76700
H  -14.10600 10.42700 40.46400
H  -15.77100 11.28000 40.45200
H  -8.35400 11.29400 41.35100
H  -9.71700 11.45900 42.51600
H  -8.04100 11.67600 42.99300
H  -5.29200 16.25400 41.12500
H  -6.41000 16.91300 46.33200
H  -5.27300 17.95900 45.57800
H  -4.84600 16.16800 45.72600

