158

Mg 54.40200 24.38100 44.53300
C  52.12500 26.88500 43.76600
C  52.11900 22.00200 43.90800
C  56.87700 22.22400 44.64300
C  56.63400 27.00200 45.46700
N  52.39000 24.52500 43.82100
C  51.58000 25.60800 43.58000
C  50.19300 25.10600 43.23100
C  50.14700 23.62600 43.73300
C  51.65600 23.34200 43.88000
C  49.44700 23.44600 45.11000
C  49.58200 25.41100 41.80600
C  48.01800 25.52300 41.78600
H  47.61200 24.51200 40.68700
N  54.45900 22.36000 44.16300
C  53.43300 21.51900 43.96400
C  53.92100 20.20900 43.97200
C  55.28100 20.23700 44.15900
C  55.61200 21.63000 44.38100
C  53.07100 18.93100 43.83400
C  56.12800 18.96000 44.35900
O  55.58500 17.81500 44.38700
C  57.64900 19.05600 44.76900
N  56.47800 24.66500 44.86200
C  57.27300 23.50000 44.83600
C  58.72200 23.89700 44.96800
C  58.61700 25.48600 45.16500
C  57.21300 25.72000 45.27900
C  59.50100 23.23600 46.10700
C  59.41500 26.23200 44.05900
C  58.61200 26.86000 42.85700
N  54.47300 26.57500 44.56800
C  55.36700 27.42000 45.11200
C  54.85800 28.72400 45.17400
C  53.51700 28.59200 44.69100
C  53.37800 27.21800 44.32400
C  55.58700 29.98600 45.54300
C  52.24900 29.28000 44.36100
O  51.93500 30.47900 44.43700
C  51.33300 28.18800 43.74400
C  50.99400 28.51900 42.34600
O  51.89200 28.44600 41.53900
O  49.75900 29.04600 42.11100
C  49.36000 29.05700 40.68100
H  51.31500 21.26400 43.86500
H  57.69300 21.49900 44.67100
H  57.39500 27.76300 45.64800
H  49.53600 25.57600 43.96300
H  49.65900 23.00700 42.98000
H  49.18400 24.37100 45.62400
H  50.14000 22.87300 45.72500
H  48.52700 22.86200 45.08500
H  49.94000 24.70300 41.05900
H  49.93200 26.34200 41.36000
H  47.64400 26.47400 41.40500
H  47.66500 25.17100 42.75500
H  53.41800 18.08800 43.23700
H  52.14500 19.08100 43.27900
H  52.86900 18.59500 44.85100
H  57.89700 18.03000 45.04300
H  57.59700 19.65700 45.67700
H  58.31100 19.46500 44.00500
H  59.23100 23.61000 44.04700
H  58.96900 25.80500 46.14600
H  60.11200 23.99900 46.59000
H  60.07300 22.42300 45.65900
H  58.73000 22.93500 46.81600
H  60.13800 25.53700 43.63100
H  59.94300 26.99300 44.63600
H  57.57000 26.54900 42.78600
H  59.07700 26.61400 41.90200
H  58.70900 27.93700 42.99900
H  56.64700 29.73400 45.53300
H  55.29400 30.31400 46.54000
H  55.42300 30.75000 44.78300
H  50.34600 28.19600 44.20700
H  49.46000 30.10600 40.40200
H  48.35100 28.68100 40.51100
H  49.97700 28.51000 39.96800
Mg 42.64100 41.13500 25.32100
C  41.66600 43.58400 27.81800
C  43.72300 39.09900 27.86300
C  43.70300 39.07300 22.98600
C  41.77500 43.47400 22.87900
N  42.74900 41.45900 27.62700
C  42.16700 42.43300 28.41500
C  42.14000 42.01100 29.84400
C  42.67400 40.51100 29.77100
C  43.13100 40.33500 28.34900
C  43.79700 40.22100 30.81900
C  40.68200 42.01800 30.48200
C  40.48800 41.32000 31.82200
H  39.78600 42.08400 32.96500
N  43.54100 39.35400 25.43100
C  43.95200 38.67200 26.54000
C  44.67400 37.47500 26.18800
C  44.60200 37.36500 24.76700
C  43.90300 38.61000 24.34800
C  45.21900 36.49400 27.15400
C  45.11800 36.28000 23.79600
O  45.01500 36.24800 22.57100
C  45.62000 35.00800 24.48500
N  42.69100 41.17800 23.31000
C  43.13800 40.23600 22.51900
C  42.97600 40.49400 21.02000
C  42.37500 41.95900 20.97300
C  42.19800 42.21400 22.44700
C  44.32200 40.35600 20.26400
C  41.10100 42.24300 20.17800
C  41.09000 43.39300 19.17000
N  41.86100 43.08700 25.26200
C  41.49800 43.88300 24.23400
C  41.11100 45.19700 24.70000
C  41.05700 45.13600 26.06800
C  41.54800 43.82100 26.38100
C  40.77600 46.42900 23.84400
C  40.73200 45.84900 27.32000
O  40.33700 46.97200 27.50600
C  40.99800 44.76400 28.44400
C  41.85300 45.44400 29.46700
O  43.05600 45.65000 29.30100
O  41.04400 45.83600 30.53000
C  41.82600 46.11900 31.74500
H  43.86300 38.42700 28.71200
H  44.09700 38.43500 22.19200
H  41.54000 44.18800 22.08700
H  42.83800 42.60100 30.43900
H  41.87800 39.78400 29.93200
H  43.60000 40.85500 31.68300
H  44.72700 40.38100 30.27200
H  43.64300 39.14900 30.94200
H  40.00000 41.52700 29.78700
H  40.33400 43.05100 30.46200
H  41.47500 41.07900 32.21700
H  39.95400 40.38100 31.67800
H  45.02400 36.82400 28.17500
H  46.29500 36.44000 26.99000
H  44.82100 35.50200 26.94400
H  44.74800 34.59300 24.98900
H  46.41800 35.15500 25.21300
H  45.94700 34.33000 23.69600
H  42.28900 39.83400 20.49000
H  43.06700 42.71100 20.59500
H  45.15900 40.16500 20.93500
H  44.51900 41.27000 19.70300
H  44.22500 39.47700 19.62800
H  40.35300 42.48300 20.93500
H  40.84900 41.30900 19.67600
H  42.12500 43.71800 19.05900
H  40.51800 44.22700 19.57700
H  40.72600 42.95000 18.24400
H  40.52000 46.19400 22.81100
H  41.58700 47.15400 23.78000
H  39.97200 46.94700 24.36700
H  40.01500 44.47300 28.81400
H  41.31800 45.64800 32.58700
H  41.83200 47.17500 32.01600
H  42.86700 45.80100 31.79100

