158

Mg 23.34600 -6.39200 46.89800
C  25.73000 -3.95900 45.86100
C  21.07000 -4.84100 44.80200
C  21.51800 -9.20700 47.11800
C  25.94200 -7.97400 48.60700
N  23.45500 -4.55200 45.50400
C  24.49100 -3.67500 45.35000
C  24.07400 -2.60000 44.41500
C  22.48800 -2.73500 44.45600
C  22.32800 -4.14900 44.94100
C  21.72900 -1.73000 45.42200
C  24.69700 -2.73300 43.05900
C  25.01400 -1.45900 42.31400
H  24.23400 -1.28300 40.99700
N  21.48700 -6.88800 46.08300
C  20.68900 -6.11100 45.28100
C  19.48300 -6.86400 45.02800
C  19.53600 -8.09700 45.69300
C  20.91900 -8.09800 46.34900
C  18.35100 -6.30400 44.11300
C  18.47300 -9.13400 45.80900
O  17.43000 -8.91900 45.23700
C  18.66400 -10.38800 46.44200
N  23.72300 -8.25200 47.73800
C  22.73700 -9.28500 47.76400
C  23.15600 -10.50300 48.65000
C  24.57400 -10.07000 49.07900
C  24.81100 -8.67100 48.43300
C  22.21600 -10.64000 49.85700
C  25.60700 -11.19200 48.75200
C  26.14900 -11.25100 47.22900
N  25.44200 -5.97200 47.26200
C  26.29100 -6.73400 47.95600
C  27.56700 -6.02600 48.05600
C  27.40300 -4.89500 47.21300
C  26.09000 -5.01100 46.69500
C  28.77200 -6.55900 48.72000
C  28.07400 -3.74300 46.65900
O  29.19100 -3.29200 46.84400
C  26.96500 -3.09400 45.71500
C  26.66200 -1.66700 46.07700
O  26.43800 -1.20900 47.20700
O  26.71500 -0.86300 44.95100
C  26.44500 0.51600 45.26600
H  20.19500 -4.30000 44.43700
H  21.03300 -10.18300 47.05300
H  26.73500 -8.46100 49.17800
H  24.30700 -1.67000 44.93400
H  22.02800 -2.68700 43.46900
H  22.45200 -1.13400 45.97800
H  21.16700 -2.28700 46.17100
H  20.94200 -1.24000 44.84800
H  24.05000 -3.31800 42.40500
H  25.67600 -3.16900 43.25600
H  26.06600 -1.30000 42.07800
H  24.76400 -0.67500 43.02900
H  17.88700 -7.15400 43.61300
H  18.70700 -5.59700 43.36500
H  17.58700 -5.84300 44.73900
H  19.38000 -11.00100 45.89400
H  17.66600 -10.82700 46.45600
H  18.92300 -10.09500 47.45900
H  23.12600 -11.44600 48.10400
H  24.66100 -9.97600 50.16100
H  21.94100 -11.69200 49.93900
H  21.29100 -10.07900 49.72300
H  22.54900 -10.32100 50.84400
H  25.24300 -12.21300 48.86900
H  26.47800 -11.05400 49.39400
H  27.20900 -11.49600 47.16800
H  26.05500 -10.27800 46.74600
H  25.57900 -11.99100 46.66800
H  28.78100 -6.82700 49.77600
H  29.38800 -5.67400 48.55700
H  29.21400 -7.38300 48.16000
H  27.48400 -3.25000 44.76900
H  25.35900 0.60100 45.21200
H  26.97200 1.15200 44.55600
H  26.77000 1.07500 46.14300
Mg 37.13200 49.42300 25.28600
C  36.94800 47.62000 28.11200
C  36.03600 52.27500 26.90800
C  36.77700 51.05400 22.31500
C  37.89300 46.53600 23.46900
N  36.56100 49.88600 27.23700
C  36.65400 48.97800 28.32500
C  36.21100 49.54800 29.65600
C  35.71900 51.02700 29.21900
C  36.19500 51.14800 27.73000
C  34.24900 51.30300 29.48600
C  37.29400 49.53200 30.79100
C  36.84600 49.38900 32.26800
H  35.33400 49.44000 32.77400
N  36.62800 51.47500 24.73200
C  36.29200 52.47600 25.49500
C  36.13300 53.70900 24.69600
C  36.13400 53.30300 23.35500
C  36.57800 51.94000 23.41900
C  35.99200 55.06300 25.25900
C  35.89600 54.12100 22.12100
O  35.83200 53.59100 20.99700
C  35.57200 55.62400 22.21100
N  37.19200 48.86100 23.23200
C  37.14900 49.69600 22.25700
C  37.41900 49.01000 20.86300
C  37.93000 47.64200 21.23500
C  37.72000 47.70100 22.73500
C  36.14100 49.02300 19.94400
C  39.42300 47.35900 20.87500
C  39.68700 46.04000 20.08400
N  37.54200 47.45600 25.68600
C  37.70000 46.37000 24.85000
C  37.82400 45.20300 25.63100
C  37.50800 45.61800 26.94500
C  37.35500 47.00700 26.91300
C  38.20300 43.81600 25.14900
C  37.26700 45.17600 28.31500
O  37.18900 44.09100 28.77600
C  36.90000 46.45200 29.09000
C  35.53500 46.27500 29.70100
O  34.46200 46.31100 29.07000
O  35.63400 45.96100 31.02300
C  34.35400 45.43700 31.54000
H  35.59900 53.11000 27.45900
H  36.94900 51.54200 21.35300
H  38.15400 45.57400 23.02300
H  35.29700 48.99900 29.88300
H  36.23000 51.87300 29.67800
H  33.88300 50.64400 30.27400
H  33.66300 51.13400 28.58200
H  34.08800 52.34300 29.76900
H  37.86100 50.45500 30.66900
H  38.01200 48.78500 30.45400
H  37.33000 50.19900 32.81400
H  37.27800 48.44300 32.59500
H  36.84200 55.73200 25.12900
H  35.86700 55.15300 26.33800
H  35.11300 55.52200 24.80500
H  34.58200 55.68100 22.66300
H  35.58600 56.15900 21.26100
H  36.42800 56.05200 22.73200
H  38.19900 49.47400 20.25900
H  37.27200 46.84200 20.89600
H  36.09400 49.81900 19.20200
H  35.23000 49.21100 20.51300
H  36.00000 48.04800 19.47700
H  39.97700 47.25500 21.80800
H  39.79800 48.16100 20.23800
H  40.07100 46.29300 19.09600
H  38.69900 45.59900 19.94800
H  40.41000 45.51400 20.70700
H  37.36500 43.27100 24.71500
H  38.53000 43.28000 26.04000
H  39.06800 43.84900 24.48600
H  37.62200 46.66800 29.87700
H  34.12800 44.39900 31.29500
H  33.43700 46.00200 31.37300
H  34.33300 45.42800 32.62900

