158

Mg 24.80100 -6.65300 47.75300
C  27.30000 -4.58700 46.75400
C  22.69600 -5.45500 45.30800
C  22.72600 -9.34800 48.18800
C  27.27500 -8.38900 49.75800
N  24.94500 -5.25600 46.28700
C  26.04600 -4.43300 46.09500
C  25.81700 -3.41500 44.89100
C  24.25100 -3.53000 44.68600
C  23.94000 -4.84200 45.40800
C  23.35300 -2.24800 44.99800
C  26.66500 -3.78700 43.67300
C  27.29000 -2.53700 42.99800
H  26.87800 -2.31000 41.52400
N  22.98200 -7.30200 46.88400
C  22.29600 -6.62600 45.95900
C  20.98700 -7.20900 45.72500
C  20.91100 -8.32600 46.64800
C  22.25900 -8.34900 47.26600
C  19.81800 -6.52100 44.88500
C  19.73100 -9.21200 46.87100
O  18.75500 -9.19000 46.19400
C  19.63400 -10.14300 48.06000
N  25.01900 -8.67600 48.73000
C  23.93000 -9.47900 48.85600
C  24.21900 -10.74400 49.62400
C  25.61000 -10.37000 50.19500
C  26.01600 -9.03600 49.55800
C  23.16400 -11.24900 50.70400
C  26.73200 -11.44900 50.11600
C  27.09400 -11.76500 48.68900
N  26.79600 -6.46000 48.25700
C  27.68000 -7.23400 49.01700
C  28.92200 -6.54200 49.14400
C  28.85100 -5.56300 48.17300
C  27.51700 -5.53800 47.70800
C  29.99100 -6.98000 49.97900
C  29.54300 -4.43600 47.61900
O  30.61400 -3.93700 47.82900
C  28.56800 -3.71300 46.61100
C  28.37000 -2.32300 47.04700
O  28.22300 -1.96900 48.20700
O  28.41800 -1.55800 45.93000
C  27.98300 -0.14100 46.17800
H  21.94300 -4.93100 44.71600
H  21.97100 -10.04500 48.55800
H  28.03400 -8.81500 50.41700
H  26.02800 -2.41400 45.26700
H  24.05700 -3.68500 43.62500
H  23.93600 -1.33400 45.11400
H  22.94300 -2.35700 46.00200
H  22.49400 -2.19800 44.32900
H  26.02200 -4.28800 42.94800
H  27.40800 -4.54800 43.91500
H  28.37200 -2.60900 43.11000
H  27.02900 -1.73000 43.68300
H  18.86400 -6.65400 45.39600
H  19.79500 -6.88500 43.85800
H  19.81400 -5.43200 44.84400
H  20.15000 -11.06300 47.78700
H  18.57900 -10.40600 48.13700
H  19.90400 -9.73600 49.03400
H  24.37100 -11.55100 48.90700
H  25.54400 -10.13500 51.25700
H  22.20600 -10.79400 50.45300
H  23.46500 -10.85600 51.67500
H  23.05100 -12.33300 50.67200
H  26.35400 -12.35800 50.58300
H  27.59000 -11.06200 50.66500
H  28.14500 -11.53200 48.52100
H  26.47800 -11.14100 48.04200
H  26.86500 -12.80000 48.43300
H  30.86400 -6.39600 49.68600
H  30.16500 -8.03700 49.77700
H  29.83900 -6.77800 51.03900
H  28.98900 -3.71700 45.60500
H  28.45600 0.28400 47.06300
H  26.90100 -0.01700 46.21900
H  28.06400 0.46900 45.27900
Mg 6.86700 53.84800 41.29500
C  6.64300 50.31000 41.04600
C  10.23000 53.59900 40.16800
C  6.85200 57.10200 40.97400
C  3.43500 53.85700 42.02100
N  8.28100 52.09400 40.74200
C  7.92800 50.80200 40.55500
C  9.03000 49.90400 40.11200
C  10.27900 50.92200 40.14100
C  9.57500 52.32400 40.27400
C  11.21800 50.59100 41.35700
C  8.83300 49.16900 38.75300
C  8.23000 50.03100 37.57000
H  7.25400 49.28900 36.56300
N  8.35000 55.18900 40.79400
C  9.63900 54.92500 40.37900
C  10.32500 56.08600 40.07600
C  9.38600 57.20600 40.29200
C  8.08900 56.54200 40.65700
C  11.77100 56.08300 39.49600
C  9.65600 58.70300 40.15200
O  10.79900 59.11800 40.03200
C  8.49300 59.64200 40.09000
N  5.28900 55.16200 41.32000
C  5.61900 56.53600 41.39800
C  4.53300 57.40300 41.96800
C  3.43600 56.32400 42.32000
C  4.13400 54.99200 41.93100
C  4.98200 58.23200 43.22900
C  1.90200 56.51400 41.79500
C  0.72900 56.76600 42.78400
N  5.24900 52.37800 41.52100
C  3.95100 52.57300 41.85600
C  3.35900 51.18400 42.05100
C  4.36900 50.30500 41.78100
C  5.51900 51.10200 41.43200
C  1.94700 50.98000 42.51800
C  4.71100 48.89600 41.85600
O  4.07800 47.89900 42.26500
C  6.11600 48.93200 41.11700
C  5.84200 48.15200 39.78300
O  5.39000 48.52100 38.71300
O  6.40600 46.87900 39.91100
C  6.36200 46.05800 38.66800
H  11.31500 53.59700 40.04000
H  6.97700 58.15300 41.24400
H  2.40900 53.95700 42.38200
H  9.12900 49.18600 40.92600
H  10.75600 51.03800 39.16800
H  12.25100 50.68600 41.02200
H  11.02000 49.55300 41.62500
H  10.90700 51.21000 42.19900
H  8.24700 48.25300 38.81800
H  9.81200 48.82100 38.42400
H  9.09100 50.26900 36.94400
H  7.68900 50.91100 37.91800
H  12.32000 56.91700 39.93300
H  11.67300 56.07500 38.41100
H  12.36900 55.21200 39.76100
H  8.09800 59.81900 41.09100
H  7.87800 59.11900 39.35800
H  8.81800 60.59200 39.66700
H  4.20100 58.07500 41.17700
H  3.39700 56.21600 43.40400
H  4.26600 58.37800 44.03700
H  5.07100 59.25600 42.86400
H  5.93600 57.92500 43.65600
H  1.63400 55.59500 41.27400
H  1.77900 57.34600 41.10100
H  0.15200 55.85100 42.91200
H  0.10400 57.60500 42.47900
H  1.15500 56.92700 43.77500
H  1.49800 50.12900 42.00700
H  1.42800 51.90400 42.26200
H  2.01500 50.82000 43.59400
H  6.75200 48.21300 41.63300
H  6.81200 45.09000 38.88500
H  6.92700 46.55700 37.88100
H  5.32800 45.83800 38.39900

