158

Mg -0.67600 -3.08400 43.63200
C  2.94600 -3.19500 43.39300
C  -0.53400 -0.33200 41.87400
C  -4.00500 -3.26400 43.56300
C  -0.50800 -6.34600 45.06800
N  1.07100 -1.85500 42.78900
C  2.40200 -2.03800 42.76700
C  3.13700 -0.79500 42.13400
C  1.93900 0.19800 41.86000
C  0.76300 -0.70200 42.26400
C  1.96500 1.54800 42.79200
C  4.02900 -1.20200 40.89700
C  5.23000 -0.22400 40.80300
H  5.37500 0.68900 39.55700
N  -2.07200 -1.93900 42.80500
C  -1.82700 -0.80500 42.08000
C  -3.02500 -0.27600 41.64000
C  -4.03900 -1.22100 42.00500
C  -3.33800 -2.24700 42.82500
C  -3.32000 1.03300 41.03500
C  -5.52800 -1.14000 41.67500
O  -6.02000 -0.06300 41.22500
C  -6.44900 -2.22300 41.96700
N  -2.12200 -4.71700 44.04400
C  -3.45500 -4.43400 44.11300
C  -4.22500 -5.55000 44.80800
C  -3.07400 -6.41800 45.35300
C  -1.79700 -5.81100 44.80700
C  -5.12500 -5.00000 45.98200
C  -3.20000 -7.89200 45.03200
C  -3.66400 -8.73900 46.19400
N  0.82100 -4.53500 44.04900
C  0.67600 -5.80500 44.64500
C  1.95200 -6.27300 44.97200
C  2.87700 -5.35100 44.40000
C  2.15800 -4.29700 43.92000
C  2.19500 -7.56000 45.74600
C  4.30500 -4.95300 44.26900
O  5.32100 -5.37400 44.75500
C  4.35200 -3.67200 43.42700
C  5.35100 -2.71400 44.02300
O  5.37700 -2.31000 45.18800
O  6.33100 -2.41500 43.12800
C  7.39700 -1.57800 43.59700
H  -0.71700 0.59200 41.32200
H  -5.09400 -3.21400 43.63200
H  -0.51700 -7.29900 45.60100
H  3.81400 -0.41900 42.90200
H  1.71300 0.41200 40.81500
H  1.16300 1.54200 43.53000
H  2.05100 2.43100 42.15800
H  2.79400 1.38900 43.48100
H  3.54300 -1.13000 39.92400
H  4.32300 -2.24900 40.98100
H  6.10800 -0.86600 40.86400
H  5.34000 0.34500 41.72600
H  -4.27900 1.52200 41.20700
H  -3.16000 0.97000 39.95900
H  -2.52000 1.73600 41.26900
H  -5.95700 -3.18200 41.80600
H  -7.15000 -2.20900 41.13300
H  -6.92300 -2.14600 42.94600
H  -4.78800 -6.08400 44.04200
H  -2.94000 -6.19700 46.41200
H  -5.34600 -3.94200 45.83900
H  -4.63200 -5.08500 46.95100
H  -6.12100 -5.42800 46.09300
H  -2.18200 -8.21400 44.81200
H  -3.89000 -8.04800 44.20300
H  -3.98800 -8.16700 47.06300
H  -2.87100 -9.32400 46.66100
H  -4.52300 -9.34000 45.89600
H  3.22100 -7.65300 46.10200
H  1.98900 -8.33200 45.00500
H  1.49100 -7.54900 46.57800
H  4.60000 -3.96800 42.40700
H  6.96200 -0.59100 43.43900
H  8.30600 -1.60500 42.99700
H  7.70000 -1.76500 44.62700
Mg -2.15000 34.14800 26.35900
C  -3.68900 32.42000 28.95500
C  -0.85300 36.41300 28.64400
C  -1.16700 36.09000 23.78700
C  -4.02300 32.20300 24.09000
N  -2.17100 34.29900 28.48500
C  -2.85800 33.47300 29.36500
C  -2.53200 33.80900 30.84300
C  -1.84900 35.26400 30.66700
C  -1.62900 35.36500 29.16500
C  -2.68400 36.51200 31.19100
C  -1.52300 32.79800 31.52500
C  -1.13000 33.08400 32.97400
H  -1.64900 32.25600 34.20300
N  -0.94500 35.95400 26.21800
C  -0.45100 36.70600 27.23900
C  0.38700 37.75700 26.63700
C  0.31600 37.65300 25.23500
C  -0.61200 36.47200 24.98900
C  1.22300 38.71100 27.43300
C  1.04700 38.54300 24.15700
O  0.72700 38.38300 22.97200
C  1.94500 39.70100 24.48600
N  -2.71200 34.30000 24.30700
C  -2.09200 35.09800 23.46100
C  -2.53900 34.83600 22.02300
C  -3.10900 33.40600 22.08800
C  -3.32900 33.30100 23.60100
C  -3.63300 35.85400 21.52700
C  -2.10600 32.20500 21.52900
C  -1.03700 31.69200 22.44800
N  -3.54400 32.55100 26.42100
C  -4.19300 31.89100 25.46000
C  -4.98600 30.89700 26.06800
C  -4.86200 31.04100 27.42300
C  -3.94700 32.08900 27.59800
C  -5.82700 29.89000 25.29100
C  -5.28200 30.53800 28.70000
O  -6.04300 29.59700 28.97300
C  -4.49000 31.44100 29.74200
C  -5.28100 32.03500 30.75500
O  -6.15200 32.93500 30.59300
O  -4.90400 31.54100 31.91200
C  -5.53700 32.11600 33.13100
H  -0.47300 37.13300 29.37200
H  -0.80500 36.70100 22.95700
H  -4.53700 31.51600 23.41500
H  -3.43600 33.89400 31.44600
H  -0.87900 35.31600 31.16100
H  -3.37500 36.09500 31.92300
H  -3.32300 37.01700 30.46700
H  -2.09200 37.22600 31.76400
H  -0.60200 32.61400 30.97300
H  -2.05500 31.85400 31.64500
H  -1.42300 34.12800 33.08900
H  -0.04500 33.10600 33.07600
H  2.28100 38.59000 27.20400
H  1.10600 38.65300 28.51500
H  0.78900 39.63800 27.05600
H  2.36900 40.02800 23.53600
H  2.75400 39.26900 25.07600
H  1.44200 40.53600 24.97300
H  -1.71000 34.94100 21.32400
H  -4.04800 33.37600 21.53600
H  -3.90800 36.52400 22.34200
H  -4.57200 35.46100 21.13700
H  -3.20600 36.34500 20.65300
H  -1.59600 32.63800 20.66800
H  -2.87200 31.48000 21.25700
H  -1.30100 30.78100 22.98400
H  -0.97800 32.51400 23.16200
H  -0.09900 31.53500 21.91600
H  -6.65200 30.40500 24.79900
H  -6.12400 29.13500 26.01800
H  -5.06500 29.49200 24.62100
H  -3.73800 30.83900 30.25300
H  -4.73400 32.34400 33.83200
H  -6.10200 31.24800 33.47200
H  -6.11500 33.03900 33.08900

