158

Mg 24.85500 1.00900 29.36700
C  26.82300 0.80600 32.12700
C  22.05100 1.41600 31.33400
C  22.87700 1.14400 26.68900
C  27.60900 0.46300 27.40000
N  24.44400 1.06600 31.46900
C  25.44600 0.96000 32.40800
C  24.90300 1.21600 33.78500
C  23.34400 1.19300 33.61300
C  23.26300 1.21300 32.03400
C  22.50200 -0.07000 34.09000
C  25.62500 2.30100 34.59200
C  24.90000 3.06000 35.69600
H  25.71500 3.66200 36.90800
N  22.72600 1.24500 29.01300
C  21.77100 1.36400 29.99500
C  20.44900 1.57900 29.43000
C  20.63500 1.53300 28.00300
C  22.14500 1.29600 27.84100
C  19.15600 1.80100 30.23700
C  19.68100 1.57700 26.86900
O  19.91900 1.40700 25.70900
C  18.26400 1.98300 27.23500
N  25.14000 0.62100 27.33700
C  24.22400 0.83100 26.37800
C  24.78600 0.81400 24.94500
C  26.27700 0.84900 25.22000
C  26.39200 0.65500 26.73300
C  24.21200 -0.43600 24.16000
C  27.11800 2.06400 24.66600
C  27.42300 3.34100 25.47500
N  26.80700 0.58000 29.65000
C  27.85200 0.39200 28.81000
C  29.14800 0.27000 29.49200
C  28.76500 0.40300 30.79800
C  27.35400 0.63000 30.85500
C  30.43200 0.04200 28.75800
C  29.31900 0.45500 32.17500
O  30.45800 0.33300 32.58100
C  28.06800 0.70000 33.07600
C  28.08600 -0.31600 34.14000
O  27.44600 -1.35200 33.97500
O  28.76900 0.05900 35.30900
C  28.68700 -0.99100 36.37300
H  21.27400 1.65100 32.06400
H  22.47200 1.41400 25.71100
H  28.42800 0.32600 26.69100
H  25.16000 0.29800 34.31500
H  23.01400 2.12700 34.06900
H  21.96400 -0.61000 33.31000
H  21.84300 0.31300 34.86900
H  23.07400 -0.85200 34.59000
H  26.18500 2.95900 33.92800
H  26.35900 1.82700 35.24400
H  24.19200 2.36800 36.15200
H  24.38100 3.95800 35.36200
H  18.32600 1.25700 29.78600
H  18.89600 2.85500 30.33100
H  19.24500 1.31700 31.20900
H  17.77300 2.02300 26.26200
H  18.29700 2.93200 27.77100
H  17.77700 1.21800 27.83700
H  24.62000 1.78900 24.48500
H  26.66500 -0.14400 24.99200
H  23.61900 -1.02600 24.85800
H  25.05600 -1.03700 23.82200
H  23.68800 -0.24600 23.22300
H  26.88000 2.27600 23.62300
H  28.13100 1.67300 24.57300
H  28.45700 3.38000 25.81700
H  26.82900 3.35000 26.38900
H  27.23300 4.17000 24.79400
H  30.48500 0.69600 27.88800
H  30.54600 -1.00100 28.46200
H  31.27800 0.31900 29.38700
H  28.27700 1.62600 33.61100
H  28.80200 -2.02600 36.05200
H  27.70100 -0.89500 36.82900
H  29.51100 -0.72800 37.03600
Mg 41.94600 41.86100 27.59100
C  40.83000 44.30900 29.89100
C  42.80000 39.83800 30.17700
C  43.24100 39.74400 25.35100
C  41.39300 44.28200 25.03300
N  41.69100 42.01800 29.76500
C  41.18800 43.12200 30.53000
C  41.21700 42.75800 32.05900
C  42.07200 41.38600 32.06600
C  42.31000 41.07200 30.62100
C  43.34500 41.54500 32.98300
C  39.79000 42.63900 32.73900
C  39.84100 43.17900 34.15900
H  39.39200 42.17500 35.24700
N  42.88600 40.08700 27.67500
C  43.09600 39.32500 28.84800
C  43.43500 37.93800 28.50900
C  43.55400 37.89900 27.10900
C  43.25300 39.28200 26.60700
C  43.69000 36.88700 29.54900
C  43.82300 36.70100 26.19900
O  43.91900 36.77700 24.97000
C  44.14400 35.33300 26.73500
N  42.27000 42.08400 25.54400
C  42.80800 41.04900 24.83200
C  42.80000 41.25500 23.30300
C  41.93200 42.57100 23.24800
C  41.96000 43.06000 24.68900
C  44.23000 41.36400 22.67400
C  40.48700 42.48400 22.62800
C  39.46000 41.82400 23.59400
N  41.37500 43.95100 27.48000
C  41.06000 44.73800 26.34400
C  40.43500 45.93300 26.78200
C  40.33600 45.82300 28.14900
C  40.96700 44.65600 28.53500
C  40.08200 47.18900 25.99100
C  39.87400 46.45700 29.30700
O  39.23800 47.53100 29.42800
C  40.22100 45.48800 30.51700
C  41.15600 46.16700 31.44900
O  42.36100 46.27200 31.31400
O  40.59000 46.51500 32.68200
C  41.53500 46.99200 33.77000
H  42.97500 39.19700 31.04400
H  43.31900 38.99100 24.56400
H  41.04200 45.01000 24.29900
H  41.71400 43.65300 32.43200
H  41.48900 40.58600 32.52200
H  44.08600 40.78700 32.72900
H  43.03400 41.33600 34.00700
H  43.80700 42.53200 32.96600
H  39.37900 41.62900 32.72400
H  38.93300 43.04300 32.20000
H  39.27400 44.11000 34.17800
H  40.85800 43.40500 34.48200
H  43.20000 35.95400 29.27000
H  43.37200 37.23800 30.53000
H  44.75800 36.67500 29.58500
H  45.05400 35.33800 27.33500
H  44.20700 34.59700 25.93400
H  43.21300 35.07700 27.24100
H  42.26400 40.42100 22.85000
H  42.38200 43.33700 22.61700
H  44.85200 41.93300 23.36500
H  44.15500 41.84400 21.69800
H  44.57200 40.34700 22.48400
H  40.55700 41.96200 21.67300
H  40.21700 43.50700 22.36900
H  39.75000 41.83300 24.64400
H  39.29300 40.80300 23.25200
H  38.50100 42.32600 23.46500
H  39.27400 47.05700 25.27100
H  40.92900 47.31200 25.31600
H  40.00100 48.04200 26.66500
H  39.40300 45.11900 31.13500
H  41.13100 47.62000 34.56400
H  42.41000 47.54400 33.42700
H  41.81200 46.13200 34.38000

