158

Mg 47.10900 33.79900 27.53400
C  45.33600 32.50200 30.09400
C  47.65600 36.69800 29.37300
C  48.24500 35.37600 24.74600
C  46.36100 31.03600 25.57000
N  46.53000 34.42300 29.52700
C  45.94600 33.73700 30.48900
C  46.11900 34.34400 31.90000
C  46.55900 35.83300 31.45200
C  47.00800 35.60600 30.03600
C  45.45000 36.95700 31.42000
C  47.27100 33.53600 32.71000
C  47.23800 33.70300 34.26400
H  46.31400 34.71400 34.93600
N  47.81400 35.74500 27.08900
C  48.10100 36.75800 28.02400
C  48.84000 37.81200 27.40700
C  48.88100 37.54200 25.99100
C  48.23100 36.17500 25.87500
C  49.27200 39.15500 28.12100
C  49.57700 38.30900 24.89200
O  49.61900 37.96900 23.73100
C  50.43900 39.50500 25.34400
N  47.22300 33.33100 25.45100
C  47.70400 34.11600 24.52700
C  47.96800 33.41200 23.18800
C  47.54000 31.91700 23.51400
C  46.93600 32.08900 24.94900
C  47.18200 34.01700 21.96500
C  48.68100 30.93400 23.61200
C  48.42400 29.50700 23.15100
N  46.11000 32.07100 27.78900
C  45.99400 30.98800 26.95300
C  45.28400 29.88500 27.67000
C  45.02700 30.47900 28.92700
C  45.51000 31.82000 28.90400
C  44.73100 28.52500 27.04100
C  44.35500 30.30400 30.17100
O  43.77800 29.26500 30.51500
C  44.36300 31.66200 30.84400
C  44.56500 31.51600 32.33900
O  45.39700 30.78800 32.85700
O  43.51700 32.03300 33.07200
C  43.38000 31.57200 34.46700
H  47.85600 37.55500 30.01800
H  48.82700 35.72300 23.88900
H  45.98300 30.22100 24.94900
H  45.18000 34.46000 32.44100
H  47.41800 36.14100 32.04900
H  45.17800 37.22600 30.39900
H  45.83900 37.84800 31.91300
H  44.53500 36.58800 31.88200
H  48.25000 33.77600 32.29700
H  47.13800 32.46700 32.53900
H  48.24700 33.88600 34.63300
H  47.09500 32.77100 34.81000
H  50.35400 39.21800 28.23600
H  48.81100 39.15400 29.10800
H  48.93000 40.01800 27.55000
H  51.21600 39.25000 26.06500
H  49.82000 40.33700 25.67700
H  50.81800 39.96400 24.43100
H  49.03700 33.44900 22.98000
H  46.80800 31.55800 22.79100
H  46.58800 34.86200 22.31400
H  46.64900 33.21600 21.45300
H  47.95200 34.49100 21.35600
H  48.91000 30.79400 24.66900
H  49.60400 31.26600 23.13700
H  47.36100 29.33100 22.98700
H  48.75000 28.85800 23.96400
H  49.02100 29.18900 22.29600
H  44.61700 28.67400 25.96700
H  43.84600 28.07400 27.49100
H  45.54600 27.80200 27.05500
H  43.45200 32.25500 30.75800
H  43.81700 30.60600 34.72000
H  42.31200 31.37300 34.55900
H  43.78000 32.35600 35.11000
Mg -12.30800 38.75400 42.16000
C  -10.01900 36.40700 40.85200
C  -10.60500 41.13700 40.68500
C  -14.93500 40.81300 42.67200
C  -14.33100 36.03300 43.25300
N  -10.50700 38.70400 40.90100
C  -9.74700 37.71400 40.47000
C  -8.63100 38.17300 39.60000
C  -8.59200 39.69700 40.01400
C  -10.03900 39.87900 40.51700
C  -7.42700 40.08600 40.97400
C  -9.03300 37.74700 38.12400
C  -7.94600 37.08500 37.30700
H  -7.30400 37.77200 36.18200
N  -12.65500 40.73200 41.79500
C  -11.81400 41.54200 41.22000
C  -12.26000 42.91900 41.40500
C  -13.54300 42.84700 41.95700
C  -13.77800 41.42900 42.18600
C  -11.40300 44.13700 41.03000
C  -14.40900 44.05600 42.22900
O  -14.12300 45.18300 41.79600
C  -15.68900 44.01100 42.90500
N  -14.40400 38.45300 42.73600
C  -15.20400 39.47300 43.03600
C  -16.60700 39.03600 43.59600
C  -16.28300 37.53800 43.74000
C  -14.91300 37.30200 43.25000
C  -17.02800 39.80000 44.88000
C  -17.49900 36.71700 43.14400
C  -17.34100 36.29600 41.73300
N  -12.26900 36.64900 42.01100
C  -13.08200 35.70100 42.62300
C  -12.53500 34.38900 42.36400
C  -11.38000 34.63800 41.62500
C  -11.22300 36.03200 41.52300
C  -12.85500 33.05000 42.88600
C  -10.24100 33.98700 40.94100
O  -10.01500 32.79300 40.87200
C  -9.27000 35.13300 40.44800
C  -7.93100 34.88900 41.14500
O  -7.78200 34.98600 42.34200
O  -6.91500 34.60500 40.25700
C  -5.64800 34.07400 40.83400
H  -9.90900 41.91100 40.35600
H  -15.72500 41.53100 42.90100
H  -14.86000 35.15100 43.62100
H  -7.73000 37.69000 39.97900
H  -8.51600 40.24700 39.07700
H  -6.51300 39.49200 40.97700
H  -7.90400 40.19100 41.94900
H  -7.03800 41.02500 40.58000
H  -9.31800 38.61700 37.53300
H  -9.85600 37.04100 38.23300
H  -8.45500 36.19900 36.92800
H  -7.23700 36.76700 38.07200
H  -11.92000 44.46200 40.12700
H  -10.34100 43.96800 40.85300
H  -11.36000 44.98800 41.71000
H  -16.52800 43.76200 42.25500
H  -15.94200 44.92800 43.43700
H  -15.60000 43.37900 43.78900
H  -17.38000 39.18600 42.84200
H  -16.29700 37.25100 44.79200
H  -17.65600 40.65000 44.61600
H  -16.24500 40.23800 45.49900
H  -17.66600 39.13600 45.46200
H  -18.34200 37.40300 43.22300
H  -17.52400 35.81500 43.75600
H  -17.63700 35.24700 41.73400
H  -16.28400 36.32700 41.46800
H  -17.94900 36.85300 41.02000
H  -13.91400 32.95800 43.12900
H  -12.30700 32.81800 43.79900
H  -12.58200 32.31300 42.13200
H  -9.12000 34.99200 39.37700
H  -5.80900 33.49100 41.74000
H  -4.86200 34.79900 41.04500
H  -5.20500 33.30300 40.20300

