158

Mg 40.82000 41.08800 27.45500
C  39.92400 43.51100 29.87800
C  41.47800 38.86500 29.96700
C  41.85200 38.99000 25.04200
C  40.27800 43.51300 25.04900
N  40.90400 41.31500 29.77200
C  40.35500 42.31700 30.50300
C  40.34100 42.01200 32.03300
C  40.76200 40.50700 32.00300
C  40.99600 40.10700 30.49600
C  41.87200 39.96200 32.95700
C  39.02400 42.31500 32.79600
C  38.50200 41.43600 33.88900
H  37.79600 42.09900 35.11700
N  41.46200 39.14400 27.47700
C  41.63900 38.35600 28.63100
C  41.92800 37.02400 28.22800
C  41.91300 37.00500 26.79700
C  41.76400 38.41300 26.35000
C  42.22600 35.87900 29.18500
C  41.99000 35.84700 25.87900
O  41.80300 35.97100 24.66000
C  42.00000 34.45100 26.41800
N  41.20600 41.33800 25.39900
C  41.51400 40.29000 24.64100
C  41.32100 40.60100 23.13300
C  40.70700 42.03200 23.10900
C  40.76200 42.35900 24.61000
C  42.74500 40.50800 22.41100
C  39.28500 42.04100 22.45900
C  38.12500 41.48400 23.26400
N  40.28700 43.08600 27.45800
C  40.09900 43.92200 26.37500
C  39.59000 45.23300 26.80200
C  39.42600 45.08900 28.15200
C  39.92000 43.80200 28.54000
C  39.31200 46.50000 26.05800
C  39.03300 45.74300 29.41200
O  38.66300 46.88300 29.57500
C  39.31900 44.78900 30.47300
C  40.19900 45.47300 31.50300
O  41.32400 45.78300 31.30800
O  39.57300 45.60700 32.72800
C  40.46000 46.04500 33.86100
H  41.75800 38.09900 30.69300
H  42.15800 38.33200 24.22500
H  40.05200 44.27600 24.30100
H  41.19000 42.62700 32.33000
H  39.80400 40.05100 32.25200
H  42.70700 39.59300 32.36200
H  41.52000 39.15400 33.59800
H  42.30000 40.73900 33.59100
H  38.24200 42.63800 32.10900
H  39.38000 43.19600 33.33000
H  39.36100 40.84800 34.21400
H  37.73500 40.69500 33.66700
H  41.34800 35.24000 29.09200
H  42.27300 36.14200 30.24200
H  43.06700 35.22100 28.96700
H  41.24000 34.49700 27.19700
H  42.96900 34.18100 26.83700
H  41.76300 33.78300 25.58900
H  40.62400 39.87200 22.71900
H  41.38400 42.75800 22.66000
H  43.27400 39.73300 22.96500
H  43.25300 41.45300 22.21500
H  42.46000 40.16500 21.41700
H  39.30600 41.51800 21.50300
H  39.04800 43.08700 22.26600
H  38.53400 40.76500 23.97400
H  37.43900 41.00400 22.56600
H  37.61200 42.24700 23.85000
H  38.69900 46.22700 25.19900
H  40.24100 47.03600 25.86300
H  38.80300 47.13100 26.78600
H  38.37500 44.53400 30.95600
H  41.51800 45.81300 33.73500
H  40.07800 45.42500 34.67300
H  40.40000 47.10800 34.09200
Mg 30.34700 59.69200 40.05500
C  27.61000 57.88500 38.65500
C  32.36100 56.88200 39.34100
C  33.10400 61.57400 40.63600
C  28.30300 62.48200 40.14300
N  29.99200 57.77300 38.91100
C  28.81500 57.25800 38.51500
C  29.03200 55.89400 37.90100
C  30.33700 55.46700 38.64000
C  30.96500 56.78900 38.96100
C  30.21900 54.62100 39.94300
C  29.15300 55.93900 36.36400
C  28.14100 55.03600 35.57400
H  27.28200 55.91900 34.69100
N  32.43300 59.29100 40.00700
C  33.05300 58.08400 39.78000
C  34.46300 58.31400 39.95300
C  34.65300 59.60900 40.33400
C  33.37700 60.19100 40.37900
C  35.35800 57.11400 39.93600
C  35.96500 60.12100 40.76500
O  37.01000 59.47300 40.56400
C  36.18900 61.36200 41.49800
N  30.67000 61.74900 40.12100
C  31.89500 62.29600 40.48000
C  31.76100 63.80800 40.68700
C  30.24500 64.07200 40.44800
C  29.69700 62.65200 40.27800
C  32.32800 64.44100 42.04500
C  30.00000 65.00400 39.25100
C  29.51300 66.43100 39.51200
N  28.28800 60.05900 39.67700
C  27.62300 61.23400 39.87800
C  26.14700 61.02000 39.52600
C  26.10100 59.68600 39.07100
C  27.44200 59.20500 39.12900
C  25.01400 61.95700 39.65000
C  25.19800 58.67500 38.65500
O  23.98600 58.65000 38.52300
C  26.09700 57.43800 38.37400
C  25.67800 56.27800 39.24300
O  26.34600 55.97500 40.17700
O  24.49800 55.70100 38.78200
C  23.82500 54.80900 39.68000
H  32.91500 55.94900 39.21400
H  33.91500 62.20200 41.01200
H  27.69000 63.38300 40.07300
H  28.21300 55.27200 38.26500
H  30.94000 54.86900 37.95700
H  30.25700 53.54600 39.76900
H  29.23700 54.79900 40.38200
H  30.94100 54.88800 40.71500
H  30.10300 55.61500 35.93800
H  28.83200 56.95000 36.11400
H  27.64700 54.33100 36.24300
H  28.68100 54.31000 34.96600
H  35.01100 56.27400 39.33500
H  35.30600 56.80500 40.98000
H  36.40600 57.26400 39.67700
H  37.19400 61.44000 41.91200
H  35.54400 61.33800 42.37600
H  36.01300 62.25600 40.90000
H  32.41700 64.21900 39.91900
H  29.73800 64.40200 41.35400
H  31.49100 64.75500 42.66900
H  32.91200 65.32800 41.79800
H  32.94400 63.77500 42.64900
H  29.15600 64.51300 38.76600
H  30.85100 65.04500 38.57200
H  28.57400 66.78300 39.08300
H  30.31800 67.08800 39.18400
H  29.34300 66.36500 40.58700
H  24.79600 62.31300 38.64300
H  25.26400 62.85800 40.21000
H  24.17400 61.44700 40.12300
H  25.84700 57.13400 37.35800
H  23.40000 54.14500 38.92600
H  23.09200 55.36300 40.26600
H  24.51300 54.28500 40.34300

