158

Mg -2.27400 18.09200 27.72500
C  -2.62500 15.66000 30.20700
C  -3.05100 20.53800 29.92900
C  -2.37200 20.22500 25.11800
C  -1.92100 15.34400 25.30500
N  -2.74100 18.12600 29.82200
C  -2.86200 17.01300 30.65600
C  -3.18200 17.38200 32.11600
C  -3.41400 18.95200 31.92100
C  -3.06700 19.22100 30.47600
C  -4.87600 19.51600 32.34900
C  -2.10200 16.88600 33.12800
C  -1.51100 17.89500 34.08200
H  -1.07400 17.23200 35.43500
N  -2.55400 20.07600 27.54300
C  -2.77800 20.92400 28.66900
C  -2.78700 22.32600 28.12900
C  -2.55900 22.21000 26.65700
C  -2.45600 20.80600 26.36300
C  -3.06500 23.57000 29.03100
C  -2.53900 23.34300 25.68000
O  -2.56600 23.14300 24.45400
C  -2.51200 24.69200 26.22200
N  -2.15500 17.80700 25.52400
C  -2.11200 18.85800 24.72100
C  -1.86200 18.55500 23.28600
C  -1.54500 17.04600 23.39700
C  -1.91000 16.66700 24.81500
C  -2.97900 18.91800 22.30700
C  -0.08200 16.69600 23.07700
C  1.03400 17.35500 23.85100
N  -2.21400 15.89100 27.70600
C  -2.16000 15.00900 26.67600
C  -2.20100 13.68100 27.27600
C  -2.34900 13.83400 28.65500
C  -2.34900 15.23000 28.87600
C  -2.38100 12.41600 26.61500
C  -2.60200 13.12300 29.87500
O  -2.69500 11.89500 30.04700
C  -2.74500 14.37400 30.97600
C  -1.84500 14.05400 32.03700
O  -0.68400 14.36200 32.09100
O  -2.46600 13.31500 33.03500
C  -1.77100 12.88600 34.27000
H  -3.20000 21.31900 30.67700
H  -2.42000 20.91700 24.27500
H  -1.90300 14.52500 24.58300
H  -4.07200 16.83800 32.43300
H  -2.68300 19.50400 32.51100
H  -5.27200 18.86900 33.13100
H  -5.61900 19.56700 31.55300
H  -4.91700 20.53500 32.73200
H  -1.18100 16.54900 32.65200
H  -2.56100 16.00000 33.56600
H  -2.24400 18.56200 34.53600
H  -0.70400 18.46900 33.62600
H  -2.25500 24.30000 29.04900
H  -3.19100 23.35100 30.09100
H  -4.01000 23.95700 28.65000
H  -1.63400 24.89100 26.83700
H  -3.45800 24.94700 26.70000
H  -2.47100 25.41800 25.41000
H  -0.96000 19.15400 23.16100
H  -2.19000 16.36800 22.83800
H  -2.72800 19.67700 21.56600
H  -3.95000 19.15700 22.74100
H  -3.11700 18.01900 21.70600
H  0.00300 17.11700 22.07500
H  -0.07300 15.60600 23.05300
H  0.57500 18.01500 24.58700
H  1.78100 17.83700 23.21900
H  1.43900 16.60500 24.53100
H  -3.43800 12.22600 26.42600
H  -2.04700 11.57000 27.21700
H  -1.81800 12.36900 25.68300
H  -3.77000 14.30200 31.33900
H  -0.91700 12.27100 33.98700
H  -2.48500 12.25000 34.79200
H  -1.43100 13.72200 34.88200
Mg 41.86600 40.86900 26.67400
C  40.87400 43.28300 28.92300
C  42.99400 38.92500 29.21800
C  42.89800 38.63800 24.32000
C  41.20700 43.20500 24.12500
N  41.89200 41.09100 28.82000
C  41.31200 42.07700 29.49100
C  41.30100 41.75200 31.00900
C  42.34600 40.65100 31.10200
C  42.45300 40.19800 29.65000
C  43.75800 40.90400 31.46500
C  39.96600 41.61900 31.68500
C  39.56000 42.44200 32.98400
H  39.39100 41.59500 34.30300
N  42.75700 39.01600 26.72700
C  43.16000 38.36100 27.91800
C  43.66500 37.02600 27.55500
C  43.67200 36.94700 26.13800
C  43.08300 38.24300 25.66300
C  44.07900 36.01200 28.59200
C  44.20600 35.90600 25.21600
O  44.32700 36.04900 23.98600
C  44.67200 34.55300 25.79600
N  42.08700 40.94100 24.49400
C  42.46400 39.84300 23.72100
C  42.29500 40.17400 22.27500
C  41.73300 41.61400 22.20500
C  41.66000 41.96000 23.70900
C  43.68200 40.02700 21.44800
C  40.35500 41.72100 21.56400
C  40.41300 42.13600 20.08400
N  41.22800 42.88800 26.48800
C  40.96900 43.66600 25.38200
C  40.29700 44.83400 25.83200
C  40.25700 44.80500 27.24100
C  40.87100 43.58900 27.56800
C  39.78700 45.89300 24.93000
C  39.84100 45.49800 28.55300
O  39.34100 46.58400 28.69100
C  40.20300 44.46900 29.63900
C  41.12000 45.17300 30.56300
O  42.15300 45.78300 30.19200
O  40.70500 45.08100 31.89300
C  41.44100 45.71500 32.93700
H  43.32700 38.27100 30.02700
H  43.17500 37.96700 23.50400
H  40.90200 43.85800 23.30500
H  41.81100 42.64900 31.36100
H  41.96400 39.87300 31.76300
H  43.94200 40.64600 32.50800
H  44.06500 41.93300 31.27900
H  44.49600 40.38100 30.85700
H  39.85000 40.55000 31.86400
H  39.22300 41.93300 30.95300
H  38.69500 43.07600 32.79200
H  40.48800 43.00300 33.09400
H  43.53800 35.06800 28.52400
H  43.95600 36.48400 29.56700
H  45.15300 35.88900 28.45700
H  45.41700 34.62100 26.58800
H  45.18300 34.13800 24.92700
H  43.82300 33.96000 26.13700
H  41.61700 39.35600 22.03100
H  42.44500 42.27900 21.71800
H  44.53300 39.75700 22.07400
H  43.99800 40.81900 20.77100
H  43.34200 39.20000 20.82400
H  39.71700 42.50000 21.98100
H  40.01300 40.68900 21.64400
H  39.55900 42.73900 19.77500
H  40.34700 41.19300 19.54300
H  41.32700 42.67600 19.83800
H  40.59700 46.51900 24.55400
H  39.09900 46.51700 25.50000
H  39.27900 45.37300 24.11700
H  39.42400 44.06200 30.28300
H  41.66200 45.05400 33.77500
H  40.92400 46.60300 33.30000
H  42.42500 46.06700 32.62600

