158

Mg 44.12900 4.22400 48.25400
C  42.01800 6.98000 47.58700
C  41.55300 2.15800 47.79400
C  46.29700 1.65500 48.54200
C  46.81300 6.51000 48.29800
N  42.05900 4.59800 47.53800
C  41.37100 5.74400 47.37500
C  39.93500 5.50500 47.14000
C  39.77700 4.04000 47.43100
C  41.23700 3.57100 47.59100
C  38.89700 3.76900 48.69100
C  39.48800 5.91900 45.69000
C  38.29900 6.85900 45.65600
H  37.60500 6.83900 44.28500
N  43.92000 2.18000 48.03400
C  42.78400 1.52700 47.94500
C  43.04600 0.08500 48.01700
C  44.45900 -0.05200 48.24400
C  44.98200 1.33100 48.27700
C  42.07100 -0.99500 47.82300
C  45.15200 -1.37500 48.42000
O  44.57500 -2.45300 48.39300
C  46.62100 -1.48100 48.68900
N  46.14300 4.04700 48.12400
C  46.86500 2.86700 48.46100
C  48.26600 3.14700 48.88900
C  48.42900 4.66200 48.41300
C  47.00600 5.12300 48.18700
C  48.52800 2.97700 50.44600
C  49.28000 4.79200 47.15100
C  50.73500 5.06500 47.55700
N  44.44700 6.34300 48.08700
C  45.54300 7.12700 48.17700
C  45.22400 8.52300 48.07500
C  43.82300 8.51200 47.85300
C  43.40000 7.21100 47.85300
C  46.27400 9.59800 48.05100
C  42.73400 9.33700 47.60800
O  42.67600 10.55600 47.43700
C  41.38600 8.40200 47.48200
C  40.51800 8.80400 48.71200
O  40.98800 8.95900 49.81900
O  39.24000 9.13600 48.34700
C  38.52600 9.83500 49.44900
H  40.68200 1.50000 47.77600
H  47.07000 0.93300 48.81700
H  47.59800 7.26200 48.39600
H  39.39800 6.08800 47.88900
H  39.31900 3.41900 46.66100
H  38.09100 4.49200 48.81500
H  39.58300 3.91100 49.52600
H  38.54700 2.73600 48.68200
H  39.28100 5.05200 45.06300
H  40.38500 6.24900 45.16600
H  38.63800 7.87300 45.86600
H  37.49800 6.64500 46.36400
H  42.08900 -1.47200 46.84400
H  41.05300 -0.63000 47.95800
H  42.20100 -1.66800 48.67000
H  46.68700 -0.94600 49.63600
H  47.13400 -0.96200 47.87800
H  46.95500 -2.50200 48.87400
H  48.86500 2.39400 48.37900
H  48.89200 5.26700 49.19300
H  47.80500 2.34000 50.95600
H  48.62800 3.93100 50.96500
H  49.42800 2.37300 50.33100
H  48.87100 5.64400 46.60800
H  49.30800 3.84300 46.61600
H  50.88400 5.12500 48.63500
H  51.11400 5.94000 47.02900
H  51.52000 4.39700 47.20400
H  46.91500 9.35100 47.20500
H  46.93900 9.48500 48.90800
H  45.98400 10.64500 48.13900
H  40.78700 8.38900 46.57100
H  39.04800 10.66100 49.93300
H  38.28800 9.10500 50.22300
H  37.57000 10.23700 49.11300
Mg -0.22800 43.41000 26.24300
C  2.08100 42.83100 28.73800
C  -2.70000 42.29600 28.33400
C  -2.44300 43.65500 23.62600
C  2.37200 43.96300 23.99500
N  -0.22900 42.49800 28.26900
C  0.78400 42.58100 29.11800
C  0.26100 42.39800 30.58600
C  -1.15900 41.81600 30.36000
C  -1.41700 42.18300 28.89300
C  -1.41300 40.34400 30.59700
C  0.44700 43.71900 31.39900
C  1.07500 43.62200 32.76500
H  0.69500 42.34000 33.54400
N  -2.28400 43.07900 26.01900
C  -3.09400 42.62900 27.00000
C  -4.44800 42.69300 26.45200
C  -4.41200 43.16600 25.17700
C  -3.02800 43.27300 24.85700
C  -5.60800 42.19500 27.33500
C  -5.60000 43.50900 24.25300
O  -5.40200 43.81400 23.08900
C  -6.98000 43.50800 24.70400
N  -0.01700 43.53900 24.03200
C  -1.10500 43.83000 23.28800
C  -0.73600 44.33200 21.87300
C  0.76500 44.60800 22.00300
C  1.10400 44.00600 23.38800
C  -1.12700 43.34900 20.81800
C  1.20500 46.10500 22.00700
C  0.62900 47.06000 23.11000
N  1.87100 43.40400 26.28800
C  2.80300 43.63800 25.31600
C  4.10600 43.65400 25.93800
C  3.89800 43.34300 27.28400
C  2.54100 43.20200 27.40100
C  5.51600 43.81100 25.24500
C  4.52000 43.02500 28.55300
O  5.66300 42.77200 28.82800
C  3.31700 42.96700 29.58200
C  3.54200 41.76200 30.42400
O  3.57800 40.64300 29.95600
O  3.89100 42.17400 31.66200
C  4.45700 41.14600 32.60300
H  -3.54200 42.03600 28.97900
H  -3.12200 43.96900 22.83000
H  3.20700 44.19300 23.32900
H  0.82000 41.57500 31.03200
H  -1.75200 42.42300 31.04400
H  -2.02200 40.18700 31.48700
H  -0.42700 39.88100 30.63200
H  -1.82200 39.72500 29.79800
H  -0.54500 44.10500 31.63600
H  0.92100 44.48600 30.78700
H  0.61200 44.45500 33.29400
H  2.13800 43.77100 32.57800
H  -6.52700 41.96300 26.79700
H  -5.64800 42.87800 28.18300
H  -5.24800 41.26900 27.78300
H  -7.46600 42.53400 24.76400
H  -7.65000 44.10900 24.09000
H  -6.96400 43.98600 25.68400
H  -1.24800 45.24700 21.57600
H  1.40700 44.13000 21.26300
H  -0.38900 43.20200 20.03000
H  -2.01600 43.70500 20.29600
H  -1.37600 42.35300 21.18200
H  0.94700 46.60400 21.07300
H  2.29400 46.07400 22.03400
H  1.29500 47.36800 23.91600
H  -0.21300 46.59500 23.62000
H  0.31400 47.98300 22.62300
H  5.35000 44.73300 24.68800
H  5.97000 43.01500 24.65600
H  6.14700 44.11800 26.08000
H  3.48800 43.77600 30.29200
H  5.19300 40.53500 32.07900
H  3.69900 40.49900 33.04500
H  4.93100 41.79200 33.34200

