158

Mg 46.87800 16.64700 28.31700
C  44.86700 16.25000 31.14600
C  49.20600 18.24500 30.25900
C  48.64300 17.26300 25.60900
C  44.40700 14.96900 26.42700
N  46.93900 17.22300 30.40400
C  46.08500 16.92900 31.40500
C  46.67600 17.29900 32.79400
C  47.89500 18.16000 32.39800
C  48.06500 17.84900 30.89800
C  47.71300 19.71600 32.69600
C  46.97500 16.05800 33.62600
C  46.27200 16.00400 35.06200
H  46.63900 17.19600 35.98600
N  48.70000 17.59000 27.94000
C  49.57800 17.98200 28.92000
C  50.71300 18.52700 28.30600
C  50.52000 18.38600 26.88800
C  49.20700 17.77500 26.71200
C  51.97300 19.15300 29.06100
C  51.35000 18.91000 25.71900
O  50.91500 18.91200 24.57900
C  52.72400 19.53600 25.95300
N  46.47400 16.49300 26.31200
C  47.40100 16.67600 25.34500
C  46.98900 16.18700 23.96300
C  45.70900 15.47500 24.29900
C  45.49300 15.65500 25.80000
C  46.85200 17.27100 22.85200
C  45.66800 14.05800 23.77500
C  46.52100 12.97100 24.63700
N  45.00800 15.79000 28.66400
C  44.13900 15.09800 27.83800
C  42.97700 14.58200 28.60500
C  43.27100 14.95500 29.90700
C  44.46100 15.77200 29.88300
C  41.81100 13.76200 28.15900
C  42.74300 14.98500 31.27600
O  41.71600 14.54200 31.76000
C  43.92000 15.73400 32.12100
C  43.22300 16.80800 32.88600
O  43.13000 17.99900 32.54200
O  42.93100 16.32200 34.11100
C  42.07200 17.10700 35.04700
H  50.01000 18.56600 30.92500
H  49.27300 17.12400 24.72800
H  43.70900 14.42500 25.78800
H  45.84800 17.83100 33.26300
H  48.76200 17.81800 32.96300
H  46.93300 19.98700 33.40700
H  47.33100 20.16100 31.77700
H  48.69000 20.14200 32.92400
H  48.05600 15.96900 33.73500
H  46.73100 15.19600 33.00500
H  46.76900 15.11700 35.45400
H  45.18500 15.92000 35.02900
H  52.88300 18.66200 28.71700
H  52.07300 18.94900 30.12700
H  52.07500 20.21000 28.81500
H  52.62900 20.40900 26.59900
H  53.11800 19.75300 24.96000
H  53.41300 18.76000 26.28500
H  47.69900 15.45800 23.57200
H  44.85000 15.84100 23.73700
H  45.93700 17.06000 22.29800
H  47.62900 17.20800 22.09000
H  46.76400 18.23400 23.35500
H  46.20900 14.03300 22.82800
H  44.63400 13.74600 23.63200
H  47.42200 13.38600 25.08700
H  46.84400 12.20500 23.93300
H  45.83800 12.60900 25.40600
H  41.90600 13.71900 27.07400
H  40.84200 14.26200 28.13800
H  41.82400 12.75100 28.56600
H  44.31400 14.97600 32.79700
H  42.60200 17.39200 35.95500
H  41.26800 16.47400 35.42400
H  41.69100 18.00400 34.55900
Mg -5.66900 26.30400 25.81000
C  -4.14700 27.38500 28.53200
C  -7.09600 23.72100 27.62200
C  -6.67000 24.72700 22.87600
C  -3.73400 28.40100 23.79400
N  -5.48400 25.46500 27.86300
C  -4.91700 26.26600 28.81900
C  -5.35000 25.81800 30.24700
C  -6.09100 24.47300 29.92000
C  -6.23700 24.49700 28.37500
C  -5.41800 23.15300 30.43100
C  -6.16500 26.92300 31.02500
C  -6.18700 26.94400 32.61600
H  -6.08700 25.59200 33.36100
N  -6.83700 24.54400 25.34900
C  -7.42100 23.71500 26.29600
C  -8.34900 22.81200 25.62900
C  -8.20500 23.03000 24.21900
C  -7.15700 24.13600 24.10900
C  -9.19500 21.61100 26.29600
C  -8.81400 22.37600 23.15000
O  -8.53600 22.57400 21.97400
C  -9.96700 21.39200 23.37700
N  -5.24000 26.47700 23.64500
C  -5.90600 25.84400 22.66800
C  -5.51700 26.40900 21.25600
C  -4.77000 27.70900 21.57600
C  -4.57000 27.51500 23.11100
C  -4.80600 25.33900 20.39400
C  -5.61000 28.90900 21.42100
C  -4.85600 30.12200 20.77400
N  -4.33400 27.66100 26.08200
C  -3.71900 28.56100 25.21300
C  -3.03000 29.52400 25.99800
C  -3.09700 29.11300 27.33000
C  -3.94400 27.99100 27.30900
C  -2.17800 30.65900 25.52600
C  -2.64800 29.35700 28.64300
O  -1.85700 30.17900 29.06200
C  -3.34100 28.23900 29.50300
C  -2.32500 27.48900 30.16200
O  -1.62000 26.64800 29.70500
O  -2.42000 27.84300 31.52300
C  -1.84100 27.01100 32.48200
H  -7.68000 22.93700 28.10900
H  -7.10400 24.35400 21.94600
H  -3.24400 29.15500 23.17400
H  -4.50300 25.44200 30.82200
H  -7.05800 24.49700 30.42300
H  -6.09900 22.75700 31.18300
H  -4.41500 23.19100 30.85600
H  -5.32600 22.47100 29.58600
H  -7.16300 26.81300 30.60000
H  -5.82300 27.90700 30.70300
H  -7.18200 27.28400 32.90400
H  -5.41500 27.54800 33.09300
H  -8.93500 20.67900 25.79500
H  -10.25500 21.86200 26.28800
H  -8.97200 21.46100 27.35200
H  -9.64600 20.43200 23.78000
H  -10.44300 21.23800 22.40900
H  -10.67700 21.85000 24.06500
H  -6.43700 26.61300 20.70900
H  -3.76400 27.70800 21.15700
H  -4.61100 24.46500 21.01500
H  -3.84600 25.73900 20.06700
H  -5.33900 25.08200 19.47900
H  -6.16700 29.24200 22.29700
H  -6.46400 28.78800 20.75400
H  -4.69300 30.85700 21.56300
H  -5.30700 30.60600 19.90800
H  -3.83400 29.85100 20.50800
H  -2.23200 31.45700 26.26700
H  -2.53600 30.86600 24.51800
H  -1.16400 30.28900 25.37400
H  -3.96200 28.81900 30.18600
H  -0.76000 27.00200 32.62600
H  -2.20500 25.98700 32.39800
H  -2.28600 27.38000 33.40600

