158

Mg 47.18400 16.71900 28.24600
C  45.27500 16.40600 31.27200
C  49.74000 18.09700 30.08600
C  48.74500 17.24600 25.33600
C  44.33000 15.50200 26.54100
N  47.36300 17.38000 30.46200
C  46.53900 17.00100 31.54400
C  47.12400 17.50000 32.89600
C  48.51400 18.11200 32.42600
C  48.56100 17.86700 30.87900
C  48.93400 19.64500 32.71000
C  47.23600 16.41200 33.97800
C  47.04600 16.72900 35.38100
H  46.92500 18.24300 35.60900
N  48.99700 17.52900 27.75500
C  49.96000 17.97700 28.65900
C  51.18900 18.31300 27.91100
C  50.82500 18.25700 26.53400
C  49.44900 17.57500 26.47300
C  52.44100 18.74200 28.63000
C  51.63400 18.66500 25.28000
O  51.25400 18.45000 24.12000
C  52.98600 19.21300 25.48500
N  46.71100 16.12300 26.22800
C  47.47200 16.71000 25.20900
C  46.71500 16.37800 23.91400
C  45.59700 15.40300 24.27900
C  45.48800 15.70500 25.71700
C  46.31300 17.66900 23.07800
C  45.95900 13.82200 24.16900
C  44.80300 12.97900 23.58500
N  45.20700 16.20500 28.75400
C  44.17700 15.75400 27.90300
C  42.93600 15.51900 28.66100
C  43.39100 15.65600 30.03400
C  44.70000 16.11200 30.01200
C  41.57400 15.14800 28.19400
C  42.95700 15.56100 31.44200
O  41.91900 15.18600 31.87900
C  44.12500 16.10300 32.26700
C  43.67900 17.33100 33.00200
O  43.54400 18.46400 32.54600
O  43.39100 16.92100 34.26500
C  42.73800 17.97100 35.02300
H  50.58500 18.45500 30.67800
H  49.25400 17.31800 24.37300
H  43.45600 15.17600 25.97200
H  46.49200 18.34200 33.18000
H  49.31500 17.46300 32.78000
H  48.12600 20.09100 33.28900
H  48.96400 20.26400 31.81300
H  49.90400 19.64600 33.20700
H  48.21100 15.93700 33.86500
H  46.55100 15.59600 33.74900
H  47.91300 16.39500 35.95100
H  46.12800 16.29700 35.78000
H  53.30700 18.34600 28.09900
H  52.53700 18.24200 29.59400
H  52.67900 19.77900 28.86200
H  53.37300 19.57000 24.53100
H  53.55900 18.40100 25.93300
H  52.95200 20.05700 26.17400
H  47.43500 15.93700 23.22400
H  44.67900 15.62400 23.73500
H  45.24200 17.84800 23.16800
H  46.70600 17.66100 22.06100
H  46.79000 18.48200 23.62500
H  46.19300 13.30400 25.10000
H  46.82200 13.67600 23.51900
H  43.90300 13.59100 23.52200
H  44.59000 12.07100 24.14900
H  45.14900 12.64100 22.60800
H  40.86900 15.71200 28.80500
H  41.50500 14.07300 28.36000
H  41.35600 15.46600 27.17400
H  44.29100 15.29300 32.97700
H  41.84700 18.41800 34.58300
H  43.39500 18.79000 35.31400
H  42.27600 17.64100 35.95300
Mg 5.01000 53.55800 41.73500
C  4.69200 50.07300 40.53500
C  8.07100 53.58800 40.24900
C  4.87300 56.92700 41.90800
C  1.66600 53.32300 42.65500
N  6.08900 52.11100 40.27500
C  5.74200 50.75000 39.92500
C  6.81500 50.13600 38.99100
C  8.07000 51.01000 39.39100
C  7.41000 52.34000 40.04300
C  9.05300 50.20600 40.31300
C  6.42000 50.38900 37.47700
C  7.09800 49.52600 36.36100
H  6.30000 48.86000 35.20500
N  6.37900 55.02400 41.38300
C  7.52900 54.85000 40.76500
C  8.24500 56.14000 40.67500
C  7.39100 57.10600 41.18900
C  6.17300 56.39800 41.60600
C  9.55300 56.37400 40.10700
C  7.61900 58.58100 41.16200
O  8.70900 58.97500 40.75300
C  6.59600 59.56600 41.53200
N  3.55100 54.80100 42.39700
C  3.72100 56.18500 42.28000
C  2.44100 56.93700 42.42000
C  1.43400 55.86100 42.90600
C  2.22200 54.58600 42.61600
C  2.56900 58.23100 43.37300
C  0.10200 55.93100 42.25100
C  -1.08300 56.16100 43.24000
N  3.56500 52.03100 41.82500
C  2.29900 52.06500 42.27600
C  1.79900 50.72400 42.47000
C  2.72100 49.92500 41.79000
C  3.73600 50.73700 41.34700
C  0.52100 50.23600 43.13300
C  3.00400 48.53900 41.46900
O  2.38200 47.53600 41.73700
C  4.39200 48.54100 40.59000
C  4.08600 47.93300 39.32300
O  3.21200 48.25800 38.56500
O  4.92200 46.89600 39.12200
C  4.62000 46.07700 37.92500
H  9.07400 53.65000 39.82200
H  4.65800 57.99100 41.79600
H  0.65300 53.25800 43.05700
H  7.03500 49.09600 39.23100
H  8.64300 51.16700 38.47700
H  8.80300 49.15200 40.42800
H  9.00700 50.76000 41.25000
H  10.10400 50.36100 40.06700
H  6.78400 51.37800 37.19800
H  5.33700 50.34500 37.36500
H  7.33500 48.66000 36.97900
H  8.03700 49.96500 36.02400
H  10.10400 55.49800 39.76500
H  10.15100 56.92700 40.83100
H  9.51600 57.02000 39.22900
H  6.98800 60.57000 41.37300
H  6.43000 59.46200 42.60400
H  5.72600 59.44000 40.88700
H  2.11200 57.35600 41.46900
H  1.39100 55.87700 43.99500
H  3.55000 58.31700 43.84200
H  1.81200 58.06800 44.13900
H  2.28300 59.05300 42.71600
H  -0.15500 54.99800 41.75000
H  0.15500 56.70700 41.48600
H  -1.92900 55.57100 42.88600
H  -1.34600 57.21600 43.31600
H  -0.74400 55.83500 44.22300
H  -0.10300 51.11700 43.28800
H  0.68900 49.80800 44.12100
H  -0.02600 49.59900 42.43800
H  5.08600 48.01100 41.24200
H  4.16000 45.14900 38.26500
H  5.60800 45.75800 37.59300
H  3.99100 46.55300 37.17300

