158

Mg 47.26700 25.73600 28.43900
C  48.30400 27.80900 31.03000
C  46.16300 23.47100 31.01500
C  46.69500 23.44100 26.15800
C  48.88300 27.75800 26.20100
N  47.19000 25.66500 30.78200
C  47.58000 26.67200 31.55900
C  47.26000 26.39600 33.02000
C  46.78000 24.93600 33.07500
C  46.66800 24.64900 31.54200
C  47.61600 23.90700 33.74300
C  46.23300 27.38300 33.60900
C  46.65700 27.81700 35.04500
H  45.48000 27.98100 36.03300
N  46.48100 23.73500 28.56600
C  46.07600 22.98500 29.66900
C  45.67900 21.66000 29.22700
C  45.73200 21.65100 27.84300
C  46.30600 22.98200 27.44700
C  45.23000 20.65100 30.19700
C  45.25300 20.51600 26.83900
O  45.31400 20.63900 25.63000
C  44.89700 19.13900 27.40600
N  47.92500 25.48700 26.51700
C  47.45700 24.49800 25.74300
C  47.71100 24.77400 24.24700
C  48.21400 26.30000 24.31600
C  48.34100 26.57200 25.76700
C  48.84400 23.86900 23.64800
C  47.26400 27.33000 23.62200
C  47.76500 28.27300 22.52500
N  48.26200 27.46600 28.53500
C  48.90600 28.17800 27.50700
C  49.60500 29.32100 28.04200
C  49.32300 29.24200 29.44900
C  48.58800 28.07000 29.67900
C  50.53400 30.34000 27.30200
C  49.57500 29.85100 30.69200
O  50.16900 30.83500 30.89700
C  48.97700 28.96000 31.70100
C  50.04500 28.47900 32.52600
O  50.86000 27.63800 32.20600
O  49.98200 28.98500 33.81900
C  50.72400 28.30700 34.82900
H  45.75500 22.79000 31.76500
H  46.29500 22.82900 25.34700
H  49.35700 28.38700 25.44500
H  48.15200 26.42500 33.64600
H  45.76700 24.90400 33.47600
H  47.84500 23.00800 33.17000
H  46.95800 23.53200 34.52700
H  48.53000 24.28800 34.19800
H  45.19500 27.05000 33.61400
H  46.12000 28.20300 32.90000
H  47.19800 28.74600 34.86300
H  47.53100 27.35200 35.50100
H  44.21000 20.33400 29.97900
H  45.34900 21.03300 31.21100
H  45.86400 19.76400 30.20000
H  45.66000 18.59300 27.95900
H  44.53600 18.50700 26.59500
H  44.02000 19.31100 28.02900
H  46.78300 24.64500 23.69000
H  49.23500 26.42100 23.95400
H  49.69400 24.54500 23.55300
H  48.60400 23.43900 22.67600
H  49.15500 23.14600 24.40100
H  46.70500 27.87600 24.38200
H  46.56300 26.72000 23.05300
H  48.85400 28.26200 22.48500
H  47.41600 29.28100 22.74900
H  47.33000 28.06800 21.54700
H  49.86500 31.08200 26.86600
H  51.11900 29.99200 26.45100
H  51.24700 30.83100 27.96400
H  48.44100 29.60600 32.39600
H  49.99200 28.27500 35.63500
H  51.51500 29.00600 35.10200
H  51.12800 27.32400 34.58400
Mg 36.29600 49.29700 24.85400
C  36.39300 47.45900 27.80300
C  34.87800 51.93400 26.72800
C  35.83700 51.00600 22.00700
C  37.30200 46.53900 23.11900
N  35.66100 49.63700 26.95100
C  36.02600 48.81600 27.97600
C  35.82800 49.41900 29.37000
C  35.06400 50.79000 29.02100
C  35.22500 50.81100 27.45300
C  33.57800 50.81600 29.45700
C  37.18500 49.71200 30.04500
C  37.27800 49.60800 31.57300
H  35.95900 49.66400 32.43500
N  35.49400 51.27100 24.43200
C  35.04200 52.16200 25.31400
C  34.86800 53.41400 24.61900
C  35.18000 53.27500 23.27300
C  35.53800 51.80700 23.15900
C  34.49900 54.68000 25.38000
C  35.33000 54.27400 22.21000
O  35.70100 53.97200 21.11300
C  34.78600 55.63700 22.43800
N  36.33900 48.71600 22.78900
C  36.23800 49.66900 21.78700
C  36.58300 49.11600 20.37000
C  37.29100 47.82500 20.85800
C  36.98400 47.65100 22.32200
C  35.28400 48.92900 19.50600
C  38.82000 47.74100 20.75900
C  39.57400 48.22700 19.50400
N  36.76600 47.33400 25.29100
C  37.15200 46.32000 24.53600
C  37.51100 45.20700 25.34200
C  37.17700 45.55600 26.64100
C  36.75800 46.90000 26.51800
C  38.18900 44.01900 24.90200
C  37.03100 45.10200 27.96100
O  37.20100 43.98400 28.48900
C  36.68800 46.37500 28.83100
C  35.53500 46.01600 29.70100
O  34.38100 45.63200 29.41800
O  35.89000 46.02900 31.02900
C  34.96200 45.25600 31.87300
H  34.49100 52.73800 27.35700
H  35.78000 51.45000 21.01100
H  37.74200 45.69800 22.57800
H  35.31900 48.73900 30.05300
H  35.61200 51.64500 29.41600
H  32.87400 51.04500 28.65600
H  33.33500 51.54100 30.23300
H  33.36100 49.81100 29.82000
H  37.54300 50.70400 29.77200
H  37.80400 48.95100 29.56900
H  37.91900 50.41300 31.93100
H  37.77400 48.64500 31.70100
H  34.14700 54.45800 26.38700
H  33.67800 55.15900 24.84600
H  35.41500 55.26700 25.30600
H  35.47200 56.02200 23.19200
H  33.73900 55.44900 22.67800
H  34.93600 56.36300 21.63900
H  37.36000 49.72300 19.90500
H  36.87100 46.93600 20.38700
H  34.44700 49.00700 20.20100
H  35.37300 47.98700 18.96500
H  35.34700 49.78400 18.83300
H  38.90900 46.65600 20.71100
H  39.29600 48.04400 21.69200
H  38.99900 48.50500 18.62100
H  40.23400 47.41900 19.18600
H  40.27200 49.03600 19.71900
H  37.96800 43.14400 25.51400
H  39.26100 44.20900 24.95900
H  37.72300 43.86800 23.92900
H  37.56000 46.72600 29.38200
H  35.64900 45.01500 32.68300
H  34.58700 44.33300 31.43000
H  34.21000 45.96200 32.22600

