158

Mg 29.72300 57.95500 40.78400
C  27.01700 56.28000 39.36100
C  31.75300 55.65900 39.20200
C  32.41300 60.03300 41.20100
C  27.53200 60.64300 41.49900
N  29.37400 56.10400 39.55700
C  28.23200 55.63800 38.98800
C  28.42100 54.44700 38.14700
C  29.91200 54.03500 38.52700
C  30.40100 55.32300 39.14600
C  30.32200 52.76400 39.35700
C  28.21300 54.70400 36.61900
C  27.18400 53.82000 35.84200
H  26.30300 54.55600 34.89800
N  31.83600 57.79000 40.39100
C  32.40800 56.71500 39.74700
C  33.80100 56.91800 39.85400
C  34.08000 58.20000 40.46900
C  32.78500 58.75900 40.71700
C  34.79300 55.91700 39.27100
C  35.46400 58.74900 40.61400
O  36.48000 58.08400 40.31600
C  35.71500 60.03700 41.35000
N  29.95600 59.99700 41.26000
C  31.19600 60.58400 41.41500
C  31.00200 62.02700 41.81600
C  29.50000 62.21600 42.04600
C  28.93200 60.87300 41.57900
C  31.98600 62.52200 42.88200
C  28.75600 63.43300 41.38200
C  27.63400 64.08200 42.29000
N  27.72400 58.37900 40.63700
C  26.96300 59.44700 41.07900
C  25.54100 59.18800 40.77000
C  25.46800 57.88600 40.22900
C  26.85300 57.48100 40.09800
C  24.38700 60.16900 40.98400
C  24.58400 56.90400 39.67700
O  23.37500 56.89700 39.53200
C  25.58700 55.74700 39.13200
C  25.19100 54.52200 39.89800
O  24.99200 54.44500 41.07200
O  24.83400 53.47000 39.03400
C  24.22800 52.26700 39.74000
H  32.43600 54.94600 38.73400
H  33.24300 60.72200 41.37600
H  26.88800 61.48500 41.76100
H  27.75400 53.75500 38.66200
H  30.44100 53.94900 37.57800
H  30.82500 51.95200 38.83300
H  29.38700 52.33700 39.72000
H  30.97500 53.04000 40.18500
H  29.19000 54.69100 36.13600
H  28.00700 55.77300 36.56600
H  26.46500 53.36600 36.52400
H  27.76200 53.02800 35.36600
H  35.60700 55.87100 39.99500
H  35.12800 56.44700 38.37900
H  34.46800 54.90200 39.04300
H  35.37700 60.92800 40.82100
H  36.79400 60.01900 41.19600
H  35.40100 60.07000 42.39300
H  31.28500 62.63600 40.95700
H  29.26100 62.13300 43.10600
H  32.60000 63.26100 42.36900
H  32.65500 61.73200 43.22100
H  31.41800 62.98100 43.69200
H  28.35100 63.11700 40.42100
H  29.49900 64.18600 41.12000
H  27.95900 65.06800 42.62400
H  27.51300 63.59800 43.25900
H  26.63900 64.12900 41.84800
H  23.58100 59.74700 41.58300
H  23.97100 60.41200 40.00600
H  24.85200 60.98700 41.53400
H  25.34500 55.58200 38.08200
H  24.72000 51.46300 39.19200
H  23.18600 52.22900 39.42100
H  24.26300 52.22600 40.82900
Mg 16.47200 51.25200 26.17900
C  18.31900 49.75400 28.74500
C  14.19400 52.24400 28.45500
C  14.96700 52.65100 23.72400
C  19.02400 50.03300 24.07700
N  16.23800 50.97800 28.36600
C  17.16200 50.53000 29.25900
C  16.75600 50.83700 30.70300
C  15.24200 51.19800 30.61600
C  15.22400 51.52300 29.04400
C  14.17000 50.07800 30.97100
C  17.79900 51.71900 31.33000
C  17.81100 51.87800 32.82300
H  16.77500 51.12800 33.65600
N  14.75800 52.32600 26.06000
C  14.01300 52.62900 27.09400
C  13.01000 53.57100 26.63700
C  13.16800 53.75800 25.20400
C  14.30500 52.85800 24.91600
C  11.91100 54.08800 27.53100
C  12.31000 54.46600 24.17400
O  12.57000 54.48700 22.94000
C  10.93300 54.96100 24.50100
N  16.83600 51.06800 24.20700
C  16.03300 51.85400 23.37600
C  16.64300 51.92100 21.97700
C  17.95700 51.06400 22.14600
C  17.98400 50.67200 23.57900
C  15.61800 51.47800 20.95700
C  19.19500 51.79200 21.58500
C  19.69000 53.06000 22.31400
N  18.21000 49.98600 26.32500
C  19.16200 49.59800 25.38600
C  20.31000 48.90100 25.95900
C  19.94900 48.84200 27.36300
C  18.72700 49.59000 27.49300
C  21.56800 48.47300 25.23500
C  20.36200 48.44300 28.71800
O  21.34800 47.87200 29.14300
C  19.40700 49.18600 29.66700
C  18.95600 48.25000 30.68900
O  17.96200 47.51400 30.48200
O  19.61500 48.43100 31.85700
C  19.11800 47.53500 32.99100
H  13.54900 52.66400 29.23000
H  14.58500 53.36300 22.99000
H  19.85700 49.83900 23.39800
H  16.90400 49.82500 31.07900
H  15.03800 52.12500 31.15300
H  14.74700 49.17800 31.18300
H  13.58000 49.96000 30.06200
H  13.44400 50.17600 31.77900
H  17.69600 52.73700 30.95400
H  18.76900 51.38700 30.96100
H  17.74200 52.95300 32.98900
H  18.80800 51.53500 33.09900
H  11.72500 55.13200 27.28000
H  12.12400 53.84900 28.57300
H  11.00400 53.51200 27.34900
H  10.98100 55.68500 25.31400
H  10.50800 54.04100 24.90200
H  10.38100 55.22300 23.59800
H  16.94500 52.96200 21.86800
H  17.87700 50.14200 21.57100
H  15.10600 52.30600 20.46600
H  14.87100 50.87700 21.47700
H  16.08600 50.91500 20.15000
H  18.88000 52.09900 20.58800
H  20.08200 51.16200 21.52500
H  19.51000 53.95200 21.71500
H  20.70900 53.02800 22.69800
H  19.06900 53.23500 23.19300
H  21.94000 49.24600 24.56300
H  21.43600 47.51700 24.72800
H  22.33000 48.36000 26.00600
H  20.01200 50.03700 29.98200
H  18.78600 48.22200 33.76900
H  20.02000 46.96800 33.22300
H  18.21400 46.94900 32.82400

