158

Mg 36.30100 49.63400 24.47800
C  36.35900 47.99400 27.57300
C  34.88900 52.32500 26.01500
C  35.84200 50.93000 21.39600
C  37.41300 46.65000 22.96600
N  35.54300 49.97000 26.57900
C  35.82200 49.22900 27.68800
C  35.15400 49.93700 28.89400
C  34.71100 51.38600 28.37100
C  35.13200 51.21200 26.88700
C  33.24500 52.01100 28.71200
C  36.05100 49.89500 30.20100
C  35.39000 49.11300 31.25400
H  35.10300 49.83800 32.59800
N  35.55400 51.44200 23.80700
C  35.06500 52.44100 24.65300
C  34.76000 53.58200 23.76500
C  34.96300 53.21800 22.40200
C  35.44900 51.79800 22.47800
C  34.11200 54.85300 24.29900
C  34.84400 54.08300 21.13900
O  35.11300 53.73100 19.98400
C  34.63000 55.55100 21.34500
N  36.66300 48.86100 22.45200
C  36.34800 49.60500 21.37000
C  36.51500 48.76000 20.12900
C  37.18400 47.44800 20.64300
C  37.09200 47.62000 22.10400
C  35.15900 48.54700 19.39200
C  38.61500 47.20300 20.18800
C  38.63100 46.33900 18.91000
N  36.78500 47.66100 25.05300
C  37.23400 46.64400 24.37500
C  37.59300 45.52600 25.27300
C  37.35500 46.11100 26.55300
C  36.77900 47.39300 26.33500
C  38.29100 44.21300 24.87300
C  37.44500 45.79600 27.96300
O  37.72500 44.74800 28.50700
C  36.56400 46.88000 28.61100
C  35.31400 46.30100 29.05000
O  34.41900 45.99500 28.27000
O  35.41700 45.94700 30.35600
C  34.33400 45.14000 30.90700
H  34.47500 53.15200 26.59500
H  35.69700 51.38000 20.41200
H  37.81800 45.75500 22.48800
H  34.26600 49.32600 29.05600
H  35.39700 52.18300 28.65600
H  33.45200 52.84000 29.38900
H  32.76800 51.23500 29.31000
H  32.55800 52.21000 27.88900
H  36.28800 50.86200 30.64400
H  36.99700 49.49700 29.83400
H  36.13000 48.34100 31.46400
H  34.52000 48.54200 30.93000
H  34.10000 54.89000 25.38800
H  33.14100 54.90400 23.80700
H  34.71200 55.71900 24.01800
H  33.61400 55.73100 21.69800
H  34.77000 56.05300 20.38700
H  35.40300 55.92600 22.01500
H  37.25000 49.19700 19.45300
H  36.55400 46.57300 20.48800
H  34.45300 49.33500 19.65200
H  34.65700 47.58000 19.43300
H  35.29000 48.76100 18.33100
H  39.08300 46.57100 20.94200
H  39.22100 48.06200 19.89800
H  37.71800 46.26700 18.32000
H  38.74100 45.35600 19.36800
H  39.56900 46.43800 18.36300
H  39.21300 44.29400 24.29600
H  37.62600 43.48900 24.40300
H  38.74500 43.94300 25.82700
H  37.04100 47.39200 29.44700
H  34.35500 44.13600 30.48200
H  33.31800 45.53100 30.85800
H  34.54800 45.08700 31.97500
Mg -2.08900 34.36300 26.93500
C  -3.63000 32.54100 29.48800
C  -0.74400 36.41800 29.27100
C  -0.72900 36.01400 24.40600
C  -3.94800 32.43300 24.61400
N  -2.30600 34.64500 29.16500
C  -2.75500 33.57700 29.94900
C  -2.42900 33.89200 31.39100
C  -1.67100 35.29300 31.38600
C  -1.55300 35.50500 29.85600
C  -2.17700 36.45800 32.21500
C  -1.74300 32.68800 32.14300
C  -1.35200 32.88600 33.64200
H  -1.83900 31.88600 34.71900
N  -0.93900 35.95500 26.79200
C  -0.46200 36.67900 27.87500
C  0.47600 37.60500 27.33200
C  0.61300 37.42100 25.97100
C  -0.30600 36.40700 25.62500
C  1.11300 38.52700 28.33100
C  1.45100 38.22200 24.94600
O  1.41400 38.03500 23.76700
C  2.40700 39.21500 25.38200
N  -2.42000 34.28100 24.78500
C  -1.70800 35.07000 23.98300
C  -1.90100 34.73500 22.48100
C  -2.94800 33.55900 22.52100
C  -3.22900 33.44200 24.02900
C  -2.35400 36.00800 21.74700
C  -2.46600 32.18200 21.89500
C  -1.33400 31.39300 22.52200
N  -3.53000 32.83000 27.00200
C  -4.03400 32.07300 25.96600
C  -4.91700 31.09800 26.48200
C  -4.83300 31.24400 27.87700
C  -3.89200 32.27400 28.13200
C  -5.71000 30.10900 25.69800
C  -5.31400 30.77300 29.13700
O  -6.15500 29.97500 29.41700
C  -4.45900 31.49600 30.24700
C  -5.29300 32.08700 31.26600
O  -5.92500 33.10300 30.97600
O  -5.32700 31.38800 32.47900
C  -6.44700 31.73200 33.37200
H  -0.34000 37.04700 30.06600
H  -0.39000 36.60900 23.55500
H  -4.56100 31.79400 23.97400
H  -3.39300 34.14100 31.83600
H  -0.70500 35.06300 31.83400
H  -2.91500 36.06000 32.91100
H  -2.73400 36.99400 31.44700
H  -1.53700 37.17400 32.73000
H  -0.93800 32.32200 31.50700
H  -2.51000 31.91300 32.14300
H  -1.85000 33.82200 33.89600
H  -0.26600 32.94500 33.71200
H  1.93900 39.12500 27.94600
H  1.52700 37.89500 29.11700
H  0.31500 39.06900 28.83800
H  1.95600 40.14100 25.73800
H  2.89700 39.59400 24.48500
H  3.14000 38.86100 26.10700
H  -0.95500 34.41400 22.04600
H  -3.89500 33.88200 22.09000
H  -2.42700 36.87300 22.40500
H  -3.31600 35.89700 21.24600
H  -1.56800 36.17600 21.01000
H  -2.07700 32.54100 20.94100
H  -3.35800 31.56600 21.78800
H  -0.54200 31.29300 21.77900
H  -1.75400 30.43200 22.81700
H  -0.84400 31.81100 23.40100
H  -6.63200 30.48300 25.25200
H  -5.86200 29.19100 26.26600
H  -5.02100 29.69500 24.96200
H  -3.80200 30.79200 30.75800
H  -6.56400 32.80900 33.48600
H  -6.26000 31.30500 34.35700
H  -7.35000 31.21500 33.04700

