158

Mg -11.52600 38.31700 42.43100
C  -9.29800 35.83800 41.20400
C  -10.04700 40.56000 40.36600
C  -14.23000 40.25100 42.66600
C  -13.37200 35.63600 43.83000
N  -9.97500 38.20400 40.87800
C  -9.11300 37.10900 40.62900
C  -7.99100 37.43500 39.63800
C  -8.15800 38.98800 39.43600
C  -9.42000 39.32100 40.35600
C  -6.86200 39.83400 39.78800
C  -7.99300 36.54500 38.28900
C  -6.78400 35.65000 38.13600
H  -5.65300 36.18800 37.28600
N  -11.96500 40.19300 41.82300
C  -11.16000 40.99200 41.01100
C  -11.75500 42.28900 40.89100
C  -12.99600 42.31100 41.56800
C  -13.09400 40.87800 42.07200
C  -11.00200 43.48900 40.22800
C  -13.93500 43.45500 41.79600
O  -13.71500 44.50500 41.20000
C  -15.18400 43.47500 42.72200
N  -13.46900 38.00700 43.23300
C  -14.41700 38.98400 43.17600
C  -15.84400 38.47200 43.55900
C  -15.59400 36.98800 43.94400
C  -14.04500 36.83300 43.61700
C  -16.37000 39.31000 44.72500
C  -16.57000 35.97700 43.23800
C  -17.18200 34.85000 44.04000
N  -11.29900 36.16900 42.66300
C  -12.10600 35.30600 43.36300
C  -11.43300 34.02100 43.45700
C  -10.27200 34.14500 42.61700
C  -10.27700 35.46300 42.14100
C  -11.94500 32.81300 44.16300
C  -9.07800 33.49800 41.99200
O  -8.66800 32.38800 41.97400
C  -8.45700 34.59300 41.02600
C  -7.05600 34.80800 41.43300
O  -6.16600 34.05300 41.08900
O  -6.83500 35.85700 42.28400
C  -5.52200 36.03500 42.85500
H  -9.43400 41.18000 39.70900
H  -15.12800 40.87200 42.70200
H  -13.89400 34.77900 44.26000
H  -7.03500 37.32600 40.15000
H  -8.32300 39.14500 38.37000
H  -7.29300 40.68800 40.31200
H  -6.34600 40.21700 38.90700
H  -6.13200 39.34000 40.42900
H  -7.98700 37.20700 37.42300
H  -8.95300 36.03000 38.25300
H  -7.13300 34.63700 37.93500
H  -6.28600 35.49400 39.09300
H  -11.38300 43.75700 39.24200
H  -9.92000 43.37000 40.28300
H  -11.12200 44.41500 40.79100
H  -15.01500 42.96800 43.67200
H  -15.99000 42.98900 42.17300
H  -15.42900 44.52700 42.86600
H  -16.48400 38.59600 42.68600
H  -15.67400 36.85000 45.02200
H  -15.60000 40.03800 44.97800
H  -16.56600 38.77800 45.65600
H  -17.17900 39.99400 44.46500
H  -15.94600 35.59500 42.43000
H  -17.23900 36.55800 42.60400
H  -16.88400 33.91200 43.57200
H  -18.26800 34.81300 43.94600
H  -16.95000 34.89300 45.10400
H  -12.37700 33.11400 45.11700
H  -11.09900 32.13800 44.29500
H  -12.71400 32.36400 43.53400
H  -8.48800 34.22900 39.99900
H  -5.54600 36.88500 43.53700
H  -4.70200 36.14100 42.14500
H  -5.40800 35.18500 43.52800
Mg -2.22500 35.01200 26.35100
C  -3.70000 33.18700 28.93600
C  -0.85700 37.00000 28.82600
C  -0.78500 36.79300 23.91500
C  -3.52100 32.77200 24.10900
N  -2.48800 35.20000 28.71200
C  -2.94400 34.22600 29.52400
C  -2.66000 34.40000 30.96900
C  -1.77300 35.74700 30.87300
C  -1.72000 36.09400 29.38400
C  -2.20600 36.94600 31.69700
C  -1.94100 33.20300 31.61600
C  -2.53300 32.83100 32.99500
H  -1.55200 32.84700 34.11100
N  -1.02600 36.68000 26.33600
C  -0.58800 37.32700 27.44200
C  0.10900 38.57500 27.03700
C  0.09900 38.52100 25.63700
C  -0.57000 37.29600 25.22600
C  0.72700 39.67800 28.05700
C  0.73900 39.50700 24.56300
O  0.65700 39.29000 23.37600
C  1.22900 40.79000 25.00900
N  -2.23300 34.81600 24.30800
C  -1.58400 35.64200 23.48300
C  -1.67700 35.14800 21.99000
C  -2.02700 33.64900 22.21900
C  -2.62100 33.72900 23.59400
C  -2.75900 35.96700 21.23400
C  -0.82000 32.54900 22.18900
C  -0.84800 31.70800 20.94000
N  -3.51700 33.42500 26.40800
C  -4.03000 32.58800 25.44600
C  -4.80900 31.48100 26.02200
C  -4.68700 31.70700 27.42100
C  -3.92000 32.90700 27.57900
C  -5.41900 30.26300 25.21500
C  -5.07100 31.12800 28.65700
O  -5.60900 30.11100 28.92900
C  -4.47700 32.10900 29.70800
C  -5.60000 32.74300 30.52100
O  -6.37000 33.55200 30.10900
O  -5.51200 32.22100 31.80000
C  -6.43200 32.70300 32.87000
H  -0.21100 37.46200 29.57500
H  -0.31700 37.35000 23.10100
H  -3.73900 31.99200 23.37600
H  -3.57400 34.59100 31.53100
H  -0.75600 35.48900 31.16600
H  -1.34500 37.40000 32.18800
H  -3.01400 36.82000 32.41700
H  -2.58000 37.69700 31.00100
H  -0.89400 33.47400 31.75400
H  -1.92300 32.31200 30.98900
H  -3.09900 31.89900 32.98400
H  -3.27000 33.60000 33.22700
H  0.53200 40.68800 27.69800
H  1.79200 39.55400 28.25500
H  0.08700 39.74400 28.93700
H  1.61700 41.38500 24.18200
H  1.98200 40.65900 25.78600
H  0.38300 41.31700 25.45100
H  -0.74900 35.32900 21.44600
H  -2.87200 33.46600 21.55500
H  -2.78500 35.94200 20.14400
H  -2.76600 36.97600 21.64700
H  -3.77400 35.68500 21.51300
H  -0.92900 31.78200 22.95600
H  0.12700 33.07400 22.31100
H  -1.06000 32.42400 20.14600
H  -1.68500 31.01200 20.88800
H  0.09300 31.20200 20.72400
H  -5.96200 30.71300 24.38400
H  -6.00100 29.69700 25.94200
H  -4.62200 29.67200 24.76500
H  -3.80500 31.53000 30.34200
H  -7.14200 33.43000 32.47800
H  -5.88200 33.10700 33.72000
H  -7.01500 31.81800 33.12500

