158

Mg 16.87600 -1.19300 27.84200
C  16.11200 0.79100 30.62400
C  19.22500 -2.93200 29.70300
C  17.90100 -2.94200 25.05900
C  14.75900 0.76500 25.86500
N  17.59200 -1.05500 29.86700
C  17.10300 -0.19000 30.84600
C  17.68200 -0.57700 32.20900
C  18.90000 -1.56600 31.90500
C  18.61000 -1.86100 30.38100
C  20.39300 -0.98700 32.12100
C  16.70200 -1.18000 33.25100
C  16.50200 -0.46800 34.53900
H  17.81100 0.25200 35.06400
N  18.17200 -2.86800 27.49300
C  19.11300 -3.39600 28.35100
C  19.79300 -4.59600 27.72800
C  19.32200 -4.58800 26.37600
C  18.38200 -3.44200 26.24100
C  20.81000 -5.50700 28.32600
C  19.72200 -5.52200 25.19300
O  19.33400 -5.43800 24.04900
C  20.59200 -6.75700 25.27400
N  16.34400 -1.21500 25.75200
C  17.10100 -1.81700 24.81900
C  16.74100 -1.37200 23.35900
C  15.60700 -0.27100 23.69300
C  15.52100 -0.18200 25.20200
C  17.95300 -0.77900 22.64200
C  14.20700 -0.65400 23.07800
C  13.65100 0.41100 22.08300
N  15.69500 0.45000 28.17100
C  14.80500 1.05400 27.29400
C  14.06100 2.08700 27.94700
C  14.49000 1.99800 29.31100
C  15.50900 1.05400 29.38300
C  13.09500 2.99900 27.38900
C  14.35600 2.60800 30.57400
O  13.55300 3.43000 30.99700
C  15.39900 1.75900 31.59100
C  16.19100 2.72300 32.31000
O  17.18700 3.22400 31.90400
O  15.66100 3.01400 33.58900
C  16.44400 3.99800 34.38400
H  19.99600 -3.50500 30.22300
H  18.36200 -3.34400 24.15400
H  14.20000 1.51500 25.30100
H  17.99600 0.43700 32.45700
H  18.75200 -2.45500 32.51900
H  20.90800 -1.49800 32.93500
H  20.32300 0.04500 32.46700
H  20.98700 -1.09600 31.21400
H  16.82900 -2.22700 33.52800
H  15.72200 -1.13700 32.77400
H  16.18500 -1.23200 35.24900
H  15.64900 0.18400 34.34700
H  20.65900 -6.56700 28.12000
H  20.97200 -5.24700 29.37200
H  21.75000 -5.32700 27.80500
H  20.41300 -7.29800 26.20300
H  21.60200 -6.35900 25.36000
H  20.51600 -7.39400 24.39200
H  16.45200 -2.20100 22.71400
H  15.90300 0.75300 23.46200
H  17.83700 0.19500 22.16500
H  18.30400 -1.51600 21.92000
H  18.78800 -0.71600 23.34000
H  13.42600 -0.70300 23.83700
H  14.36200 -1.61200 22.58100
H  14.39000 1.18500 21.87400
H  12.87100 0.94600 22.62400
H  13.29700 -0.20400 21.25600
H  13.14000 3.05900 26.30100
H  13.29000 4.01800 27.72500
H  12.10400 2.72900 27.75400
H  14.78600 1.21500 32.30900
H  15.89500 4.89900 34.10900
H  17.48000 4.20800 34.12000
H  16.23100 3.76700 35.42800
Mg 35.45900 3.12500 29.50700
C  33.43300 4.20900 32.18300
C  38.20700 3.03800 31.60500
C  37.58300 2.73200 26.87600
C  32.77900 3.36400 27.38500
N  35.77100 3.47100 31.69300
C  34.78300 3.86300 32.55200
C  35.32500 3.80700 33.93800
C  36.84600 3.79300 33.74000
C  37.01000 3.47300 32.27900
C  37.61400 5.03400 34.25000
C  34.59300 2.63400 34.74600
C  34.25200 2.92600 36.23400
H  35.25300 3.84000 37.05500
N  37.51200 2.76400 29.26200
C  38.46500 2.70700 30.25300
C  39.66000 2.09500 29.68500
C  39.62300 2.13000 28.30900
C  38.20000 2.67100 28.04200
C  40.89400 1.66500 30.56500
C  40.71300 1.82400 27.23100
O  40.59100 1.83700 26.01000
C  42.08400 1.41900 27.74500
N  35.24000 3.13300 27.48300
C  36.19100 2.88200 26.56500
C  35.72000 2.93700 25.10500
C  34.17200 2.85300 25.34000
C  34.02400 3.16400 26.84200
C  36.19400 4.16800 24.25400
C  33.60300 1.40900 25.03400
C  32.51800 1.39000 23.95700
N  33.44800 3.60600 29.70500
C  32.47300 3.68600 28.76200
C  31.16200 4.03600 29.34900
C  31.44800 4.26000 30.72400
C  32.91900 4.11400 30.82600
C  29.80100 4.06500 28.56200
C  30.97100 4.65700 32.04200
O  29.83800 4.84900 32.52800
C  32.19000 4.60800 32.99400
C  32.31500 5.90200 33.71900
O  32.31600 7.02700 33.26500
O  32.23300 5.68000 35.04500
C  32.35700 6.85500 35.90900
H  39.04400 2.90100 32.29400
H  38.12700 2.42400 25.98100
H  31.87000 3.42900 26.78400
H  35.06200 4.78700 34.33500
H  37.25800 3.02300 34.39300
H  36.90800 5.85900 34.35000
H  38.46400 5.22700 33.59600
H  38.03300 4.78300 35.22400
H  35.28800 1.79500 34.78300
H  33.66200 2.41000 34.22600
H  34.31300 1.97100 36.75700
H  33.24100 3.31600 36.34400
H  41.16900 0.67300 30.20800
H  40.55700 1.66900 31.60100
H  41.71400 2.37800 30.65600
H  42.66800 2.08000 28.38600
H  42.62300 1.03600 26.87800
H  41.98300 0.49800 28.31900
H  36.14700 2.01800 24.70400
H  33.76800 3.66700 24.73800
H  37.16000 4.35100 24.72400
H  35.55900 5.04900 24.16400
H  36.52700 3.92400 23.24600
H  33.13400 1.10400 25.96900
H  34.40700 0.72100 24.77400
H  32.20500 2.43400 23.92600
H  31.63800 0.79400 24.20200
H  32.95500 0.99900 23.03900
H  29.70200 3.14300 27.98900
H  29.95400 4.88100 27.85500
H  28.97800 4.08400 29.27700
H  32.01900 3.81900 33.72600
H  33.39700 7.17000 35.83200
H  32.13300 6.56800 36.93700
H  31.66200 7.67900 35.74400

