158

Mg 17.42000 51.40600 26.02300
C  19.32400 49.55700 28.16100
C  15.11200 51.98400 28.49400
C  15.33900 52.81400 23.62400
C  19.48600 50.39200 23.32500
N  17.25300 50.77600 28.11800
C  18.22300 50.12300 28.80500
C  18.08300 50.36500 30.28000
C  16.56300 50.77600 30.37700
C  16.30100 51.23700 28.94300
C  15.57300 49.63800 30.83500
C  19.10700 51.33900 30.93900
C  19.44700 51.28200 32.44200
H  18.48900 50.53000 33.34500
N  15.39800 52.22200 26.05900
C  14.70800 52.49500 27.22200
C  13.44800 53.08800 26.83000
C  13.50500 53.30700 25.37700
C  14.82700 52.72400 24.96900
C  12.39000 53.47100 27.85500
C  12.48000 53.90600 24.41100
O  12.62100 54.11100 23.21100
C  11.13500 54.35400 24.92500
N  17.43400 51.57800 23.83000
C  16.50800 52.29900 23.07100
C  16.82300 52.45300 21.62300
C  18.12200 51.62600 21.40500
C  18.41000 51.20300 22.94800
C  15.63300 51.92500 20.69500
C  19.24600 52.42500 20.67600
C  20.42100 51.61700 20.14900
N  19.11400 50.36000 25.79000
C  19.74800 49.89500 24.64900
C  20.86100 49.06100 24.98400
C  20.78700 48.93500 26.43600
C  19.66100 49.64200 26.82800
C  21.86000 48.53200 24.00400
C  21.40500 48.39300 27.61000
O  22.33400 47.61700 27.62000
C  20.60600 48.88900 28.82000
C  20.23700 47.71500 29.66100
O  19.47700 46.85000 29.42400
O  20.76800 47.92200 30.91100
C  20.35200 46.94700 31.99800
H  14.46700 52.22300 29.34300
H  14.76600 53.34500 22.86100
H  20.15200 50.10200 22.50900
H  18.18700 49.38900 30.75300
H  16.44200 51.59000 31.09200
H  15.33700 49.58700 31.89800
H  16.02600 48.67300 30.60700
H  14.66500 49.64600 30.23300
H  18.90500 52.34400 30.57000
H  20.07600 51.08300 30.51000
H  19.60200 52.26500 32.88600
H  20.44500 50.87700 32.61100
H  11.31000 53.37300 27.74800
H  12.55100 54.54100 27.98900
H  12.59600 53.03700 28.83300
H  11.23600 55.22200 25.57700
H  10.54900 53.51100 25.28900
H  10.55100 54.64900 24.05300
H  17.09300 53.50000 21.48800
H  17.99000 50.66600 20.90500
H  15.20900 51.06800 21.22000
H  16.08500 51.66400 19.73900
H  14.86200 52.64600 20.42300
H  19.63700 53.10400 21.43400
H  18.78900 52.99700 19.86800
H  21.40100 51.86000 20.55700
H  20.40500 51.66800 19.06000
H  20.38900 50.54700 20.35400
H  21.28400 48.08600 23.19400
H  22.48100 47.88400 24.62300
H  22.46200 49.36000 23.62900
H  21.19400 49.62200 29.37300
H  19.29300 46.71100 31.90200
H  20.34800 47.59600 32.87400
H  21.11600 46.18100 32.12900
Mg 0.86600 42.59200 26.10100
C  2.45900 42.51200 29.23800
C  -2.11000 41.88700 27.63000
C  -0.50100 41.87200 23.05200
C  4.00000 43.00000 24.62600
N  0.27400 42.38700 28.20300
C  1.08800 42.31900 29.31700
C  0.24800 42.00100 30.62100
C  -1.20900 41.70200 30.03100
C  -1.04900 42.01300 28.51000
C  -1.65100 40.27700 30.35000
C  0.30400 43.17700 31.65800
C  0.88900 42.80800 32.99200
H  0.54000 41.52600 33.74000
N  -1.03700 42.12000 25.43600
C  -2.10900 42.00700 26.27400
C  -3.25600 41.94600 25.43500
C  -2.85500 41.92300 24.04300
C  -1.41200 41.88800 24.10500
C  -4.64900 41.87000 26.06500
C  -3.62100 41.77700 22.76900
O  -3.16200 41.61100 21.68900
C  -5.08400 41.91800 22.84900
N  1.58400 42.46200 24.19800
C  0.85800 42.10600 23.12800
C  1.73800 41.98500 21.88400
C  3.08800 42.73600 22.30300
C  2.88600 42.76300 23.83100
C  1.98200 40.49000 21.57000
C  3.23200 44.13100 21.62900
C  2.63400 45.35000 22.46600
N  2.82700 42.74000 26.80300
C  3.97000 42.99400 26.07300
C  5.06100 43.21800 26.93200
C  4.49600 43.01900 28.22000
C  3.16600 42.75200 28.05200
C  6.48000 43.53500 26.56100
C  4.84200 42.96800 29.55800
O  6.01100 43.06600 30.03400
C  3.51300 42.63500 30.33600
C  3.75400 41.31100 30.93500
O  3.75200 40.24100 30.34500
O  4.06300 41.43000 32.23700
C  4.44900 40.24100 33.09500
H  -2.97600 41.42600 28.10800
H  -0.88800 41.88300 22.03100
H  5.00900 43.09700 24.22100
H  0.73800 41.11000 31.01300
H  -1.95100 42.41300 30.39400
H  -1.69400 39.63800 29.46800
H  -2.66000 40.54000 30.67100
H  -1.13100 39.69200 31.10900
H  -0.72500 43.52400 31.75500
H  0.93700 44.00400 31.33500
H  0.51100 43.55600 33.68900
H  1.97300 42.90200 32.93500
H  -4.54100 42.36200 27.03200
H  -4.97200 40.84500 26.24500
H  -5.33400 42.47600 25.47100
H  -5.44300 41.12500 23.50600
H  -5.39700 41.77300 21.81500
H  -5.43800 42.83100 23.32800
H  1.26400 42.46400 21.02700
H  4.02500 42.22500 22.08400
H  1.48000 40.31700 20.61800
H  1.66000 39.82200 22.36900
H  3.03300 40.21100 21.48800
H  2.74200 44.18200 20.65700
H  4.26000 44.29200 21.30500
H  3.41500 45.99800 22.86300
H  1.95600 44.98900 23.24000
H  2.11300 45.98500 21.74900
H  6.47100 44.26900 25.75500
H  7.00100 42.70200 26.09000
H  7.05300 43.91200 27.40900
H  3.17500 43.38600 31.05100
H  5.51400 40.31800 33.31700
H  4.41600 39.30200 32.54300
H  3.75800 39.92100 33.87500

