158

Mg 1.79300 8.98900 26.98100
C  2.32600 10.79000 29.93100
C  1.55800 6.16100 28.96900
C  1.45000 7.23400 24.25000
C  2.15700 11.80900 25.20100
N  2.11000 8.50900 29.34300
C  2.05200 9.48600 30.30000
C  1.74200 8.86800 31.69300
C  1.83300 7.32900 31.30300
C  1.75100 7.27500 29.79800
C  3.08400 6.65900 32.02000
C  0.42200 9.35500 32.24400
C  0.16100 9.29100 33.73300
H  1.26400 8.85200 34.62900
N  1.67100 6.89600 26.62200
C  1.50400 5.94900 27.52700
C  1.29600 4.68400 26.79700
C  1.33500 4.96100 25.39400
C  1.50700 6.39700 25.36800
C  1.06500 3.37300 27.52800
C  1.22000 4.05400 24.23100
O  1.28200 4.33800 23.01400
C  1.33300 2.56000 24.56700
N  1.70900 9.46700 24.92400
C  1.50900 8.60200 23.99000
C  1.42600 9.22500 22.58300
C  1.37400 10.73900 23.02500
C  1.80700 10.71000 24.44800
C  2.63500 8.90400 21.63000
C  0.02600 11.50000 22.92700
C  -0.64600 11.78300 21.58600
N  2.09700 10.90300 27.39300
C  2.26400 11.99800 26.59200
C  2.52900 13.18400 27.37600
C  2.59300 12.70600 28.68500
C  2.32200 11.29900 28.61600
C  2.78600 14.58400 26.88900
C  2.81800 13.21900 30.00700
O  3.10500 14.29800 30.45600
C  2.51800 11.97000 30.89900
C  3.60500 11.84900 31.86500
O  4.75500 11.80000 31.57100
O  3.03400 11.96800 33.12600
C  4.01600 12.17400 34.18100
H  1.50100 5.23700 29.54700
H  1.32200 6.65100 23.33500
H  2.43200 12.68900 24.61700
H  2.54900 9.36000 32.23700
H  0.89500 6.93300 31.69300
H  3.11100 6.88400 33.08700
H  3.98900 7.10000 31.60100
H  3.15200 5.59600 31.79000
H  -0.42100 8.83200 31.79200
H  0.27900 10.38700 31.92200
H  -0.66000 8.58000 33.82500
H  -0.12000 10.29000 34.06600
H  2.04200 3.07200 27.90500
H  0.57100 2.57000 26.98200
H  0.54400 3.57000 28.46500
H  2.04500 2.34900 25.36500
H  1.49700 2.04900 23.61800
H  0.31600 2.30800 24.86400
H  0.47300 8.92100 22.14900
H  2.18900 11.27300 22.53600
H  3.41300 8.62600 22.34100
H  2.96100 9.76900 21.05200
H  2.31500 8.09100 20.97800
H  0.19700 12.49900 23.32800
H  -0.60800 10.89300 23.57300
H  -0.58600 12.83500 21.30500
H  -1.68800 11.46500 21.61600
H  -0.11300 11.29400 20.77100
H  3.31500 14.58200 25.93600
H  3.24300 15.16900 27.68700
H  1.79000 15.00200 26.73900
H  1.57800 12.28000 31.35600
H  4.81400 12.83500 33.84100
H  4.50700 11.22700 34.40700
H  3.43100 12.49100 35.04300
Mg 36.13200 2.92800 30.52500
C  33.46400 3.85500 32.57600
C  38.24200 3.33300 33.19900
C  38.75600 2.28400 28.38800
C  34.01500 2.95700 27.68800
N  35.89600 3.72300 32.51100
C  34.67600 3.82300 33.20400
C  34.87700 3.81900 34.70200
C  36.37600 4.20000 34.79000
C  36.91700 3.79300 33.44500
C  36.52700 5.63100 35.10700
C  34.56900 2.40200 35.33000
C  34.09200 2.35200 36.79800
H  34.90500 3.28600 37.77900
N  38.14400 2.50000 30.81600
C  38.82500 2.76000 31.99300
C  40.13000 2.17500 31.75500
C  40.24100 1.81600 30.39400
C  39.02000 2.25100 29.78900
C  41.20500 2.17100 32.76000
C  41.42700 1.00700 29.63000
O  41.39400 0.78000 28.41600
C  42.73200 0.64200 30.33700
N  36.40500 2.82700 28.38700
C  37.56200 2.58800 27.72100
C  37.41500 2.32900 26.23000
C  35.88200 2.35500 26.03800
C  35.37600 2.68000 27.50000
C  38.17600 3.42100 25.44000
C  35.37500 0.95600 25.58700
C  33.96600 1.00700 24.96500
N  34.20200 3.40400 30.16600
C  33.43000 3.20100 28.97700
C  32.03400 3.45700 29.33500
C  32.05400 3.75100 30.72100
C  33.33100 3.62800 31.17700
C  30.83500 3.38400 28.45500
C  31.22400 4.18700 31.86500
O  30.03200 4.39100 31.88000
C  32.11000 4.22000 33.12000
C  32.03200 5.55600 33.80200
O  32.27900 6.66500 33.32500
O  31.73200 5.35900 35.12500
C  31.84500 6.57600 35.90400
H  38.95500 3.30800 34.02600
H  39.58000 1.94500 27.75600
H  33.27800 2.95000 26.88300
H  34.28800 4.59000 35.19800
H  36.95200 3.67200 35.55000
H  36.93900 6.29000 34.34200
H  37.14300 5.74100 36.00000
H  35.56800 6.08900 35.34800
H  35.41500 1.74300 35.13000
H  33.68800 2.01100 34.82100
H  34.23500 1.31700 37.10800
H  33.06800 2.69900 36.93800
H  41.59700 1.16100 32.88300
H  40.77800 2.43500 33.72800
H  42.04400 2.81800 32.50400
H  43.35000 1.54000 30.33700
H  43.35700 -0.02300 29.74000
H  42.73100 0.13700 31.30300
H  37.68500 1.30000 25.99300
H  35.55900 3.15700 25.37400
H  39.19900 3.06000 25.33500
H  38.16200 4.39400 25.93200
H  37.75500 3.33400 24.43900
H  35.37500 0.21400 26.38500
H  35.98400 0.47900 24.81900
H  33.59700 2.02000 24.80200
H  33.13200 0.55200 25.49900
H  33.95500 0.43700 24.03600
H  31.17100 2.75200 27.63200
H  30.45700 4.31900 28.04200
H  30.01400 2.89900 28.98300
H  31.63600 3.47400 33.75800
H  30.90000 7.11000 35.80300
H  32.74300 7.19100 35.84600
H  31.81100 6.22400 36.93500

