158

Mg 29.90800 58.30800 39.69000
C  27.30200 56.02200 38.97300
C  32.11600 55.96900 38.57300
C  32.31200 60.71400 40.01300
C  27.39200 60.67100 40.25300
N  29.71600 56.27000 39.03600
C  28.60400 55.57700 38.71000
C  28.99400 54.24600 38.10200
C  30.46100 54.07500 38.47900
C  30.82300 55.50300 38.73300
C  30.79700 53.04600 39.64500
C  28.70100 54.22000 36.62500
C  27.65800 53.30200 36.05800
H  26.83600 54.00100 34.96700
N  31.95900 58.32100 39.55000
C  32.66700 57.28900 38.95300
C  34.04100 57.65800 38.84400
C  34.16100 58.93300 39.38900
C  32.77600 59.40000 39.65400
C  35.12900 56.73000 38.12400
C  35.52100 59.68400 39.54300
O  36.60300 59.25300 39.13300
C  35.60000 61.02700 40.19100
N  29.83600 60.35900 40.18400
C  30.97600 61.16900 40.20400
C  30.54300 62.60900 40.42600
C  29.00700 62.59000 40.48800
C  28.74500 61.10600 40.22600
C  31.25400 63.32800 41.56800
C  28.20600 63.48200 39.52200
C  26.82600 63.99800 40.10000
N  27.70000 58.41800 39.56900
C  26.87900 59.40500 39.88100
C  25.49000 58.91400 39.80800
C  25.66500 57.63000 39.38300
C  27.01100 57.32300 39.31500
C  24.26300 59.64200 40.03900
C  24.84700 56.41600 39.07000
O  23.60700 56.29300 39.10300
C  25.91600 55.40000 38.67800
C  25.61500 54.09100 39.32500
O  25.96800 53.80900 40.46100
O  24.85800 53.32900 38.45300
C  24.36000 52.12700 39.07200
H  32.83700 55.27100 38.14200
H  33.04800 61.52000 40.02000
H  26.61500 61.42300 40.40500
H  28.45900 53.46100 38.63800
H  30.93900 53.70100 37.57300
H  30.09900 52.23200 39.84200
H  30.92200 53.62000 40.56300
H  31.73100 52.55800 39.36600
H  29.62300 54.07800 36.06100
H  28.38700 55.26000 36.52600
H  26.89500 52.94500 36.74900
H  28.19000 52.46500 35.60800
H  35.73800 56.24300 38.88600
H  35.76300 57.37000 37.51200
H  34.85400 55.93800 37.42800
H  35.10600 61.75700 39.54900
H  36.58500 61.26200 40.59200
H  35.02000 60.91600 41.10700
H  30.80100 63.22900 39.56800
H  28.80300 62.81100 41.53600
H  31.88200 62.58500 42.05900
H  30.54100 63.83200 42.22100
H  31.83200 64.13400 41.11400
H  27.90900 62.90900 38.64400
H  28.69900 64.39200 39.18200
H  26.09700 63.59800 39.39500
H  26.71800 65.08300 40.10300
H  26.56500 63.62900 41.09200
H  24.39900 60.72100 39.96200
H  23.92900 59.39400 41.04600
H  23.54800 59.42200 39.24600
H  25.68500 55.20500 37.63000
H  25.00100 51.75800 39.87200
H  24.10600 51.31900 38.38600
H  23.46000 52.34200 39.64700
Mg -3.58800 35.59400 26.74200
C  -4.87500 33.45900 29.31700
C  -2.40900 37.58700 29.30100
C  -2.50100 37.61700 24.38900
C  -5.39600 33.83400 24.42600
N  -3.50000 35.33300 29.09400
C  -4.09900 34.39700 29.89600
C  -3.78100 34.65900 31.37000
C  -3.10700 36.08500 31.37700
C  -2.96200 36.40600 29.83400
C  -3.82900 37.23400 32.16300
C  -3.04900 33.48500 32.11600
C  -3.61400 32.86100 33.40600
H  -2.63700 32.64000 34.62200
N  -2.44000 37.23200 26.84500
C  -2.08500 37.95500 27.94200
C  -1.24300 39.10800 27.55200
C  -1.07800 39.06200 26.11500
C  -1.94500 37.91200 25.72400
C  -0.64300 40.13500 28.59000
C  -0.34500 39.87300 25.15200
O  -0.24900 39.68700 23.97600
C  0.15500 41.12200 25.70900
N  -3.94300 35.73300 24.68900
C  -3.38100 36.65000 23.91800
C  -3.62200 36.33300 22.42600
C  -4.66000 35.18900 22.46000
C  -4.71100 34.93500 23.97300
C  -4.11200 37.59900 21.68500
C  -4.37300 33.92100 21.56700
C  -3.42900 32.78500 22.14400
N  -4.90200 34.00800 26.77100
C  -5.52100 33.31000 25.73300
C  -6.14000 32.04600 26.24200
C  -5.92300 32.09700 27.65600
C  -5.20100 33.31800 27.93300
C  -6.76800 31.02400 25.39500
C  -6.20300 31.37300 28.92700
O  -6.76300 30.29900 29.12300
C  -5.53200 32.24300 30.05700
C  -6.70200 32.69500 30.91000
O  -7.54800 33.45400 30.51600
O  -6.61900 32.21000 32.23600
C  -7.74300 32.43700 33.11700
H  -2.06400 38.31600 30.03700
H  -2.16600 38.42200 23.73100
H  -6.00400 33.34600 23.66200
H  -4.78200 34.64600 31.80200
H  -2.07800 36.01800 31.73100
H  -3.34200 37.38200 33.12700
H  -4.83200 36.89200 32.41800
H  -3.96400 38.19100 31.65900
H  -2.07600 33.86700 32.42300
H  -2.98100 32.62300 31.45300
H  -3.78000 31.82900 33.09800
H  -4.56900 33.36200 33.56500
H  -0.76500 39.98000 29.66200
H  -0.87400 41.17300 28.34900
H  0.44300 40.07400 28.52300
H  -0.63300 41.75600 26.11500
H  0.78600 41.59200 24.95500
H  0.94700 40.93200 26.43400
H  -2.65900 36.20400 21.93200
H  -5.67100 35.49900 22.19500
H  -4.94800 37.35800 21.02900
H  -3.46300 38.17500 21.02500
H  -4.31500 38.35000 22.44900
H  -3.99500 34.27100 20.60600
H  -5.35400 33.54000 21.28300
H  -2.93400 33.19700 23.02500
H  -2.71100 32.66500 21.33200
H  -4.04600 31.89700 22.27900
H  -5.90600 30.70700 24.80900
H  -7.52900 31.44600 24.73800
H  -6.90400 30.10400 25.96400
H  -4.89800 31.63600 30.70300
H  -8.09100 31.45500 33.43800
H  -8.54500 32.94300 32.58100
H  -7.34700 33.05900 33.92000

