158

Mg 52.38800 24.06800 44.34600
C  49.45300 26.02400 43.77300
C  50.85600 21.33100 43.54700
C  55.49800 22.58300 44.35200
C  54.03100 27.12100 44.87000
N  50.35100 23.74000 43.56600
C  49.31000 24.65900 43.43100
C  47.97900 23.83400 43.32100
C  48.55700 22.35600 43.08000
C  50.01400 22.43100 43.45100
C  47.83200 21.15400 43.82200
C  47.04500 24.29700 42.14400
C  47.74900 24.56900 40.81300
H  47.33600 23.82100 39.52400
N  53.07800 22.19800 43.98600
C  52.20400 21.11300 43.87900
C  52.92200 19.86500 43.85900
C  54.31000 20.20500 44.10400
C  54.38400 21.70400 44.12000
C  52.18900 18.53600 43.82400
C  55.47400 19.28800 44.25400
O  55.23700 18.13700 44.07500
C  56.88900 19.76600 44.63700
N  54.49100 24.85800 44.35900
C  55.54200 23.99900 44.35900
C  56.84300 24.80400 44.66200
C  56.40700 26.28000 44.62400
C  54.92600 26.08300 44.51600
C  57.54300 24.47700 45.97000
C  57.05400 27.19800 43.45900
C  56.38200 27.10200 42.11300
N  51.88600 26.16800 44.50200
C  52.64900 27.26700 44.79000
C  51.80900 28.41900 45.03300
C  50.48900 27.97200 44.58600
C  50.60900 26.57900 44.25800
C  52.23300 29.78700 45.60300
C  49.08700 28.31400 44.51400
O  48.44600 29.31600 44.82000
C  48.36900 27.02500 43.80600
C  47.93100 27.44300 42.45200
O  48.63500 27.65300 41.44600
O  46.59600 27.78600 42.60100
C  45.95800 28.37100 41.42300
H  50.28300 20.42600 43.33500
H  56.49300 22.21500 44.61100
H  54.59500 28.03000 45.09100
H  47.34700 23.83200 44.20900
H  48.57000 22.19000 42.00200
H  47.41600 20.42400 43.12800
H  46.94700 21.60400 44.27100
H  48.39700 20.61900 44.58600
H  46.42100 25.08300 42.56900
H  46.24400 23.60700 41.87800
H  48.83400 24.53000 40.91000
H  47.49200 25.58800 40.52400
H  52.19000 18.37300 42.74600
H  51.13200 18.68600 44.04400
H  52.64800 17.73000 44.39600
H  57.40800 18.84600 44.90400
H  56.95700 20.22700 45.62200
H  57.47400 20.36400 43.93700
H  57.55600 24.59700 43.86400
H  56.60800 26.68600 45.61500
H  58.61300 24.43800 45.76400
H  57.25400 23.46400 46.25000
H  57.36100 25.07300 46.86400
H  58.12500 27.07700 43.29700
H  56.81300 28.20300 43.80500
H  55.36000 26.73100 42.04000
H  57.10100 26.46400 41.59800
H  56.44200 28.10000 41.67900
H  51.61600 29.81800 46.50100
H  52.06300 30.65400 44.96400
H  53.28900 29.64700 45.83400
H  47.63200 26.82200 44.58300
H  46.44100 29.32000 41.19100
H  44.93800 28.68200 41.65100
H  45.90900 27.67900 40.58300
Mg -0.35700 43.10900 25.77000
C  2.22300 42.52500 28.27000
C  -2.63800 41.96000 28.11000
C  -2.66500 43.45800 23.41300
C  2.25000 43.66200 23.51700
N  -0.15100 42.34400 27.93400
C  0.94400 42.29200 28.74600
C  0.58000 41.95200 30.20500
C  -0.89200 41.47900 29.97500
C  -1.27300 41.91400 28.55600
C  -1.23500 39.93600 30.16200
C  0.77100 43.14700 31.17300
C  1.18700 42.72300 32.59100
H  0.57600 41.44500 33.13900
N  -2.42000 42.85200 25.80400
C  -3.23000 42.35700 26.84700
C  -4.62600 42.60700 26.49800
C  -4.65100 43.00600 25.11300
C  -3.20900 43.12100 24.68400
C  -5.73200 42.56600 27.55200
C  -5.79400 43.43400 24.29800
O  -5.63000 43.86700 23.17400
C  -7.18900 43.36300 24.79800
N  -0.22900 43.53000 23.83800
C  -1.30100 43.50000 22.99300
C  -0.93100 43.97400 21.52100
C  0.59100 44.36800 21.71700
C  0.90500 43.86700 23.09000
C  -1.33400 42.99800 20.39100
C  1.06800 45.83500 21.53500
C  2.30800 46.09200 20.63500
N  1.78900 43.24000 25.83100
C  2.67100 43.44900 24.81700
C  4.09800 43.44500 25.32300
C  3.92400 43.10700 26.69900
C  2.57800 42.90800 26.94500
C  5.33100 43.64300 24.64100
C  4.57400 42.92000 27.91700
O  5.78900 42.92600 28.22400
C  3.50600 42.55000 28.97700
C  3.84000 41.36400 29.77200
O  3.77000 40.18700 29.40500
O  4.37800 41.69300 31.00300
C  4.58900 40.57400 31.92900
H  -3.31400 41.56200 28.87000
H  -3.42000 43.63300 22.64300
H  3.01100 43.83900 22.75400
H  1.22100 41.12900 30.51900
H  -1.57000 41.95600 30.68300
H  -0.35100 39.40300 30.51500
H  -1.40200 39.57100 29.14900
H  -2.05100 39.74000 30.85700
H  -0.23700 43.53200 31.32500
H  1.38200 43.95600 30.77100
H  0.95400 43.58000 33.22300
H  2.25700 42.54200 32.48200
H  -6.70800 42.20200 27.23000
H  -5.91000 43.54600 27.99500
H  -5.48900 41.85600 28.34200
H  -7.43500 43.62600 25.82700
H  -7.52300 42.33500 24.65600
H  -7.86200 43.85400 24.09500
H  -1.45900 44.90800 21.32700
H  1.15800 43.82700 20.95900
H  -2.14100 42.30800 20.63600
H  -0.51700 42.28600 20.27400
H  -1.68800 43.46100 19.47000
H  1.24400 46.22600 22.53700
H  0.21300 46.43900 21.23300
H  3.19700 45.79000 21.18900
H  2.43200 47.11800 20.28800
H  2.19200 45.37800 19.82000
H  5.33200 44.39500 23.85100
H  5.57500 42.66600 24.22400
H  6.10100 43.89100 25.37200
H  3.46100 43.32100 29.74600
H  5.18100 39.77500 31.48500
H  3.57800 40.38000 32.28800
H  5.05200 40.92400 32.85300

