158

Mg 48.33300 34.64900 27.17900
C  46.33200 33.33800 29.63700
C  48.90800 37.47600 29.06400
C  50.08400 35.91100 24.52600
C  47.32600 31.89200 25.04200
N  47.82700 35.22800 29.11900
C  47.05700 34.47900 30.07100
C  47.06900 35.13000 31.43700
C  47.38900 36.63000 31.00100
C  48.14300 36.51400 29.66700
C  46.25800 37.65400 30.97000
C  48.07600 34.53100 32.40600
C  47.67500 34.53600 33.91600
H  46.68200 35.62000 34.51700
N  49.50300 36.38700 26.90900
C  49.61500 37.38800 27.85800
C  50.60500 38.37900 27.34000
C  50.97000 37.94500 25.99800
C  50.18200 36.71300 25.72300
C  51.05100 39.50700 28.10900
C  51.87700 38.61500 24.95800
O  52.06200 38.13800 23.85200
C  52.70300 39.80600 25.34600
N  48.53800 34.08300 24.97700
C  49.35900 34.74400 24.12000
C  49.43000 34.03600 22.79300
C  48.62000 32.75700 23.02500
C  48.04200 32.93100 24.44400
C  49.09800 34.89200 21.60900
C  49.39300 31.41200 22.84800
C  49.39100 30.96100 21.41900
N  47.08900 32.98000 27.21800
C  46.85500 31.95700 26.38400
C  46.02400 31.02700 27.03600
C  45.63700 31.59700 28.23900
C  46.42300 32.71100 28.34800
C  45.37700 29.81900 26.39900
C  44.84800 31.41800 29.43300
O  43.91000 30.62100 29.60200
C  45.18700 32.62400 30.37200
C  45.52500 32.10700 31.66600
O  46.22100 31.09700 31.75200
O  44.70700 32.63300 32.63900
C  44.46400 31.85000 33.82700
H  48.94700 38.43100 29.59300
H  50.72100 36.24600 23.70500
H  47.07200 30.92300 24.60800
H  46.12100 35.27900 31.95300
H  48.20100 37.12400 31.53300
H  46.07900 38.06900 29.97800
H  46.60700 38.51900 31.53300
H  45.28100 37.32600 31.32400
H  49.06600 34.91000 32.14800
H  48.02700 33.47800 32.12800
H  48.55300 34.60000 34.55800
H  47.31400 33.57600 34.28500
H  50.35000 39.81700 28.88400
H  51.28500 40.40500 27.53600
H  51.95600 39.15500 28.60500
H  53.25000 39.58000 26.26100
H  52.14100 40.70200 25.61000
H  53.35800 39.96800 24.49000
H  50.49500 33.83000 22.68800
H  47.79700 32.83700 22.31600
H  48.52000 35.75200 21.95000
H  48.62500 34.28900 20.83400
H  50.05000 35.22200 21.19300
H  48.95900 30.63800 23.47900
H  50.41900 31.56500 23.18100
H  49.12800 31.78100 20.75100
H  48.73800 30.09500 21.30400
H  50.40800 30.59700 21.27300
H  46.06700 29.09400 25.96800
H  44.80800 30.06800 25.50400
H  44.64800 29.34300 27.05500
H  44.40000 33.37700 30.34100
H  43.85100 32.55400 34.38900
H  45.32000 31.52800 34.42000
H  43.81400 31.01400 33.56800
Mg 27.14500 50.16500 25.50900
C  25.31100 51.58400 28.18700
C  29.60500 49.42800 27.75700
C  28.70300 48.77000 23.06900
C  24.58500 51.13600 23.36600
N  27.36200 50.42400 27.80700
C  26.51200 50.99400 28.63300
C  27.03300 50.82100 30.08100
C  28.50000 50.46500 29.85200
C  28.53700 50.11500 28.35900
C  29.64000 51.52000 30.12700
C  26.13300 49.87500 30.94400
C  25.42600 50.55900 32.15700
H  26.34000 50.96000 33.26300
N  28.96300 49.28300 25.42100
C  29.85500 49.07100 26.44000
C  31.01100 48.28600 25.89500
C  30.70700 47.97400 24.57400
C  29.47500 48.73400 24.27900
C  32.26200 47.83600 26.72000
C  31.46500 47.29400 23.53200
O  31.11600 47.32700 22.33100
C  32.83000 46.67600 23.81200
N  26.86000 50.30500 23.41800
C  27.60500 49.51600 22.66000
C  27.08500 49.48900 21.18500
C  25.61500 49.98200 21.35600
C  25.64900 50.50700 22.76500
C  27.91400 50.40500 20.26100
C  24.41200 49.04900 20.93100
C  24.25200 47.84200 21.94000
N  25.36700 51.29500 25.65900
C  24.45600 51.60400 24.69900
C  23.35200 52.42900 25.23900
C  23.58500 52.27500 26.65700
C  24.88100 51.65400 26.85900
C  22.10300 52.94900 24.53200
C  23.07200 52.56100 27.97900
O  22.01300 53.00800 28.36700
C  24.18200 52.18000 29.04900
C  24.57100 53.37500 29.77100
O  25.38300 54.23400 29.47700
O  23.87500 53.35900 30.95200
C  24.02300 54.45500 31.92100
H  30.38700 49.15000 28.46700
H  29.14900 48.21200 22.24200
H  23.72400 51.39100 22.74400
H  27.18400 51.77900 30.57900
H  28.75500 49.57300 30.42500
H  29.20000 52.50700 30.27200
H  30.31400 51.58900 29.27300
H  30.26900 51.33700 30.99800
H  26.82500 49.09100 31.25300
H  25.41000 49.42700 30.26300
H  24.60700 49.97000 32.57100
H  25.04500 51.54500 31.89100
H  32.27500 46.77200 26.48300
H  32.08800 47.90400 27.79400
H  33.21500 48.25500 26.39800
H  33.32500 46.65500 22.84100
H  32.71200 45.66600 24.20400
H  33.38800 47.28500 24.52300
H  27.12900 48.47400 20.79100
H  25.44900 50.91100 20.81100
H  28.93500 50.34100 20.63500
H  27.61300 51.45100 20.20500
H  27.93800 50.02100 19.24100
H  24.59000 48.68100 19.92000
H  23.50800 49.65900 20.91800
H  23.18100 47.63900 21.97500
H  24.83800 47.84000 22.85900
H  24.59500 47.01200 21.32200
H  21.56400 52.04300 24.25600
H  22.19300 53.47400 23.58100
H  21.42100 53.43200 25.23300
H  23.97900 51.37900 29.76000
H  24.61100 55.22900 31.42800
H  24.59900 54.15700 32.79800
H  23.03900 54.90200 32.06200

