158

Mg 5.38800 54.10600 40.63900
C  5.64600 50.69900 40.09500
C  8.40800 54.41700 38.80200
C  4.92700 57.51300 40.40900
C  2.18600 53.75200 41.86400
N  6.75600 52.70600 39.52800
C  6.69100 51.33300 39.52400
C  7.74600 50.81000 38.57300
C  8.82000 51.87900 38.85100
C  7.92400 53.08600 38.94200
C  9.76500 51.76900 40.04400
C  7.10200 50.76500 37.17900
C  7.53300 51.80200 36.05300
H  6.38100 52.29500 35.26700
N  6.55700 55.78700 39.79900
C  7.75200 55.67700 39.14200
C  8.24300 57.00700 38.84100
C  7.26500 57.92500 39.44600
C  6.13700 57.11200 39.86600
C  9.57000 57.28100 38.15500
C  7.50100 59.34800 39.63600
O  8.53800 59.82600 39.21700
C  6.62500 60.23300 40.34700
N  3.74200 55.43600 40.85500
C  3.79900 56.74200 40.82100
C  2.56100 57.40000 41.39700
C  1.59200 56.23100 41.55700
C  2.52700 55.02900 41.34800
C  2.94700 58.32300 42.72900
C  0.27100 56.35500 40.77100
C  -0.93300 56.73300 41.62100
N  4.07200 52.62200 40.89000
C  2.90500 52.57100 41.59200
C  2.51600 51.13200 41.85300
C  3.55400 50.37000 41.29900
C  4.44600 51.32300 40.76200
C  1.39800 50.59900 42.68800
C  4.10000 49.05200 41.00300
O  3.70800 47.91500 41.33600
C  5.39500 49.22100 40.22100
C  5.18400 48.52200 38.90100
O  4.25800 48.66100 38.13000
O  6.21600 47.59400 38.66000
C  5.97800 46.61600 37.50900
H  9.43700 54.47800 38.44100
H  4.78400 58.58900 40.53200
H  1.17600 53.65900 42.27000
H  8.12100 49.82000 38.83500
H  9.44700 52.05200 37.97600
H  10.79400 51.58400 39.73700
H  9.37800 50.93500 40.63100
H  9.81700 52.66900 40.65600
H  6.03300 50.73800 37.39000
H  7.37000 49.78000 36.79700
H  8.23600 51.38200 35.33400
H  7.89700 52.68800 36.57300
H  9.50600 56.78600 37.18600
H  10.36600 56.80200 38.72600
H  9.79600 58.32600 37.94400
H  7.16500 61.14900 40.58400
H  6.23800 59.76100 41.25000
H  5.78700 60.37000 39.66300
H  2.17100 58.10000 40.65800
H  1.40100 56.22100 42.63000
H  3.20200 59.29400 42.30600
H  3.83900 58.06600 43.30000
H  2.09200 58.48700 43.38500
H  0.07400 55.53600 40.07900
H  0.31700 57.22700 40.11900
H  -1.71700 56.00600 41.41200
H  -1.27700 57.69800 41.25000
H  -0.77200 56.89400 42.68700
H  0.72300 49.87300 42.23500
H  0.81500 51.48100 42.95400
H  1.80100 50.19900 43.61900
H  6.19300 48.77700 40.81700
H  5.94200 47.19100 36.58300
H  4.98300 46.24200 37.74900
H  6.66800 45.78900 37.33900
Mg -11.05700 17.47200 41.35700
C  -7.85600 16.01300 40.97100
C  -9.81300 20.51700 40.86800
C  -14.28600 18.66500 41.29200
C  -12.29100 14.19300 41.24100
N  -9.04600 18.15000 41.08300
C  -7.91000 17.39500 40.95200
C  -6.67800 18.32000 40.92900
C  -7.35000 19.79100 41.08800
C  -8.84500 19.43900 41.04000
C  -6.86500 20.54500 42.40600
C  -5.95200 18.22300 39.52300
C  -4.46900 17.71700 39.54200
H  -4.08100 16.53100 38.62000
N  -11.93400 19.32800 41.24200
C  -11.22800 20.44400 40.92800
C  -12.14300 21.55500 40.72000
C  -13.45600 21.07500 40.95600
C  -13.27000 19.60900 41.18600
C  -11.71900 22.94700 40.23500
C  -14.72000 21.85500 40.84900
O  -14.71900 23.02600 40.51100
C  -16.08600 21.22800 41.22000
N  -12.98200 16.55800 41.25800
C  -14.14000 17.26600 41.37400
C  -15.36200 16.35600 41.23400
C  -14.72400 14.98100 41.53400
C  -13.17800 15.21300 41.35100
C  -16.59900 16.66700 42.17900
C  -15.31000 13.70300 40.83300
C  -15.39700 12.44900 41.58400
N  -10.25600 15.44700 41.07500
C  -10.85000 14.22000 41.12000
C  -9.89100 13.12100 40.91500
C  -8.68400 13.84600 40.99900
C  -8.97900 15.23800 41.04000
C  -10.19600 11.66000 40.75600
C  -7.21500 13.64500 41.24000
O  -6.55700 12.63100 41.24000
C  -6.65300 15.12000 41.22400
C  -5.82400 15.36300 42.48400
O  -4.56200 15.34900 42.49200
O  -6.53600 15.42800 43.63300
C  -5.70700 15.68300 44.79000
H  -9.42000 21.53400 40.80300
H  -15.31600 18.95500 41.07300
H  -12.64900 13.16200 41.26000
H  -6.16600 18.01200 41.84100
H  -7.16200 20.38900 40.19600
H  -7.63800 20.54600 43.17500
H  -6.54200 21.54500 42.11500
H  -6.01000 19.95100 42.72800
H  -6.07700 19.14300 38.95200
H  -6.51700 17.43700 39.02200
H  -4.18200 17.31200 40.51300
H  -3.79700 18.56900 39.44400
H  -10.82900 22.66300 39.67200
H  -11.55200 23.64300 41.05700
H  -12.50200 23.49300 39.70900
H  -16.31600 20.53200 40.41400
H  -16.85300 22.00200 41.21600
H  -15.99400 20.70300 42.17100
H  -15.64400 16.37700 40.18100
H  -14.96900 14.81900 42.58300
H  -17.04800 15.77400 42.61400
H  -17.28800 17.20200 41.52600
H  -16.29700 17.26900 43.03600
H  -14.73500 13.41000 39.95500
H  -16.24100 14.01800 40.36300
H  -14.38900 12.13700 41.85700
H  -15.82900 11.63700 41.00000
H  -15.95100 12.57200 42.51500
H  -10.52600 11.28600 41.72500
H  -9.29700 11.26200 40.28400
H  -11.03100 11.46200 40.08400
H  -6.03500 15.25800 40.33700
H  -5.03000 16.49300 44.51800
H  -5.22800 14.74600 45.07400
H  -6.18000 16.17100 45.64300

