158

Mg -1.78600 17.39900 26.25400
C  -1.91100 15.17600 28.97100
C  -2.27900 20.04900 28.56700
C  -2.41300 19.62300 23.69300
C  -2.02100 14.71500 24.17500
N  -1.99200 17.59200 28.53100
C  -2.01400 16.49200 29.37800
C  -2.11300 16.98100 30.83900
C  -2.20700 18.58300 30.76600
C  -2.15500 18.78600 29.21800
C  -3.55500 19.19900 31.41800
C  -1.01400 16.40200 31.82300
C  -0.73200 17.24400 32.95700
H  -0.28700 16.63800 34.30600
N  -2.15900 19.51000 26.13300
C  -2.20900 20.41800 27.20300
C  -2.23100 21.78700 26.66800
C  -2.08100 21.64500 25.28000
C  -2.32800 20.20200 24.94000
C  -2.21500 23.06200 27.53100
C  -1.89100 22.71700 24.26200
O  -2.01300 22.56100 23.03500
C  -1.39200 24.02700 24.76600
N  -2.16300 17.13300 24.27600
C  -2.33900 18.18500 23.39800
C  -2.66400 17.68700 22.00800
C  -2.28500 16.20600 22.04300
C  -2.09500 15.98200 23.60600
C  -4.08000 18.02400 21.58700
C  -0.97100 15.83100 21.22600
C  0.47500 16.03300 21.69200
N  -1.86200 15.34300 26.49000
C  -1.89900 14.32800 25.54000
C  -1.88300 13.04400 26.14400
C  -2.03700 13.35900 27.51900
C  -1.89600 14.74900 27.66700
C  -1.91300 11.72600 25.56800
C  -2.19900 12.70400 28.78000
O  -2.38400 11.50700 29.08000
C  -2.07200 13.84000 29.80300
C  -0.86100 13.47600 30.77400
O  0.26500 13.75700 30.60600
O  -1.36700 12.77000 31.80300
C  -0.50300 12.46000 32.93400
H  -2.41200 20.90100 29.23700
H  -2.48200 20.26100 22.80900
H  -2.10000 13.87800 23.47900
H  -3.05500 16.62900 31.25900
H  -1.40300 19.19600 31.17400
H  -3.35000 20.18100 31.84400
H  -3.93600 18.67600 32.29600
H  -4.32800 19.29900 30.65700
H  -0.10700 16.12700 31.28600
H  -1.41700 15.54800 32.36800
H  -1.52200 17.96700 33.15900
H  0.14800 17.76800 32.58400
H  -2.77000 23.86500 27.04500
H  -1.21600 23.45200 27.72800
H  -2.84600 22.95600 28.41400
H  -1.22100 24.57600 23.84100
H  -0.47600 23.87500 25.33700
H  -2.19100 24.54900 25.29300
H  -2.02200 18.17400 21.27300
H  -3.04400 15.50500 21.69800
H  -4.54300 18.53300 22.43200
H  -4.55500 17.05900 21.41000
H  -3.92000 18.69800 20.74600
H  -1.01800 16.20300 20.20200
H  -0.99000 14.74800 21.10000
H  0.48200 16.32700 22.74200
H  1.16300 16.65600 21.12100
H  1.03800 15.10000 21.66800
H  -1.23100 11.20900 26.24200
H  -1.49700 11.87500 24.57100
H  -2.96800 11.45600 25.59800
H  -2.91200 14.02100 30.47300
H  -0.85200 11.48300 33.26900
H  -0.77800 13.30300 33.56800
H  0.58400 12.44800 32.84500
Mg 47.52900 35.09900 27.75900
C  45.74000 33.37900 30.33400
C  48.09700 37.70000 30.09900
C  48.30900 37.29800 25.24500
C  46.63400 32.75400 25.55400
N  46.86500 35.47000 30.02300
C  46.33200 34.55600 30.87800
C  46.41400 35.16900 32.28700
C  46.71900 36.70800 32.12300
C  47.26600 36.65700 30.67400
C  45.51400 37.67400 32.20300
C  47.57000 34.51800 33.13400
C  47.06700 34.34700 34.56500
H  47.71300 35.35500 35.55900
N  48.30400 37.13100 27.74800
C  48.50400 37.98900 28.80800
C  49.13700 39.18700 28.35300
C  49.27900 39.11300 26.97100
C  48.62200 37.81000 26.60700
C  49.53800 40.25800 29.36500
C  50.01600 39.98700 25.97900
O  50.28100 39.60300 24.88600
C  50.75600 41.27800 26.42300
N  47.47500 35.09200 25.64800
C  47.71100 36.09300 24.79700
C  47.68100 35.66000 23.32900
C  47.33800 34.09700 23.53000
C  47.16700 33.93200 25.01800
C  46.64100 36.36700 22.49100
C  48.36400 33.16500 22.84500
C  47.90900 32.00700 22.00200
N  46.52300 33.43700 27.89200
C  46.37200 32.47200 26.87400
C  45.73000 31.29700 27.45400
C  45.47400 31.54300 28.85000
C  45.90100 32.93000 29.03300
C  45.23600 30.09300 26.62700
C  44.89200 31.05900 30.07200
O  44.26100 30.05000 30.36800
C  44.97800 32.25400 31.07100
C  45.45800 31.87400 32.42700
O  46.50500 31.31300 32.68200
O  44.44100 32.05100 33.28200
C  44.47200 31.31500 34.54500
H  48.40700 38.38000 30.89600
H  48.64300 38.04800 24.52500
H  46.35200 32.04800 24.77000
H  45.47000 34.87900 32.74800
H  47.52700 37.06900 32.75900
H  45.44000 38.15600 33.17800
H  44.57400 37.12600 32.15000
H  45.42500 38.46100 31.45400
H  48.45100 35.14700 33.00500
H  47.83100 33.55900 32.68500
H  47.37000 33.38400 34.97600
H  45.97900 34.36000 34.63600
H  48.82500 40.19400 30.18700
H  49.51600 41.25800 28.93300
H  50.54800 40.08100 29.73500
H  51.48400 40.90100 27.14200
H  49.99300 41.96800 26.78200
H  51.36100 41.68100 25.61100
H  48.60500 35.85200 22.78300
H  46.36700 33.89700 23.07600
H  46.67800 36.11900 21.43000
H  46.59200 37.45300 22.57300
H  45.66100 35.96900 22.75300
H  49.03900 32.79800 23.61800
H  49.04600 33.75900 22.23600
H  48.13700 32.24700 20.96300
H  46.83800 31.82800 22.08900
H  48.37100 31.05200 22.25400
H  44.26200 30.32500 26.19400
H  45.04900 29.21500 27.24600
H  45.96100 29.92400 25.83200
H  43.99600 32.69300 31.24900
H  45.37800 30.73100 34.71000
H  43.63200 30.63400 34.68000
H  44.37200 32.13300 35.25800

