158

Mg 16.90600 -1.59400 28.26300
C  15.50400 0.27400 30.99500
C  19.00600 -3.16300 30.61300
C  18.17200 -3.29200 25.78900
C  14.97900 0.32600 26.13000
N  17.26300 -1.37700 30.62000
C  16.56600 -0.57800 31.52600
C  17.07000 -0.85000 32.98600
C  18.34000 -1.68700 32.70300
C  18.13300 -2.18200 31.21100
C  19.70300 -1.07700 33.06400
C  15.93800 -1.64200 33.78300
C  16.08300 -1.70300 35.38600
H  17.15900 -0.82000 36.14400
N  18.31100 -3.11200 28.19100
C  19.07500 -3.63400 29.25800
C  19.87700 -4.71200 28.70700
C  19.64400 -4.77800 27.31000
C  18.65900 -3.72600 27.06100
C  20.77000 -5.54800 29.55900
C  20.21300 -5.65200 26.15600
O  19.70100 -5.67600 24.99000
C  21.32600 -6.65200 26.40600
N  16.63000 -1.45100 26.19300
C  17.31700 -2.22200 25.38200
C  16.95700 -2.03600 23.89500
C  15.88500 -0.85300 24.04500
C  15.77300 -0.60200 25.54600
C  18.18100 -1.63900 22.90800
C  14.54100 -1.21900 23.29700
C  14.47500 -0.81500 21.83600
N  15.60900 0.00700 28.40000
C  14.81500 0.62500 27.44700
C  13.88900 1.54700 28.06700
C  14.17900 1.39100 29.43800
C  15.17600 0.46300 29.59400
C  12.96800 2.55700 27.47900
C  13.76500 1.89600 30.78000
O  12.90600 2.72600 31.06200
C  14.67600 1.22800 31.84200
C  15.47100 2.30300 32.49000
O  16.06900 3.22400 31.89000
O  15.33900 2.33400 33.82300
C  16.13100 3.30900 34.59600
H  19.67700 -3.62800 31.33800
H  18.38300 -3.86800 24.88500
H  14.38000 1.02400 25.54100
H  17.29700 0.09500 33.48000
H  18.28700 -2.63800 33.23300
H  20.35800 -1.11700 32.19400
H  20.16900 -1.65400 33.86300
H  19.46100 -0.08900 33.45600
H  15.89800 -2.65000 33.37000
H  14.95500 -1.20300 33.60800
H  16.28400 -2.74700 35.62400
H  15.19900 -1.46400 35.97800
H  21.75200 -5.16000 29.28900
H  20.57700 -6.55600 29.19400
H  20.58400 -5.43500 30.62800
H  21.60900 -7.05200 25.43200
H  20.90500 -7.44200 27.02800
H  22.10000 -6.01600 26.83300
H  16.45700 -2.92100 23.50100
H  16.21100 0.09300 23.61300
H  17.90100 -0.88800 22.17000
H  18.49600 -2.56600 22.42900
H  18.96700 -1.18300 23.51100
H  13.64200 -0.78500 23.73500
H  14.46000 -2.30400 23.36600
H  13.52800 -0.32600 21.60700
H  14.55000 -1.68100 21.17900
H  15.33700 -0.22100 21.53200
H  12.95400 2.41000 26.39900
H  13.44300 3.51000 27.71200
H  11.96100 2.52500 27.89400
H  14.05400 0.81100 32.63500
H  17.11700 3.48800 34.16600
H  16.18600 3.01000 35.64300
H  15.53600 4.21400 34.71600
Mg 47.37000 16.43600 27.63100
C  45.60700 16.46300 30.70900
C  50.01300 18.17400 29.27500
C  49.20800 16.34600 24.85600
C  44.84700 14.71300 26.18500
N  47.68000 17.31700 29.71600
C  46.85600 17.06600 30.75900
C  47.50100 17.62400 31.97400
C  48.85500 18.44500 31.54100
C  48.85800 17.99500 30.05200
C  48.80700 19.99400 31.61600
C  47.76500 16.51000 33.01400
C  47.34300 16.68000 34.52500
H  46.87200 18.12500 35.02000
N  49.26700 17.14500 27.19800
C  50.23600 17.72900 27.96500
C  51.47400 18.04300 27.25400
C  51.27100 17.49800 25.93700
C  49.88500 16.97500 25.94600
C  52.55900 18.94500 27.80500
C  52.18600 17.56300 24.70900
O  51.77900 17.17800 23.64600
C  53.53800 18.13200 24.85500
N  47.10800 15.70000 25.82700
C  47.98900 15.77000 24.77300
C  47.37900 15.33600 23.46400
C  46.02400 14.73600 23.88000
C  45.94700 15.11300 25.41300
C  47.40300 16.58500 22.44400
C  46.00600 13.19400 23.56000
C  45.16700 12.75000 22.30800
N  45.64700 15.65600 28.27300
C  44.62200 14.98900 27.58700
C  43.54900 14.66900 28.44900
C  43.91400 15.20800 29.65600
C  45.21000 15.82100 29.54700
C  42.35200 13.87300 28.14900
C  43.40400 15.36100 31.06500
O  42.34400 14.99700 31.54400
C  44.62200 16.12000 31.79900
C  44.15200 17.23800 32.53500
O  43.73700 18.26600 32.07200
O  43.85800 16.80900 33.75700
C  42.73700 17.52500 34.41100
H  50.74500 18.77400 29.81900
H  49.75000 16.20000 23.91900
H  43.95300 14.32900 25.68900
H  46.83100 18.39800 32.34700
H  49.64800 18.08300 32.19600
H  48.05000 20.23100 32.36400
H  48.64900 20.39000 30.61300
H  49.72700 20.40500 32.03100
H  48.83100 16.30000 33.10200
H  47.28600 15.59000 32.67800
H  48.20800 16.36200 35.10700
H  46.56900 15.94800 34.75500
H  53.28100 19.37400 27.11100
H  53.14400 18.36700 28.52100
H  52.08500 19.76400 28.34600
H  53.44700 19.20800 25.00400
H  54.25700 17.97100 24.05200
H  54.03900 17.67900 25.71000
H  48.08600 14.60300 23.07600
H  45.20400 15.09000 23.25600
H  46.56800 16.74900 21.76300
H  48.32200 16.45600 21.87100
H  47.40400 17.51800 23.00700
H  45.47400 12.76900 24.41100
H  47.05600 12.90200 23.57000
H  45.87900 12.86500 21.49100
H  44.27400 13.29200 21.99600
H  44.82000 11.74000 22.53100
H  42.67000 13.02800 27.53800
H  41.79700 14.55200 27.50100
H  41.88900 13.67000 29.11400
H  45.05600 15.41800 32.51100
H  41.83800 17.54000 33.79600
H  42.86400 18.52100 34.83600
H  42.32000 16.86900 35.17500

