158

Mg 45.86700 3.98400 48.09700
C  44.57900 7.12300 47.24300
C  42.72200 2.65300 47.36000
C  47.12000 0.89700 48.45800
C  49.11900 5.30800 48.40200
N  43.93400 4.81500 47.35900
C  43.66200 6.15300 47.10600
C  42.21800 6.37000 46.62500
C  41.58100 5.01800 46.86800
C  42.83700 4.09600 47.15800
C  40.53600 4.97700 47.97000
C  42.12900 6.78700 45.12800
C  40.87800 7.77800 44.86800
H  40.05800 7.59700 43.61800
N  45.07500 2.10300 47.84600
C  43.77000 1.70700 47.58500
C  43.67500 0.29200 47.56200
C  44.95600 -0.20300 47.74100
C  45.79300 0.99300 48.05100
C  42.40700 -0.44600 47.13400
C  45.34500 -1.61200 47.58300
O  44.52200 -2.42100 47.22900
C  46.74700 -2.03500 47.60600
N  47.85100 3.24100 48.59500
C  48.08400 1.88900 48.73400
C  49.60900 1.68400 49.20300
C  50.24200 3.06600 48.91900
C  49.06700 3.95700 48.57700
C  49.76000 1.11100 50.64700
C  51.44000 3.12000 47.92400
C  52.81000 2.50900 48.41000
N  46.67200 5.81300 47.95800
C  48.05600 6.24300 48.11000
C  48.09100 7.68100 47.79700
C  46.75000 8.08600 47.55200
C  45.91000 6.90100 47.66900
C  49.41500 8.48600 47.81100
C  45.92000 9.27700 47.28700
O  46.17800 10.45400 47.22800
C  44.46800 8.65400 46.99100
C  43.48700 9.24700 47.91600
O  43.11600 8.78000 48.99600
O  42.90400 10.30000 47.30700
C  41.67500 10.76700 47.98500
H  41.70800 2.25600 47.28000
H  47.43600 -0.08100 48.82800
H  50.11200 5.73500 48.55700
H  41.74200 7.17200 47.18900
H  41.07700 4.55700 46.01900
H  40.27000 6.00100 48.23500
H  40.78800 4.38300 48.84900
H  39.70900 4.48900 47.45600
H  42.04300 5.88500 44.52300
H  43.05000 7.30800 44.86700
H  41.22300 8.81100 44.90300
H  40.22600 7.61700 45.72700
H  42.51000 -0.75300 46.09300
H  41.56000 0.24000 47.13400
H  42.09700 -1.23700 47.81600
H  46.76700 -3.08400 47.30900
H  47.03600 -2.13700 48.65200
H  47.43700 -1.46700 46.98200
H  50.00300 0.87700 48.58600
H  50.57400 3.36700 49.91300
H  50.00800 0.05500 50.54200
H  48.87900 1.13100 51.28900
H  50.61600 1.64800 51.05500
H  51.65200 4.17700 47.76200
H  51.21400 2.54000 47.02900
H  53.01100 1.68600 47.72500
H  52.67100 2.01200 49.37000
H  53.65600 3.18800 48.52300
H  49.72800 8.57300 48.85100
H  49.17800 9.46500 47.39500
H  50.20000 8.08900 47.16700
H  44.34200 8.90900 45.93900
H  41.20400 11.28200 47.14800
H  41.85000 11.46700 48.80200
H  40.96700 9.98700 48.26700
Mg -11.00900 38.05500 41.99600
C  -9.29500 35.03400 41.49600
C  -8.54000 39.69500 40.27800
C  -12.99900 40.71400 41.90200
C  -13.72900 36.13100 43.25800
N  -9.25100 37.45400 40.99400
C  -8.67800 36.17800 40.92700
C  -7.46200 36.15900 40.00200
C  -7.10700 37.64500 39.84200
C  -8.36700 38.34500 40.40000
C  -5.74100 38.14400 40.44700
C  -7.87400 35.36400 38.70100
C  -7.19200 34.08000 38.34500
H  -6.53900 34.07500 36.99000
N  -10.77300 39.92500 41.25900
C  -9.65500 40.48000 40.69200
C  -9.91900 41.85000 40.29300
C  -11.20800 42.17600 40.71500
C  -11.70200 40.90000 41.31500
C  -8.97000 42.74400 39.53100
C  -11.83600 43.54700 40.53500
O  -11.25900 44.45800 39.93200
C  -13.16700 43.91600 41.08800
N  -13.08200 38.33900 42.58300
C  -13.64200 39.54000 42.37200
C  -15.09300 39.55500 42.76300
C  -15.34400 38.12500 43.25900
C  -13.95100 37.51700 43.03600
C  -15.51100 40.78500 43.60100
C  -16.49800 37.33600 42.66200
C  -17.29300 36.39300 43.57700
N  -11.36800 36.01600 42.50900
C  -12.47000 35.43100 43.17200
C  -12.11400 34.06200 43.47300
C  -10.87600 33.86500 42.80100
C  -10.45900 35.09000 42.30900
C  -12.97600 33.08100 44.32900
C  -9.89200 32.89100 42.53100
O  -9.94900 31.69600 42.78600
C  -8.78400 33.58600 41.59600
C  -7.44000 33.51000 42.17000
O  -6.52700 32.76700 41.74500
O  -7.33700 34.27800 43.31600
C  -6.05200 34.04900 43.98600
H  -7.74000 40.30200 39.85000
H  -13.65800 41.58500 41.90700
H  -14.59800 35.60200 43.65400
H  -6.64000 35.61000 40.46000
H  -7.14700 37.83400 38.76900
H  -5.17400 37.26300 40.74900
H  -5.87400 38.89100 41.22900
H  -5.13700 38.66700 39.70600
H  -7.88200 36.05600 37.85800
H  -8.89600 35.02800 38.87500
H  -7.82500 33.19600 38.26900
H  -6.37700 33.88900 39.04400
H  -9.19400 43.01900 38.50000
H  -8.02900 42.19400 39.54900
H  -8.65500 43.64800 40.05200
H  -13.83000 43.27700 40.50500
H  -13.23600 45.00100 41.01200
H  -13.32100 43.62400 42.12700
H  -15.64600 39.63100 41.82700
H  -15.46500 38.30200 44.32700
H  -14.65700 41.40000 43.88600
H  -16.16400 40.52500 44.43400
H  -16.03500 41.42100 42.88700
H  -16.08700 36.72900 41.85600
H  -17.24100 38.01400 42.24100
H  -18.33800 36.69600 43.65300
H  -16.85700 36.41600 44.57500
H  -17.20900 35.38300 43.17500
H  -12.29100 32.59000 45.02000
H  -13.34000 32.25700 43.71400
H  -13.76300 33.58600 44.88900
H  -8.78800 33.07000 40.63600
H  -5.87600 34.71300 44.83300
H  -5.17200 34.05700 43.34300
H  -6.10200 33.06000 44.44100

