158

Mg -0.28700 7.32000 25.23200
C  0.56800 9.47700 27.91200
C  0.21100 4.69600 27.48400
C  -0.80900 5.36200 22.63200
C  0.51600 9.92900 23.03900
N  0.15400 7.16000 27.45700
C  0.26400 8.16200 28.33300
C  0.48900 7.63800 29.81000
C  0.64800 6.09100 29.59900
C  0.31300 5.98900 28.07200
C  2.07100 5.52900 29.79200
C  -0.70300 8.00600 30.64200
C  -0.61500 7.64500 32.10900
H  0.77600 7.86200 32.69100
N  -0.32500 5.30900 25.06400
C  -0.07900 4.38800 26.07700
C  -0.23300 3.07100 25.42500
C  -0.57300 3.22600 24.06200
C  -0.60400 4.65800 23.90900
C  0.07700 1.86700 26.22400
C  -0.98000 2.21000 23.03300
O  -1.26200 2.50100 21.83900
C  -0.93300 0.80800 23.31900
N  -0.19700 7.62900 23.07100
C  -0.53400 6.66700 22.21900
C  -0.78800 7.19000 20.82500
C  -0.39200 8.74800 20.91100
C  0.06200 8.78500 22.39300
C  0.03600 6.45400 19.67200
C  -1.47400 9.83700 20.53200
C  -2.65700 9.82800 21.43800
N  0.28700 9.29700 25.38500
C  0.52700 10.24800 24.38100
C  0.91000 11.58700 24.99800
C  0.91200 11.26900 26.37400
C  0.54900 9.95100 26.54000
C  1.14700 12.95500 24.33900
C  1.10500 11.83600 27.66100
O  1.40900 12.97500 28.00700
C  0.88200 10.69200 28.75000
C  2.10400 10.54400 29.49000
O  3.20200 10.26100 28.99200
O  1.83900 10.77100 30.80800
C  2.98400 11.03600 31.67200
H  0.26200 3.85600 28.18000
H  -0.92000 4.84500 21.67700
H  0.62800 10.81500 22.41000
H  1.38400 8.11900 30.20400
H  0.04700 5.52100 30.30800
H  2.64500 6.16400 30.46700
H  2.60600 5.48700 28.84400
H  2.02000 4.54900 30.26700
H  -1.58300 7.52200 30.21800
H  -0.90900 9.07500 30.57700
H  -0.90900 6.62000 32.33500
H  -1.11800 8.35300 32.76600
H  0.96700 2.08500 26.81500
H  0.38300 1.08500 25.53100
H  -0.63300 1.48900 26.96000
H  -1.55700 0.47700 24.15000
H  0.11100 0.54400 23.48500
H  -1.28000 0.18600 22.49400
H  -1.85700 7.07600 20.64400
H  0.46800 8.82800 20.24700
H  0.39200 7.17700 18.93800
H  -0.62200 5.75400 19.15700
H  0.88700 5.90800 20.07800
H  -1.76300 9.79400 19.48200
H  -1.15000 10.87800 20.53800
H  -2.43300 9.38700 22.41000
H  -3.54900 9.39500 20.98500
H  -2.84300 10.88600 21.62100
H  0.34300 13.68100 24.46300
H  1.26100 12.84700 23.26100
H  2.07300 13.39200 24.71500
H  0.03900 10.87200 29.41700
H  3.77300 11.63400 31.21600
H  3.30700 10.12300 32.17200
H  2.61000 11.63000 32.50500
Mg 16.77400 51.56400 26.30700
C  18.76400 50.15500 28.75400
C  14.29200 52.01500 28.56900
C  14.76500 52.35000 23.78800
C  19.20600 50.46800 23.88600
N  16.53900 51.12500 28.40900
C  17.53900 50.67400 29.22100
C  17.06500 50.71100 30.71800
C  15.59700 51.15100 30.54300
C  15.41500 51.35100 29.11100
C  14.52300 50.18200 31.13200
C  17.93700 51.64900 31.74900
C  17.86700 51.27600 33.21400
H  16.85900 52.00800 34.16400
N  14.85600 52.30400 26.24700
C  13.99800 52.41400 27.23200
C  12.75500 53.11600 26.75600
C  12.87400 53.19500 25.38000
C  14.16700 52.56100 25.04900
C  11.64400 53.53600 27.62300
C  11.93700 53.77800 24.42800
O  12.11000 53.82400 23.19800
C  10.59900 54.36700 24.90000
N  16.95500 51.40200 24.13200
C  15.94700 51.74300 23.34500
C  16.29800 51.58200 21.85400
C  17.87100 51.46700 21.89700
C  18.04800 51.03100 23.39200
C  15.38700 50.57200 21.11200
C  18.68000 52.72900 21.56000
C  19.72800 52.45800 20.41100
N  18.54400 50.46800 26.23100
C  19.49200 50.28300 25.25600
C  20.68500 49.69100 25.87400
C  20.48300 49.60200 27.22700
C  19.18600 50.15600 27.41400
C  21.88100 49.12300 25.17100
C  21.10400 49.26800 28.47300
O  22.21500 48.86600 28.77900
C  20.00200 49.67300 29.56900
C  19.59300 48.58400 30.35300
O  18.78300 47.77200 30.02300
O  20.19900 48.68800 31.60500
C  19.67700 47.66100 32.51100
H  13.43500 52.13900 29.23400
H  14.17100 52.61300 22.91000
H  20.09800 50.19300 23.32100
H  17.17000 49.66400 31.00300
H  15.33900 52.16800 30.83700
H  13.85700 50.83700 31.69400
H  14.90100 49.58700 31.96400
H  14.09700 49.52300 30.37600
H  17.75100 52.72300 31.72600
H  18.98100 51.47100 31.49000
H  18.91200 51.34900 33.51800
H  17.66200 50.20500 33.19700
H  11.37400 54.59000 27.55600
H  11.74500 53.21400 28.65900
H  10.88400 52.85100 27.24800
H  9.99100 54.59200 24.02400
H  10.84600 55.25600 25.48000
H  10.03500 53.63600 25.47900
H  15.96000 52.50800 21.38900
H  18.16000 50.59100 21.31600
H  14.76200 49.85200 21.64100
H  16.03700 49.95000 20.49600
H  14.81100 51.23300 20.46400
H  19.20200 53.06400 22.45600
H  17.95000 53.48100 21.26200
H  19.35600 52.72400 19.42200
H  19.96300 51.40000 20.29400
H  20.59600 53.08000 20.63200
H  21.66000 48.72800 24.17900
H  22.07700 48.27400 25.82500
H  22.82200 49.67300 25.18900
H  20.40400 50.48400 30.17700
H  20.02300 46.66000 32.25400
H  18.59100 47.66300 32.41500
H  20.00700 47.94900 33.50900

