158

Mg 49.28900 35.55800 27.96900
C  47.07200 34.35700 30.32200
C  49.75100 38.42600 30.11600
C  51.12800 37.22300 25.62400
C  48.70900 32.99200 25.76800
N  48.50400 36.29100 30.01400
C  47.62600 35.53800 30.76200
C  47.36900 36.30900 32.07600
C  48.13400 37.72200 31.86600
C  48.81900 37.48200 30.51300
C  47.12600 38.87200 31.72100
C  47.72500 35.61900 33.39000
C  49.02500 34.76500 33.54100
H  50.28100 35.40700 34.10700
N  50.21300 37.57000 27.81600
C  50.34300 38.49800 28.80400
C  51.12300 39.65900 28.30800
C  51.49000 39.35100 26.94200
C  50.91600 37.99700 26.72200
C  51.36600 40.92700 29.22300
C  52.25600 40.16600 25.95700
O  52.64000 39.75100 24.86900
C  52.79700 41.48600 26.43700
N  49.86400 35.13700 26.00000
C  50.72700 35.89100 25.30500
C  51.21500 35.08400 24.07600
C  50.45200 33.72700 24.17600
C  49.60600 33.93800 25.36000
C  51.02500 35.84400 22.66200
C  51.36700 32.48700 24.16200
C  50.87500 31.40900 23.12400
N  48.18300 33.95700 28.02900
C  48.02800 33.00500 27.02800
C  46.85400 32.16200 27.51700
C  46.50000 32.59100 28.85100
C  47.33300 33.68600 29.05600
C  46.20500 31.01000 26.77500
C  45.58100 32.41000 29.88000
O  44.61800 31.62100 29.95600
C  45.85800 33.55600 30.93300
C  46.30500 32.76900 32.10100
O  47.36000 32.18400 32.21900
O  45.35300 32.83300 33.05400
C  45.59800 32.11300 34.29600
H  50.00100 39.26900 30.76400
H  51.80700 37.56500 24.84000
H  48.45300 32.13900 25.13700
H  46.29700 36.47400 31.97000
H  48.93200 37.97300 32.56400
H  46.82500 39.25200 32.69700
H  46.24200 38.72200 31.10100
H  47.65600 39.68000 31.21700
H  46.83100 35.02100 33.56700
H  47.85700 36.42200 34.11500
H  49.21100 34.39400 32.53300
H  48.76800 33.93700 34.20200
H  52.37700 41.03000 29.61600
H  50.65500 40.93600 30.05000
H  51.16100 41.81900 28.63200
H  52.15600 42.33700 26.66700
H  53.43400 41.90000 25.65500
H  53.44200 41.19700 27.26700
H  52.27400 34.84900 24.18200
H  49.86600 33.78000 23.25800
H  50.44700 36.76600 22.72000
H  50.64700 35.13300 21.92800
H  52.02800 36.05500 22.29200
H  51.29800 31.93500 25.09900
H  52.43500 32.69900 24.10800
H  51.78700 31.13600 22.59200
H  49.96600 31.66900 22.58200
H  50.61500 30.47000 23.61400
H  45.50400 30.48100 27.42100
H  46.97500 30.29000 26.49900
H  45.61800 31.25700 25.89000
H  44.88300 34.01100 31.10900
H  45.67000 31.03600 34.14500
H  44.81700 32.43800 34.98400
H  46.59200 32.29500 34.70400
Mg -10.06600 37.32300 42.33600
C  -7.91600 34.81500 41.53100
C  -7.94900 39.71200 41.30100
C  -12.55400 39.79100 42.68700
C  -12.58800 34.96600 42.84000
N  -8.12300 37.24500 41.58300
C  -7.43200 36.10300 41.22900
C  -6.07700 36.47800 40.65900
C  -5.97000 38.04400 40.72800
C  -7.44300 38.38000 41.28300
C  -4.79500 38.67200 41.56700
C  -5.91900 35.95100 39.20000
C  -4.50100 35.57700 38.78600
H  -4.05200 35.99900 37.31800
N  -10.22400 39.48500 42.01700
C  -9.19500 40.24800 41.62500
C  -9.53900 41.57800 41.50500
C  -10.81400 41.67700 42.15000
C  -11.24700 40.24700 42.36000
C  -8.62900 42.62200 40.92500
C  -11.61600 42.94300 42.48000
O  -11.08800 44.04000 42.18800
C  -12.93700 42.96000 43.25400
N  -12.21300 37.40500 42.81500
C  -12.98200 38.47600 42.77100
C  -14.44300 38.13300 42.86100
C  -14.51500 36.61300 42.84600
C  -13.00300 36.31000 42.79600
C  -15.11200 38.67200 44.17800
C  -15.35300 36.01500 41.72800
C  -16.18700 34.74000 42.11800
N  -10.21000 35.29900 42.40100
C  -11.23300 34.46000 42.71100
C  -10.75100 33.10300 42.73700
C  -9.45500 33.21200 42.15000
C  -9.20900 34.57200 42.05900
C  -11.42400 31.86100 43.16000
C  -8.39200 32.47800 41.57700
O  -8.28900 31.30500 41.24400
C  -7.27600 33.47000 41.24000
C  -6.00500 33.21800 42.09400
O  -5.05800 32.49000 41.75000
O  -5.99800 33.96100 43.25100
C  -4.73600 34.07500 44.03800
H  -7.23000 40.47500 40.99700
H  -13.28200 40.60500 42.66900
H  -13.40800 34.24500 42.81300
H  -5.33900 36.10100 41.36700
H  -5.85000 38.56200 39.77700
H  -3.92600 38.01900 41.64800
H  -5.14800 38.96500 42.55600
H  -4.38200 39.49100 40.97800
H  -6.27600 36.76500 38.56800
H  -6.50700 35.04100 39.07800
H  -4.36800 34.49900 38.87200
H  -3.77500 36.04900 39.44800
H  -8.60200 42.75800 39.84400
H  -7.59700 42.38600 41.18400
H  -8.83800 43.62200 41.30500
H  -13.08800 43.92300 43.74000
H  -12.87700 42.30300 44.12200
H  -13.69600 42.63400 42.54300
H  -14.91700 38.46600 41.93800
H  -14.93800 36.21900 43.77000
H  -14.44100 39.17900 44.87100
H  -15.67800 37.90600 44.70900
H  -15.87100 39.38600 43.85900
H  -14.79400 35.72400 40.83900
H  -16.06300 36.77700 41.40800
H  -17.24800 34.89800 41.92800
H  -16.07400 34.48900 43.17300
H  -15.83100 33.98000 41.42300
H  -11.33600 31.75000 44.24100
H  -11.00400 31.05100 42.56300
H  -12.50200 31.99600 43.08000
H  -7.05300 33.43100 40.17400
H  -3.89700 33.78000 43.40700
H  -4.84900 33.49900 44.95600
H  -4.42200 35.10700 44.19300

