158

Mg 30.30600 58.21800 40.12900
C  27.69200 55.98800 39.18800
C  32.50000 55.84200 39.18700
C  32.67000 60.52700 40.74400
C  27.83200 60.82700 40.36100
N  29.98800 56.08200 39.31400
C  28.90400 55.35200 39.07600
C  29.27100 53.95200 38.55100
C  30.84900 54.01400 38.47600
C  31.16100 55.40800 39.03500
C  31.53600 52.80800 39.09500
C  28.72800 53.60800 37.15500
C  29.00100 54.63200 36.08100
H  28.03000 54.82300 34.92900
N  32.35900 58.13500 40.10900
C  33.00200 57.04700 39.70500
C  34.44800 57.28000 39.85300
C  34.58600 58.60800 40.29000
C  33.21600 59.17200 40.36700
C  35.45900 56.15400 39.53800
C  35.92900 59.31800 40.53000
O  36.98300 58.66000 40.51800
C  35.99100 60.72800 40.81900
N  30.20000 60.36800 40.55100
C  31.36300 61.01400 40.84400
C  31.08800 62.54500 41.00100
C  29.54600 62.54600 41.28700
C  29.13900 61.18100 40.71200
C  31.95700 63.44900 41.94200
C  28.72600 63.71400 40.72800
C  27.94000 64.52800 41.82800
N  28.24000 58.39400 39.92200
C  27.38000 59.49700 40.10100
C  25.99600 59.11600 39.88200
C  26.10900 57.73000 39.53500
C  27.47700 57.36100 39.57700
C  24.79600 60.00000 39.94200
C  25.28000 56.58900 39.16800
O  24.07300 56.46800 39.12900
C  26.29500 55.41700 38.88100
C  25.96700 54.26500 39.78300
O  26.36200 54.16400 40.89700
O  25.33900 53.26000 39.05100
C  25.05300 51.96700 39.63400
H  33.12700 55.06500 38.74400
H  33.50000 61.21800 40.90800
H  27.07900 61.58300 40.59400
H  29.02700 53.27300 39.36800
H  31.17600 54.11300 37.44100
H  32.41400 53.12400 39.65800
H  31.83800 52.06400 38.35800
H  30.87800 52.37700 39.84900
H  27.67600 53.32800 37.09800
H  29.50100 52.89400 36.87000
H  29.91800 54.46400 35.51600
H  29.10700 55.65900 36.43300
H  36.48100 56.45600 39.76400
H  35.58600 55.82500 38.50700
H  35.23900 55.30600 40.18800
H  35.67200 60.98700 41.82800
H  35.41700 61.30100 40.09100
H  37.02500 61.06900 40.75800
H  31.20700 62.99000 40.01300
H  29.41400 62.41800 42.36200
H  32.84600 62.92500 42.29300
H  31.29600 63.48900 42.80800
H  32.14100 64.42800 41.50000
H  27.97400 63.48200 39.97400
H  29.38200 64.40600 40.19900
H  28.14100 65.56000 41.54100
H  28.34000 64.30500 42.81700
H  26.87500 64.38700 41.64700
H  24.55200 60.24800 40.97500
H  23.93200 59.53600 39.46600
H  25.00700 60.95600 39.46200
H  26.20000 54.98400 37.88500
H  25.03100 51.80300 40.71200
H  25.73900 51.19400 39.28800
H  24.16900 51.69300 39.05800
Mg 10.11900 48.30300 25.77100
C  7.80200 48.32300 28.52900
C  12.38500 49.75900 27.91200
C  12.21500 48.27300 23.19200
C  7.49200 47.37900 23.76900
N  9.96800 49.15300 27.98000
C  9.07400 48.83200 28.95700
C  9.56100 49.16900 30.35100
C  10.97900 49.85600 30.04900
C  11.12300 49.61000 28.54100
C  11.07100 51.35700 30.49000
C  9.55100 48.03900 31.41400
C  10.62300 48.07900 32.51000
H  10.41800 47.23000 33.75600
N  12.05500 48.83100 25.63900
C  12.83900 49.41100 26.62300
C  14.12900 49.50300 26.05700
C  14.16800 48.94300 24.75700
C  12.75600 48.61200 24.44900
C  15.27600 50.01700 26.83500
C  15.36000 48.67800 23.77900
O  15.27500 48.37300 22.61700
C  16.72800 48.90800 24.36600
N  9.88500 47.88100 23.65400
C  10.93100 47.91200 22.74400
C  10.49100 47.48000 21.32900
C  8.99900 47.14800 21.54300
C  8.76000 47.46200 23.11700
C  10.86000 48.67600 20.34100
C  8.49700 45.74300 21.08500
C  8.75400 44.55400 22.11400
N  7.97700 48.03400 26.00900
C  7.08000 47.60000 25.07800
C  5.83000 47.39000 25.70300
C  6.08200 47.54700 27.08300
C  7.37900 48.03500 27.19000
C  4.51000 46.98300 25.06500
C  5.52100 47.44000 28.37700
O  4.45600 46.99600 28.74800
C  6.60200 47.92000 29.38300
C  6.70300 46.78500 30.32100
O  7.16500 45.68900 30.04200
O  6.14100 47.10000 31.55300
C  6.63700 46.14200 32.53600
H  13.09900 50.15400 28.63800
H  12.95500 48.30000 22.39000
H  6.70300 47.03300 23.09800
H  8.88700 49.97300 30.64600
H  11.86600 49.40700 30.49500
H  11.76700 51.21900 31.31800
H  10.16500 51.81700 30.88300
H  11.44100 52.02600 29.71300
H  9.55200 47.10800 30.84800
H  8.61400 48.22800 31.93800
H  10.66800 49.12100 32.82700
H  11.52900 47.77600 31.98500
H  15.14500 50.51400 27.79600
H  15.73400 50.80100 26.23200
H  16.01900 49.23100 26.96800
H  16.93200 48.23800 25.20100
H  16.96000 49.96100 24.52900
H  17.45100 48.62100 23.60200
H  11.13800 46.61400 21.18800
H  8.40400 47.85000 20.95900
H  10.96100 49.64300 20.83300
H  10.11700 48.70700 19.54400
H  11.77800 48.57700 19.76200
H  9.06900 45.60800 20.16700
H  7.44500 45.88400 20.83700
H  9.33100 44.82100 22.99900
H  9.07900 43.65000 21.60000
H  7.76600 44.28000 22.48500
H  4.38600 45.90000 25.06900
H  4.44500 47.21800 24.00300
H  3.78100 47.49600 25.69300
H  6.17100 48.71100 29.99800
H  6.33800 45.11500 32.33000
H  6.13400 46.37800 33.47400
H  7.72400 46.21500 32.57300

