158

Mg 47.65000 24.11400 27.67700
C  48.56500 26.10500 30.44400
C  47.09500 21.55500 30.12100
C  47.00100 22.00300 25.32400
C  48.81100 26.51100 25.54400
N  47.65400 23.87900 30.04700
C  48.05500 24.90000 30.94500
C  47.94100 24.46500 32.43500
C  47.43400 22.96400 32.33200
C  47.44600 22.73400 30.73500
C  48.42100 21.96600 33.01200
C  47.03400 25.36100 33.30900
C  47.65500 25.90400 34.64300
H  46.58700 26.31900 35.64800
N  47.04400 22.06200 27.69300
C  46.87100 21.22500 28.76600
C  46.32500 19.91900 28.27900
C  46.30600 20.02300 26.87600
C  46.83600 21.37100 26.55700
C  45.92600 18.73700 29.08400
C  45.73100 19.02600 25.88500
O  45.93900 19.21600 24.69000
C  45.20600 17.65900 26.29900
N  47.76800 24.34600 25.72700
C  47.38900 23.29100 24.88600
C  47.14600 23.78100 23.42600
C  47.77400 25.29500 23.54900
C  48.25300 25.36500 24.97100
C  47.91000 22.92200 22.40700
C  46.77200 26.37800 23.15000
C  46.73600 26.57700 21.71400
N  48.39900 25.99600 27.91100
C  48.80800 26.85100 26.91700
C  49.35100 28.05700 27.53500
C  49.28000 27.81600 28.91000
C  48.67300 26.55800 29.08000
C  49.87800 29.19900 26.84000
C  49.49800 28.38400 30.23700
O  49.85600 29.50800 30.54100
C  49.13700 27.29500 31.22400
C  50.37400 26.92300 31.90600
O  51.14500 26.05200 31.52800
O  50.46900 27.67100 33.02500
C  51.53000 27.06600 33.89800
H  46.84200 20.75500 30.82000
H  46.75100 21.40000 24.44800
H  49.14300 27.35800 24.94000
H  48.94500 24.56100 32.84700
H  46.41400 22.86200 32.70400
H  49.02000 22.63200 33.63200
H  49.05000 21.37300 32.34900
H  47.91100 21.37600 33.77300
H  46.14500 24.83500 33.65700
H  46.67100 26.16300 32.66700
H  48.27100 26.75100 34.34100
H  48.39200 25.15000 34.92200
H  46.75700 18.04000 28.98200
H  44.92000 18.41500 28.81200
H  45.77700 18.96800 30.13900
H  45.86500 17.15000 27.00300
H  45.18700 17.04900 25.39600
H  44.21000 17.70200 26.73800
H  46.05600 23.78700 23.42900
H  48.65000 25.41000 22.91100
H  48.22500 22.07200 23.01200
H  48.74700 23.41100 21.90900
H  47.34300 22.54500 21.55500
H  47.07200 27.33600 23.57600
H  45.74100 26.16200 23.43000
H  47.68300 26.39000 21.21000
H  46.49600 27.61200 21.46900
H  46.01900 25.94300 21.19300
H  49.61200 29.22000 25.78300
H  50.95100 29.37000 26.93100
H  49.40700 30.06700 27.30200
H  48.56900 27.81600 31.99400
H  51.53700 27.76900 34.73100
H  52.53500 27.04300 33.47500
H  51.36800 26.02500 34.17800
Mg 41.30000 40.42400 26.72100
C  40.11400 42.78100 29.12200
C  41.83600 38.24200 29.37600
C  42.21000 38.04100 24.45900
C  40.86000 42.69600 24.36500
N  41.20800 40.60000 28.92800
C  40.58700 41.57600 29.63800
C  40.44200 41.17200 31.09800
C  41.06100 39.72900 31.19000
C  41.37200 39.49100 29.73000
C  42.12800 39.45500 32.28600
C  39.03900 41.24700 31.78900
C  39.05500 42.10500 33.09200
H  38.32800 41.57600 34.33700
N  41.98300 38.47500 26.88300
C  42.17900 37.78500 28.06700
C  42.83200 36.52000 27.72700
C  42.71500 36.36300 26.31600
C  42.30800 37.66700 25.80500
C  43.41000 35.59000 28.76300
C  42.91900 35.12900 25.41800
O  42.72200 35.10000 24.18100
C  43.50700 33.76700 25.91800
N  41.44100 40.35200 24.65800
C  41.84200 39.28600 23.94500
C  42.07700 39.57900 22.45400
C  41.71100 41.07700 22.41800
C  41.23200 41.44700 23.90700
C  43.46500 39.28900 21.90200
C  40.59200 41.47900 21.42500
C  39.29700 40.60400 21.43800
N  40.72200 42.38000 26.69500
C  40.53000 43.16000 25.59000
C  39.93000 44.46600 26.02700
C  39.72100 44.30700 27.42600
C  40.29300 43.08600 27.79100
C  39.38700 45.53400 25.07400
C  39.16600 44.97500 28.56000
O  38.66200 46.04000 28.57200
C  39.61300 44.03800 29.78100
C  40.54500 44.70800 30.65300
O  41.75100 44.72400 30.45000
O  39.90000 45.35400 31.73000
C  40.93200 45.80000 32.76600
H  42.16500 37.51200 30.11900
H  42.62700 37.36100 23.71400
H  40.69700 43.45200 23.59400
H  41.16000 41.82700 31.59000
H  40.31200 38.99700 31.49200
H  42.97400 38.95300 31.81500
H  41.72700 38.70000 32.96200
H  42.41300 40.38700 32.77400
H  38.68900 40.23600 31.99900
H  38.33600 41.62600 31.04700
H  38.36900 42.90900 32.82700
H  40.00900 42.58800 33.29900
H  42.56900 35.22800 29.35400
H  44.14100 36.09200 29.39600
H  44.03200 34.75000 28.45400
H  44.58500 33.82800 26.06900
H  43.33800 33.05800 25.10700
H  43.05800 33.44600 26.85800
H  41.39000 38.97600 21.86000
H  42.57800 41.73500 22.36300
H  43.86400 40.18600 21.42800
H  43.35900 38.50400 21.15300
H  44.19900 38.89700 22.60600
H  40.96900 41.35600 20.41000
H  40.34400 42.53300 21.55200
H  38.51800 41.26300 21.82300
H  39.45800 39.73300 22.07300
H  39.07900 40.37300 20.39500
H  38.70700 46.19600 25.60900
H  38.75800 45.08500 24.30500
H  40.19600 46.05700 24.56300
H  38.75100 43.82800 30.41500
H  41.97300 45.63100 32.49300
H  40.74400 45.14700 33.61800
H  40.70100 46.84100 32.99400

