158

Mg -2.42900 17.35700 27.07700
C  -3.11600 15.24000 29.72900
C  -3.09200 20.12800 29.22000
C  -2.19000 19.43400 24.47300
C  -2.50900 14.64900 24.81500
N  -2.93100 17.55500 29.20800
C  -3.03400 16.55200 30.15000
C  -3.36000 17.06300 31.56100
C  -3.36600 18.58700 31.32100
C  -3.09400 18.82500 29.83600
C  -4.76700 19.22500 31.79800
C  -2.51100 16.59500 32.72200
C  -2.29100 17.50800 33.94800
H  -1.66700 16.83600 35.19300
N  -2.53800 19.47500 26.89000
C  -2.84400 20.44200 27.88200
C  -2.66100 21.73200 27.32300
C  -2.29900 21.56500 25.94300
C  -2.35300 20.09700 25.69700
C  -3.00000 23.05300 28.04200
C  -2.09100 22.66000 24.85700
O  -1.81800 22.39900 23.71200
C  -2.09900 24.02400 25.24900
N  -2.59700 17.06000 24.90000
C  -2.27100 18.11800 24.11100
C  -1.98600 17.61000 22.62400
C  -1.97800 16.09400 22.84900
C  -2.31500 15.90800 24.27800
C  -3.05000 18.07500 21.64500
C  -0.73300 15.34000 22.40400
C  0.48600 15.30800 23.30900
N  -2.72500 15.32500 27.18100
C  -2.67700 14.32500 26.19700
C  -2.81400 13.04400 26.84300
C  -3.02000 13.41800 28.19700
C  -2.96200 14.73800 28.34200
C  -2.64600 11.68800 26.38100
C  -3.22000 12.77600 29.39600
O  -3.28100 11.58900 29.60700
C  -3.34300 13.92900 30.48300
C  -2.38600 13.68700 31.58700
O  -1.21300 14.03100 31.49100
O  -3.10300 13.15500 32.58000
C  -2.32200 12.87400 33.84200
H  -3.12800 20.99100 29.88900
H  -1.94000 20.00200 23.57400
H  -2.48300 13.81800 24.10700
H  -4.33000 16.70600 31.90500
H  -2.50700 18.99100 31.85800
H  -4.86100 19.14800 32.88200
H  -5.64900 18.76800 31.35100
H  -4.82100 20.26500 31.47800
H  -1.56400 16.21200 32.34100
H  -3.06200 15.76700 33.16600
H  -3.26000 17.86800 34.29400
H  -1.70200 18.40300 33.74900
H  -3.57800 22.90500 28.95400
H  -3.59400 23.61700 27.32300
H  -2.11200 23.66100 28.21500
H  -1.47800 24.14800 26.13600
H  -3.10900 24.38400 25.44000
H  -1.63200 24.63300 24.47500
H  -1.00300 17.95800 22.30600
H  -2.79300 15.56000 22.36000
H  -3.71100 17.21700 21.52100
H  -2.67000 18.56700 20.75000
H  -3.55000 18.88900 22.16900
H  -0.35300 15.80900 21.49600
H  -0.98400 14.30600 22.17000
H  0.37100 15.66800 24.33100
H  1.33300 15.82000 22.85200
H  0.82200 14.30200 23.56100
H  -1.88200 11.09200 26.88000
H  -2.36900 11.74400 25.32800
H  -3.63700 11.24600 26.48200
H  -4.35100 14.05300 30.87900
H  -2.22500 13.89700 34.20600
H  -1.32300 12.52700 33.57400
H  -2.75500 12.12100 34.50000
Mg 0.00100 8.05500 26.51900
C  0.62500 9.55800 29.63200
C  0.00500 4.97800 27.85900
C  0.39100 6.67200 23.36600
C  0.53500 11.16600 24.97400
N  0.19400 7.45500 28.56900
C  0.41000 8.15000 29.72500
C  0.02900 7.35300 30.96500
C  0.10500 5.91000 30.39300
C  0.06500 6.09400 28.78400
C  1.46300 5.19200 30.79600
C  -1.28100 7.79800 31.58100
C  -1.32300 7.79400 33.13400
H  -0.26700 6.96700 33.88400
N  -0.13100 6.15000 25.75100
C  -0.11500 5.01100 26.45000
C  -0.32200 3.84100 25.62200
C  -0.23900 4.39300 24.26900
C  0.02900 5.79900 24.40000
C  -0.44700 2.48700 26.11200
C  -0.38700 3.66700 22.91400
O  -0.47600 4.29800 21.82500
C  -0.54700 2.20100 22.90300
N  0.24900 8.82300 24.43100
C  0.55400 8.04600 23.38100
C  0.93700 8.81200 22.18400
C  0.52800 10.25300 22.59300
C  0.43200 10.12600 24.08400
C  2.48400 8.82500 21.75600
C  -0.69600 10.87700 21.84700
C  -2.05300 10.63100 22.53600
N  0.46700 9.96000 27.09300
C  0.58100 11.12200 26.36300
C  0.77700 12.23100 27.27800
C  0.85800 11.63000 28.55800
C  0.64900 10.29100 28.39400
C  1.10400 13.64100 26.81900
C  0.96600 11.95500 29.97200
O  1.21300 13.01100 30.55700
C  0.66800 10.61500 30.72700
C  1.63600 10.41300 31.78800
O  2.75800 10.00200 31.60000
O  1.23400 11.05000 32.89700
C  2.26600 11.33700 33.99000
H  -0.11500 4.02100 28.37100
H  0.71300 6.25600 22.40900
H  0.56500 12.21100 24.65700
H  0.84200 7.45700 31.68400
H  -0.67700 5.21800 30.70700
H  1.16000 4.43200 31.51700
H  2.16800 5.76400 31.40000
H  2.04800 4.70200 30.01800
H  -2.13700 7.26700 31.16300
H  -1.49800 8.78000 31.16100
H  -2.29800 7.37400 33.37900
H  -1.21700 8.79700 33.54700
H  0.04500 1.70700 25.53100
H  -1.50700 2.26400 26.23300
H  0.01900 2.47900 27.09700
H  0.25200 1.71900 23.46600
H  -0.44300 1.93300 21.85200
H  -1.52400 1.97000 23.32700
H  0.33500 8.48500 21.33700
H  1.32800 10.98700 22.49800
H  3.17700 9.10600 22.54900
H  2.59800 9.58300 20.98100
H  2.62900 7.80700 21.39300
H  -0.60400 10.43000 20.85800
H  -0.54400 11.95700 21.83700
H  -2.02000 9.77500 23.21000
H  -2.89600 10.49300 21.85900
H  -2.28100 11.52000 23.12500
H  1.86200 13.64400 26.03600
H  1.45700 14.27800 27.63000
H  0.24100 14.19400 26.44900
H  -0.27100 10.61600 31.28200
H  2.32400 12.41700 34.12900
H  3.30300 11.06900 33.78500
H  1.85700 10.99200 34.93900

