158

Mg -1.34700 17.38200 27.18800
C  -1.94800 15.17100 30.05200
C  -1.85500 20.00300 29.46500
C  -1.35300 19.32800 24.71500
C  -1.73700 14.47300 25.13200
N  -1.92800 17.54500 29.49400
C  -1.84000 16.51400 30.44300
C  -2.06100 17.04900 31.84900
C  -2.16800 18.58100 31.62000
C  -2.00600 18.77400 30.11300
C  -3.57900 19.20500 32.11800
C  -0.87800 16.60500 32.84300
C  -0.59500 17.51900 34.00900
H  -0.34200 17.03900 35.42700
N  -1.34600 19.39900 27.09700
C  -1.56200 20.33700 28.13600
C  -1.44200 21.68200 27.56100
C  -1.23200 21.44800 26.10800
C  -1.35900 20.01900 25.88400
C  -1.46900 22.95600 28.35400
C  -1.03200 22.41400 25.01900
O  -1.02300 22.10200 23.83100
C  -0.90400 23.91000 25.25200
N  -1.74900 16.96400 25.22700
C  -1.59900 17.99800 24.33400
C  -1.53000 17.54100 22.82500
C  -1.50100 15.96000 23.02100
C  -1.66800 15.75100 24.52000
C  -2.77700 18.11600 21.99500
C  -0.23500 15.25600 22.49800
C  1.15700 15.42200 23.23200
N  -1.71000 15.24600 27.45300
C  -1.76500 14.25100 26.55000
C  -2.10700 13.07100 27.24300
C  -2.06200 13.31400 28.61800
C  -1.88100 14.71700 28.70600
C  -2.35600 11.71800 26.48800
C  -2.25400 12.70600 29.96900
O  -2.51600 11.58700 30.38300
C  -2.17200 13.93700 30.96400
C  -1.04300 13.58100 31.82600
O  0.12500 13.71500 31.44900
O  -1.44800 13.21300 33.12000
C  -0.39300 13.11600 34.12100
H  -1.81700 20.80200 30.20800
H  -1.35300 19.93400 23.80600
H  -1.73200 13.54500 24.55600
H  -3.05300 16.64900 32.05800
H  -1.43400 19.21400 32.11800
H  -3.82700 18.58400 32.97900
H  -4.25900 19.02100 31.28700
H  -3.42000 20.26500 32.31400
H  0.04500 16.31100 32.34500
H  -1.32400 15.72700 33.31000
H  -1.52300 18.09000 33.97900
H  0.21800 18.21900 33.81600
H  -1.62100 23.80400 27.68600
H  -0.44000 22.92500 28.71300
H  -2.07900 23.05300 29.25200
H  0.00700 24.06600 25.83000
H  -1.80300 24.30400 25.72600
H  -0.85000 24.37400 24.26700
H  -0.56900 17.69800 22.33600
H  -2.43100 15.56500 22.61400
H  -3.25200 18.92100 22.55500
H  -3.40700 17.28900 21.66600
H  -2.33400 18.42500 21.04800
H  -0.13300 15.70700 21.51000
H  -0.39700 14.19600 22.30300
H  1.01900 15.77500 24.25500
H  1.75000 16.16500 22.69800
H  1.52900 14.39800 23.27200
H  -2.74100 11.91800 25.48800
H  -3.10400 11.17300 27.06400
H  -1.49700 11.04800 26.51200
H  -3.08400 13.98000 31.55900
H  0.24100 14.00100 34.06800
H  0.22700 12.22700 34.00100
H  -0.82900 13.07800 35.11900
Mg 42.45600 41.83500 26.17100
C  41.42400 44.19100 28.57500
C  43.47900 39.77600 28.77700
C  43.74500 39.83400 23.87600
C  42.20600 44.40100 23.84700
N  42.44300 41.99300 28.44200
C  41.81900 42.94700 29.14600
C  41.78200 42.61900 30.68800
C  42.54800 41.22900 30.72800
C  42.83000 40.99000 29.21900
C  43.70100 41.03700 31.72600
C  40.35500 42.64000 31.44400
C  40.30400 43.69700 32.58400
H  39.43900 43.32800 33.76800
N  43.47700 40.10100 26.33500
C  43.67600 39.34600 27.43500
C  44.12100 37.99100 26.98800
C  44.15400 38.01400 25.57800
C  43.76500 39.37100 25.15400
C  44.64000 36.94000 27.90500
C  44.56200 36.85600 24.67600
O  44.45100 36.89300 23.43600
C  45.09700 35.62600 25.17800
N  42.78800 42.00700 24.18500
C  43.27200 41.06200 23.44600
C  43.52100 41.49600 21.96700
C  42.98000 42.97900 21.94900
C  42.61900 43.12000 23.42200
C  45.05800 41.35300 21.58400
C  41.85200 43.21400 20.92500
C  40.55300 42.42100 21.20400
N  41.80400 43.83500 26.11800
C  41.74500 44.76900 25.08800
C  41.09000 45.98200 25.46300
C  41.02500 45.86200 26.84800
C  41.46100 44.49700 27.17100
C  40.90800 47.19100 24.61900
C  40.63400 46.49800 28.06800
O  40.30000 47.65100 28.24900
C  40.93700 45.47200 29.23100
C  41.86500 46.15500 30.04100
O  43.07700 46.22500 29.82600
O  41.22600 46.48900 31.25300
C  42.21600 46.94200 32.24700
H  43.68200 39.06600 29.58100
H  44.14800 39.13200 23.14300
H  41.97500 45.00000 22.96400
H  42.42600 43.35300 31.17200
H  41.80100 40.54600 31.13300
H  43.95900 42.08200 31.89900
H  44.52200 40.47900 31.27500
H  43.37400 40.45900 32.59000
H  40.10900 41.66000 31.85300
H  39.65300 42.91600 30.65700
H  39.89200 44.58300 32.10100
H  41.30200 43.98100 32.91700
H  44.63800 37.35700 28.91200
H  45.68300 36.67700 27.72600
H  44.00800 36.05500 27.96900
H  44.50800 35.18300 25.98100
H  46.06600 35.82900 25.63600
H  45.34600 34.87900 24.42400
H  42.86400 40.86200 21.37300
H  43.77500 43.67100 21.67200
H  45.14500 40.39300 21.07300
H  45.64400 41.38700 22.50200
H  45.32600 42.16800 20.91200
H  42.31000 42.93800 19.97600
H  41.65300 44.28400 20.99200
H  40.29500 42.06000 20.20800
H  39.78700 43.15000 21.46600
H  40.77300 41.56500 21.84100
H  40.13200 46.72700 24.01000
H  41.77400 47.38000 23.98500
H  40.41400 48.01300 25.13700
H  39.99100 45.30700 29.74700
H  42.37700 46.15200 32.98200
H  41.77100 47.72600 32.85900
H  43.24100 47.27200 32.08000

