158

Mg 40.93700 8.00700 29.05600
C  42.74800 9.36400 31.78400
C  38.97300 6.40600 31.29700
C  39.33200 6.89800 26.44900
C  43.31500 9.48800 26.91600
N  40.95800 7.77000 31.25700
C  41.64500 8.62300 32.17100
C  41.08300 8.57300 33.58500
C  39.96800 7.41000 33.41000
C  39.92300 7.18700 31.89300
C  40.14700 6.19800 34.35400
C  40.47600 9.95400 34.13200
C  40.14500 9.97000 35.63600
H  41.03500 10.82300 36.55100
N  39.43300 6.74900 28.92300
C  38.76200 6.08900 29.93100
C  37.76400 5.25700 29.41600
C  37.69500 5.45000 27.98100
C  38.84600 6.36600 27.71700
C  36.84900 4.49800 30.36500
C  36.70300 4.97100 27.03400
O  36.86600 5.17500 25.85900
C  35.45300 4.24600 27.40000
N  41.24000 8.18800 27.04200
C  40.41700 7.69500 26.16200
C  40.74600 7.99100 24.73500
C  41.93100 8.99600 24.89300
C  42.20000 8.88200 26.38600
C  40.98800 6.78300 23.82600
C  41.52400 10.45300 24.48200
C  40.72300 11.29800 25.53800
N  42.70900 9.12100 29.23700
C  43.60600 9.59700 28.27300
C  44.64300 10.32800 28.92100
C  44.33800 10.28400 30.30900
C  43.16400 9.53700 30.44200
C  45.88100 10.93200 28.22900
C  44.80300 10.64400 31.66400
O  45.91700 11.06200 32.02800
C  43.71400 10.09300 32.70600
C  44.36500 9.22500 33.71200
O  44.87500 8.10200 33.60200
O  44.08300 9.80900 34.89100
C  44.35100 9.06100 36.11800
H  38.32700 5.93100 32.03900
H  38.84000 6.57000 25.53100
H  43.86100 9.96100 26.09700
H  41.85500 8.08800 34.18300
H  39.00500 7.79800 33.74100
H  39.87500 5.22700 33.94000
H  39.46700 6.35700 35.19100
H  41.15600 6.17900 34.76600
H  39.53200 10.15300 33.62400
H  40.96400 10.85100 33.75300
H  40.32200 8.95000 35.97700
H  39.08800 10.21300 35.74100
H  37.22100 4.26100 31.36200
H  36.60700 3.56200 29.86000
H  35.91500 5.05400 30.28300
H  34.87900 4.72500 28.19300
H  35.85500 3.26600 27.65700
H  34.71200 4.13000 26.60900
H  39.87000 8.56600 24.43700
H  42.81000 8.77900 24.28500
H  40.12100 6.85100 23.16900
H  40.80700 5.82200 24.30900
H  41.85700 6.85000 23.17100
H  40.90400 10.35700 23.59100
H  42.44700 10.91800 24.13500
H  40.82600 10.90400 26.54900
H  39.68000 11.13300 25.26700
H  40.97100 12.35900 25.50100
H  45.77800 12.01700 28.23700
H  45.91200 10.61300 27.18800
H  46.70800 10.54400 28.82300
H  43.19400 10.88800 33.24100
H  43.49500 8.40500 36.27800
H  44.38800 9.76300 36.95100
H  45.28000 8.50400 35.99700
Mg 46.87600 24.61600 29.33700
C  47.49700 27.18300 31.66900
C  45.75800 22.65100 31.93700
C  46.72700 22.05400 27.19400
C  48.37300 26.61900 26.88000
N  46.68900 24.93700 31.59800
C  46.99400 26.07900 32.34300
C  46.37000 25.91800 33.79700
C  45.94000 24.39800 33.84200
C  46.07000 23.96800 32.36800
C  46.91800 23.52400 34.70000
C  45.29800 26.93700 34.29200
C  45.64200 27.61900 35.63400
H  46.35400 26.83300 36.70100
N  46.51000 22.60600 29.58500
C  45.99100 22.00100 30.73200
C  45.49400 20.65900 30.34400
C  45.64000 20.53000 28.98500
C  46.38200 21.71400 28.53400
C  44.78400 19.67900 31.34600
C  45.33700 19.30800 28.03300
O  45.64300 19.26300 26.87100
C  44.62200 18.11500 28.51900
N  47.60100 24.30700 27.29800
C  47.30500 23.17200 26.62800
C  47.89100 23.19600 25.20900
C  48.28700 24.73400 25.02000
C  48.06500 25.28600 26.50400
C  48.95600 22.08900 24.90500
C  47.48000 25.54300 23.91500
C  46.21700 26.22800 24.33500
N  47.67700 26.50900 29.20700
C  48.30500 27.13300 28.15800
C  48.79000 28.47500 28.60700
C  48.39500 28.52500 29.94600
C  47.78900 27.28600 30.27400
C  49.47100 29.47300 27.84300
C  48.56300 29.34500 31.12700
O  48.97400 30.46600 31.27100
C  47.86000 28.51700 32.29800
C  48.77800 28.26100 33.41500
O  49.62900 27.39100 33.40000
O  48.64100 29.17700 34.41600
C  49.58000 29.08800 35.53700
H  45.20100 22.06800 32.67400
H  46.74500 21.20100 26.51200
H  48.67300 27.25500 26.04400
H  47.29100 26.15400 34.33000
H  44.91000 24.25400 34.16800
H  47.52100 24.17900 35.32800
H  47.62400 22.89900 34.15200
H  46.37800 22.84500 35.35900
H  44.41000 26.36800 34.56500
H  45.18400 27.67300 33.49600
H  44.71800 27.82100 36.17500
H  45.98700 28.62200 35.38100
H  45.21300 18.70600 31.10700
H  43.73100 19.85500 31.12800
H  44.93800 19.90800 32.40000
H  45.32200 17.58000 29.16200
H  44.36700 17.45500 27.69000
H  43.66300 18.43300 28.92700
H  46.96800 22.88700 24.71800
H  49.36000 24.82800 24.85800
H  49.23000 21.49200 25.77500
H  49.79900 22.62500 24.47000
H  48.48600 21.34200 24.26600
H  47.37600 24.89800 23.04300
H  48.25000 26.28900 23.72000
H  45.37000 25.66200 23.94800
H  46.14100 27.27800 24.05100
H  46.08900 26.20800 25.41700
H  48.71200 29.75400 27.11300
H  50.31300 29.00400 27.33500
H  49.91500 30.31400 28.37600
H  46.91600 28.98400 32.57600
H  49.15000 28.50700 36.35200
H  49.70900 30.09000 35.94600
H  50.59000 28.74800 35.30800

