158

Mg 2.13600 -1.01100 44.91400
C  5.49300 -0.18300 43.91400
C  1.18600 1.62900 43.03800
C  -0.94200 -2.11700 45.32200
C  3.41400 -3.96500 46.11400
N  3.31300 0.61100 43.68700
C  4.62900 0.78900 43.51200
C  4.96900 2.18500 42.91600
C  3.48900 2.76500 42.68000
C  2.57600 1.61900 43.15600
C  3.27100 4.16600 43.39500
C  5.75500 2.23900 41.61700
C  5.46400 1.23000 40.52600
H  5.11900 1.70500 39.04700
N  0.30900 -0.29500 44.28300
C  0.09100 0.80000 43.50200
C  -1.37500 0.91700 43.22000
C  -2.03600 -0.09300 43.94300
C  -0.87600 -0.84700 44.62000
C  -1.99400 2.03600 42.38900
C  -3.58400 -0.27200 44.08600
O  -4.36500 0.49400 43.50900
C  -4.19700 -1.50800 44.85700
N  1.33600 -2.76200 45.60400
C  0.05700 -2.93900 45.75900
C  -0.32600 -4.27100 46.48500
C  1.12000 -5.04000 46.43600
C  2.01400 -3.79700 46.18000
C  -0.94600 -4.10800 47.96200
C  1.30000 -6.11600 45.28900
C  1.78200 -7.57100 45.74300
N  4.07500 -1.84000 45.15700
C  4.40900 -3.09800 45.57100
C  5.88000 -3.28800 45.62500
C  6.30200 -2.20000 44.83000
C  5.22300 -1.33100 44.72200
C  6.53300 -4.49100 46.16600
C  7.38900 -1.64500 44.23200
O  8.48500 -2.15700 44.09600
C  6.99000 -0.25800 43.70600
C  7.66400 0.96000 44.31000
O  7.23300 1.60700 45.27400
O  8.67300 1.42800 43.48600
C  9.48500 2.40800 44.21000
H  0.74400 2.48800 42.53000
H  -1.91400 -2.56900 45.53400
H  3.75000 -4.80800 46.72100
H  5.42000 2.85500 43.64800
H  3.28200 2.83700 41.61200
H  4.28700 4.43400 43.68600
H  2.74800 4.15400 44.35100
H  2.86400 4.87900 42.67800
H  6.81400 2.26700 41.87500
H  5.52800 3.20300 41.16100
H  4.66900 0.53800 40.80300
H  6.31800 0.57700 40.35100
H  -2.99300 1.81900 42.01100
H  -1.34700 2.33800 41.56500
H  -2.14700 2.85900 43.08700
H  -3.59000 -2.38200 44.62000
H  -5.25800 -1.70200 44.69800
H  -4.18400 -1.32500 45.93100
H  -1.03500 -4.92900 45.98500
H  1.39100 -5.64200 47.30200
H  -0.22400 -4.51100 48.67200
H  -1.66600 -4.92700 47.97200
H  -1.37300 -3.12800 48.17400
H  1.99800 -5.68100 44.57300
H  0.32000 -6.30100 44.84900
H  1.12000 -8.28900 45.25900
H  1.83800 -7.68600 46.82500
H  2.78500 -7.71200 45.34000
H  5.92200 -5.38900 46.06900
H  6.81900 -4.15900 47.16400
H  7.40800 -4.64000 45.53300
H  7.29000 -0.14900 42.66400
H  9.72100 2.06200 45.21600
H  8.99600 3.37700 44.31400
H  10.36400 2.76500 43.67500
Mg 40.60200 8.18800 29.05400
C  42.55800 9.47200 31.74800
C  38.33600 7.11500 31.33700
C  39.02600 6.70000 26.51900
C  43.27000 9.07100 26.86800
N  40.58800 8.27500 31.27000
C  41.31100 8.99400 32.18900
C  40.69600 8.99500 33.60700
C  39.35000 8.27300 33.37800
C  39.42900 7.88400 31.90700
C  38.99700 7.21200 34.43200
C  40.45400 10.46800 34.09100
C  39.69000 10.70600 35.37400
H  40.34400 11.64700 36.35000
N  38.86900 7.00400 28.95500
C  38.06100 6.65500 30.06400
C  36.98400 5.87200 29.52800
C  37.02300 5.88900 28.05200
C  38.34100 6.56000 27.77500
C  35.91500 5.17000 30.50500
C  35.99900 5.30100 27.14000
O  36.20300 5.36100 25.93900
C  34.63300 4.82200 27.67800
N  41.18200 7.62200 27.10000
C  40.30900 7.20600 26.17200
C  40.85700 7.15600 24.77000
C  42.24000 7.89700 24.94800
C  42.22400 8.28200 26.45800
C  41.12700 5.76800 24.09800
C  42.41800 9.24600 24.08700
C  41.30600 10.30500 24.15100
N  42.59700 9.01900 29.21200
C  43.47000 9.39300 28.25800
C  44.62300 9.93700 28.95000
C  44.25400 10.00500 30.26400
C  43.08200 9.39200 30.44000
C  45.93100 10.34400 28.18700
C  44.76600 10.49100 31.53200
O  45.79200 10.98200 31.86200
C  43.67100 10.15500 32.54500
C  44.23500 9.29900 33.60700
O  44.63200 8.19500 33.44900
O  44.06700 9.85800 34.84000
C  44.49200 9.15700 36.06800
H  37.45800 6.97300 31.97100
H  38.36500 6.42900 25.69300
H  44.09000 9.31600 26.18900
H  41.30600 8.50500 34.36600
H  38.51000 8.96100 33.47200
H  37.97900 7.40600 34.77100
H  39.74000 7.19900 35.23000
H  39.05100 6.19200 34.05100
H  39.95800 10.94600 33.24600
H  41.40900 10.97300 34.23600
H  39.34700 9.77900 35.83400
H  38.80600 11.24200 35.03000
H  36.47700 4.99500 31.42300
H  35.61900 4.19700 30.11200
H  35.06600 5.83900 30.64100
H  34.75300 3.98400 28.36600
H  34.00200 4.63700 26.80900
H  34.26300 5.64500 28.28900
H  40.15100 7.65300 24.10500
H  43.06600 7.22300 24.72000
H  40.68400 5.90300 23.11100
H  40.55200 4.97200 24.57100
H  42.17100 5.52400 23.90000
H  42.24100 8.79900 23.10900
H  43.44900 9.59700 24.13000
H  40.98800 10.42100 25.18700
H  40.45900 10.11000 23.49300
H  41.86600 11.20200 23.88500
H  45.77300 11.39400 27.93600
H  46.17400 9.62500 27.40400
H  46.65400 10.29600 29.00100
H  43.31700 11.09400 32.97000
H  45.35500 9.71400 36.43300
H  44.73100 8.09400 36.05800
H  43.69700 9.20800 36.81200

