158

Mg 48.62100 45.19500 43.94100
C  45.50500 45.79700 42.49000
C  48.83000 42.09800 42.44100
C  52.05600 45.27400 44.28300
C  48.60600 48.59500 44.96000
N  47.24100 44.07400 42.69300
C  46.02600 44.53600 42.23000
C  45.39100 43.39000 41.47500
C  46.28100 42.13300 41.86100
C  47.55400 42.79700 42.37300
C  45.64200 41.32000 43.00500
C  45.31600 43.71500 39.90300
C  43.82000 43.66600 39.34500
H  43.69200 42.83800 38.07100
N  50.19800 43.79800 43.65300
C  50.04900 42.59900 42.94300
C  51.31600 41.84300 42.97300
C  52.22200 42.75500 43.55200
C  51.46400 44.03300 43.90100
C  51.46900 40.41600 42.33100
C  53.73800 42.54200 43.67200
O  54.20500 41.48100 43.24900
C  54.77000 43.49300 44.28900
N  50.16400 46.70100 44.65500
C  51.48300 46.49800 44.58800
C  52.25300 47.69300 45.08700
C  51.06200 48.59200 45.71800
C  49.86600 47.94900 45.11900
C  53.47500 47.39800 46.07100
C  51.19800 50.06500 45.28200
C  51.10300 51.08400 46.38400
N  47.30900 46.89800 43.76600
C  47.46800 48.18100 44.28300
C  46.28700 48.96500 44.01100
C  45.36900 48.02400 43.36000
C  46.12700 46.81800 43.22100
C  46.04200 50.38200 44.20000
C  44.07500 47.83400 42.78000
O  43.18200 48.57800 42.61500
C  44.09700 46.34000 42.20200
C  43.05500 45.55500 42.89000
O  43.23600 44.78900 43.84500
O  41.81400 45.67100 42.25800
C  40.78900 44.74700 42.73900
H  48.98600 41.11700 41.98700
H  53.14500 45.31700 44.33700
H  48.54200 49.61400 45.34600
H  44.37800 43.34100 41.87300
H  46.52000 41.46600 41.03300
H  45.80000 40.27200 42.75000
H  44.59000 41.54400 43.18300
H  46.07100 41.42100 44.00100
H  45.92700 42.94500 39.43100
H  45.79000 44.65100 39.60800
H  43.62600 44.70100 39.06200
H  43.15300 43.20300 40.07300
H  51.81900 40.42300 41.29900
H  50.63600 39.72700 42.46500
H  52.20900 39.84000 42.88700
H  55.61100 42.89200 44.63500
H  54.33400 43.85300 45.22100
H  54.99500 44.27700 43.56500
H  52.64900 48.22400 44.22100
H  51.06200 48.42200 46.79500
H  53.34500 46.38100 46.44200
H  53.54800 48.02800 46.95800
H  54.41800 47.62300 45.57400
H  50.57500 50.31100 44.42200
H  52.14800 50.25100 44.78200
H  51.54900 52.02700 46.06600
H  51.63500 50.77100 47.28300
H  50.06400 51.31100 46.62300
H  46.28500 50.91300 43.28000
H  46.70600 50.83600 44.93600
H  44.97900 50.46200 44.42500
H  43.86800 46.37700 41.13700
H  39.93700 45.32800 43.09300
H  41.07600 44.05500 43.53100
H  40.39900 44.19900 41.88100
Mg 5.66200 54.83300 39.74500
C  3.44600 52.19400 40.28500
C  7.99800 52.51400 38.58400
C  7.74000 57.40900 38.87700
C  3.09700 57.07000 40.33100
N  5.60900 52.67300 39.27700
C  4.63600 51.79400 39.62600
C  4.93700 50.33500 39.10300
C  6.50200 50.48400 38.82300
C  6.74900 52.03100 38.91500
C  7.41200 49.61500 39.75900
C  4.15800 50.04600 37.75200
C  4.14200 48.59800 37.24500
H  4.79200 48.45000 35.83400
N  7.62800 54.96800 38.99500
C  8.40000 53.90500 38.61200
C  9.72400 54.40100 38.42600
C  9.75900 55.82300 38.41400
C  8.32300 56.13500 38.79200
C  10.84400 53.41500 38.18300
C  10.93900 56.74600 38.13500
O  12.02400 56.18700 37.98500
C  10.77900 58.22400 38.01900
N  5.44900 56.88300 39.51300
C  6.42200 57.77400 39.16100
C  5.86300 59.21800 39.07600
C  4.39100 59.07200 39.54700
C  4.30100 57.55600 39.78600
C  6.71900 60.36400 39.67500
C  3.43200 59.78600 38.59700
C  2.92600 61.18000 39.05400
N  3.62300 54.72600 40.24400
C  2.73600 55.76200 40.56900
C  1.43200 55.14200 40.93900
C  1.72300 53.78400 40.98600
C  2.98800 53.55700 40.47500
C  0.12100 55.86900 41.17000
C  1.16400 52.50000 41.27800
O  0.03800 52.15600 41.67300
C  2.23000 51.45300 40.83200
C  1.59100 50.53800 40.02900
O  1.00300 50.81300 39.01300
O  1.71700 49.27300 40.49300
C  1.21200 48.23100 39.65400
H  8.71400 51.72200 38.35600
H  8.36700 58.29500 38.75400
H  2.39400 57.85200 40.62600
H  4.65400 49.68000 39.92700
H  6.78500 50.13600 37.83000
H  7.62100 50.26600 40.60800
H  8.27400 49.33300 39.15400
H  6.92600 48.69900 40.09500
H  4.32800 50.86000 37.04700
H  3.13700 50.18900 38.10700
H  3.13200 48.21400 37.10200
H  4.58900 47.87800 37.93100
H  10.45800 52.48600 37.76200
H  11.35500 53.14700 39.10800
H  11.47300 53.87100 37.41900
H  10.19400 58.41100 37.11800
H  11.80000 58.54200 37.81100
H  10.50500 58.76200 38.92600
H  5.80900 59.39900 38.00300
H  4.27700 59.52700 40.53100
H  7.51900 59.86600 40.22300
H  6.13700 60.93900 40.39400
H  7.09400 61.00800 38.87900
H  2.55800 59.18700 38.34200
H  3.94300 59.95100 37.64900
H  2.66900 61.80100 38.19600
H  3.75600 61.66700 39.56500
H  2.04300 61.08200 39.68500
H  0.18300 56.95000 41.28900
H  -0.31700 55.43000 42.06600
H  -0.60700 55.61700 40.40000
H  2.57900 50.86500 41.68200
H  1.21200 48.34100 38.57000
H  0.14000 48.17000 39.84000
H  1.68300 47.30200 39.97600

