158

Mg 1.56200 -0.59400 43.81700
C  4.96700 -0.11200 43.26600
C  0.82200 2.42800 42.15600
C  -1.73500 -1.42100 43.71900
C  2.28900 -3.93500 44.92200
N  2.71400 1.00100 42.89100
C  4.07900 0.95500 42.82200
C  4.63000 2.25500 42.23200
C  3.34200 3.18500 42.16300
C  2.21900 2.19900 42.40400
C  3.42500 4.48300 43.04000
C  5.43300 2.01500 40.86700
C  6.50400 3.07100 40.47100
H  6.63500 3.34200 39.05700
N  -0.22400 0.42800 43.13600
C  -0.35100 1.62200 42.43300
C  -1.70700 1.90800 42.15700
C  -2.45500 0.83300 42.76800
C  -1.47100 -0.14100 43.28600
C  -2.09500 3.21600 41.62400
C  -3.97100 0.78100 42.86400
O  -4.56500 1.75300 42.32500
C  -4.82400 -0.23800 43.55400
N  0.41800 -2.49300 44.24300
C  -0.98100 -2.48200 44.20500
C  -1.54500 -3.88100 44.57800
C  -0.25200 -4.41200 45.33000
C  0.90900 -3.63500 44.83700
C  -2.89200 -3.88100 45.43000
C  -0.15900 -5.96500 45.19300
C  0.01300 -6.75900 46.49500
N  3.29900 -1.75100 44.19900
C  3.41400 -3.07100 44.60100
C  4.87300 -3.30100 44.82900
C  5.56300 -2.13200 44.36000
C  4.52500 -1.26300 43.88800
C  5.45000 -4.54400 45.36600
C  6.75500 -1.51500 44.06900
O  7.87500 -1.85200 44.40000
C  6.53400 -0.20500 43.37900
C  7.12200 0.86200 44.30000
O  6.61100 1.36900 45.32600
O  8.26000 1.40100 43.73400
C  8.95600 2.49500 44.48400
H  0.75800 3.46100 41.80700
H  -2.79100 -1.68100 43.61400
H  2.53600 -4.85600 45.45400
H  5.28200 2.62100 43.02500
H  3.26200 3.57900 41.15000
H  4.43700 4.88700 43.04400
H  3.11700 4.46600 44.08600
H  2.86100 5.27800 42.55100
H  4.68800 1.87900 40.08200
H  5.81700 0.99500 40.85300
H  7.38600 2.89900 41.08800
H  6.03200 3.94900 40.91200
H  -2.59600 3.00900 40.67800
H  -1.32300 3.89100 41.25400
H  -2.82100 3.67800 42.29300
H  -5.83800 0.07400 43.80600
H  -4.51500 -0.33000 44.59600
H  -4.91200 -1.24600 43.15100
H  -1.66700 -4.42900 43.64400
H  -0.24400 -4.16500 46.39200
H  -3.59000 -4.54300 44.91900
H  -3.37000 -2.91100 45.57400
H  -2.70400 -4.34800 46.39700
H  0.70800 -6.20800 44.57900
H  -0.98700 -6.38000 44.61900
H  0.99800 -7.22200 46.54400
H  -0.85300 -7.41600 46.56800
H  0.11500 -6.08900 47.34900
H  5.23900 -5.42700 44.76200
H  5.03800 -4.82000 46.33700
H  6.53600 -4.52100 45.45800
H  7.04000 -0.19400 42.41300
H  8.45700 3.45900 44.38400
H  9.85700 2.79700 43.94900
H  9.17900 2.20900 45.51200
Mg 48.32800 24.38300 29.00600
C  49.33800 26.77100 31.39500
C  47.60900 22.23600 31.58200
C  47.49300 22.09500 26.62900
C  49.32900 26.63200 26.51000
N  48.58700 24.47900 31.19600
C  48.74000 25.62500 31.95600
C  48.40200 25.34700 33.41600
C  47.99500 23.83900 33.41100
C  48.02500 23.49000 31.92000
C  48.91300 22.88300 34.19500
C  47.31800 26.41900 33.85600
C  46.70400 26.20000 35.26400
H  47.03600 27.16600 36.47300
N  47.66000 22.45700 29.06100
C  47.40300 21.78600 30.21700
C  46.85200 20.48300 29.88100
C  46.77600 20.42100 28.40500
C  47.34300 21.67200 27.92200
C  46.44300 19.41600 30.87600
C  46.24000 19.33800 27.42800
O  46.30500 19.40800 26.18200
C  45.56200 18.20500 27.93700
N  48.45400 24.28300 26.86600
C  48.02800 23.27800 26.13300
C  48.23100 23.52200 24.65000
C  48.65100 25.05700 24.63600
C  48.82600 25.37100 26.07100
C  49.28100 22.59200 23.97500
C  47.66500 26.05700 23.85900
C  48.43000 27.17300 23.07400
N  49.16900 26.26800 28.89100
C  49.45300 27.09300 27.81600
C  50.12100 28.35700 28.25100
C  50.09600 28.28000 29.66800
C  49.51100 26.99600 30.00800
C  50.75300 29.47200 27.46900
C  50.31600 28.98000 30.93700
O  50.84400 30.11300 31.06500
C  49.78100 28.08700 32.02500
C  50.80000 27.85300 33.09100
O  51.73500 27.05400 33.06900
O  50.69700 28.73600 34.10200
C  51.50000 28.56300 35.23000
H  47.32500 21.48800 32.32500
H  47.19600 21.38300 25.85600
H  49.60100 27.25500 25.65600
H  49.27100 25.65100 34.00000
H  46.93300 23.70200 33.61400
H  49.75500 23.36000 34.69600
H  49.47700 22.16100 33.60400
H  48.35800 22.29500 34.92500
H  46.57600 26.55900 33.07000
H  47.79300 27.40000 33.87700
H  46.92700 25.18200 35.58500
H  45.63300 26.30000 35.08900
H  45.42800 19.10400 30.63100
H  46.36200 19.82100 31.88500
H  46.89400 18.42400 30.90000
H  46.18600 17.60900 28.60300
H  45.23700 17.61000 27.08300
H  44.66100 18.53800 28.45200
H  47.33500 23.47900 24.03200
H  49.57400 25.11600 24.06000
H  50.23800 22.99000 23.63400
H  48.87200 22.08000 23.10400
H  49.36900 21.77600 24.69200
H  47.11200 26.65800 24.58100
H  46.99800 25.47900 23.22000
H  48.24300 28.16900 23.47400
H  48.15900 27.23700 22.02000
H  49.50400 26.99200 23.02500
H  50.81000 29.24200 26.40500
H  51.76200 29.75300 27.77300
H  50.05900 30.26200 27.75700
H  48.97900 28.70900 32.42200
H  52.19100 29.39800 35.34600
H  52.23100 27.75500 35.25000
H  50.78500 28.53500 36.05200

