158

Mg 40.79300 9.01800 29.70100
C  42.39700 10.77800 32.19800
C  38.65000 7.81000 31.95700
C  39.16900 7.39500 27.10700
C  43.24300 10.18100 27.37200
N  40.63400 9.19800 31.81700
C  41.32900 10.02600 32.63700
C  40.82600 9.87600 34.06100
C  39.70000 8.79700 33.97200
C  39.62800 8.59900 32.48300
C  39.73400 7.44100 34.81500
C  40.36900 11.24200 34.72500
C  39.39500 11.17100 35.98300
H  39.63000 12.10900 37.17800
N  39.12000 7.74900 29.56800
C  38.33900 7.39000 30.63900
C  37.21000 6.61600 30.15600
C  37.33700 6.48700 28.77200
C  38.64200 7.18100 28.40400
C  36.22900 5.98700 31.06500
C  36.45200 5.82900 27.71900
O  36.58800 6.03800 26.51400
C  35.20700 5.09700 28.24000
N  41.23800 8.64000 27.60700
C  40.42200 8.02600 26.79100
C  40.85800 8.23700 25.35600
C  41.99600 9.25200 25.40000
C  42.21000 9.36800 26.88500
C  41.24200 6.83500 24.86700
C  41.60900 10.60500 24.62200
C  40.57300 11.47100 25.31500
N  42.50700 10.19100 29.72900
C  43.35600 10.57600 28.72700
C  44.37000 11.33300 29.32100
C  44.02500 11.50200 30.70500
C  42.89500 10.77400 30.90700
C  45.60300 11.70100 28.67000
C  44.39100 12.14300 31.95700
O  45.32900 12.87000 32.20900
C  43.29300 11.66900 32.90600
C  43.94200 11.03100 34.08000
O  44.49300 9.93800 34.08700
O  43.69100 11.78500 35.17300
C  43.96100 11.23000 36.46000
H  37.94200 7.49000 32.72500
H  38.70800 6.88100 26.26100
H  43.85400 10.64700 26.59600
H  41.62200 9.55100 34.73100
H  38.79100 9.28000 34.32800
H  38.97800 7.39600 35.59900
H  40.71200 7.44400 35.29700
H  39.60500 6.55700 34.19000
H  39.78900 11.73000 33.94200
H  41.19500 11.88800 35.02300
H  39.44700 10.18300 36.43900
H  38.36300 11.40600 35.72200
H  35.23300 6.37000 30.84100
H  36.40900 6.23200 32.11100
H  36.17000 4.90700 30.93200
H  35.30500 4.29700 28.97500
H  34.81900 4.61500 27.34300
H  34.50100 5.87600 28.52800
H  40.01000 8.51700 24.73200
H  42.99700 8.98600 25.06100
H  40.83600 6.08400 25.54500
H  42.32500 6.76400 24.77000
H  40.63200 6.60000 23.99500
H  41.20300 10.50300 23.61500
H  42.52100 11.18700 24.48900
H  40.56000 11.36000 26.39900
H  39.59500 11.18600 24.92500
H  40.76700 12.52400 25.11200
H  45.66600 12.78600 28.59600
H  45.73300 11.24800 27.68600
H  46.32500 11.23600 29.34100
H  42.74600 12.55600 33.22700
H  44.70000 11.82400 36.99700
H  44.36400 10.21800 36.49500
H  43.08500 11.28300 37.10600
Mg -8.68700 18.06500 43.64700
C  -5.19400 17.90000 43.99000
C  -8.58800 21.31000 43.24200
C  -12.02000 18.06000 42.77900
C  -8.72200 14.53800 43.77700
N  -6.96400 19.41100 43.44400
C  -5.65000 19.23100 43.85500
C  -4.82600 20.51100 43.79400
C  -6.07200 21.58000 43.91100
C  -7.31200 20.74200 43.52100
C  -6.11200 22.24400 45.38600
C  -4.05700 20.82100 42.43200
C  -4.08900 19.75600 41.31900
H  -4.44700 20.10300 39.84200
N  -10.07500 19.50400 43.06700
C  -9.80900 20.78700 42.97500
C  -10.92100 21.46700 42.41200
C  -11.99300 20.51100 42.21200
C  -11.40700 19.30100 42.57000
C  -10.98000 22.97200 42.34800
C  -13.42900 20.85500 41.73400
O  -13.82100 22.04800 41.60000
C  -14.37600 19.75400 41.46500
N  -10.09000 16.48500 43.21700
C  -11.44500 16.78400 43.12900
C  -12.30000 15.56700 43.38700
C  -11.19300 14.47900 43.53800
C  -9.88600 15.21500 43.61200
C  -13.31200 15.60100 44.58600
C  -11.17600 13.61400 42.25800
C  -12.21500 12.42700 42.28700
N  -7.27400 16.51000 43.89800
C  -7.41000 15.18500 43.87100
C  -6.07200 14.59500 43.90400
C  -5.15100 15.59500 43.94800
C  -5.96400 16.76200 43.96700
C  -5.94400 13.12500 43.73300
C  -3.78400 15.93200 43.94500
O  -2.77600 15.23200 43.99900
C  -3.73500 17.44300 44.19300
C  -3.33900 17.51100 45.62400
O  -2.25200 17.82700 46.12500
O  -4.42200 17.12400 46.45200
C  -4.30300 17.26600 47.92500
H  -8.46700 22.39400 43.27000
H  -13.11000 18.00700 42.76700
H  -8.76100 13.44700 43.80000
H  -4.15000 20.58900 44.64500
H  -5.83400 22.35400 43.18200
H  -7.14800 22.12000 45.70200
H  -5.87300 23.30100 45.26400
H  -5.52500 21.67800 46.10900
H  -3.05000 20.89500 42.84300
H  -4.36500 21.72300 41.90300
H  -4.95900 19.13100 41.52400
H  -3.19200 19.14200 41.39700
H  -10.83500 23.39800 41.35600
H  -10.15800 23.28300 42.99300
H  -11.91100 23.39700 42.72300
H  -14.72800 19.28300 42.38200
H  -14.01500 19.03600 40.72800
H  -15.22100 20.26500 41.00500
H  -12.89400 15.39600 42.49000
H  -11.27400 13.83000 44.41000
H  -14.33600 15.75500 44.24500
H  -12.91900 16.43800 45.16300
H  -13.33900 14.73600 45.24900
H  -10.13900 13.30800 42.11800
H  -11.51600 14.22400 41.42100
H  -12.98700 12.68200 43.01300
H  -11.64300 11.50100 42.34300
H  -12.59500 12.40200 41.26600
H  -6.55600 12.60400 44.47000
H  -4.90700 12.85300 43.93000
H  -6.19800 12.79100 42.72700
H  -3.04600 18.02900 43.58400
H  -3.36000 16.81600 48.23500
H  -5.20300 16.78100 48.30300
H  -4.31800 18.34100 48.10800

