158

Mg 48.98600 35.18800 26.91500
C  46.85200 33.83900 29.52800
C  49.08500 38.10200 28.51100
C  50.34900 36.49100 24.10800
C  47.95600 32.34400 25.00500
N  48.23600 35.76400 28.85600
C  47.48900 35.13700 29.83900
C  47.65400 35.85900 31.18700
C  47.96000 37.29600 30.71800
C  48.41800 37.07100 29.28400
C  46.64900 38.23100 30.73200
C  48.84300 35.26900 32.08000
C  48.57700 35.26800 33.59100
H  47.61000 36.22300 34.18300
N  49.88100 36.98800 26.46500
C  49.73100 38.08200 27.24700
C  50.43500 39.17600 26.51900
C  50.77600 38.71500 25.18800
C  50.27900 37.33100 25.20200
C  50.71300 40.49800 27.19400
C  51.47700 39.38100 24.09200
O  51.57000 38.88500 22.96400
C  52.09800 40.77900 24.36200
N  49.16800 34.49100 24.82100
C  49.85800 35.17800 23.86000
C  49.76800 34.47800 22.50000
C  49.24800 33.08700 22.88400
C  48.81700 33.30800 24.35300
C  48.84900 35.14300 21.45200
C  50.23800 31.82600 22.73600
C  49.50000 30.59900 22.12800
N  47.72800 33.51800 27.15700
C  47.45800 32.44800 26.28900
C  46.55100 31.57200 26.92100
C  46.35700 32.04100 28.22600
C  46.99400 33.25900 28.27600
C  46.11200 30.23700 26.37200
C  45.67000 31.74100 29.50300
O  45.01000 30.80300 29.84900
C  45.91200 32.96900 30.31800
C  46.32700 32.62200 31.63900
O  47.42400 32.19300 31.98300
O  45.20500 32.64300 32.46300
C  45.58900 32.26000 33.86200
H  49.20300 39.03800 29.06100
H  50.68600 36.81100 23.12000
H  47.62900 31.52100 24.36600
H  46.67000 35.76700 31.64700
H  48.69300 37.75200 31.38400
H  45.71900 37.70100 30.93600
H  46.52800 38.68100 29.74700
H  46.71200 39.08300 31.40900
H  49.68200 35.96400 32.03800
H  49.17000 34.30700 31.68800
H  49.47000 35.50900 34.16600
H  48.25000 34.24000 33.74400
H  51.64700 40.37400 27.74300
H  50.07400 40.64000 28.06500
H  50.55200 41.42400 26.64300
H  51.23600 41.40600 24.58600
H  52.63700 41.12600 23.48000
H  52.76000 40.85000 25.22500
H  50.72900 34.35100 22.00300
H  48.27300 32.92400 22.42600
H  48.69900 36.20100 21.66800
H  47.84800 34.72300 21.35300
H  49.42600 35.06800 20.53100
H  50.69700 31.52400 23.67800
H  50.96900 32.17700 22.00800
H  50.08700 30.21500 21.29400
H  48.46400 30.79000 21.84700
H  49.51000 29.85900 22.92900
H  46.95400 29.76100 25.87000
H  45.30200 30.49300 25.68900
H  45.73200 29.58800 27.16100
H  44.98800 33.54100 30.39200
H  45.81700 31.19500 33.89700
H  44.78300 32.46700 34.56700
H  46.43000 32.83400 34.25300
Mg 9.58600 48.11200 26.38500
C  7.68600 47.86800 29.24700
C  12.33800 49.08200 28.22100
C  11.25200 48.54500 23.45900
C  6.73400 47.28800 24.50100
N  9.89000 48.47900 28.52600
C  9.04300 48.24700 29.52900
C  9.67600 48.51400 30.86800
C  11.12200 49.10400 30.51900
C  11.13600 48.89600 28.98300
C  11.44000 50.60200 30.98800
C  9.77300 47.40400 32.02000
C  10.56400 47.70800 33.24000
H  9.95300 47.45000 34.61400
N  11.53300 48.63400 25.86500
C  12.51600 48.96700 26.80700
C  13.72500 49.08400 26.11500
C  13.45800 48.99200 24.69400
C  12.00600 48.69100 24.60500
C  15.07300 49.39500 26.82300
C  14.44400 49.11500 23.50600
O  14.07700 49.26100 22.34100
C  15.92400 49.06100 23.72900
N  9.02100 48.18100 24.23000
C  9.93700 48.40100 23.25400
C  9.33100 48.22500 21.89300
C  7.95900 47.59700 22.22000
C  7.89500 47.58800 23.75500
C  9.30600 49.57400 21.16500
C  7.70200 46.18200 21.53700
C  7.84500 44.88600 22.39300
N  7.52200 47.88000 26.71400
C  6.54000 47.48100 25.85400
C  5.27600 47.21000 26.56900
C  5.69200 47.31200 27.94600
C  7.09600 47.66600 27.97000
C  3.91300 46.76600 26.10700
C  5.18800 47.26300 29.30400
O  4.05500 47.14100 29.80900
C  6.54600 47.52300 30.19900
C  6.74500 46.25600 30.97200
O  7.49400 45.35600 30.55100
O  6.09700 46.38500 32.18600
C  6.24000 45.07400 32.99800
H  13.11200 49.43500 28.90600
H  11.77600 48.58300 22.50200
H  5.81200 47.06400 23.96100
H  8.96200 49.29100 31.14200
H  11.98400 48.49700 30.79500
H  12.26500 50.65400 31.69900
H  10.61100 51.18000 31.39500
H  11.80000 51.26800 30.20400
H  9.97700 46.39200 31.67100
H  8.76900 47.27200 32.42500
H  10.90000 48.74500 33.21400
H  11.37500 46.98600 33.14400
H  15.57700 48.43000 26.76700
H  15.00300 49.61100 27.88900
H  15.62300 50.19100 26.32200
H  16.29700 49.77400 24.46500
H  16.37500 49.12300 22.73900
H  16.20500 48.04900 24.02100
H  9.94200 47.52700 21.32200
H  7.08100 48.16800 21.91900
H  8.27700 49.77600 20.86700
H  9.97800 49.58500 20.30700
H  9.53700 50.47800 21.72900
H  8.31200 46.12700 20.63500
H  6.66300 46.12600 21.21000
H  8.63600 44.30600 21.91800
H  6.89300 44.35800 22.34000
H  8.08300 45.10700 23.43300
H  3.89600 46.79900 25.01800
H  3.27100 47.53100 26.54400
H  3.71400 45.79000 26.55000
H  6.35700 48.30000 30.94100
H  5.29100 44.54200 32.94900
H  6.35500 45.23000 34.07100
H  6.89800 44.29700 32.60800

