158

Mg -0.21000 7.65900 27.36000
C  0.47500 9.98800 29.83700
C  -0.64200 5.28500 29.59300
C  -0.74100 5.58600 24.66800
C  0.81800 10.14000 25.04500
N  0.11500 7.69500 29.54500
C  0.06600 8.74500 30.38000
C  -0.17400 8.33100 31.77100
C  -0.39400 6.77700 31.68900
C  -0.27500 6.54400 30.17400
C  0.64400 5.93700 32.35700
C  -1.29800 9.06200 32.47400
C  -1.35800 8.94100 34.01900
H  -0.16700 8.47900 34.82300
N  -0.53300 5.73200 27.14700
C  -0.81600 4.92600 28.21800
C  -1.10900 3.59400 27.71800
C  -1.09500 3.60900 26.31800
C  -0.80100 5.05600 26.01600
C  -1.36100 2.40500 28.69300
C  -1.34300 2.47700 25.22200
O  -1.39100 2.64700 23.99900
C  -1.63700 1.02600 25.85400
N  0.10600 7.83100 25.12500
C  -0.28800 6.84900 24.28800
C  -0.29600 7.39200 22.85000
C  -0.08600 8.88500 22.97100
C  0.36200 8.95500 24.43800
C  0.65800 6.46200 22.03100
C  -1.46300 9.63900 22.84000
C  -1.79300 10.29800 21.41900
N  0.55100 9.63100 27.40100
C  0.98200 10.50300 26.40000
C  1.37700 11.82100 26.95400
C  1.22300 11.68000 28.33400
C  0.86500 10.28800 28.52100
C  1.80300 13.01400 26.15900
C  1.33900 12.28100 29.58100
O  1.61400 13.43600 29.93000
C  0.92400 11.20900 30.61100
C  1.92800 11.18300 31.64600
O  3.02300 10.65500 31.48800
O  1.48300 11.82800 32.75100
C  2.38400 11.81000 33.86700
H  -0.80100 4.58100 30.41300
H  -0.90400 4.87400 23.85700
H  0.96900 10.90000 24.27600
H  0.73100 8.41500 32.37300
H  -1.36000 6.40200 32.02800
H  1.45400 5.73500 31.65700
H  0.27300 4.95000 32.63700
H  1.07600 6.38800 33.25000
H  -2.17500 8.50700 32.14000
H  -1.39300 10.13500 32.30600
H  -2.25700 8.36200 34.22800
H  -1.62200 9.91300 34.43600
H  -2.41600 2.32600 28.95600
H  -0.87600 2.69000 29.62600
H  -0.99900 1.42500 28.38100
H  -1.99800 0.45100 25.00100
H  -2.42800 1.11700 26.59800
H  -0.73000 0.59300 26.27800
H  -1.32000 7.30600 22.48900
H  0.72200 9.19600 22.30900
H  0.95700 5.52100 22.49300
H  1.46300 7.00700 21.53700
H  0.04300 6.03200 21.24000
H  -1.40600 10.49200 23.51700
H  -2.35400 9.09500 23.15300
H  -2.79600 10.00100 21.11300
H  -1.00200 10.16200 20.68200
H  -1.74000 11.36800 21.62300
H  0.86600 13.33000 25.70100
H  2.55800 12.75100 25.41800
H  2.32100 13.69300 26.83700
H  0.02900 11.63900 31.06000
H  2.53600 10.76200 34.12400
H  2.07100 12.36300 34.75200
H  3.41400 12.11800 33.68600
Mg 1.47100 42.91900 26.04900
C  2.94800 43.13600 29.17400
C  -1.30300 41.79300 27.55500
C  0.28300 42.41900 22.96400
C  4.62900 43.54100 24.53900
N  0.88300 42.57500 28.25100
C  1.59000 42.83700 29.32600
C  0.78000 42.77400 30.63700
C  -0.53800 42.16800 30.07800
C  -0.35600 42.17100 28.57900
C  -0.89600 40.80200 30.70600
C  0.58800 44.17700 31.33800
C  1.02100 44.29200 32.78700
H  0.76200 43.12200 33.71600
N  -0.31900 42.21000 25.37000
C  -1.33500 41.76200 26.17600
C  -2.34400 41.24000 25.30000
C  -2.01800 41.58400 23.99200
C  -0.65000 42.08600 24.05400
C  -3.53200 40.47500 25.82800
C  -2.70500 41.40200 22.72600
O  -2.27900 41.80200 21.64900
C  -4.09200 40.74100 22.80800
N  2.34500 42.99200 24.04000
C  1.60700 42.77200 22.95900
C  2.50900 42.86700 21.67300
C  3.86400 43.23500 22.24400
C  3.63000 43.20200 23.71800
C  2.47900 41.58600 20.79700
C  4.36500 44.62200 21.78800
C  3.78200 45.84700 22.52500
N  3.41300 43.23200 26.62900
C  4.63100 43.46400 25.93300
C  5.66000 43.77700 26.96200
C  4.98200 43.54500 28.12800
C  3.66700 43.27100 27.94200
C  7.08700 44.22500 26.70900
C  5.22800 43.55400 29.57400
O  6.29400 43.87400 30.18800
C  3.90500 43.37700 30.31700
C  3.98500 42.36600 31.35000
O  3.67100 41.20900 31.20700
O  4.51300 42.94700 32.51600
C  4.82200 42.05200 33.64900
H  -2.25400 41.50300 28.00600
H  -0.04500 42.21500 21.94300
H  5.61600 43.81600 24.16400
H  1.25200 42.08900 31.34100
H  -1.36300 42.81200 30.38300
H  -0.02100 40.47500 31.26800
H  -1.21300 40.10400 29.93100
H  -1.78800 40.93900 31.31800
H  -0.41100 44.60900 31.27200
H  1.23500 44.87100 30.80200
H  0.38600 45.04100 33.26200
H  2.00000 44.76400 32.86800
H  -3.60200 39.48900 25.36900
H  -4.47700 40.92000 25.51800
H  -3.67300 40.21500 26.87700
H  -3.87100 39.70100 23.04800
H  -4.56200 40.86500 21.83300
H  -4.75200 41.30100 23.47100
H  2.07300 43.67000 21.07900
H  4.67000 42.59400 21.88800
H  2.96400 40.78600 21.35700
H  2.95200 41.77600 19.83300
H  1.46100 41.29000 20.54300
H  4.07500 44.76900 20.74700
H  5.45200 44.62000 21.70000
H  3.39100 45.75200 23.53800
H  2.97900 46.23200 21.89600
H  4.51200 46.64700 22.64200
H  7.01100 44.88100 25.84200
H  7.80600 43.44800 26.44500
H  7.46600 44.79300 27.55800
H  3.69900 44.28200 30.88900
H  4.70700 42.84800 34.38500
H  5.81200 41.60500 33.56200
H  3.99100 41.34800 33.66800

