158

Mg 17.37200 -2.34800 28.01400
C  16.35400 -0.39800 30.84000
C  19.48500 -4.13300 30.09100
C  18.89900 -3.65400 25.36900
C  15.41300 -0.31000 26.07300
N  17.89000 -2.23700 30.21500
C  17.30100 -1.41100 31.18900
C  17.60400 -1.96700 32.60500
C  18.75700 -3.01000 32.29700
C  18.71300 -3.12700 30.77900
C  20.10600 -2.61900 32.82800
C  16.31600 -2.60000 33.17300
C  15.93500 -2.21000 34.56500
H  17.00400 -1.64400 35.54200
N  18.91200 -3.81000 27.76500
C  19.56600 -4.48700 28.76700
C  20.32900 -5.56500 28.19100
C  20.16200 -5.48700 26.77100
C  19.33100 -4.27400 26.52800
C  21.06500 -6.55900 29.07200
C  20.80100 -6.30600 25.68400
O  20.64800 -6.11000 24.50600
C  21.95300 -7.29100 26.05900
N  17.37200 -1.80100 26.04400
C  18.03600 -2.55500 25.09600
C  17.64600 -2.11000 23.71100
C  16.49300 -1.07000 23.87700
C  16.38800 -1.06100 25.43300
C  18.82000 -1.68200 22.86200
C  15.20100 -1.47400 23.07000
C  14.75600 -0.55200 21.91200
N  16.20200 -0.67400 28.36000
C  15.32100 -0.05300 27.47100
C  14.48700 0.92400 28.14100
C  14.89200 0.89100 29.47000
C  15.83400 -0.13000 29.55400
C  13.53600 1.76200 27.49500
C  14.72700 1.43800 30.81700
O  14.04500 2.42000 31.20700
C  15.63800 0.57600 31.75800
C  16.62500 1.46200 32.42400
O  17.66900 1.91700 31.83800
O  16.17300 1.81600 33.68700
C  16.99100 2.90300 34.26500
H  20.01000 -4.74800 30.82500
H  19.22700 -4.28000 24.53600
H  14.65700 0.16100 25.44100
H  18.04100 -1.24300 33.29200
H  18.61700 -4.04200 32.61700
H  20.47500 -1.95700 32.04500
H  20.69100 -3.49800 33.10200
H  19.99200 -1.99700 33.71600
H  16.45800 -3.68100 33.15100
H  15.54100 -2.28200 32.47600
H  15.63300 -3.08000 35.14800
H  15.07000 -1.54900 34.52200
H  21.06500 -7.59100 28.72300
H  20.59400 -6.57100 30.05500
H  22.09800 -6.22100 29.15100
H  21.63100 -8.26400 26.43100
H  22.54100 -6.80200 26.83600
H  22.56400 -7.46700 25.17400
H  17.18600 -3.00300 23.28600
H  16.92800 -0.14500 23.49900
H  18.94500 -2.43200 22.08100
H  19.75400 -1.56200 23.41100
H  18.58900 -0.75100 22.34400
H  14.39500 -1.31800 23.78800
H  15.05300 -2.50200 22.73700
H  14.33300 -1.19100 21.13700
H  15.45600 0.15800 21.47100
H  13.84800 -0.00400 22.16700
H  12.75800 2.02100 28.21300
H  13.26900 1.23000 26.58200
H  14.08200 2.68300 27.29100
H  15.04800 0.11400 32.55000
H  17.17600 3.67400 33.51800
H  17.94300 2.55700 34.66800
H  16.45700 3.35500 35.10100
Mg -10.94100 16.70200 42.45700
C  -7.57500 17.40700 42.88500
C  -11.33300 20.05700 41.85900
C  -14.14500 16.07300 41.40000
C  -10.25400 13.30400 42.56500
N  -9.54300 18.48600 42.20400
C  -8.27000 18.54400 42.51600
C  -7.66900 19.93200 42.44900
C  -8.95300 20.75600 42.58200
C  -10.02900 19.74100 42.15600
C  -9.23700 21.28500 43.92900
C  -6.96500 20.01400 41.05500
C  -5.46300 20.11500 41.02700
H  -4.63400 19.03500 40.24500
N  -12.50600 17.87500 41.66700
C  -12.47800 19.22300 41.55800
C  -13.77100 19.67400 41.12300
C  -14.61800 18.52800 40.87500
C  -13.78800 17.45200 41.34800
C  -14.00100 21.18100 40.95700
C  -16.11200 18.54200 40.34000
O  -16.60700 19.63800 39.98800
C  -16.88400 17.28300 40.19200
N  -12.07100 14.95500 42.09600
C  -13.37300 14.92900 41.73200
C  -13.89200 13.48000 41.55000
C  -12.59200 12.65400 41.79200
C  -11.52300 13.72900 42.15200
C  -15.22600 12.99000 42.34800
C  -12.17100 11.63300 40.73000
C  -11.98200 10.11600 41.19300
N  -9.25500 15.53600 42.73700
C  -9.14100 14.17400 42.74300
C  -7.80100 13.86700 43.04000
C  -7.12500 15.05500 43.14700
C  -8.05300 16.05700 42.87500
C  -7.22000 12.49900 43.31500
C  -5.84500 15.67500 43.31800
O  -4.72200 15.17600 43.37600
C  -6.08200 17.29700 43.25600
C  -5.73100 17.70200 44.64800
O  -6.44500 17.65200 45.64900
O  -4.42000 18.06800 44.65200
C  -4.16100 18.90700 45.86000
H  -11.37900 21.14600 41.79200
H  -15.11000 15.66900 41.08800
H  -10.18800 12.22400 42.71100
H  -6.99400 19.95700 43.30400
H  -8.93800 21.52100 41.80600
H  -8.27600 21.41700 44.42600
H  -9.71100 20.54700 44.57600
H  -9.89200 22.15600 43.91000
H  -7.28500 20.97900 40.66300
H  -7.21200 19.25000 40.31700
H  -5.03700 20.22800 42.02400
H  -5.33300 21.07100 40.52000
H  -13.74700 21.53500 39.95800
H  -13.35200 21.71200 41.65400
H  -15.05300 21.33100 41.19700
H  -17.83700 17.41500 39.68100
H  -17.09800 17.04700 41.23400
H  -16.25800 16.57300 39.65100
H  -14.18800 13.31000 40.51500
H  -12.84200 12.12400 42.71000
H  -15.29200 13.64800 43.21500
H  -15.25400 12.01500 42.83600
H  -16.01100 13.18300 41.61700
H  -11.26500 11.99200 40.24300
H  -12.87700 11.57100 39.90200
H  -12.56300 9.42200 40.58600
H  -12.25200 10.14800 42.24900
H  -10.95900 9.74000 41.20200
H  -6.15900 12.60200 43.54200
H  -7.25700 11.95200 42.37300
H  -7.81600 11.92600 44.02500
H  -5.43000 17.83600 42.56800
H  -3.93200 19.92300 45.53700
H  -3.22100 18.53900 46.27100
H  -4.85400 19.00200 46.69500

