158

Mg 30.29300 59.18800 38.58000
C  27.45200 57.31900 38.06200
C  32.21500 56.50500 37.86200
C  32.95000 61.25100 38.39000
C  28.25600 62.03900 39.11400
N  29.85600 57.17000 38.01500
C  28.62900 56.59200 37.93200
C  28.79100 55.12200 37.51300
C  30.28100 54.82100 37.96200
C  30.85000 56.27500 37.97100
C  30.31300 54.17900 39.38900
C  28.56500 54.89700 35.97300
C  29.18300 55.86900 34.94600
H  28.19900 56.77100 34.15400
N  32.20900 58.95500 38.05800
C  32.91300 57.73700 37.95400
C  34.29400 57.89900 37.68600
C  34.47500 59.36700 37.67800
C  33.18600 59.96500 37.99200
C  35.29800 56.75500 37.42100
C  35.86400 60.02000 37.22600
O  36.80900 59.23700 36.99900
C  36.03700 61.53400 36.99400
N  30.53700 61.42400 38.75000
C  31.79300 61.90900 38.73600
C  31.69100 63.43700 38.96200
C  30.19300 63.65700 39.48100
C  29.61500 62.28900 39.22600
C  32.85400 64.02200 39.95000
C  29.45000 64.90800 38.92800
C  28.64900 65.78200 39.82100
N  28.23300 59.62600 38.69700
C  27.53000 60.78600 38.91100
C  26.05700 60.57400 38.79400
C  25.98900 59.19700 38.52300
C  27.32200 58.68800 38.38000
C  24.96100 61.63800 38.99200
C  25.08300 58.08300 38.30500
O  23.88000 58.05600 38.24000
C  26.03300 56.80800 37.97200
C  25.60300 55.58700 38.79600
O  25.48100 55.53800 40.00700
O  25.18200 54.62000 37.97800
C  24.17600 53.64900 38.55300
H  32.87900 55.63900 37.88600
H  33.77100 61.96600 38.46900
H  27.66000 62.93200 39.31200
H  28.09600 54.44300 38.00600
H  30.83900 54.22800 37.23700
H  29.32400 54.10200 39.84100
H  30.74800 54.90900 40.07100
H  30.75600 53.18300 39.38400
H  27.47800 54.94400 35.90300
H  28.96700 53.92000 35.70300
H  29.64600 55.24300 34.18300
H  29.96500 56.52000 35.33700
H  35.53800 56.61800 36.36600
H  34.87500 55.82500 37.80100
H  36.21000 56.76300 38.01800
H  37.06000 61.80400 36.72900
H  35.83600 61.94100 37.98400
H  35.29600 61.69700 36.21200
H  31.75700 63.88500 37.97100
H  30.30500 63.78400 40.55800
H  33.60700 64.36600 39.24100
H  33.31200 63.19300 40.48900
H  32.40900 64.73900 40.64100
H  28.85700 64.64600 38.05200
H  30.16400 65.50400 38.35900
H  29.04600 66.79500 39.75500
H  28.58500 65.36100 40.82400
H  27.58100 65.74200 39.60600
H  25.33800 62.57600 39.40000
H  24.18400 61.30700 39.68000
H  24.43900 62.00800 38.10900
H  25.85700 56.56000 36.92500
H  24.63100 52.97700 39.28100
H  23.89400 53.06600 37.67600
H  23.36300 54.14800 39.08100
Mg -10.47800 38.43800 41.91400
C  -8.78600 35.68400 40.63400
C  -8.29600 40.43100 39.93500
C  -12.33900 41.20600 42.58600
C  -12.98900 36.45600 43.12800
N  -8.80200 38.11200 40.31800
C  -8.29400 36.86000 40.06700
C  -7.18000 36.93400 38.88100
C  -6.98800 38.49000 38.84600
C  -8.04400 39.10300 39.79700
C  -5.50500 38.93000 39.27400
C  -7.49800 36.17500 37.59200
C  -6.24300 35.43300 36.99200
H  -5.66100 36.08500 35.75800
N  -10.20400 40.51600 41.54000
C  -9.23300 41.10000 40.71400
C  -9.33500 42.51000 40.89500
C  -10.55700 42.79300 41.60500
C  -11.08400 41.50100 41.96300
C  -8.26100 43.42900 40.33100
C  -11.11100 44.19400 41.79300
O  -10.43500 45.14200 41.34000
C  -12.48600 44.56800 42.24000
N  -12.45200 38.76100 42.53200
C  -12.94700 40.01700 42.87700
C  -14.30400 39.91700 43.44600
C  -14.48100 38.40300 43.75200
C  -13.20100 37.83900 43.15100
C  -14.74900 40.81300 44.61800
C  -15.83100 37.71000 43.28200
C  -16.86500 37.46600 44.42400
N  -10.82800 36.49000 42.01500
C  -11.85600 35.82900 42.58400
C  -11.49300 34.41400 42.55900
C  -10.28100 34.33700 41.89300
C  -9.96200 35.62600 41.48500
C  -12.40000 33.29400 42.94600
C  -9.32100 33.41600 41.31300
O  -9.19200 32.20400 41.36900
C  -8.30100 34.26000 40.49900
C  -6.99500 33.94600 41.30900
O  -6.36400 32.91900 41.18700
O  -6.70900 35.06000 42.11400
C  -5.49400 34.93900 42.86900
H  -7.61500 41.01700 39.31500
H  -13.04000 41.96700 42.93700
H  -13.60900 35.71100 43.63100
H  -6.30200 36.49700 39.35600
H  -7.14300 38.89500 37.84600
H  -4.95400 38.08200 39.68100
H  -5.56700 39.75900 39.97900
H  -4.95700 39.29200 38.40400
H  -7.82900 36.91400 36.86200
H  -8.28600 35.45900 37.82400
H  -6.42400 34.37800 36.78600
H  -5.44800 35.42700 37.73800
H  -8.56600 43.89200 39.39200
H  -7.34000 42.84700 40.34200
H  -8.17800 44.15100 41.14300
H  -12.60700 44.59500 43.32300
H  -13.26000 43.91800 41.83200
H  -12.68500 45.56400 41.84600
H  -14.89800 40.17100 42.56700
H  -14.42700 38.33800 44.83900
H  -13.89600 41.19200 45.18000
H  -15.47000 40.25700 45.21700
H  -15.28500 41.67800 44.22500
H  -15.60700 36.76300 42.79200
H  -16.24800 38.35500 42.50900
H  -16.89000 36.41200 44.70100
H  -17.85400 37.87700 44.22200
H  -16.54100 37.99000 45.32300
H  -13.28500 33.14100 42.32900
H  -12.59800 33.26800 44.01700
H  -11.79700 32.39300 42.82600
H  -8.25900 33.93700 39.45900
H  -4.86200 35.79100 42.62000
H  -4.89000 34.05100 42.68100
H  -5.91800 34.92600 43.87300

