158

Mg 47.72500 16.09700 27.28500
C  45.90600 16.48400 30.22700
C  50.22800 17.85500 28.97200
C  49.23200 16.50800 24.42900
C  44.72400 15.00900 25.71500
N  47.98900 17.24100 29.38500
C  47.12600 17.04700 30.40800
C  47.69800 17.64900 31.73900
C  49.02200 18.31800 31.19800
C  49.08200 17.79900 29.76200
C  49.20100 19.78500 31.43100
C  48.01700 16.50300 32.78300
C  48.18500 16.99400 34.26400
H  47.83000 18.46800 34.62600
N  49.62600 16.88800 26.78500
C  50.51900 17.53400 27.58000
C  51.68400 17.88500 26.80800
C  51.40800 17.56200 25.46100
C  50.02900 16.96100 25.48800
C  52.86900 18.56200 27.38600
C  52.16300 17.73600 24.07000
O  51.75100 17.31100 22.97700
C  53.39300 18.55600 24.01100
N  47.02000 15.74800 25.31700
C  47.91800 15.96400 24.33600
C  47.29000 15.57700 22.96600
C  45.84200 14.99400 23.34200
C  45.84500 15.18500 24.86700
C  47.20700 16.76000 21.98800
C  45.55000 13.59100 22.80600
C  45.90300 12.34100 23.69400
N  45.80000 15.74300 27.78600
C  44.65300 15.27300 27.09500
C  43.56000 14.99800 27.98100
C  44.03200 15.44000 29.17500
C  45.37100 15.95200 29.02900
C  42.13700 14.48500 27.66000
C  43.63000 15.62800 30.56500
O  42.53500 15.42900 31.09300
C  44.89500 16.27900 31.38100
C  44.32300 17.36300 32.20300
O  44.26300 18.50200 31.83300
O  43.97700 16.95000 33.48700
C  43.47100 18.04200 34.29600
H  51.09100 18.25700 29.50700
H  49.74600 16.46700 23.46700
H  43.83800 14.54600 25.27700
H  47.00000 18.41200 32.08000
H  49.88700 17.91300 31.72400
H  48.20800 20.16400 31.67100
H  49.61700 20.39100 30.62600
H  49.80100 20.05900 32.29800
H  48.93600 15.98200 32.51700
H  47.22600 15.75300 32.79400
H  49.16600 16.80400 34.69900
H  47.59900 16.28300 34.84600
H  52.97000 19.60500 27.08600
H  53.77000 17.98700 27.17000
H  52.94700 18.70100 28.46500
H  53.95400 18.43300 23.08500
H  54.09500 18.43700 24.83600
H  53.03500 19.57900 23.89000
H  47.99000 14.85900 22.53800
H  45.12500 15.74700 23.01400
H  47.63900 17.63100 22.48000
H  46.22500 16.90100 21.53800
H  47.95300 16.47600 21.24500
H  46.06800 13.59900 21.84700
H  44.49500 13.50700 22.54500
H  46.37300 11.62300 23.02200
H  44.93500 11.94000 23.99500
H  46.52500 12.63900 24.53900
H  41.41000 15.21800 27.30800
H  41.76500 14.03300 28.58000
H  42.09400 13.64500 26.96700
H  45.01300 15.40900 32.02700
H  42.66100 18.65100 33.89500
H  44.19500 18.78300 34.63400
H  43.18600 17.55900 35.23100
Mg 31.60400 58.50100 40.73000
C  28.48500 57.44700 39.20100
C  32.98300 55.77800 39.05500
C  34.54300 59.92100 40.95700
C  30.04200 61.37000 41.66800
N  30.72400 56.84300 39.27700
C  29.47800 56.58600 38.84200
C  29.38900 55.28400 38.04700
C  30.73600 54.51600 38.44400
C  31.57200 55.74900 39.01200
C  30.63100 53.36300 39.51600
C  29.15200 55.47000 36.56400
C  27.93000 54.75100 35.93400
H  27.83800 54.85300 34.38600
N  33.55700 57.89200 40.22600
C  33.88200 56.79700 39.43400
C  35.26100 56.76300 39.15700
C  35.77100 57.98900 39.65000
C  34.61000 58.70500 40.32900
C  35.95700 55.70700 38.40800
C  37.19200 58.47900 39.60000
O  38.08400 57.84500 39.05800
C  37.52800 59.71600 40.22300
N  32.23500 60.41800 41.38500
C  33.53800 60.74900 41.47200
C  33.73900 62.09400 42.15700
C  32.18500 62.51300 42.36000
C  31.39500 61.40300 41.80500
C  34.52900 62.04700 43.44700
C  31.86300 63.90900 41.75200
C  31.26900 64.85700 42.69200
N  29.60100 59.24700 40.57400
C  29.17100 60.45000 41.04900
C  27.78900 60.56600 40.86800
C  27.37700 59.34800 40.20700
C  28.61400 58.65700 39.93000
C  27.02100 61.73600 41.13500
C  26.32300 58.55300 39.58300
O  25.06800 58.65000 39.53500
C  27.01000 57.33500 38.85600
C  26.33100 56.05300 39.26400
O  26.66700 55.35800 40.22900
O  25.58000 55.59500 38.25300
C  25.21900 54.18800 38.31400
H  33.44200 54.94600 38.51700
H  35.46200 60.48700 41.12600
H  29.54000 62.21900 42.13700
H  28.49400 54.73400 38.33900
H  31.14900 54.20200 37.48500
H  31.24600 52.46700 39.42800
H  29.61400 52.97100 39.48400
H  30.77800 53.67500 40.55000
H  30.01800 55.06800 36.03800
H  29.10700 56.52000 36.27600
H  26.99400 55.15500 36.31800
H  28.08300 53.69800 36.17000
H  35.24300 55.33100 37.67500
H  36.34300 54.90500 39.03700
H  36.66200 55.98600 37.62500
H  36.98300 60.54700 39.77500
H  38.54200 60.05800 40.01800
H  37.42200 59.64200 41.30500
H  34.02400 62.70200 41.29800
H  31.93100 62.41000 43.41500
H  34.92400 61.04200 43.59900
H  33.92700 62.30900 44.31700
H  35.34500 62.76900 43.42700
H  31.19100 63.81500 40.89800
H  32.83300 64.25600 41.39400
H  30.32200 65.17800 42.25800
H  31.93500 65.71700 42.76800
H  31.13200 64.30500 43.62100
H  26.69300 61.82400 42.17000
H  26.10400 61.72200 40.54600
H  27.55400 62.62600 40.79900
H  26.79900 57.45900 37.79300
H  25.93400 53.46400 37.92400
H  24.30400 54.06900 37.73400
H  24.96000 53.80600 39.30200

