158

Mg 17.24500 -2.81200 27.35600
C  16.47100 -0.80900 30.22000
C  19.38500 -4.66900 29.59400
C  18.39800 -4.48900 24.78800
C  15.75900 -0.51400 25.35300
N  17.97700 -2.63900 29.66500
C  17.44100 -1.78900 30.56700
C  17.85900 -2.17900 32.03300
C  18.86200 -3.40500 31.74000
C  18.67200 -3.59200 30.24200
C  20.35700 -3.20700 32.26100
C  16.65300 -2.49300 32.95100
C  16.56800 -1.70700 34.24400
H  17.80900 -1.24800 35.08900
N  18.61900 -4.40700 27.20000
C  19.37300 -4.96500 28.20600
C  20.18300 -6.10700 27.64800
C  19.94700 -6.02500 26.23000
C  18.93800 -4.99100 26.01100
C  21.13700 -6.95000 28.49800
C  20.47500 -6.89400 25.13400
O  20.19600 -6.81300 23.97500
C  21.32900 -8.06600 25.54200
N  17.11900 -2.52800 25.39200
C  17.63200 -3.37700 24.54700
C  17.45700 -2.92600 23.13500
C  16.37900 -1.68200 23.25700
C  16.45800 -1.51400 24.73800
C  18.84200 -2.51700 22.52700
C  14.95200 -2.04200 22.78800
C  14.17000 -0.92200 22.11800
N  16.21900 -1.03700 27.69100
C  15.66500 -0.24900 26.71900
C  14.87800 0.78500 27.38500
C  15.10600 0.54200 28.81300
C  16.00800 -0.53200 28.91700
C  14.07900 1.84100 26.71700
C  14.83000 1.09500 30.19100
O  14.11800 2.02800 30.58100
C  15.80100 0.25800 31.12700
C  16.60200 1.33200 31.73100
O  17.71300 1.64300 31.35100
O  15.93700 2.00300 32.72600
C  16.66000 2.94900 33.60400
H  20.01500 -5.28500 30.23900
H  18.61200 -5.14000 23.93700
H  15.20000 0.15000 24.69000
H  18.40700 -1.28500 32.33200
H  18.41700 -4.27100 32.23000
H  20.49500 -2.39900 32.98000
H  20.95300 -2.98400 31.37600
H  20.64500 -4.10600 32.80500
H  16.45400 -3.54300 33.16200
H  15.74600 -2.19600 32.42300
H  15.98300 -2.27600 34.96700
H  16.11900 -0.72300 34.11300
H  22.13000 -6.97300 28.04900
H  20.86700 -8.00400 28.56100
H  21.26400 -6.76100 29.56400
H  20.87100 -8.76500 26.24100
H  22.24500 -7.68200 25.99000
H  21.65600 -8.66900 24.69500
H  16.91300 -3.73100 22.64000
H  16.72000 -0.79000 22.73100
H  19.61400 -2.79400 23.24500
H  18.89900 -1.44100 22.35800
H  19.03000 -2.97700 21.55700
H  14.34300 -2.38500 23.62500
H  15.06700 -2.93600 22.17600
H  14.77200 -0.01500 22.06400
H  13.22100 -0.74900 22.62600
H  13.98200 -1.06400 21.05400
H  13.92100 2.65300 27.42700
H  13.09100 1.39900 26.58800
H  14.40600 2.17800 25.73300
H  15.18200 -0.11000 31.94600
H  17.66100 2.56600 33.80200
H  16.08200 3.31200 34.45300
H  16.79600 3.89500 33.08100
Mg -4.57700 24.22300 27.25900
C  -3.18400 26.45400 29.61500
C  -5.21500 22.01700 29.86900
C  -5.47300 21.94900 25.00200
C  -3.56300 26.31500 24.66500
N  -4.32700 24.25800 29.46700
C  -3.88200 25.32700 30.21100
C  -3.92300 25.05800 31.72300
C  -4.27700 23.54500 31.79300
C  -4.69000 23.20000 30.29300
C  -3.07000 22.56800 32.26300
C  -5.04400 25.96600 32.35200
C  -4.67400 26.42900 33.71600
H  -5.00400 25.46200 34.78100
N  -5.40200 22.29100 27.44400
C  -5.54200 21.53000 28.64800
C  -6.16700 20.28000 28.30500
C  -6.10200 20.20800 26.92000
C  -5.64000 21.49000 26.38600
C  -6.72600 19.37000 29.38900
C  -6.59000 19.02100 25.95300
O  -6.62800 19.16500 24.75200
C  -7.24700 17.85200 26.61300
N  -4.71200 24.23800 25.10300
C  -5.21500 23.18700 24.39700
C  -5.19000 23.40500 22.95700
C  -4.64600 24.88700 22.82400
C  -4.22300 25.20500 24.24200
C  -4.39100 22.25900 22.19300
C  -5.52000 25.94800 22.12600
C  -4.81900 26.93000 21.20200
N  -3.68700 26.06700 27.11500
C  -3.29400 26.78500 25.97000
C  -2.60700 27.97600 26.44300
C  -2.51400 27.81200 27.83900
C  -3.18800 26.74500 28.21100
C  -1.95300 29.13800 25.67300
C  -2.05600 28.44100 29.03100
O  -1.44900 29.51900 29.22700
C  -2.54900 27.64900 30.28000
C  -1.30200 27.41300 30.98100
O  -0.49300 26.54400 30.71700
O  -1.17100 28.18500 32.05200
C  -0.23300 27.71000 33.05300
H  -5.24200 21.30600 30.69700
H  -5.75300 21.18000 24.28000
H  -3.32600 27.07800 23.92000
H  -2.92100 25.21500 32.12100
H  -5.16700 23.39300 32.40300
H  -3.45800 21.76000 32.88300
H  -2.35300 23.19100 32.79600
H  -2.46700 22.08600 31.49300
H  -6.03200 25.50800 32.40500
H  -5.17800 26.81800 31.68600
H  -5.01700 27.39700 34.08100
H  -3.58800 26.51600 33.66400
H  -6.11900 18.46400 29.38900
H  -7.76600 19.16700 29.13200
H  -6.68300 19.86300 30.36000
H  -7.36400 17.10100 25.83200
H  -8.28400 18.12600 26.80500
H  -6.62400 17.35700 27.35800
H  -6.19700 23.41100 22.53900
H  -3.76200 24.77800 22.19500
H  -3.82700 21.58600 22.83900
H  -3.72000 22.58700 21.40000
H  -5.17600 21.62700 21.77800
H  -6.13800 26.39500 22.90400
H  -6.16000 25.42400 21.41700
H  -5.19000 27.92600 21.44400
H  -4.98000 26.84400 20.12700
H  -3.77100 26.99200 21.49400
H  -2.64800 29.36200 24.86500
H  -0.95500 28.85800 25.33400
H  -1.80700 30.00500 26.31800
H  -3.25100 28.20200 30.90300
H  -0.52100 28.30200 33.92200
H  0.83900 27.77000 32.86400
H  -0.51700 26.68200 33.28000

