158

Mg 49.81600 45.83200 41.56300
C  46.58400 46.00800 40.34300
C  49.97400 42.54300 40.73100
C  53.10700 45.80500 42.44400
C  49.66200 49.22700 42.11200
N  48.44200 44.48300 40.45100
C  47.13600 44.73800 40.16700
C  46.44900 43.38300 39.75700
C  47.40800 42.29800 40.34000
C  48.70000 43.16400 40.51800
C  47.03900 41.75900 41.72500
C  46.28800 43.24900 38.16800
C  44.83800 43.07500 37.66600
H  44.43400 43.88500 36.41800
N  51.41400 44.35100 41.56100
C  51.27600 43.07600 41.12100
C  52.55600 42.37600 41.14600
C  53.47600 43.35700 41.58700
C  52.65300 44.55400 41.90700
C  52.79500 40.88600 40.65900
C  54.96500 43.15300 41.68100
O  55.46300 42.12400 41.20600
C  55.88700 44.05800 42.33200
N  51.20300 47.31000 42.25700
C  52.52800 47.09300 42.61200
C  53.22600 48.35700 43.06300
C  52.05800 49.46600 42.89500
C  50.90600 48.57800 42.42000
C  53.72200 48.21800 44.55000
C  52.40400 50.61600 41.90000
C  52.02200 52.04500 42.43300
N  48.45000 47.37900 41.34700
C  48.50400 48.71100 41.60400
C  47.19600 49.34700 41.36800
C  46.38600 48.32700 40.86800
C  47.22100 47.18700 40.83300
C  46.73100 50.80400 41.66500
C  45.04600 47.96900 40.38700
O  43.99900 48.62600 40.31100
C  45.12400 46.37600 39.97800
C  44.03300 45.72200 40.75900
O  44.10200 45.14400 41.82800
O  42.84200 45.84700 40.08900
C  41.72100 45.14600 40.71600
H  49.94400 41.45400 40.66300
H  54.15400 45.80100 42.75400
H  49.65700 50.31600 42.19000
H  45.46100 43.40000 40.21700
H  47.51600 41.40700 39.72100
H  46.50600 40.82000 41.57400
H  46.54800 42.55300 42.28800
H  47.94300 41.53200 42.29000
H  46.85500 42.39600 37.79400
H  46.61900 44.16800 37.68400
H  44.08400 43.21800 38.44000
H  44.64600 42.03200 37.41500
H  53.43200 40.92300 39.77500
H  51.79500 40.51900 40.42900
H  53.25500 40.34200 41.48400
H  55.63900 44.23900 43.37800
H  55.78800 45.00300 41.79700
H  56.88200 43.61600 42.36600
H  54.04600 48.47100 42.35400
H  51.81800 49.95100 43.84100
H  54.29200 47.29100 44.62700
H  52.87500 48.15200 45.23200
H  54.38300 49.00800 44.90700
H  52.01900 50.51400 40.88500
H  53.48200 50.66100 41.74600
H  51.89500 52.77900 41.63700
H  52.82600 52.41100 43.07200
H  51.12900 51.97300 43.05300
H  46.13400 50.82100 42.57700
H  46.10000 51.25000 40.89500
H  47.62800 51.41800 41.58900
H  45.04000 46.31500 38.89300
H  41.63300 45.27700 41.79500
H  41.76100 44.08200 40.48400
H  40.79200 45.48200 40.25500
Mg -2.85000 34.77100 27.25400
C  -4.72000 33.08700 29.43600
C  -1.67300 36.82100 29.66100
C  -1.23100 36.62200 24.84300
C  -4.42700 32.97200 24.66800
N  -3.31700 34.99000 29.31600
C  -3.88100 34.05900 30.11600
C  -3.69500 34.36100 31.58800
C  -3.00400 35.77500 31.58700
C  -2.67400 35.97400 30.07300
C  -3.95700 36.95000 32.24300
C  -2.96000 33.23300 32.39800
C  -3.54600 32.72000 33.70600
H  -3.67400 33.73900 34.85700
N  -1.50200 36.41400 27.29400
C  -1.20800 37.12900 28.38500
C  -0.20400 38.10900 27.99300
C  0.02900 37.97500 26.59800
C  -0.96900 37.00700 26.16700
C  0.42600 38.96000 28.97900
C  0.92400 38.77800 25.67200
O  0.92600 38.54900 24.44800
C  1.86500 39.86500 26.23900
N  -3.04000 34.93700 25.02400
C  -2.12800 35.66200 24.32400
C  -1.92000 35.24000 22.87000
C  -2.97800 34.10000 22.72000
C  -3.50400 33.95300 24.20900
C  -1.97800 36.46900 21.79700
C  -2.45800 32.71300 22.25200
C  -3.17100 32.09600 21.00700
N  -4.37000 33.38900 27.02900
C  -4.80700 32.68800 25.95600
C  -5.69000 31.56700 26.36500
C  -5.64700 31.67700 27.73200
C  -4.89600 32.79300 28.05600
C  -6.38400 30.58700 25.57500
C  -6.07700 31.07800 28.91500
O  -6.70500 30.03600 29.07000
C  -5.56000 31.96800 30.08800
C  -6.75200 32.59400 30.74300
O  -7.40800 33.56100 30.33200
O  -6.96300 32.02700 31.95700
C  -7.97300 32.67600 32.86900
H  -1.27400 37.47300 30.44100
H  -0.67500 37.12700 24.05000
H  -4.81000 32.15900 24.04700
H  -4.65200 34.37900 32.11100
H  -2.11500 35.68100 32.21000
H  -3.74000 37.93200 31.82100
H  -3.66900 36.93000 33.29400
H  -5.03800 36.85700 32.14000
H  -1.99000 33.64100 32.67900
H  -2.72400 32.39200 31.74600
H  -2.97000 31.82100 33.92100
H  -4.56600 32.37100 33.54200
H  1.47700 38.83100 28.72000
H  0.27200 38.59800 29.99500
H  0.05000 39.98300 28.97800
H  1.32500 40.57500 26.86600
H  2.50900 40.19900 25.42500
H  2.62400 39.41400 26.87700
H  -0.93000 34.78300 22.88600
H  -3.79400 34.40500 22.06400
H  -2.68700 36.19000 21.01700
H  -0.97900 36.54800 21.36700
H  -2.38700 37.32300 22.33700
H  -2.65000 32.02200 23.07300
H  -1.38200 32.67700 22.08300
H  -2.35100 32.00100 20.29500
H  -3.94300 32.67200 20.49700
H  -3.48400 31.05200 21.01800
H  -6.24600 30.83300 24.52200
H  -7.38400 30.54900 26.00700
H  -5.85500 29.63800 25.48000
H  -4.97500 31.40100 30.81100
H  -8.50100 31.93800 33.47300
H  -8.73800 33.32000 32.43500
H  -7.53200 33.29900 33.64700

