158

Mg 47.24900 14.49800 27.65700
C  45.39800 14.73800 30.70900
C  49.46900 16.74000 28.92300
C  48.61100 14.81300 24.60100
C  44.49800 12.88000 26.41200
N  47.43500 15.59800 29.64700
C  46.54800 15.48800 30.65300
C  47.13400 16.28000 31.87500
C  48.19600 17.23000 31.16200
C  48.43200 16.52500 29.83300
C  47.80500 18.69400 30.90700
C  47.75600 15.23600 32.92900
C  47.03500 15.18200 34.31200
H  48.01300 15.11900 35.49700
N  48.98500 15.42800 26.94800
C  49.80300 16.23900 27.63000
C  50.89000 16.67500 26.79400
C  50.59400 16.17300 25.50600
C  49.37800 15.41900 25.60000
C  51.99600 17.59600 27.19300
C  51.29500 16.37300 24.18800
O  51.04300 15.74700 23.14900
C  52.36200 17.45900 24.07600
N  46.60800 14.00000 25.80400
C  47.36300 14.16800 24.68900
C  46.68000 13.51300 23.48400
C  45.54900 12.64200 24.15600
C  45.59300 13.18900 25.60000
C  46.18300 14.61700 22.43800
C  45.72500 11.10200 23.97500
C  46.97100 10.43400 24.68600
N  45.37200 13.81200 28.36900
C  44.27600 13.24100 27.72800
C  43.27700 12.90200 28.64700
C  43.65900 13.38700 29.88200
C  44.90100 14.00900 29.62200
C  41.97600 12.22000 28.35600
C  43.35600 13.58900 31.29200
O  42.33100 13.31100 31.94800
C  44.49700 14.48800 31.89200
C  43.89800 15.62500 32.57500
O  43.55500 16.71200 32.07300
O  43.66000 15.34900 33.93800
C  43.00000 16.37100 34.63000
H  50.06300 17.56500 29.32300
H  48.94700 14.88300 23.56400
H  43.70000 12.26600 25.99000
H  46.34300 16.84200 32.37000
H  49.05000 17.41800 31.81400
H  46.72300 18.71000 31.03800
H  47.82200 18.97100 29.85300
H  48.39600 19.38900 31.50400
H  48.79100 15.50100 33.14500
H  47.75200 14.22600 32.51800
H  46.55600 14.21000 34.42900
H  46.29200 15.96300 34.47500
H  52.11500 17.50700 28.27300
H  51.68100 18.59800 26.90300
H  52.98600 17.44400 26.76200
H  53.28900 17.33600 24.63600
H  51.92800 18.41600 24.36600
H  52.69900 17.52700 23.04200
H  47.39500 12.89800 22.93700
H  44.62400 12.93500 23.65900
H  45.44300 15.25800 22.91800
H  45.84600 14.07700 21.55300
H  46.99600 15.27600 22.13000
H  45.82000 10.97500 22.89600
H  44.80800 10.61000 24.30100
H  46.53600 9.81500 25.47100
H  47.57600 11.23100 25.12000
H  47.43700 9.72900 23.99800
H  41.59700 12.09100 29.37000
H  41.94700 11.21500 27.93600
H  41.36600 12.86400 27.72100
H  45.00400 13.82600 32.59500
H  43.51400 16.37800 35.59100
H  42.02500 16.04400 34.99000
H  43.00400 17.39700 34.26100
Mg -1.67400 34.37500 26.09800
C  -2.59000 32.49100 29.00100
C  0.26000 36.26500 28.14200
C  -1.23100 36.31800 23.53900
C  -3.35000 32.01000 24.14000
N  -1.21800 34.29600 28.32700
C  -1.64800 33.42800 29.35000
C  -1.18700 33.84900 30.71200
C  -0.28700 35.13800 30.40500
C  -0.44300 35.27300 28.88500
C  -0.58200 36.43500 31.22700
C  -0.49300 32.69400 31.55600
C  -1.01600 32.32900 32.92700
H  0.11000 32.38400 34.02200
N  -0.63100 36.11800 25.87600
C  0.25900 36.66100 26.73200
C  0.89700 37.86300 26.15400
C  0.31900 37.96900 24.82700
C  -0.53400 36.77400 24.70200
C  1.95700 38.65600 26.96300
C  0.50700 39.10300 23.78000
O  -0.08500 39.15300 22.70400
C  1.56600 40.10400 24.10700
N  -2.29500 34.29400 24.18600
C  -1.95000 35.19100 23.22600
C  -2.42400 34.77400 21.82900
C  -2.71900 33.26700 22.03200
C  -2.78200 33.18300 23.54900
C  -3.76500 35.60300 21.47200
C  -1.65300 32.29400 21.43500
C  -0.30600 32.26700 22.18800
N  -2.89100 32.75200 26.43100
C  -3.47600 31.85600 25.53400
C  -4.19700 30.89700 26.29200
C  -3.95800 31.12600 27.63300
C  -3.16200 32.26100 27.70000
C  -4.97100 29.74700 25.64300
C  -4.16100 30.58100 28.96800
O  -4.87800 29.63500 29.30400
C  -3.27600 31.46400 29.91600
C  -4.17900 31.94100 31.08500
O  -4.82100 32.98400 31.07000
O  -4.17200 31.04600 32.10100
C  -4.80200 31.52300 33.39000
H  0.84800 36.94100 28.76600
H  -1.13500 37.01100 22.70000
H  -3.70800 31.24700 23.44600
H  -1.96400 34.26600 31.35300
H  0.69300 34.79900 30.73900
H  -0.99500 37.24600 30.62600
H  0.37100 36.76200 31.64300
H  -1.30000 36.29200 32.03500
H  0.57900 32.88500 31.61800
H  -0.48900 31.74900 31.01300
H  -1.53500 31.37100 32.91800
H  -1.70300 33.09500 33.28600
H  1.58500 39.67200 27.10000
H  2.95500 38.71700 26.52700
H  2.10300 38.22500 27.95300
H  1.67800 40.88200 23.35200
H  2.47400 39.50200 24.10800
H  1.18000 40.53700 25.03000
H  -1.61800 34.89100 21.10500
H  -3.72700 32.93400 21.78600
H  -4.44800 34.91700 20.97000
H  -3.52300 36.45100 20.83100
H  -4.21300 35.91200 22.41700
H  -1.51500 32.74300 20.45200
H  -1.96300 31.24900 21.40700
H  0.47500 32.45500 21.45000
H  -0.14100 31.27400 22.60700
H  -0.18600 32.94000 23.03700
H  -6.00400 30.07800 25.53700
H  -4.81700 28.86000 26.25700
H  -4.72700 29.52700 24.60300
H  -2.63100 30.76900 30.45200
H  -5.51800 32.34000 33.29200
H  -4.04600 31.97300 34.03300
H  -5.46300 30.80500 33.87500

