158

Mg 44.82100 3.63700 47.20600
C  42.64500 6.34100 46.79400
C  42.03400 1.49400 47.31900
C  46.90500 1.00300 46.81300
C  47.49300 5.99200 46.68500
N  42.55000 3.94900 47.10600
C  41.93000 5.09200 46.83200
C  40.36900 4.87800 46.65100
C  40.20600 3.34000 46.99200
C  41.69500 2.92400 47.28200
C  39.15500 3.15700 48.15500
C  40.03000 5.16300 45.09800
C  38.83600 5.97500 44.76400
H  39.03700 7.03300 43.74500
N  44.53900 1.52500 47.17300
C  43.27300 0.88700 47.22900
C  43.57900 -0.58400 47.31700
C  44.95000 -0.72300 47.09700
C  45.54900 0.60900 46.94500
C  42.47400 -1.67300 47.44700
C  45.73700 -2.06300 47.11100
O  45.16200 -3.13700 47.31500
C  47.25300 -2.16700 46.94100
N  46.83900 3.56000 46.56800
C  47.45600 2.30500 46.67500
C  48.98200 2.53300 46.71400
C  49.13500 4.08900 46.94200
C  47.72600 4.63400 46.76900
C  49.76000 1.82500 47.81900
C  50.11200 4.80700 45.83700
C  51.13800 5.78400 46.49400
N  45.09300 5.78800 46.85000
C  46.21300 6.58300 46.72800
C  45.76200 7.90800 46.61600
C  44.37600 7.96600 46.57200
C  44.00100 6.56200 46.74200
C  46.72800 9.18400 46.34800
C  43.15900 8.77400 46.55800
O  42.92300 9.97900 46.58200
C  42.03500 7.73300 46.61600
C  41.20300 8.11200 47.76900
O  41.32300 7.68400 48.91500
O  40.22500 9.02900 47.36100
C  39.29200 9.50100 48.43700
H  41.19400 0.82000 47.14200
H  47.63300 0.18900 46.81400
H  48.40900 6.58400 46.64000
H  39.72700 5.52600 47.24900
H  39.88000 2.74600 46.13800
H  38.55700 4.06100 48.27600
H  39.55500 2.94800 49.14700
H  38.55500 2.27700 47.92600
H  39.78100 4.21900 44.61200
H  40.84500 5.65000 44.56300
H  38.53900 6.51900 45.66100
H  38.08300 5.26300 44.42600
H  42.37000 -2.38400 46.62700
H  41.56500 -1.17100 47.77800
H  42.73500 -2.38800 48.22700
H  47.83400 -1.63000 47.69000
H  47.38700 -1.89300 45.89400
H  47.57300 -3.20500 47.03400
H  49.42300 2.18400 45.78000
H  49.38400 4.32600 47.97700
H  49.28600 1.98400 48.78700
H  50.82000 2.07700 47.84200
H  49.66200 0.76100 47.60000
H  49.61500 5.18200 44.94200
H  50.78100 4.01300 45.50700
H  52.10000 5.28200 46.39500
H  50.88200 5.98700 47.53400
H  51.15600 6.68700 45.88400
H  46.51800 9.63000 45.37600
H  47.78600 8.94800 46.46300
H  46.51900 9.89000 47.15100
H  41.39300 7.84300 45.74200
H  39.61000 10.53400 48.57800
H  39.44700 9.04800 49.41700
H  38.28500 9.48200 48.02100
Mg 47.22500 16.14400 28.97700
C  44.90900 15.83500 31.53900
C  49.43800 17.83300 31.23700
C  49.25900 16.92500 26.45300
C  44.83000 15.09800 26.72300
N  47.07300 16.90300 31.08100
C  46.07600 16.46600 31.98000
C  46.53000 16.93400 33.37900
C  47.73500 17.84500 33.17900
C  48.11600 17.58600 31.69800
C  47.38600 19.38300 33.48200
C  46.59400 15.68200 34.27500
C  46.61300 15.77000 35.78800
H  46.51200 17.15600 36.37200
N  49.12300 17.14000 28.86600
C  49.87100 17.67600 29.93800
C  51.16400 18.17300 29.40000
C  51.14000 17.87300 28.03900
C  49.78200 17.22700 27.72600
C  52.05100 18.99400 30.20400
C  52.16100 18.27900 26.90700
O  52.01800 17.97500 25.69500
C  53.37000 19.00000 27.39700
N  47.03400 16.17600 26.85400
C  48.04600 16.39700 25.99200
C  47.70100 16.09700 24.51700
C  46.29200 15.46200 24.68200
C  46.01000 15.57300 26.16100
C  47.88600 17.23700 23.46100
C  45.98400 14.03600 24.09100
C  46.50200 12.84800 24.90300
N  45.26200 15.49900 29.07000
C  44.43700 15.03200 28.03500
C  43.14300 14.66600 28.58000
C  43.28100 14.95300 29.99100
C  44.59900 15.52300 30.22400
C  41.91500 14.07000 27.83400
C  42.61600 14.79300 31.30800
O  41.53000 14.39100 31.57500
C  43.68100 15.34500 32.33800
C  43.07200 16.49400 33.03900
O  43.10000 17.65700 32.67000
O  42.48900 16.15900 34.25100
C  41.99400 17.16000 35.12000
H  50.01000 18.28600 32.04800
H  50.08800 16.92200 25.74300
H  44.03800 14.68000 26.09800
H  45.70900 17.50500 33.81100
H  48.53700 17.55700 33.85900
H  47.13100 19.76400 32.49300
H  48.33300 19.86600 33.72800
H  46.70100 19.54600 34.31500
H  47.53600 15.27600 33.90700
H  45.76800 15.01900 34.01500
H  47.31200 15.11900 36.31400
H  45.67100 15.26700 36.00900
H  51.58300 19.18500 31.16900
H  52.07300 19.99300 29.76800
H  53.00800 18.49100 30.34700
H  53.93300 19.24900 26.49700
H  53.88100 18.40000 28.15000
H  53.06300 19.93500 27.86600
H  48.34500 15.32100 24.10400
H  45.49700 16.10000 24.29700
H  47.66900 18.13300 24.04300
H  47.00400 17.32000 22.82500
H  48.85700 17.43000 23.00500
H  46.52300 13.88200 23.15600
H  44.93300 13.85300 23.87100
H  47.20900 13.19600 25.65600
H  46.89300 12.09300 24.22100
H  45.73200 12.25600 25.39800
H  41.30200 13.42600 28.46500
H  42.15500 13.51100 26.92900
H  41.30600 14.93700 27.58000
H  43.81100 14.58700 33.11100
H  40.99400 17.49900 34.85200
H  42.69500 17.99500 35.12600
H  42.00500 16.67200 36.09500

