158

Mg -0.38100 7.52300 26.11700
C  0.35500 9.49000 28.82100
C  -0.27300 4.65200 28.32300
C  -0.91600 5.41400 23.52500
C  -0.21500 10.21600 24.02900
N  0.00700 7.11300 28.32400
C  0.24700 8.13700 29.22400
C  0.11100 7.53500 30.65600
C  0.14500 5.97200 30.46200
C  -0.07800 5.88600 28.97200
C  1.48600 5.36600 30.89200
C  -1.09700 8.02500 31.55200
C  -0.95900 8.33900 33.03800
H  0.35800 7.88800 33.68600
N  -0.50900 5.28800 25.92300
C  -0.45200 4.37000 26.96500
C  -0.55400 3.02300 26.40400
C  -0.76900 3.17300 25.02600
C  -0.74600 4.66300 24.77600
C  -0.73900 1.77200 27.18600
C  -0.95200 2.07100 23.94400
O  -1.10000 2.32200 22.80000
C  -0.89000 0.58200 24.25800
N  -0.44800 7.77700 24.04000
C  -0.75200 6.77800 23.17700
C  -0.84500 7.34000 21.67800
C  -0.84000 8.89600 21.91900
C  -0.54000 9.00100 23.43000
C  0.25300 6.87500 20.66100
C  -2.03800 9.69400 21.26300
C  -3.27500 9.69200 22.19700
N  0.05600 9.48600 26.33400
C  0.13800 10.45600 25.40900
C  0.51100 11.72400 26.00300
C  0.68200 11.40300 27.38700
C  0.32000 10.04200 27.51400
C  0.63700 13.02200 25.27800
C  0.98100 11.90300 28.74100
O  1.40700 12.97700 29.13500
C  0.58800 10.68000 29.70200
C  1.81400 10.56400 30.57200
O  2.91900 10.35800 30.14300
O  1.49700 10.68100 31.94700
C  2.65700 10.82600 32.82500
H  -0.30000 3.85200 29.06600
H  -1.13600 4.71200 22.71700
H  -0.19400 11.06600 23.34400
H  1.01800 7.78400 31.20700
H  -0.67000 5.55300 31.05300
H  1.97300 4.82000 30.08400
H  1.45800 4.81600 31.83300
H  2.25400 6.13300 30.99400
H  -1.85700 7.25500 31.42200
H  -1.43500 8.96800 31.12200
H  -1.84100 8.18100 33.66000
H  -0.87500 9.42500 33.03800
H  0.11100 1.10700 27.03800
H  -1.66500 1.24900 26.94700
H  -0.76900 1.76800 28.27600
H  -0.95400 -0.02800 23.35700
H  -1.74000 0.31700 24.88600
H  0.04500 0.39500 24.78600
H  -1.78300 7.12600 21.16700
H  0.03800 9.35300 21.46200
H  1.08200 6.31600 21.09600
H  0.66100 7.68800 20.05900
H  -0.27300 6.21500 19.97100
H  -2.24300 9.17200 20.32800
H  -1.71200 10.69500 20.98000
H  -3.36000 10.62400 22.75600
H  -3.22600 8.88100 22.92400
H  -4.16500 9.42600 21.62600
H  1.13800 12.89700 24.31800
H  1.22400 13.64200 25.95600
H  -0.31900 13.51200 25.09200
H  -0.31700 10.99000 30.22300
H  3.48300 10.14300 32.62200
H  2.37400 10.77200 33.87600
H  2.85700 11.88500 32.66500
Mg 54.34100 24.33100 44.80200
C  51.74000 26.61200 43.99200
C  52.51400 21.80000 43.32600
C  57.17400 22.51000 44.58200
C  56.28500 27.17500 45.45400
N  52.32600 24.24400 43.79800
C  51.44300 25.30200 43.50400
C  50.32400 24.76300 42.62400
C  50.36600 23.24000 42.86200
C  51.80000 23.01100 43.40400
C  49.31000 22.64400 43.88600
C  50.34100 25.22600 41.16600
C  51.65300 25.78500 40.66100
H  52.57600 24.81800 39.87100
N  54.77700 22.36600 44.13500
C  53.86100 21.53600 43.59100
C  54.62500 20.32800 43.21000
C  55.96500 20.38300 43.71700
C  56.02900 21.76700 44.12900
C  53.91800 19.19600 42.41000
C  57.02300 19.25800 43.65300
O  56.69200 18.11400 43.27600
C  58.54100 19.49200 43.83000
N  56.51400 24.78900 44.83700
C  57.38800 23.83700 44.88300
C  58.83200 24.34300 45.21200
C  58.54200 25.86400 45.55100
C  56.97500 25.96700 45.22100
C  59.56400 23.71900 46.41900
C  59.36200 26.97100 44.89900
C  58.91600 27.61800 43.56500
N  54.02900 26.44600 44.96100
C  54.91900 27.48000 45.32700
C  54.18600 28.72000 45.47300
C  52.94800 28.46300 44.87000
C  52.92300 27.04600 44.57400
C  54.70300 29.97800 46.10400
C  51.59800 29.01300 44.64400
O  51.07000 30.13200 44.83400
C  50.88400 27.84900 43.89700
C  50.55800 28.35400 42.55100
O  51.38000 28.87200 41.82600
O  49.23900 28.18000 42.27500
C  48.78300 28.51300 40.84800
H  52.03400 20.90000 42.93700
H  58.14800 22.01700 44.60800
H  57.00300 27.98500 45.60000
H  49.45200 25.18000 43.12800
H  50.31500 22.68400 41.92600
H  48.84700 21.74800 43.47200
H  48.60700 23.45200 44.08900
H  49.78800 22.34100 44.81700
H  49.49200 25.89700 41.03200
H  50.31200 24.39400 40.46200
H  52.27900 26.26200 41.41500
H  51.43700 26.56700 39.93300
H  54.64300 18.63300 41.82300
H  53.21900 19.50600 41.63200
H  53.44500 18.59300 43.18400
H  58.73200 20.44100 43.32900
H  59.04900 18.67600 43.31500
H  58.58800 19.54100 44.91800
H  59.48800 24.41400 44.34400
H  58.60500 26.03900 46.62500
H  60.39700 23.13800 46.02200
H  58.81800 23.02900 46.81500
H  59.99500 24.40100 47.15200
H  60.31700 26.47000 44.73900
H  59.65000 27.77400 45.57800
H  59.49800 27.23800 42.72500
H  59.13800 28.68300 43.63200
H  57.88800 27.35200 43.32000
H  55.52800 30.49100 45.61000
H  55.02000 29.70300 47.11000
H  53.86100 30.66800 46.15100
H  49.93600 27.62900 44.38600
H  49.49800 28.33800 40.04400
H  48.46900 29.55700 40.87300
H  47.88300 27.92900 40.66000

