158

Mg 1.73000 8.16000 25.70800
C  1.79300 10.13800 28.67000
C  1.93700 5.46400 27.65000
C  1.67200 6.37500 22.90100
C  2.11900 11.09600 23.78800
N  1.57900 7.82300 27.97700
C  1.66500 8.73500 28.92300
C  1.57100 8.06100 30.27700
C  1.88200 6.54800 29.95700
C  1.87000 6.63800 28.41700
C  3.21700 5.91400 30.55900
C  0.25100 8.40300 31.07900
C  0.27400 8.49200 32.66000
H  1.60400 7.95700 33.39800
N  1.72300 6.19600 25.38900
C  1.85800 5.20300 26.29000
C  1.98500 3.92200 25.55300
C  1.80100 4.16800 24.14400
C  1.77200 5.65100 24.09100
C  2.16300 2.62400 26.30300
C  1.81200 3.18400 22.97100
O  1.70100 3.59000 21.84000
C  1.91600 1.81900 23.20700
N  1.85300 8.74100 23.59700
C  1.71400 7.78000 22.59700
C  1.71600 8.43500 21.16900
C  1.70100 10.00000 21.50500
C  1.88200 9.98000 23.00300
C  2.96300 7.99700 20.28100
C  0.32000 10.70700 21.05100
C  0.20600 11.08800 19.58400
N  1.84600 10.18300 26.10000
C  2.04400 11.25300 25.22800
C  2.04200 12.50100 26.05200
C  1.93700 12.10100 27.40800
C  1.84700 10.69000 27.35000
C  2.25400 13.87400 25.52900
C  2.00300 12.64000 28.77400
O  2.20900 13.74900 29.17300
C  1.83300 11.30800 29.68800
C  3.06600 11.14800 30.52500
O  4.13800 10.90000 30.13600
O  2.82300 11.53200 31.78300
C  3.80600 11.37200 32.87300
H  1.99600 4.59400 28.30800
H  1.69500 5.92800 21.90500
H  2.04500 11.97700 23.14800
H  2.43400 8.27100 30.90800
H  1.02600 5.97800 30.31900
H  2.96000 4.92200 30.93100
H  3.55800 6.57700 31.35400
H  4.04500 5.83900 29.85400
H  -0.50200 7.64000 30.88800
H  -0.23400 9.31500 30.73100
H  -0.63300 7.96500 32.95600
H  0.27800 9.55800 32.88400
H  2.86100 1.91900 25.85100
H  1.18500 2.27100 26.62700
H  2.65000 2.73100 27.27200
H  2.91100 1.50400 23.52200
H  1.67400 1.25000 22.30900
H  1.10100 1.65500 23.91200
H  0.75600 8.18700 20.71700
H  2.50500 10.52400 20.99000
H  2.56300 7.63900 19.33200
H  3.47100 7.18400 20.79900
H  3.56300 8.86200 19.99700
H  0.20200 11.67700 21.53300
H  -0.53700 10.04400 21.16700
H  -0.18600 12.09900 19.46800
H  -0.50400 10.39900 19.12600
H  1.20000 10.96600 19.15500
H  2.49000 13.87700 24.46500
H  3.10200 14.30500 26.06000
H  1.43200 14.50900 25.86100
H  0.93700 11.29200 30.30800
H  4.55500 10.61600 32.63600
H  3.14800 11.03000 33.67200
H  4.22400 12.32800 33.19100
Mg 8.61300 47.78200 25.80000
C  6.39500 47.65200 28.49100
C  11.08600 48.90200 27.94900
C  10.71300 47.83700 23.23200
C  5.89600 47.36900 23.69100
N  8.63500 48.37500 27.90300
C  7.68600 48.07500 28.86200
C  8.16800 48.38600 30.25600
C  9.51200 49.16100 29.96800
C  9.77000 48.81800 28.56000
C  9.50500 50.70300 30.17100
C  8.11100 47.18700 31.26500
C  9.11000 47.18300 32.43000
H  8.69100 46.56000 33.77500
N  10.65600 48.01800 25.68000
C  11.53000 48.48800 26.64200
C  12.83100 48.41700 26.05500
C  12.77300 48.02200 24.73200
C  11.35100 47.96000 24.47100
C  14.04200 48.73300 26.89400
C  13.86600 47.79100 23.62000
O  13.68400 47.51900 22.45200
C  15.34100 47.81900 24.02300
N  8.30100 47.76700 23.75700
C  9.36100 47.75500 22.88200
C  8.89200 47.70100 21.43000
C  7.33800 47.58700 21.56400
C  7.14100 47.55100 23.10100
C  9.38900 48.87800 20.60500
C  6.66900 46.37100 20.86700
C  5.75700 46.61300 19.64600
N  6.57200 47.58400 25.95700
C  5.58700 47.38100 25.02800
C  4.28800 47.14100 25.66900
C  4.62500 47.21900 27.03500
C  6.00600 47.52100 27.16900
C  2.93300 46.97300 25.08400
C  3.94500 47.14700 28.34400
O  2.74800 46.93400 28.53000
C  5.11000 47.42500 29.35500
C  5.05100 46.36000 30.37700
O  5.62500 45.32200 30.38800
O  4.17700 46.75800 31.39000
C  4.42300 46.28300 32.75400
H  11.85100 49.15300 28.68700
H  11.39100 47.97700 22.38700
H  5.08100 47.25800 22.97300
H  7.49000 49.17600 30.57900
H  10.39400 48.75900 30.46500
H  9.20700 51.05600 29.18400
H  10.42800 51.13400 30.56100
H  8.83600 50.95400 30.99400
H  8.05300 46.24400 30.72200
H  7.17000 47.41000 31.76800
H  9.42600 48.22300 32.50900
H  9.96400 46.57700 32.12700
H  14.68700 49.39500 26.31600
H  14.64000 47.85100 27.12400
H  13.76900 49.17800 27.85100
H  15.47800 46.93500 24.64600
H  15.62100 48.72100 24.56600
H  16.08800 47.64900 23.24800
H  9.34300 46.81100 20.99200
H  6.73900 48.47600 21.36600
H  9.71800 48.40600 19.68000
H  10.10300 49.52100 21.12000
H  8.49000 49.42500 20.32000
H  6.17300 45.81100 21.66000
H  7.49800 45.71400 20.60200
H  6.05500 45.89100 18.88500
H  5.84500 47.62300 19.24600
H  4.73100 46.44200 19.97300
H  3.08000 46.53400 24.09800
H  2.54600 47.98700 24.98000
H  2.43700 46.23300 25.71200
H  4.92300 48.38500 29.83700
H  3.65900 45.59100 33.11000
H  4.57300 47.06900 33.49500
H  5.36500 45.73900 32.82700

