158

Mg 6.97300 53.47100 41.24500
C  6.31400 50.16100 40.43600
C  9.87000 53.27400 39.34100
C  7.18000 56.86100 41.39700
C  3.50500 53.76300 42.38000
N  7.89800 51.98400 40.05400
C  7.50700 50.66900 39.90000
C  8.52000 49.98200 38.83700
C  9.79800 50.80300 39.11000
C  9.15100 52.10300 39.52600
C  10.72900 50.33600 40.24100
C  7.94900 50.14800 37.31300
C  8.23200 48.95100 36.49000
H  7.42000 48.67200 35.26900
N  8.46700 54.82300 40.61000
C  9.52000 54.54200 39.81300
C  10.24500 55.71900 39.56600
C  9.59400 56.87100 40.28500
C  8.36000 56.22500 40.83400
C  11.42900 55.65900 38.55900
C  10.12500 58.30800 40.34800
O  11.12900 58.65200 39.74300
C  9.56300 59.37000 41.36500
N  5.51800 55.11300 41.73400
C  5.93500 56.37300 41.80600
C  4.73400 57.24100 42.18900
C  3.65000 56.25200 42.76600
C  4.24200 54.91800 42.21900
C  5.05900 58.45100 43.11400
C  2.13800 56.52600 42.26700
C  1.19200 56.45800 43.48200
N  5.28500 52.24100 41.44400
C  3.98500 52.43600 41.97900
C  3.32700 51.21200 42.05900
C  4.15700 50.24700 41.48800
C  5.32700 50.94500 41.11200
C  1.99300 50.88600 42.54400
C  4.33200 48.79900 41.19600
O  3.62700 47.83000 41.48700
C  5.79700 48.79800 40.45900
C  5.70800 48.00100 39.29100
O  4.80500 48.17200 38.44300
O  6.59100 46.90500 39.25600
C  6.43200 45.94900 38.18400
H  10.81100 53.16000 38.79800
H  7.12000 57.94600 41.28700
H  2.52200 53.92900 42.82700
H  8.71700 48.94300 39.10200
H  10.39900 50.90600 38.20700
H  10.69300 51.04100 41.07100
H  11.74100 50.21500 39.85500
H  10.36000 49.44000 40.74000
H  8.42400 51.00900 36.84300
H  6.88300 50.25000 37.51600
H  8.11400 48.04900 37.09000
H  9.22200 49.23000 36.12900
H  11.29000 54.98000 37.71800
H  12.26600 55.22400 39.10500
H  11.81600 56.59300 38.15000
H  9.04200 58.96400 42.23200
H  8.93200 60.03800 40.77800
H  10.43100 59.91400 41.73900
H  4.33600 57.63200 41.25300
H  3.71400 56.21600 43.85400
H  4.82800 59.38900 42.60900
H  6.13900 58.34900 43.21500
H  4.54600 58.43700 44.07500
H  1.80100 55.87600 41.45900
H  2.04000 57.52300 41.83700
H  1.70100 56.35000 44.44000
H  0.49200 55.63000 43.37600
H  0.65500 57.40000 43.37400
H  1.36200 50.28000 41.89300
H  1.35500 51.76900 42.50900
H  2.16900 50.49500 43.54600
H  6.50500 48.31200 41.13100
H  6.41100 45.00300 38.72400
H  7.33100 45.81300 37.58300
H  5.49200 46.00700 37.63500
Mg -5.88500 24.31200 25.76400
C  -4.78500 25.95700 28.60300
C  -7.48900 22.06800 27.70100
C  -6.41400 22.45300 22.96200
C  -3.62400 26.37400 23.80600
N  -6.19800 24.15200 27.87000
C  -5.67300 24.96000 28.84000
C  -6.01300 24.43200 30.27400
C  -6.85000 23.09600 29.95200
C  -6.83300 23.07200 28.39700
C  -6.10700 21.83100 30.59400
C  -6.85600 25.41800 31.14000
C  -6.84700 25.26000 32.71300
H  -6.19400 23.94900 33.33700
N  -6.97500 22.55100 25.34900
C  -7.57100 21.80500 26.31800
C  -8.33300 20.68300 25.73300
C  -7.98400 20.74800 24.37100
C  -7.04600 21.92400 24.11800
C  -9.31800 19.87600 26.48700
C  -8.41400 19.89100 23.24000
O  -8.10700 20.05600 22.02700
C  -9.40900 18.72200 23.55300
N  -4.86600 24.15100 23.74900
C  -5.40500 23.35000 22.81300
C  -4.69500 23.62200 21.48600
C  -3.88300 24.93300 21.71500
C  -4.14900 25.25300 23.17300
C  -3.85500 22.46400 20.99400
C  -4.17100 26.09400 20.77600
C  -3.13500 26.50400 19.75800
N  -4.56600 25.83500 26.11800
C  -3.77700 26.64200 25.20700
C  -3.16600 27.72000 25.92900
C  -3.49600 27.50300 27.31700
C  -4.34700 26.38000 27.34300
C  -2.29700 28.67300 25.25200
C  -3.23600 27.88900 28.67200
O  -2.54500 28.75900 29.20000
C  -4.06900 26.91600 29.58300
C  -3.18200 26.19100 30.53100
O  -2.24100 25.43600 30.26200
O  -3.45700 26.53000 31.84400
C  -2.58300 25.98600 32.94500
H  -7.94500 21.31300 28.34500
H  -6.57000 21.89700 22.03600
H  -3.05000 27.10400 23.23100
H  -5.10800 24.22400 30.84500
H  -7.89800 23.15500 30.24700
H  -5.19700 22.16400 31.09200
H  -5.84400 21.11800 29.81300
H  -6.70400 21.19500 31.24800
H  -7.89300 25.39900 30.80500
H  -6.54000 26.41700 30.84000
H  -7.84400 25.31100 33.15000
H  -6.14000 25.99900 33.09000
H  -8.98500 18.84400 26.37600
H  -10.34900 19.89800 26.13400
H  -9.22700 20.16900 27.53300
H  -9.54100 18.05800 22.69900
H  -10.41600 19.04300 23.81800
H  -9.03800 18.05800 24.33400
H  -5.44400 23.74200 20.70400
H  -2.82700 24.66500 21.76100
H  -2.79900 22.72300 20.92400
H  -4.18200 22.19200 19.99000
H  -3.95700 21.70100 21.76700
H  -4.67600 26.91000 21.29300
H  -4.86600 25.56800 20.12200
H  -2.13500 26.07500 19.81700
H  -2.89200 27.56500 19.81100
H  -3.52100 26.25600 18.76900
H  -2.86900 29.45800 24.75600
H  -1.49700 28.29000 24.61900
H  -1.76400 29.23700 26.01700
H  -4.70500 27.56300 30.18800
H  -1.69900 25.46200 32.58100
H  -3.07800 25.46600 33.76500
H  -2.13800 26.90200 33.33500

