158

Mg 35.95600 1.10800 29.61400
C  33.87100 2.14800 32.36200
C  38.67800 1.15800 31.62800
C  37.69000 0.49000 26.86700
C  33.10800 1.62400 27.57000
N  36.19100 1.33800 31.77400
C  35.19800 1.84600 32.73000
C  35.80400 1.79500 34.15900
C  37.41900 1.68200 33.83300
C  37.43800 1.29900 32.35700
C  38.37900 2.89000 34.18200
C  35.34200 0.66400 35.09800
C  35.10200 0.89500 36.58700
H  35.57200 2.19800 37.27900
N  37.83300 0.80200 29.28400
C  38.81300 0.92300 30.24300
C  40.11500 0.78800 29.58100
C  39.89000 0.43400 28.24900
C  38.38500 0.48900 28.07600
C  41.44300 0.75700 30.23100
C  40.85200 -0.07200 27.21000
O  40.46500 -0.41600 26.07200
C  42.36500 -0.23800 27.44600
N  35.43900 0.90100 27.52100
C  36.35200 0.74100 26.55900
C  35.74200 0.84100 25.14400
C  34.26500 0.84300 25.48000
C  34.24800 1.03400 26.95800
C  36.35600 2.05400 24.29800
C  33.53300 -0.50100 24.97600
C  32.73100 -0.44100 23.65100
N  33.96200 1.76500 29.89800
C  32.95200 1.95600 28.93100
C  31.76200 2.45800 29.57900
C  32.06300 2.51000 30.95200
C  33.39300 2.14800 31.04400
C  30.44200 2.74800 28.81100
C  31.55300 2.91500 32.29000
O  30.54400 3.35200 32.74900
C  32.74300 2.66300 33.23100
C  32.94200 3.96200 33.96000
O  33.25500 5.02300 33.46600
O  32.58500 3.82400 35.26300
C  32.28200 5.14100 35.98600
H  39.57900 1.21900 32.24300
H  38.35400 0.23500 26.03900
H  32.21300 1.65100 26.94500
H  35.52300 2.77900 34.53300
H  37.82900 0.76300 34.25200
H  38.70400 3.42900 33.29200
H  39.34800 2.64800 34.62000
H  37.69600 3.54600 34.72200
H  35.97800 -0.21700 35.01200
H  34.37000 0.40400 34.67900
H  35.44600 0.04400 37.17400
H  34.02400 0.99300 36.71800
H  41.61900 1.46700 31.03900
H  42.19600 1.05600 29.50100
H  41.73900 -0.24800 30.53200
H  42.84900 0.73800 27.41400
H  42.69100 -0.81500 26.58100
H  42.74000 -0.85900 28.26000
H  35.88500 -0.10200 24.61700
H  33.80100 1.71200 25.01200
H  36.63400 2.90700 24.91900
H  35.50700 2.26100 23.64700
H  37.19600 1.63100 23.74800
H  32.79300 -0.81900 25.71100
H  34.25000 -1.31200 24.85000
H  31.69600 -0.71100 23.86000
H  33.12300 -1.23500 23.01600
H  32.81900 0.53600 23.17600
H  30.24600 2.10700 27.95200
H  30.42900 3.80500 28.54600
H  29.74500 2.61300 29.63800
H  32.50200 1.91300 33.98500
H  31.39000 5.64000 35.60800
H  33.10300 5.83900 36.14900
H  31.99900 4.82600 36.99100
Mg 6.76900 54.32100 41.03800
C  6.20900 50.84100 40.69600
C  9.99800 53.84200 40.22000
C  6.97100 57.70900 40.97700
C  3.46300 54.53600 42.00900
N  7.89200 52.55800 40.22800
C  7.52200 51.22200 40.27800
C  8.77100 50.27900 40.18300
C  9.91300 51.32700 40.25700
C  9.23800 52.67800 40.20700
C  10.88000 51.32900 41.55400
C  8.78100 49.24500 38.98600
C  8.81400 49.85100 37.58000
H  7.61600 49.80400 36.64600
N  8.30000 55.60200 40.68500
C  9.64000 55.19800 40.42600
C  10.48600 56.37900 40.30600
C  9.64100 57.50200 40.54600
C  8.23800 56.97100 40.79300
C  12.00700 56.31600 39.96500
C  10.11500 58.96400 40.59200
O  11.31700 59.30200 40.38600
C  9.10300 60.06400 40.84700
N  5.36800 55.91700 41.37200
C  5.73600 57.24500 41.26600
C  4.51500 58.11500 41.41800
C  3.46500 57.12700 42.00000
C  4.09000 55.76600 41.74900
C  4.68900 59.43300 42.22800
C  2.00000 57.18100 41.38100
C  1.89000 56.62300 39.95900
N  5.09100 53.02700 41.24000
C  3.87200 53.24400 41.74100
C  3.16000 52.02000 41.92300
C  4.02300 51.03800 41.47300
C  5.18900 51.70200 41.11300
C  1.78800 51.83300 42.38800
C  4.16500 49.61600 41.26600
O  3.42500 48.65800 41.52300
C  5.63700 49.43000 40.84100
C  5.39100 48.59100 39.69500
O  5.15700 48.96600 38.53900
O  5.50700 47.29500 40.10700
C  5.32200 46.18400 39.05700
H  11.06200 53.61600 40.12400
H  6.87700 58.79400 40.90100
H  2.52000 54.61900 42.55200
H  8.56700 49.66200 41.05800
H  10.52000 51.32500 39.35100
H  11.91900 51.46400 41.25300
H  10.86000 50.27500 41.83100
H  10.53900 51.99700 42.34500
H  8.05800 48.43300 39.06700
H  9.72200 48.73800 39.19400
H  9.65700 49.34800 37.10600
H  9.06600 50.90800 37.66500
H  12.52700 55.37100 40.11900
H  12.54400 56.95400 40.66700
H  12.13700 56.70700 38.95600
H  8.30200 59.97400 40.11200
H  9.45700 61.08400 40.70100
H  8.62400 59.92100 41.81500
H  4.12000 58.40600 40.44500
H  3.43100 57.21900 43.08600
H  5.71400 59.74800 42.42400
H  4.31500 59.32400 43.24600
H  4.17300 60.24300 41.71300
H  1.67000 58.21800 41.43600
H  1.24900 56.68600 41.99800
H  1.57900 55.58000 40.02000
H  2.79200 56.63200 39.34800
H  1.16400 57.27000 39.46500
H  1.20100 51.33800 41.61400
H  1.32800 52.77000 42.70200
H  1.79900 51.19600 43.27200
H  6.07100 48.83200 41.64200
H  6.28700 45.68000 38.99900
H  5.15200 46.62700 38.07500
H  4.52200 45.56500 39.46300

