158

Mg 40.82900 9.76800 29.02000
C  42.60500 10.72800 31.79700
C  38.43500 8.15800 31.19900
C  39.26100 8.33100 26.38400
C  43.36900 10.95300 27.00900
N  40.68000 9.31500 31.20800
C  41.43700 10.02100 32.10100
C  40.88500 9.95400 33.51300
C  39.60100 8.96100 33.36200
C  39.54100 8.74100 31.84000
C  39.69800 7.68300 34.15500
C  40.37700 11.34700 34.12100
C  40.03900 11.41500 35.67500
H  41.03600 12.06000 36.63200
N  39.15200 8.50200 28.83400
C  38.21500 8.09200 29.80100
C  37.08100 7.43100 29.20400
C  37.37400 7.31700 27.84000
C  38.63700 8.05900 27.61900
C  35.91900 6.95500 30.07100
C  36.63100 6.63800 26.75100
O  37.05800 6.49800 25.64000
C  35.22700 6.17800 27.05900
N  41.27900 9.57100 27.01900
C  40.42200 9.03500 26.06100
C  40.91600 9.37400 24.61900
C  42.36200 10.01500 24.90800
C  42.34100 10.23200 26.40700
C  40.98600 8.20900 23.59700
C  42.57100 11.28100 24.01700
C  41.78600 12.58900 24.39000
N  42.61400 10.82600 29.25200
C  43.58700 11.15200 28.35800
C  44.68500 11.80700 29.05100
C  44.27200 11.80500 30.41900
C  43.08400 11.09200 30.44000
C  45.79200 12.60500 28.43100
C  44.66100 12.05200 31.79500
O  45.68500 12.59400 32.17700
C  43.56300 11.45200 32.77100
C  44.28900 10.46400 33.56400
O  45.20500 9.78800 33.20400
O  43.77100 10.50100 34.87300
C  44.23000 9.42200 35.70300
H  37.67200 7.81200 31.90000
H  38.83700 7.96500 25.44600
H  44.12500 11.33700 26.32100
H  41.65300 9.57900 34.18800
H  38.76800 9.54400 33.75400
H  39.43800 6.82000 33.54300
H  39.12400 7.59500 35.07700
H  40.74100 7.48700 34.40400
H  39.52900 11.64000 33.50100
H  41.09600 12.10700 33.81600
H  39.98400 10.37400 35.99300
H  38.99800 11.73300 35.73900
H  34.95200 7.06300 29.57900
H  35.82900 7.51700 31.00000
H  36.02400 5.93000 30.42600
H  34.81900 5.55600 26.26200
H  34.47200 6.90900 27.35100
H  35.46000 5.44600 27.83200
H  40.12000 10.06700 24.34400
H  43.08900 9.26800 24.58800
H  41.05200 7.28100 24.16600
H  41.85200 8.38400 22.96000
H  40.07500 8.28600 23.00300
H  42.17400 11.11400 23.01600
H  43.63000 11.52000 23.91000
H  41.12900 12.86500 23.56500
H  42.57200 13.28400 24.68700
H  41.17900 12.48200 25.28900
H  46.31500 13.13000 29.23100
H  45.34000 13.39700 27.83400
H  46.47100 12.01000 27.82200
H  43.28100 12.27900 33.42200
H  44.03300 9.76200 36.72000
H  45.26800 9.20300 35.45100
H  43.54500 8.60100 35.49300
Mg 47.03600 17.08400 28.04100
C  45.00700 16.31000 31.07000
C  49.32600 18.51900 30.00600
C  48.38700 17.94300 25.28000
C  44.19500 15.85700 26.22400
N  47.13400 17.36200 30.30000
C  46.20200 17.04100 31.30100
C  46.86100 17.33400 32.62700
C  47.90600 18.44300 32.25500
C  48.22600 18.02900 30.79700
C  47.51900 19.92300 32.25600
C  47.47400 16.00900 33.27000
C  47.56800 15.92600 34.78200
H  47.77900 17.07200 35.77300
N  48.69800 17.98600 27.73400
C  49.56300 18.52100 28.64000
C  50.71500 19.01200 28.01000
C  50.45600 18.87500 26.62000
C  49.14000 18.19900 26.51000
C  51.94000 19.52600 28.77100
C  51.35500 19.32800 25.40600
O  51.09100 18.98600 24.23100
C  52.51200 20.28600 25.69700
N  46.40300 16.85200 26.00800
C  47.16400 17.40800 25.01400
C  46.61200 17.07100 23.61200
C  45.33500 16.28000 23.89400
C  45.30400 16.29500 25.47000
C  46.54500 18.27000 22.58800
C  45.48000 14.81200 23.29700
C  46.46300 13.85700 23.98400
N  45.04800 16.12300 28.45500
C  44.05400 15.72800 27.62200
C  42.91700 15.12700 28.43100
C  43.27500 15.33800 29.71700
C  44.53600 15.96100 29.73100
C  41.62300 14.51100 27.86200
C  42.78800 15.24100 31.15500
O  41.77900 14.77800 31.59300
C  43.94000 15.78800 32.04500
C  43.33100 16.99200 32.76900
O  42.83600 17.92500 32.21500
O  43.35300 16.88900 34.11800
C  42.53100 17.78500 34.86300
H  50.05600 19.02700 30.64000
H  48.92200 18.25400 24.38000
H  43.36000 15.56600 25.58400
H  46.15600 17.71300 33.36700
H  48.76500 18.38700 32.92500
H  48.24100 20.40200 32.91700
H  46.63500 19.99600 32.88900
H  47.38500 20.40100 31.28600
H  48.52200 15.91800 32.98400
H  46.93100 15.15000 32.87500
H  48.46600 15.33800 34.96900
H  46.77600 15.34000 35.24800
H  52.69500 18.74000 28.78000
H  51.65200 19.65100 29.81500
H  52.28600 20.45800 28.32500
H  53.25300 19.94500 26.42100
H  52.11800 21.26500 25.96700
H  53.08800 20.38200 24.77600
H  47.25600 16.28100 23.22400
H  44.38400 16.72200 23.59800
H  45.49300 18.54500 22.52100
H  46.89900 18.11200 21.56900
H  47.10900 19.16300 22.85800
H  45.82500 14.99300 22.27900
H  44.46100 14.44400 23.17600
H  47.46500 14.28400 23.98100
H  46.55600 12.93100 23.41500
H  46.31900 13.56800 25.02500
H  40.79500 15.02900 28.34500
H  41.70300 13.42600 27.94100
H  41.44600 14.64500 26.79500
H  44.25200 15.07000 32.80300
H  42.51200 17.59400 35.93600
H  41.46700 17.66200 34.65900
H  42.76300 18.81500 34.59400

