158

Mg 48.12700 16.57800 28.60100
C  46.31900 16.46600 31.55400
C  50.56400 18.41500 30.13700
C  49.57900 17.23800 25.52900
C  45.47600 15.08000 26.81600
N  48.46800 17.34200 30.66600
C  47.55600 17.12400 31.70500
C  48.08800 17.67400 33.00700
C  49.46700 18.30300 32.53400
C  49.52300 18.00100 31.01400
C  49.41500 19.83600 32.75100
C  48.36900 16.38500 34.02800
C  47.79300 16.51700 35.44700
H  47.54400 18.00200 35.96200
N  50.00500 17.42000 27.94300
C  50.80200 18.13800 28.77800
C  51.95500 18.58300 28.00200
C  51.73400 18.21400 26.63700
C  50.38900 17.54300 26.63800
C  53.12100 19.34900 28.65700
C  52.60300 18.49500 25.39800
O  52.31000 18.07300 24.29300
C  53.95200 19.21000 25.57000
N  47.62600 16.23500 26.47800
C  48.37100 16.64500 25.44200
C  47.70000 16.23400 24.08300
C  46.45600 15.44900 24.53300
C  46.58200 15.48400 26.03900
C  47.42900 17.52400 23.23700
C  46.21900 13.96700 24.01300
C  45.40600 13.75300 22.71400
N  46.29700 15.87300 29.11400
C  45.29900 15.28000 28.23700
C  44.12600 15.00000 29.08200
C  44.57700 15.43500 30.36700
C  45.83200 15.95300 30.32500
C  42.80800 14.42800 28.55300
C  44.15600 15.52400 31.73500
O  43.07300 15.20400 32.14600
C  45.24900 16.09900 32.61200
C  44.67800 17.29000 33.25900
O  44.75000 18.43000 32.90500
O  43.98600 16.88300 34.35000
C  43.45800 17.97300 35.13900
H  51.17300 19.18900 30.60800
H  50.06900 17.40500 24.56800
H  44.62200 14.52700 26.41700
H  47.38000 18.38300 33.43600
H  50.21100 17.84700 33.18600
H  49.50600 19.99100 33.82600
H  48.46700 20.35700 32.62200
H  50.15100 20.39500 32.17300
H  49.42000 16.11200 34.11900
H  47.88700 15.52400 33.56500
H  48.49800 16.13400 36.18500
H  46.83200 16.00400 35.47300
H  53.96700 18.68500 28.83400
H  52.69100 19.85300 29.52300
H  53.41200 20.20000 28.04100
H  53.90700 20.20200 26.01900
H  54.24800 19.36700 24.53400
H  54.69500 18.65000 26.13800
H  48.41000 15.51500 23.67500
H  45.55600 15.95500 24.18300
H  47.57100 18.47600 23.74900
H  46.45800 17.51600 22.74200
H  48.09400 17.50000 22.37500
H  45.96700 13.27900 24.82000
H  47.19400 13.62300 23.66900
H  44.34800 13.52400 22.83600
H  45.79700 12.99100 22.04000
H  45.43400 14.74600 22.26600
H  42.65500 14.54600 27.48000
H  41.99600 14.96400 29.04400
H  42.87900 13.34900 28.68800
H  45.58100 15.32000 33.29900
H  42.50000 18.26600 34.71100
H  44.02200 18.89300 35.29000
H  43.33800 17.60400 36.15800
Mg 36.09400 48.83700 24.57400
C  36.52000 47.23700 27.67400
C  34.21700 51.21500 25.99500
C  35.47600 49.85900 21.53000
C  37.86300 45.90800 23.04500
N  35.34200 49.09200 26.61700
C  35.73900 48.42500 27.69600
C  35.26700 49.18200 28.93600
C  34.32500 50.32400 28.42300
C  34.64600 50.22300 26.91600
C  32.82600 50.04700 28.74100
C  36.43200 49.68000 29.85700
C  36.42400 49.13900 31.29600
H  34.97900 49.00300 31.92000
N  35.06000 50.39000 23.88000
C  34.41300 51.33800 24.58800
C  33.93300 52.36300 23.73900
C  34.27500 52.02900 22.43900
C  35.03500 50.73400 22.56200
C  33.50700 53.68200 24.27500
C  34.07200 52.76800 21.12800
O  34.79800 52.46300 20.21400
C  33.14600 53.88300 21.04100
N  36.66500 48.02700 22.63700
C  36.23100 48.68100 21.49400
C  36.74000 48.06800 20.23900
C  37.68300 46.87200 20.68600
C  37.39900 46.95400 22.24800
C  35.58500 47.61300 19.32800
C  39.15600 46.93200 20.29500
C  39.97700 48.09600 20.74300
N  36.90700 46.88700 25.16600
C  37.59000 45.82600 24.42300
C  37.80300 44.74700 25.35000
C  37.50100 45.26100 26.61200
C  36.97600 46.58600 26.45100
C  38.55900 43.48800 25.09900
C  37.61500 45.06600 28.04800
O  38.06100 44.07100 28.65500
C  37.01700 46.27500 28.71900
C  35.83500 45.82300 29.67300
O  34.71500 45.65600 29.25900
O  36.25400 45.48300 30.91300
C  35.24800 44.76100 31.72400
H  33.75400 52.09200 26.45100
H  35.26100 50.09700 20.48600
H  38.46500 45.05200 22.73300
H  34.61700 48.44900 29.41300
H  34.62300 51.24000 28.93400
H  32.55000 49.08000 29.16200
H  32.36700 50.13900 27.75700
H  32.47100 50.83200 29.40800
H  36.57200 50.76100 29.85400
H  37.32500 49.21600 29.43800
H  36.99200 49.91300 31.81100
H  37.04300 48.24500 31.37600
H  33.94300 54.40400 23.58500
H  33.74500 53.92300 25.31200
H  32.42900 53.75800 24.13700
H  32.23400 53.78500 21.62900
H  32.80300 53.77000 20.01300
H  33.61800 54.85100 21.20600
H  37.32600 48.72900 19.60000
H  37.28500 45.90100 20.39200
H  34.64100 47.83800 19.82300
H  35.67500 46.53700 19.18200
H  35.52900 47.95800 18.29600
H  39.19400 46.93900 19.20500
H  39.69700 46.01300 20.51700
H  40.76600 47.73900 21.40500
H  39.36500 48.78400 21.32700
H  40.43800 48.66100 19.93300
H  39.62000 43.62600 24.89000
H  38.11300 42.93600 24.27200
H  38.43300 42.88000 25.99500
H  37.80300 46.73600 29.31600
H  35.34500 45.28800 32.67300
H  35.52100 43.70700 31.77800
H  34.18000 44.81900 31.51700

