158

Mg -2.77000 16.77800 26.69800
C  -3.18400 14.65200 29.46600
C  -3.08000 19.48400 28.81800
C  -2.35900 18.80000 24.01700
C  -2.67200 13.99700 24.53500
N  -2.97000 16.96900 28.91000
C  -3.13900 15.93100 29.82900
C  -3.23700 16.47300 31.22800
C  -3.26300 18.11800 30.95100
C  -3.06200 18.25400 29.46600
C  -4.60500 18.75200 31.37500
C  -2.21600 15.88100 32.22400
C  -1.71900 16.71200 33.32300
H  -1.36900 16.10000 34.64500
N  -2.84800 18.78900 26.46000
C  -2.94600 19.76500 27.44200
C  -2.81600 21.06900 26.88000
C  -2.59400 20.91000 25.48100
C  -2.64000 19.45400 25.22400
C  -2.78700 22.41200 27.64000
C  -2.18000 21.94400 24.39500
O  -1.97500 21.61900 23.23200
C  -1.80100 23.38400 24.85000
N  -2.40900 16.43900 24.63600
C  -2.30900 17.44900 23.79800
C  -2.15500 16.96400 22.31700
C  -2.16800 15.35200 22.48200
C  -2.38800 15.25200 23.98400
C  -3.38700 17.28900 21.44000
C  -0.84200 14.68700 22.01000
C  -0.98700 13.94100 20.66800
N  -2.95500 14.71800 26.93200
C  -2.94200 13.71500 25.92200
C  -3.19800 12.40000 26.59100
C  -3.24300 12.75100 28.01200
C  -3.05700 14.14200 28.18900
C  -3.44500 11.11700 25.99800
C  -3.48200 12.21800 29.33200
O  -3.63900 11.02900 29.68900
C  -3.40600 13.42700 30.34200
C  -2.26100 13.12400 31.25500
O  -1.09500 13.25400 30.88700
O  -2.58400 12.56900 32.51100
C  -1.44300 11.92300 33.19700
H  -3.02700 20.34200 29.49200
H  -2.21600 19.35600 23.08900
H  -2.54700 13.12400 23.89100
H  -4.23700 16.19300 31.56100
H  -2.36200 18.48200 31.44400
H  -4.39400 19.41200 32.21600
H  -5.30400 17.94300 31.58700
H  -5.06400 19.28500 30.54200
H  -1.34600 15.45300 31.72600
H  -2.71700 15.03700 32.69700
H  -2.38600 17.56000 33.48300
H  -0.77300 17.20200 33.08800
H  -3.03000 22.39400 28.70200
H  -3.46200 23.14000 27.18900
H  -1.77800 22.77100 27.44000
H  -2.68500 23.79000 25.34100
H  -1.58000 24.05100 24.01600
H  -0.88300 23.18800 25.40500
H  -1.29500 17.37900 21.79100
H  -2.94000 14.75300 21.99900
H  -4.22700 17.65100 22.03300
H  -3.83400 16.42100 20.95500
H  -3.03400 17.94900 20.64800
H  -0.36500 14.15300 22.83300
H  -0.13400 15.48600 21.78900
H  -1.97000 13.49100 20.52800
H  -0.27500 13.13500 20.84700
H  -0.58800 14.65900 19.95100
H  -3.63600 11.26800 24.93600
H  -4.29600 10.67700 26.51800
H  -2.55000 10.54700 26.24900
H  -4.31600 13.38300 30.94000
H  -1.66300 10.85900 33.28100
H  -1.43200 12.42100 34.16700
H  -0.48900 12.02400 32.68000
Mg 34.36800 3.06800 29.27700
C  32.27100 4.16600 32.00500
C  36.82100 2.71800 31.44500
C  36.34600 2.66900 26.49900
C  31.49500 3.45100 27.22500
N  34.49200 3.40900 31.43800
C  33.53400 3.81900 32.42400
C  34.15300 3.91600 33.80800
C  35.64400 3.47600 33.54300
C  35.66600 3.21800 32.01700
C  36.72400 4.51300 33.94800
C  33.27300 3.19500 34.92600
C  34.21500 2.70100 36.05600
H  35.09300 3.79100 36.77900
N  36.31900 2.68400 28.97100
C  37.13000 2.50300 30.03200
C  38.39300 2.06600 29.54300
C  38.37800 2.27800 28.12200
C  36.96900 2.61000 27.74400
C  39.45000 1.56200 30.48100
C  39.47700 2.01600 27.14200
O  39.30500 2.17400 25.94200
C  40.74100 1.54200 27.58400
N  33.95800 3.20300 27.23400
C  34.90200 2.87200 26.33400
C  34.33600 3.02200 24.86400
C  32.83300 2.75200 25.17400
C  32.71400 3.09700 26.65300
C  34.67400 4.44600 24.35100
C  32.41600 1.23500 25.08200
C  31.14100 0.89600 24.21500
N  32.27200 3.56500 29.53600
C  31.22800 3.78500 28.60800
C  29.99700 4.16500 29.26900
C  30.40600 4.40900 30.56300
C  31.75500 3.99700 30.70700
C  28.64100 4.39200 28.67400
C  29.91700 4.80100 31.81800
O  28.75500 5.16400 32.11700
C  31.11500 4.67700 32.87500
C  31.20400 5.96300 33.70800
O  31.52500 7.08000 33.39100
O  30.64500 5.63400 34.93600
C  30.29700 6.59800 35.99900
H  37.68200 2.78100 32.11300
H  36.88400 2.50300 25.56300
H  30.68300 3.63400 26.51800
H  34.14400 4.96600 34.10200
H  35.82400 2.52800 34.05200
H  37.33200 4.22100 34.80500
H  36.22900 5.47500 34.07900
H  37.38800 4.72300 33.10900
H  32.69900 2.42200 34.41500
H  32.59900 3.90800 35.40100
H  34.84300 1.89800 35.66900
H  33.61100 2.31800 36.87800
H  39.13000 1.66800 31.51800
H  40.43400 2.03200 30.48400
H  39.72700 0.51100 30.40800
H  40.72500 0.49500 27.88400
H  41.15600 2.17400 28.36900
H  41.39400 1.65800 26.72000
H  34.68900 2.27800 24.14900
H  32.26400 3.40200 24.51100
H  35.05100 4.40700 23.32800
H  35.48200 4.90800 24.91700
H  33.78400 5.06700 24.45300
H  32.40600 0.81700 26.08800
H  33.21100 0.65900 24.60800
H  30.60000 1.78500 23.89100
H  30.37800 0.36600 24.78400
H  31.38900 0.26400 23.36200
H  28.46200 3.84500 27.74900
H  28.24800 5.40900 28.67700
H  27.97500 3.68200 29.16300
H  30.77100 3.91200 33.57100
H  30.91200 6.44500 36.88600
H  29.28300 6.29200 36.25400
H  30.23000 7.63900 35.68300

