158

Mg -1.94000 17.67100 27.34400
C  -2.52100 15.29600 29.92700
C  -2.39400 20.10900 29.68500
C  -1.73200 19.97800 24.90500
C  -2.31300 15.07200 25.05100
N  -2.59000 17.65000 29.59600
C  -2.53200 16.56000 30.46800
C  -2.45700 16.94500 31.89700
C  -2.61000 18.54700 31.76000
C  -2.61500 18.82000 30.24900
C  -3.86600 19.12000 32.45800
C  -1.16500 16.54400 32.72300
C  -0.90100 17.33100 33.99300
H  -0.62000 16.57900 35.27600
N  -1.91500 19.77600 27.31400
C  -2.14700 20.59200 28.41600
C  -2.12900 21.98500 27.98400
C  -1.84900 21.99600 26.58600
C  -1.86100 20.54600 26.23700
C  -2.56000 23.12500 28.95700
C  -1.79500 23.15000 25.67200
O  -1.65000 23.07900 24.43200
C  -2.13200 24.48100 26.16000
N  -2.09000 17.50900 25.31300
C  -1.94000 18.61000 24.50800
C  -2.11300 18.23000 23.03100
C  -2.18100 16.70500 23.10400
C  -2.30400 16.37400 24.59200
C  -3.39500 18.86200 22.37300
C  -1.06000 16.03200 22.28500
C  0.31200 15.96400 22.97700
N  -2.18500 15.57900 27.43500
C  -2.33400 14.68200 26.41700
C  -2.58100 13.35200 26.91600
C  -2.59200 13.52500 28.28800
C  -2.39700 14.92000 28.57700
C  -2.77200 12.15000 26.00600
C  -2.63000 12.83000 29.57300
O  -2.72200 11.69900 29.94600
C  -2.58300 13.96600 30.60100
C  -1.42900 13.70600 31.45900
O  -0.26000 14.06000 31.29000
O  -1.91500 12.89000 32.50700
C  -0.96500 12.81100 33.59000
H  -2.58800 20.89700 30.41600
H  -1.67400 20.79700 24.18400
H  -2.38900 14.21100 24.38500
H  -3.31400 16.40400 32.29800
H  -1.85300 19.13600 32.27800
H  -3.54700 19.46500 33.44200
H  -4.56600 18.29100 32.56600
H  -4.38400 19.91300 31.92000
H  -0.21800 16.54100 32.18300
H  -1.48300 15.59200 33.14900
H  -1.71500 18.02600 34.20200
H  -0.07400 18.00100 33.75600
H  -3.62400 23.25400 28.75500
H  -2.03100 24.06400 28.79500
H  -2.53400 22.85900 30.01400
H  -3.16400 24.52200 26.50900
H  -1.89100 25.28400 25.46300
H  -1.49100 24.85800 26.95700
H  -1.20600 18.57000 22.53200
H  -3.11200 16.27400 22.73400
H  -3.93400 19.48900 23.08300
H  -4.08700 18.10200 22.01100
H  -3.04300 19.46100 21.53200
H  -0.79800 16.46000 21.31700
H  -1.45100 15.03600 22.07900
H  0.30300 16.36800 23.99000
H  0.88300 16.65400 22.35600
H  0.75400 14.97200 22.88200
H  -1.91200 12.13300 25.33800
H  -3.75800 12.20900 25.54500
H  -2.75700 11.26400 26.64200
H  -3.48400 13.99700 31.21300
H  -1.57800 12.53800 34.44800
H  -0.35500 13.68200 33.83100
H  -0.31000 11.96600 33.37400
Mg 45.53300 4.46200 47.90200
C  43.01900 7.02100 47.23600
C  42.97400 2.20900 47.56200
C  47.91600 2.16200 47.68500
C  47.93200 7.03500 47.66700
N  43.21200 4.62200 47.50700
C  42.48400 5.76600 47.25600
C  41.02300 5.38900 46.91900
C  40.94400 3.82400 47.22600
C  42.48200 3.54400 47.51300
C  40.15100 3.56500 48.45600
C  40.56600 5.65900 45.48200
C  39.18600 6.30700 45.46500
H  38.51200 6.36100 43.97000
N  45.43700 2.44000 47.76300
C  44.29700 1.65300 47.58400
C  44.73500 0.28400 47.61800
C  46.09300 0.19500 47.68800
C  46.58200 1.61500 47.71000
C  43.74100 -0.83600 47.60200
C  47.00200 -1.02400 47.52200
O  46.45700 -2.11200 47.41400
C  48.43000 -1.00200 47.39300
N  47.62200 4.58300 47.53100
C  48.40800 3.46900 47.67100
C  49.91400 3.85200 47.80200
C  49.89000 5.39300 47.73000
C  48.38400 5.70600 47.61500
C  50.61700 3.22600 49.07100
C  50.83000 6.19900 46.72800
C  51.72700 7.32400 47.26500
N  45.57300 6.57900 47.53100
C  46.59500 7.45200 47.65800
C  46.08700 8.78700 47.63200
C  44.71000 8.68000 47.46100
C  44.39100 7.34400 47.41500
C  46.80100 10.03200 47.61400
C  43.46400 9.45900 47.24900
O  43.26000 10.67700 47.16100
C  42.30600 8.34800 47.12300
C  41.37800 8.57200 48.25400
O  41.74700 8.37300 49.40900
O  40.08500 8.69100 47.85400
C  39.04100 8.51000 48.94700
H  42.14700 1.49800 47.62200
H  48.64300 1.35100 47.77000
H  48.78500 7.70700 47.78100
H  40.43800 6.03800 47.57000
H  40.47900 3.30500 46.38800
H  39.14600 3.24700 48.18000
H  40.05700 4.52700 48.96000
H  40.56800 2.77800 49.08500
H  40.43800 4.72300 44.93900
H  41.20700 6.39000 44.98900
H  39.31200 7.35400 45.73800
H  38.54000 5.90900 46.24700
H  43.67400 -1.17500 46.56800
H  42.76300 -0.44400 47.88200
H  44.03800 -1.65800 48.25400
H  48.72400 -0.26400 46.64700
H  48.75800 -1.75600 46.67800
H  48.99300 -1.14400 48.31600
H  50.42800 3.46200 46.92300
H  50.06100 5.73600 48.75000
H  49.93800 2.49400 49.50900
H  50.87700 3.95100 49.84100
H  51.45800 2.61900 48.73500
H  50.29800 6.63200 45.88000
H  51.43400 5.46500 46.19500
H  51.24100 7.76700 48.13500
H  51.96500 7.99400 46.43900
H  52.58700 6.69700 47.50100
H  47.82300 10.01500 47.23600
H  46.93700 10.38600 48.63600
H  46.29900 10.78800 47.01000
H  41.81900 8.43900 46.15200
H  39.07600 9.34600 49.64600
H  39.31300 7.57600 49.43800
H  38.06900 8.53400 48.45300

