158

Mg 9.16500 3.47100 27.53800
C  10.45600 2.21700 30.52200
C  7.46200 5.85500 29.42900
C  8.11100 4.96400 24.69900
C  10.84100 1.11400 25.77600
N  8.93600 3.93200 29.77600
C  9.61400 3.29700 30.79200
C  9.28400 3.84800 32.19800
C  8.28800 4.98900 31.81400
C  8.18700 4.96300 30.22400
C  6.87400 4.89400 32.36400
C  10.67400 4.18000 32.99700
C  10.89400 3.50900 34.39400
H  11.36300 4.35000 35.58600
N  7.95500 5.16200 27.08000
C  7.32100 5.94300 28.01700
C  6.47300 6.87300 27.34800
C  6.67500 6.68400 25.97900
C  7.58900 5.60400 25.90100
C  5.68400 7.81100 28.12700
C  6.05700 7.47100 24.82300
O  6.37600 7.19700 23.65900
C  5.15300 8.72200 25.08000
N  9.55200 3.14800 25.54300
C  8.91700 3.82800 24.59000
C  9.18400 3.16700 23.20800
C  10.28300 2.12000 23.56100
C  10.14400 2.08000 25.02200
C  7.91200 2.48200 22.53600
C  11.73600 2.61900 23.17700
C  12.64900 1.71400 22.35000
N  10.34100 1.87300 27.97900
C  10.98300 0.99500 27.11500
C  11.81100 0.11000 27.90800
C  11.58200 0.55400 29.22400
C  10.67300 1.63200 29.25000
C  12.57200 -1.11800 27.43600
C  11.97600 0.28000 30.53800
O  12.74900 -0.57600 31.00900
C  11.22200 1.29300 31.46800
C  10.40900 0.53500 32.48300
O  9.32700 0.11800 32.26400
O  11.01500 0.44800 33.69900
C  10.12600 -0.24600 34.69400
H  6.99600 6.57300 30.10700
H  7.68000 5.35700 23.77500
H  11.18400 0.20700 25.27400
H  8.71400 3.09900 32.74600
H  8.87500 5.89100 31.98400
H  6.52200 5.92300 32.42700
H  6.85300 4.34400 33.30500
H  6.10300 4.35300 31.81500
H  10.70100 5.26900 33.01200
H  11.50700 3.85700 32.37300
H  11.64900 2.73800 34.23700
H  9.97700 3.05600 34.77000
H  4.62300 7.69200 27.90800
H  5.88500 8.84500 27.84500
H  5.93500 7.87300 29.18600
H  5.71900 9.46900 25.63800
H  4.15500 8.48800 25.45000
H  4.99500 9.24100 24.13400
H  9.58900 3.95600 22.57400
H  10.10500 1.16400 23.06900
H  8.05600 1.44000 22.25000
H  7.69300 3.13900 21.69400
H  6.99800 2.42100 23.12600
H  12.35600 2.78200 24.05900
H  11.67900 3.55900 22.62800
H  12.87300 2.26900 21.44000
H  12.13500 0.80200 22.04500
H  13.54200 1.47300 22.92600
H  12.32000 -1.22100 26.38100
H  12.09100 -1.96100 27.93300
H  13.65200 -1.00800 27.53200
H  12.03700 1.81300 31.97100
H  9.60600 -1.08400 34.23000
H  9.34400 0.35500 35.15800
H  10.73500 -0.66200 35.49700
Mg 39.85500 8.69000 28.59500
C  41.68300 9.78500 31.42800
C  37.69900 7.04400 30.95300
C  38.20400 7.27600 26.08000
C  42.48200 9.68800 26.61400
N  39.74700 8.42400 30.88400
C  40.50600 9.14700 31.80100
C  39.93700 9.08100 33.21200
C  38.94200 7.86600 33.07400
C  38.76600 7.75000 31.48800
C  39.40000 6.58200 33.77200
C  39.21300 10.37200 33.75200
C  39.60600 10.78900 35.19100
H  39.86800 12.32400 35.40700
N  38.06500 7.37200 28.49700
C  37.40300 6.87000 29.55900
C  36.34200 6.09000 29.09000
C  36.34200 6.20300 27.64600
C  37.58900 6.98500 27.33900
C  35.34300 5.49100 29.97700
C  35.39800 5.55600 26.61800
O  35.44600 5.78500 25.44200
C  34.19300 4.84100 27.11000
N  40.21900 8.60900 26.68100
C  39.31400 8.06100 25.80600
C  39.76900 8.21600 24.35900
C  41.07800 9.06100 24.53800
C  41.29800 9.11300 26.04700
C  40.10500 6.90300 23.53500
C  40.87000 10.47600 23.93700
C  40.05100 11.47800 24.67000
N  41.72800 9.49900 28.84000
C  42.66300 9.93000 27.95900
C  43.82400 10.47900 28.61900
C  43.40900 10.48800 29.98300
C  42.21200 9.76400 30.05400
C  45.07500 10.90500 27.90300
C  43.73100 11.01500 31.22600
O  44.76000 11.65800 31.59300
C  42.74100 10.51600 32.27200
C  43.45800 9.78400 33.38500
O  44.20900 8.85500 33.29700
O  43.25200 10.48700 34.56000
C  43.88700 9.99800 35.77400
H  37.14700 6.55800 31.76100
H  37.57000 6.80600 25.32500
H  43.22500 10.10300 25.93000
H  40.81500 8.89100 33.82900
H  37.95400 8.05200 33.49400
H  40.29600 6.73700 34.37300
H  39.45700 5.74400 33.07800
H  38.63000 6.34600 34.50700
H  38.13600 10.21700 33.67900
H  39.36400 11.12300 32.97600
H  40.52000 10.29900 35.52600
H  38.82300 10.38500 35.83200
H  35.15800 5.97900 30.93400
H  35.37600 4.40300 29.92900
H  34.39200 5.79900 29.54400
H  34.51900 4.09000 27.83000
H  33.57800 4.39200 26.33000
H  33.59300 5.58500 27.63400
H  38.94700 8.77500 23.91100
H  41.93300 8.47500 24.19900
H  41.14600 6.81800 23.22400
H  39.47700 6.95400 22.64500
H  39.98900 5.95800 24.06500
H  40.38000 10.28100 22.98300
H  41.84700 10.85300 23.63500
H  40.27500 11.35800 25.73000
H  38.99400 11.23200 24.57600
H  40.20900 12.50800 24.35100
H  45.73000 11.31700 28.67100
H  44.68600 11.69400 27.26000
H  45.59700 10.12200 27.35300
H  42.12800 11.33800 32.64100
H  43.25200 10.20600 36.63500
H  44.84600 10.49300 35.92300
H  44.05000 8.92200 35.71200

