158

Mg 9.33900 4.05400 27.36400
C  10.40600 2.66900 30.41900
C  7.35100 6.28500 29.12900
C  7.69200 4.96000 24.50900
C  10.66400 1.32900 25.68600
N  8.80300 4.30100 29.48000
C  9.46700 3.74200 30.54800
C  9.04000 4.28200 31.81300
C  8.03900 5.49000 31.42700
C  8.11600 5.41100 29.91300
C  6.67600 5.32500 32.08500
C  10.22800 4.69300 32.70300
C  10.45200 4.34700 34.22100
H  10.42700 5.36700 35.37600
N  7.89300 5.53200 26.91000
C  7.24100 6.35500 27.74400
C  6.44200 7.31700 26.95500
C  6.58300 7.00100 25.58200
C  7.37300 5.75900 25.60000
C  5.57300 8.34500 27.56800
C  5.97400 7.65300 24.42600
O  5.90700 7.19700 23.29700
C  5.47100 9.08600 24.60400
N  8.98500 3.07600 25.32500
C  8.36900 3.70900 24.33600
C  8.42800 2.92600 22.96800
C  9.51300 1.82400 23.37700
C  9.80200 2.13800 24.88500
C  7.01900 2.36300 22.55000
C  10.73900 1.74500 22.37800
C  10.29100 0.92200 21.16100
N  10.45400 2.48700 27.85300
C  10.89100 1.41800 27.08700
C  11.61700 0.52200 27.90400
C  11.50700 0.98700 29.22800
C  10.74400 2.18900 29.13200
C  12.35900 -0.71800 27.54100
C  11.87300 0.69000 30.57400
O  12.48200 -0.29800 30.95700
C  11.23100 1.82000 31.40400
C  10.50500 1.25700 32.51900
O  9.33900 0.95500 32.46100
O  11.30700 1.01200 33.61800
C  10.63500 0.30000 34.74800
H  6.76100 7.05200 29.63600
H  7.32000 5.41800 23.59000
H  11.06000 0.50200 25.09400
H  8.61500 3.46000 32.38800
H  8.51300 6.37600 31.84800
H  6.40600 6.13900 32.75800
H  6.58100 4.43800 32.71200
H  5.93300 5.26700 31.28900
H  10.13300 5.76700 32.86600
H  11.16400 4.53400 32.16700
H  11.39800 3.82300 34.36200
H  9.64700 3.65700 34.47200
H  5.87800 9.38800 27.48200
H  5.55500 8.07100 28.62300
H  4.57600 8.29000 27.13200
H  5.21600 9.46100 23.61300
H  6.33500 9.60300 25.02100
H  4.58500 9.13600 25.23700
H  8.87300 3.54800 22.19100
H  8.94600 0.90300 23.51100
H  7.00500 1.33200 22.19400
H  6.54100 3.08500 21.88900
H  6.46200 2.27900 23.48300
H  11.59500 1.27500 22.86400
H  11.09400 2.73200 22.08300
H  10.73300 1.22700 20.21200
H  9.22600 0.81800 20.95400
H  10.65700 -0.09000 21.33200
H  13.44800 -0.72900 27.58100
H  12.05500 -1.07400 26.55700
H  12.10300 -1.45000 28.30700
H  11.88600 2.49200 31.95700
H  9.90700 0.97200 35.20400
H  11.23900 -0.17700 35.52000
H  10.16900 -0.63700 34.44400
Mg 16.31100 51.96000 24.57200
C  17.88900 50.79900 27.59600
C  13.58200 52.83900 26.56200
C  14.80000 52.81400 21.86600
C  18.96800 50.48300 22.75100
N  15.81700 51.71400 26.82500
C  16.67800 51.38100 27.85600
C  16.14600 51.70200 29.30400
C  14.68400 52.11700 28.89400
C  14.65400 52.30200 27.33200
C  13.59500 51.15900 29.44900
C  16.92700 52.84200 30.06700
C  16.75500 52.92000 31.66600
H  15.85200 51.80700 32.40900
N  14.41500 52.83200 24.22300
C  13.40400 53.06800 25.11100
C  12.32800 53.59400 24.38400
C  12.62400 53.70600 23.01100
C  13.98300 53.08500 23.00500
C  11.04300 54.01700 25.17600
C  11.80100 54.21200 21.78900
O  12.29600 54.31200 20.62900
C  10.35600 54.66700 21.94200
N  16.98100 51.89500 22.60800
C  16.02000 52.17600 21.69600
C  16.48600 51.80600 20.28700
C  18.01100 51.49900 20.53400
C  18.01900 51.26800 22.02800
C  15.70600 50.66100 19.72100
C  18.83100 52.72200 20.13500
C  20.38500 52.53200 20.33500
N  18.05600 50.80500 25.04200
C  19.01900 50.29200 24.20400
C  19.96800 49.58200 25.01500
C  19.58700 49.81000 26.32200
C  18.40800 50.49400 26.32800
C  21.14800 48.89600 24.53200
C  19.95700 49.44700 27.71100
O  20.95000 48.88000 28.16600
C  18.85300 50.18700 28.58000
C  18.30500 49.15400 29.55800
O  17.56500 48.23100 29.22600
O  18.54500 49.49200 30.89700
C  18.19300 48.47700 31.90200
H  12.68500 53.05700 27.14600
H  14.16900 52.93800 20.98300
H  19.81200 49.99500 22.26000
H  16.10800 50.71700 29.77000
H  14.43200 53.06100 29.37700
H  13.11000 50.74800 28.56300
H  12.92800 51.83800 29.97900
H  13.87900 50.39800 30.17500
H  16.57600 53.75700 29.59100
H  17.98400 52.77400 29.80600
H  16.43500 53.94500 31.85400
H  17.77800 52.88000 32.04300
H  10.95200 55.10300 25.19800
H  10.98400 53.67500 26.20900
H  10.11300 53.68100 24.71800
H  10.43900 55.40300 22.74100
H  9.74800 53.80400 22.21300
H  10.01300 55.03600 20.97500
H  16.27900 52.66500 19.64900
H  18.33700 50.62900 19.96300
H  16.40300 50.15900 19.05000
H  14.98200 51.16400 19.08000
H  15.26800 50.05900 20.51800
H  18.47600 53.55800 20.73600
H  18.63900 53.04400 19.11100
H  20.69600 51.53900 20.01200
H  20.64300 52.51700 21.39400
H  20.98900 53.27900 19.81900
H  21.83500 49.39700 23.85000
H  20.87600 47.87300 24.27400
H  21.79200 48.57800 25.35200
H  19.40100 50.98500 29.08200
H  18.49800 47.45400 31.67900
H  17.14400 48.38200 32.18300
H  18.70100 48.72600 32.83300

