158

Mg 29.38200 58.16100 40.79900
C  26.58500 56.51900 39.52300
C  31.38500 55.74800 39.24800
C  32.15200 60.22100 41.06600
C  27.25700 60.84800 41.59400
N  29.03100 56.46800 39.56200
C  27.80200 55.98700 39.10200
C  27.87400 54.77500 38.27000
C  29.39400 54.36500 38.44700
C  29.95900 55.59900 39.16200
C  29.57200 53.02600 39.14000
C  27.50000 55.00600 36.73700
C  26.34000 54.27700 36.07400
H  25.68400 55.08000 34.99600
N  31.53500 57.92900 40.39400
C  32.10300 56.81700 39.74900
C  33.49300 57.05000 39.54200
C  33.78300 58.27600 40.08500
C  32.49300 58.93200 40.50700
C  34.44800 56.03000 38.87800
C  35.19800 58.78600 40.21500
O  36.16400 58.07900 39.89600
C  35.53000 60.06800 40.87300
N  29.67700 60.23700 41.33300
C  30.91000 60.78600 41.37300
C  30.85400 62.30400 41.70800
C  29.33100 62.50500 42.00700
C  28.69800 61.13200 41.63700
C  31.82000 62.78800 42.77800
C  28.79600 63.73300 41.16500
C  28.86500 65.06200 41.84700
N  27.39500 58.54800 40.82900
C  26.62600 59.67600 41.24100
C  25.23500 59.31200 41.26700
C  25.19200 58.12400 40.54600
C  26.47700 57.69400 40.31000
C  24.14900 60.25800 41.73500
C  24.27700 57.23400 39.99300
O  23.08300 57.28100 39.93700
C  25.17500 56.08000 39.36400
C  24.77200 54.83200 40.15700
O  25.00500 54.61200 41.32600
O  23.86000 54.15100 39.42700
C  22.94900 53.31600 40.28500
H  31.89300 54.86400 38.85500
H  33.05000 60.84400 41.07400
H  26.56000 61.68300 41.69000
H  27.22100 54.00900 38.68800
H  29.95600 54.22000 37.52400
H  30.46100 53.03200 39.77100
H  29.68800 52.25200 38.38100
H  28.65900 52.70800 39.64300
H  28.43300 54.65000 36.30000
H  27.39600 56.08000 36.58000
H  25.57100 53.88700 36.74100
H  26.66700 53.31600 35.67800
H  35.04600 56.51300 38.10500
H  33.88000 55.26600 38.34600
H  35.02100 55.53200 39.66000
H  35.27300 60.93200 40.26000
H  36.60200 60.15800 41.04700
H  34.82900 60.15500 41.70300
H  31.12900 62.82800 40.79300
H  29.10300 62.78700 43.03400
H  32.60300 63.39800 42.32800
H  32.24800 61.98500 43.37900
H  31.26900 63.49100 43.40200
H  27.81800 63.50300 40.74200
H  29.36900 63.77600 40.23900
H  29.22400 65.73400 41.06800
H  29.48600 65.10300 42.74200
H  27.93700 65.44000 42.27500
H  23.12600 59.93400 41.54800
H  24.34300 61.19900 41.22100
H  24.22500 60.48000 42.80000
H  24.90500 55.96200 38.31500
H  22.34200 53.90300 40.97400
H  23.47300 52.65300 40.97300
H  22.34400 52.72200 39.60100
Mg 8.73500 48.14300 25.30700
C  6.62100 48.60400 28.06700
C  11.37400 49.15500 27.21000
C  10.62300 47.56000 22.73000
C  5.82900 47.89100 23.19800
N  8.95300 48.75200 27.40800
C  7.95700 48.91100 28.42200
C  8.56700 49.10700 29.78700
C  9.85500 49.86500 29.23600
C  10.11600 49.18600 27.85700
C  9.58100 51.40900 29.15500
C  8.76400 47.88600 30.65000
C  8.31400 48.11000 32.12800
H  8.23000 46.78300 32.99600
N  10.66900 48.32900 24.99700
C  11.62500 48.72400 25.87600
C  12.95000 48.60700 25.32600
C  12.81400 48.04100 24.03000
C  11.32700 47.96800 23.80100
C  14.26800 48.75800 26.15700
C  13.82000 47.65500 22.94500
O  13.53400 47.25000 21.80500
C  15.25900 47.99400 23.11400
N  8.20200 47.90200 23.23300
C  9.26500 47.52500 22.45100
C  8.74700 47.09300 21.04200
C  7.18300 47.00400 21.20200
C  7.02500 47.67800 22.60600
C  9.34900 47.89200 19.83900
C  6.59900 45.52400 21.16600
C  5.43700 45.17900 20.28400
N  6.71800 48.34600 25.54500
C  5.70000 48.19000 24.59200
C  4.44500 48.06800 25.37800
C  4.86200 48.22600 26.72000
C  6.17200 48.45300 26.76000
C  3.07900 47.67700 24.86100
C  4.31900 48.22400 27.98800
O  3.13500 48.07500 28.30800
C  5.43800 48.56300 28.96300
C  5.56000 47.35200 29.86600
O  6.12200 46.27900 29.62900
O  4.94400 47.66700 30.99500
C  4.67400 46.66000 32.05500
H  12.22300 49.35700 27.86700
H  11.23100 47.15600 21.91800
H  4.97900 47.55200 22.60200
H  7.81800 49.74600 30.25500
H  10.70200 49.68100 29.89700
H  9.97200 51.80200 28.21600
H  10.23100 51.79100 29.94200
H  8.55000 51.70000 29.35400
H  9.82700 47.64800 30.70000
H  8.26900 47.05600 30.14600
H  7.33900 48.59300 32.06600
H  8.99400 48.81700 32.60300
H  14.15000 48.49100 27.20800
H  14.62300 49.78800 26.12200
H  15.02300 48.03000 25.86200
H  15.79400 47.26200 23.71900
H  15.23900 48.99500 23.54400
H  15.84400 47.92200 22.19800
H  9.08500 46.06400 20.91900
H  6.72200 47.63600 20.44300
H  10.27500 48.40100 20.10500
H  8.59700 48.61800 19.53100
H  9.55000 47.20800 19.01400
H  6.48900 45.15100 22.18500
H  7.38700 44.95300 20.67500
H  5.65000 44.35200 19.60700
H  5.12200 45.96600 19.59800
H  4.56200 44.93100 20.88400
H  2.88500 47.86200 23.80400
H  2.45400 48.27000 25.52800
H  2.83000 46.68000 25.22600
H  5.34500 49.40900 29.64500
H  4.99700 47.09200 33.00200
H  5.13800 45.69200 31.86700
H  3.58900 46.56800 32.11100

