158

Mg 24.42500 -8.37900 47.22600
C  26.69400 -6.01200 46.22900
C  22.41300 -7.35200 44.64200
C  22.36600 -11.10800 47.62000
C  26.79200 -9.84000 49.09400
N  24.52800 -6.68700 45.74400
C  25.51000 -5.80100 45.58200
C  25.13400 -4.75300 44.52800
C  23.75700 -5.25100 43.95200
C  23.51200 -6.52000 44.84100
C  22.57600 -4.20700 44.16900
C  26.20900 -4.66200 43.38300
C  26.85600 -3.26300 43.24800
H  26.60500 -2.68500 41.86200
N  22.60200 -9.00100 46.40400
C  21.95400 -8.42900 45.35700
C  20.64700 -9.05300 45.16100
C  20.59100 -10.21500 46.00100
C  21.89500 -10.21500 46.70100
C  19.65200 -8.47400 44.21100
C  19.41000 -11.21100 46.00300
O  18.40000 -10.86500 45.37900
C  19.46000 -12.46900 46.85500
N  24.61000 -10.26200 48.12700
C  23.58300 -11.14800 48.29200
C  23.93300 -12.25000 49.30900
C  25.36400 -11.79500 49.88800
C  25.58000 -10.53200 48.96100
C  22.85200 -12.56800 50.41000
C  26.51600 -12.82300 49.94600
C  26.35600 -14.21600 49.15500
N  26.35200 -8.02000 47.74800
C  27.23700 -8.70300 48.49900
C  28.45900 -7.94500 48.58400
C  28.30600 -6.90000 47.64700
C  26.98600 -7.00400 47.18800
C  29.64900 -8.27000 49.38700
C  29.04400 -5.75400 47.02700
O  30.18300 -5.34300 47.17900
C  27.98300 -5.08900 46.13400
C  27.73100 -3.65600 46.58400
O  27.07100 -3.29000 47.55100
O  28.42000 -2.81400 45.71700
C  28.32400 -1.45900 46.09900
H  21.73400 -7.00400 43.86000
H  21.73400 -11.97600 47.82200
H  27.60300 -10.19300 49.73500
H  24.95000 -3.86900 45.13800
H  23.86100 -5.51000 42.89800
H  21.90100 -4.63600 44.90900
H  22.09100 -4.08200 43.20100
H  22.92800 -3.21100 44.43700
H  25.88200 -4.95300 42.38500
H  26.99200 -5.39600 43.57200
H  27.94200 -3.31400 43.33600
H  26.44400 -2.58900 43.99900
H  18.67200 -8.85500 44.49900
H  19.77200 -8.82900 43.18700
H  19.66900 -7.38500 44.23200
H  19.67200 -12.10100 47.85900
H  20.15200 -13.20500 46.44700
H  18.48500 -12.95600 46.87700
H  23.90000 -13.15000 48.69600
H  25.09900 -11.30100 50.82300
H  23.27200 -12.52400 51.41400
H  22.47800 -13.56300 50.16700
H  22.04900 -11.83200 50.35000
H  26.60700 -13.15900 50.97800
H  27.53100 -12.47100 49.75900
H  27.35500 -14.56600 48.89600
H  25.87700 -14.13900 48.17900
H  25.88000 -14.96900 49.78300
H  29.75100 -7.63700 50.26900
H  30.51800 -8.16900 48.73700
H  29.52200 -9.28500 49.76500
H  28.36600 -5.10100 45.11400
H  28.81800 -1.25300 47.04900
H  27.29200 -1.15100 46.26600
H  28.67100 -0.77600 45.32300
Mg 46.94700 25.28200 28.70300
C  47.42800 27.55800 31.37700
C  45.67500 23.00500 31.04800
C  47.00800 22.79400 26.34800
C  48.37800 27.51800 26.41100
N  46.72300 25.26900 30.90800
C  46.81900 26.36000 31.78400
C  46.33300 25.93300 33.15800
C  45.89300 24.43500 33.03700
C  46.10700 24.23300 31.53200
C  46.79200 23.54600 34.01500
C  45.31100 26.92300 33.86200
C  45.73600 27.11600 35.38300
H  44.74400 27.32800 36.49900
N  46.35100 23.23300 28.73200
C  45.83300 22.47600 29.77200
C  45.49300 21.20300 29.32400
C  45.76400 21.09000 27.98400
C  46.39100 22.41500 27.62300
C  44.88100 20.16300 30.21500
C  45.51000 19.89900 27.07500
O  46.02700 19.87100 25.94400
C  44.76500 18.65900 27.68400
N  47.59100 25.18600 26.71700
C  47.55700 24.02000 25.97500
C  48.24600 24.24500 24.60200
C  48.54200 25.77900 24.58000
C  48.17900 26.16500 25.97900
C  49.46400 23.31600 24.28500
C  47.70000 26.59800 23.55400
C  46.25100 27.01200 23.94900
N  47.76800 27.10000 28.79200
C  48.30200 27.95700 27.77900
C  48.73400 29.15800 28.44200
C  48.32800 29.09600 29.76700
C  47.79700 27.78000 30.01900
C  49.38000 30.30500 27.73800
C  48.33200 29.80800 30.97600
O  48.68900 30.93400 31.26000
C  47.79300 28.86500 32.14500
C  48.88600 28.71900 33.15400
O  50.00200 28.29500 32.77400
O  48.61000 29.08100 34.46100
C  49.61200 28.88300 35.54600
H  45.31200 22.39000 31.87400
H  47.13100 22.03000 25.57800
H  48.75800 28.24500 25.68900
H  47.27200 26.11300 33.68000
H  44.88500 24.18900 33.37100
H  47.44200 23.03000 33.30800
H  46.22500 22.77900 34.54100
H  47.42100 24.06200 34.74100
H  44.31200 26.49400 33.77900
H  45.25200 27.91300 33.40900
H  46.22700 28.08200 35.26300
H  46.51100 26.43000 35.72600
H  45.02500 20.55100 31.22400
H  45.47900 19.25200 30.19800
H  43.81100 19.97200 30.13100
H  45.50800 18.18800 28.32800
H  44.44500 17.89800 26.97200
H  43.86600 19.00000 28.19700
H  47.54700 24.00300 23.80200
H  49.57400 25.92500 24.26100
H  49.17900 22.47300 23.65500
H  49.91800 22.86100 25.16600
H  50.23300 23.90400 23.78400
H  47.67400 26.00700 22.63900
H  48.31800 27.48500 23.42000
H  46.16900 26.57600 24.94500
H  45.54000 26.61700 23.22300
H  46.13400 28.08400 24.10500
H  49.72800 30.93800 28.55400
H  48.74000 30.87400 27.06300
H  50.22800 29.96500 27.14400
H  46.99000 29.38400 32.66800
H  49.24700 28.16800 36.28300
H  49.87800 29.81300 36.04900
H  50.54500 28.43300 35.20800

