158

Mg 0.18300 8.10000 25.65800
C  1.03700 9.79200 28.70800
C  0.13800 5.24000 27.44400
C  0.00600 6.45700 22.74100
C  1.06400 11.09400 23.92600
N  0.57000 7.53000 27.73600
C  0.74000 8.40500 28.86700
C  0.82300 7.69700 30.29800
C  0.58600 6.21000 29.86600
C  0.37300 6.31700 28.27900
C  1.73400 5.26100 30.25700
C  -0.24600 8.10100 31.37500
C  0.21800 8.13300 32.85400
H  1.30200 7.18600 33.37700
N  0.00100 6.11100 25.16300
C  0.11000 5.08800 26.01100
C  0.23300 3.83900 25.28800
C  0.11200 4.12900 23.92600
C  0.03600 5.63600 23.90900
C  0.28600 2.50700 26.03600
C  -0.06500 3.22400 22.73700
O  -0.26500 3.59600 21.57800
C  0.18900 1.75900 23.04300
N  0.51200 8.65800 23.59600
C  0.08700 7.84300 22.64000
C  0.18300 8.57800 21.23400
C  0.32200 10.08200 21.66300
C  0.70900 9.94600 23.13700
C  1.33800 8.06800 20.30900
C  -0.96400 10.90900 21.45700
C  -2.38800 10.38500 22.01300
N  0.77800 10.08500 26.14000
C  1.18000 11.15200 25.32500
C  1.41200 12.31600 26.13400
C  1.45400 11.79200 27.42900
C  1.06400 10.42000 27.38900
C  1.65600 13.65400 25.67500
C  1.74900 12.21300 28.83400
O  2.11800 13.25900 29.32800
C  1.50100 10.85800 29.70300
C  2.65500 10.54400 30.54600
O  3.50600 9.74000 30.28800
O  2.45400 11.27500 31.71800
C  3.29700 11.01800 32.86700
H  0.02900 4.24500 27.88000
H  -0.16900 5.92100 21.80600
H  1.13800 12.03900 23.38400
H  1.81400 7.97200 30.66100
H  -0.30500 5.69300 30.22300
H  2.63500 5.69800 30.69000
H  1.93700 4.65300 29.37600
H  1.41600 4.53300 31.00300
H  -1.15100 7.50300 31.27100
H  -0.47100 9.10800 31.02500
H  -0.75400 7.85200 33.25800
H  0.36000 9.15400 33.20700
H  1.06000 1.89200 25.57600
H  -0.69000 2.02500 25.97800
H  0.49700 2.63400 27.09800
H  0.09300 1.26500 22.07700
H  -0.48500 1.38100 23.81200
H  1.19200 1.90800 23.44400
H  -0.72900 8.41700 20.66100
H  1.09100 10.51300 21.02200
H  1.43400 7.01400 20.57100
H  2.24900 8.66500 20.33500
H  1.09000 8.11800 19.24800
H  -1.05600 11.01800 20.37700
H  -0.75200 11.88100 21.90300
H  -3.00900 10.25600 21.12600
H  -2.77100 11.20000 22.62700
H  -2.22600 9.45000 22.54900
H  2.17000 13.69300 24.71500
H  2.28700 14.13500 26.42300
H  0.64700 14.06100 25.72600
H  0.62300 10.97600 30.33900
H  2.79900 10.19600 33.38300
H  3.32100 11.89300 33.51600
H  4.31100 10.66800 32.67700
Mg 9.82500 47.52500 25.67800
C  7.97900 47.91700 28.58700
C  12.63200 48.56800 27.21000
C  11.44400 47.48900 22.65900
C  6.87200 46.95000 23.93200
N  10.25600 48.12800 27.69800
C  9.33000 48.29500 28.73600
C  10.07900 48.76700 29.93300
C  11.41100 49.29200 29.37100
C  11.44900 48.68300 27.95900
C  11.46300 50.84300 29.33400
C  10.32900 47.64700 31.04400
C  9.72500 48.11500 32.43800
H  9.57500 47.09100 33.55500
N  11.74500 47.84800 25.09900
C  12.84800 48.20800 25.87200
C  14.14800 48.07600 25.13100
C  13.78400 47.67200 23.81900
C  12.21500 47.64800 23.81900
C  15.52600 48.16700 25.81700
C  14.69900 47.30300 22.65200
O  14.20100 46.93500 21.51500
C  16.18900 47.44900 22.68800
N  9.26300 47.26600 23.62600
C  10.09600 47.27100 22.53000
C  9.41400 46.90300 21.23800
C  7.96100 46.48900 21.71300
C  8.04500 46.87200 23.20900
C  9.44300 48.09400 20.24400
C  7.66700 44.93100 21.54100
C  8.59700 44.02000 22.32400
N  7.84800 47.42500 26.08800
C  6.77200 47.24400 25.30200
C  5.54200 47.15500 26.04500
C  6.00800 47.38200 27.41200
C  7.37500 47.58000 27.33800
C  4.20400 46.75300 25.59200
C  5.56600 47.44300 28.79600
O  4.45400 47.26200 29.29800
C  6.78500 47.81300 29.59000
C  6.99200 46.71200 30.57200
O  7.80700 45.77000 30.43600
O  6.20100 46.92000 31.70000
C  6.36900 45.87700 32.75700
H  13.47900 48.95400 27.78200
H  12.00200 47.49100 21.72100
H  5.98400 46.74300 23.33200
H  9.58800 49.61600 30.41000
H  12.20800 48.94500 30.02900
H  11.62000 51.17800 28.30900
H  12.34500 51.23900 29.83700
H  10.55800 51.34100 29.68100
H  11.40000 47.45500 31.10800
H  10.01800 46.67000 30.67500
H  8.79800 48.61000 32.14600
H  10.31800 48.93200 32.84800
H  15.65800 47.52000 26.68400
H  15.65200 49.17600 26.20900
H  16.37900 47.86000 25.21100
H  16.53800 47.46100 21.65500
H  16.55900 46.58000 23.23000
H  16.47900 48.41700 23.09600
H  9.85900 46.04000 20.74400
H  7.16600 47.09600 21.27900
H  10.12100 48.90800 20.50200
H  8.54700 48.66300 19.99500
H  9.69400 47.58400 19.31300
H  7.70500 44.69400 20.47800
H  6.65800 44.81600 21.93700
H  8.94000 44.56300 23.20500
H  9.42000 43.59400 21.75100
H  7.94900 43.26800 22.77200
H  3.53300 46.90600 26.43700
H  4.20900 45.75400 25.15600
H  4.00100 47.38700 24.72900
H  6.48400 48.71900 30.11600
H  5.67100 45.08400 32.49000
H  6.23700 46.44100 33.68100
H  7.40700 45.55000 32.71000

