158

Mg 2.22900 -1.07600 44.08000
C  5.76100 -0.80400 43.29500
C  1.89000 1.86700 42.42800
C  -1.10600 -1.66600 44.04900
C  2.84400 -4.28800 45.19700
N  3.70000 0.34000 42.81300
C  5.09000 0.25300 42.70100
C  5.61500 1.40700 41.91100
C  4.39800 2.46100 41.97700
C  3.23500 1.53700 42.52800
C  4.71000 3.57400 42.90100
C  6.06100 0.95200 40.43900
C  7.49200 1.46000 39.94400
H  7.56500 2.20100 38.67200
N  0.57200 0.04600 43.55600
C  0.71700 1.20100 42.86000
C  -0.65200 1.72700 42.63900
C  -1.59100 0.76600 43.18700
C  -0.71300 -0.29500 43.67100
C  -0.93800 3.07400 41.96900
C  -3.10400 0.80200 43.17700
O  -3.59300 1.79500 42.63400
C  -3.99200 -0.23300 43.92500
N  1.04500 -2.83000 44.43300
C  -0.28700 -2.72400 44.39800
C  -0.91000 -3.95800 45.13400
C  0.31900 -4.91900 45.22600
C  1.46400 -4.00400 44.89500
C  -1.71100 -3.73000 46.39700
C  0.28600 -6.01600 44.10800
C  0.27900 -7.49600 44.52500
N  3.92700 -2.25300 44.36600
C  4.00000 -3.57500 44.81000
C  5.41000 -3.92200 44.91500
C  6.11500 -2.82900 44.34600
C  5.17900 -1.87700 44.01200
C  6.01200 -5.29300 45.32000
C  7.44700 -2.39300 43.96500
O  8.51800 -2.94300 44.04900
C  7.24500 -1.04700 43.24800
C  7.95700 0.04000 43.96300
O  7.62100 0.63700 45.00600
O  8.97600 0.43700 43.16800
C  9.70300 1.56700 43.64800
H  1.72500 2.84700 41.97500
H  -2.13300 -2.01200 43.91300
H  3.11900 -5.26100 45.60900
H  6.49700 1.70700 42.47600
H  4.11700 2.88200 41.01200
H  5.13400 4.36900 42.28700
H  5.33800 3.16900 43.69500
H  3.83700 3.97000 43.41900
H  5.31800 1.39400 39.77500
H  6.10400 -0.13500 40.38000
H  8.06100 0.53000 39.93900
H  7.94200 2.04300 40.74800
H  -1.94700 3.13000 41.56100
H  -0.20200 3.29600 41.19600
H  -0.88300 3.77500 42.80200
H  -4.85800 0.40300 44.11100
H  -3.52000 -0.49100 44.87300
H  -4.23900 -1.08300 43.28800
H  -1.61400 -4.42600 44.44600
H  0.51000 -5.39300 46.19000
H  -2.67100 -4.24300 46.33500
H  -1.86900 -2.66100 46.54100
H  -1.27100 -4.09500 47.32500
H  1.10400 -5.88400 43.40000
H  -0.54300 -5.69200 43.47800
H  -0.67300 -7.88300 44.16200
H  0.23900 -7.57800 45.61100
H  1.14700 -7.97900 44.07600
H  5.32600 -5.99100 45.79900
H  6.90700 -5.07800 45.90400
H  6.22000 -5.79900 44.37700
H  7.59100 -1.05800 42.21400
H  10.50600 1.78100 42.94300
H  10.08300 1.48100 44.66600
H  9.05800 2.44400 43.68200
Mg 0.19200 43.68000 25.60100
C  2.22900 43.31700 28.45300
C  -2.42200 42.69000 27.47000
C  -1.50600 43.91500 22.85500
C  3.16900 44.31800 23.62700
N  -0.03900 43.23100 27.73300
C  0.88900 43.12200 28.72400
C  0.32800 42.79100 30.09100
C  -1.20300 42.37800 29.70800
C  -1.26400 42.83800 28.24300
C  -1.54100 40.87700 29.85500
C  0.32900 44.10000 30.93000
C  -0.16400 44.00700 32.43400
H  -0.24700 42.63200 33.14100
N  -1.68400 43.29700 25.22000
C  -2.69500 42.87200 26.08800
C  -3.92000 42.82100 25.37700
C  -3.68400 43.24200 24.09000
C  -2.24100 43.49900 23.99800
C  -5.23500 42.39800 26.14500
C  -4.66500 43.59600 23.00900
O  -4.39300 44.27900 22.03100
C  -6.12400 43.15100 23.19400
N  0.77500 44.04000 23.44100
C  -0.18200 44.20500 22.55100
C  0.38000 44.65300 21.23300
C  1.84200 44.90700 21.52200
C  1.97800 44.32300 22.95500
C  0.19200 43.47300 20.14400
C  2.35600 46.37100 21.59700
C  1.37700 47.43100 22.19700
N  2.31400 43.89700 25.94800
C  3.40400 44.09900 25.02800
C  4.59600 43.97500 25.79100
C  4.18500 43.66600 27.06200
C  2.78600 43.54000 27.16800
C  5.98500 44.14000 25.26000
C  4.73300 43.37700 28.37200
O  5.89900 43.30300 28.74100
C  3.45900 43.20600 29.38000
C  3.63500 42.04000 30.21300
O  3.34800 40.89100 29.87900
O  4.29600 42.35700 31.33000
C  4.81900 41.20500 32.12600
H  -3.29600 42.25900 27.96200
H  -2.11400 43.91900 21.94800
H  4.06800 44.46900 23.02700
H  0.84000 41.95800 30.57400
H  -1.97200 42.86600 30.30600
H  -2.05300 40.55300 28.94900
H  -2.25200 40.72600 30.66700
H  -0.70000 40.22200 30.08500
H  -0.29800 44.86300 30.46800
H  1.35400 44.43800 30.78100
H  -1.15200 44.45600 32.53800
H  0.60000 44.55500 32.98500
H  -6.04500 43.11700 26.02000
H  -5.13500 42.19800 27.21200
H  -5.60200 41.42900 25.80700
H  -6.16000 42.08200 23.40100
H  -6.66400 43.17000 22.24700
H  -6.59000 43.71500 24.00200
H  -0.10400 45.57100 20.89900
H  2.47100 44.34300 20.83200
H  1.14600 43.06900 19.80500
H  -0.24900 43.89100 19.23900
H  -0.37800 42.67000 20.61200
H  2.64800 46.70300 20.60100
H  3.21700 46.40200 22.26500
H  1.80000 48.09200 22.95400
H  0.53400 46.94200 22.68400
H  1.04100 47.98400 21.31900
H  6.02400 45.10800 24.76000
H  6.23900 43.33000 24.57600
H  6.84400 44.15800 25.93100
H  3.56000 44.09900 29.99800
H  5.55600 41.51000 32.86900
H  5.33200 40.46500 31.51100
H  3.94000 40.84400 32.65800

