158

Mg 1.63600 -1.10200 43.72500
C  4.87100 -0.28600 43.13100
C  0.71600 1.89900 42.26400
C  -1.57000 -2.29100 43.45300
C  2.59900 -4.26400 44.69000
N  2.71900 0.66900 42.79700
C  4.04600 0.75400 42.63800
C  4.50200 2.03400 41.83200
C  3.12200 2.76500 41.61600
C  2.09600 1.74400 42.25000
C  3.01200 4.24200 42.12500
C  5.30300 1.79300 40.52200
C  6.54100 2.67600 40.22000
H  6.87800 3.28100 38.88300
N  -0.17900 -0.21700 43.15000
C  -0.35500 1.04700 42.59500
C  -1.75200 1.32900 42.47800
C  -2.39300 0.08000 42.79700
C  -1.40300 -0.87600 43.20600
C  -2.29400 2.72500 42.14900
C  -3.94900 -0.05200 42.74900
O  -4.65300 0.89400 42.55900
C  -4.56700 -1.42600 42.81200
N  0.65500 -3.09400 43.98100
C  -0.66000 -3.30200 43.83400
C  -1.10200 -4.78400 44.09600
C  0.19600 -5.23100 44.74100
C  1.21900 -4.18500 44.44100
C  -2.44200 -5.01900 44.85300
C  0.81300 -6.66600 44.45800
C  -0.19200 -7.78300 44.18100
N  3.37800 -2.10200 43.97500
C  3.64700 -3.32400 44.44900
C  4.99400 -3.54600 44.75600
C  5.58600 -2.28700 44.25600
C  4.49400 -1.54800 43.69300
C  5.69000 -4.68000 45.36600
C  6.80800 -1.49600 43.94400
O  7.98200 -1.78500 44.12500
C  6.37300 -0.12900 43.20500
C  6.81900 1.07300 43.99700
O  6.24400 1.51800 44.99800
O  7.89200 1.69300 43.37700
C  8.47300 2.96600 43.88500
H  0.49900 2.88400 41.84700
H  -2.56200 -2.74300 43.39500
H  2.89600 -5.21200 45.14500
H  5.03700 2.74600 42.46000
H  2.85600 2.83300 40.56100
H  2.74600 4.78900 41.22000
H  3.98900 4.58300 42.46800
H  2.28500 4.25900 42.93700
H  4.63300 1.97100 39.68100
H  5.51000 0.73100 40.39000
H  7.34100 1.99700 40.51500
H  6.41100 3.45400 40.97200
H  -1.47800 3.44500 42.21800
H  -3.13200 3.11600 42.72700
H  -2.71700 2.76500 41.14600
H  -5.60000 -1.56900 42.49500
H  -4.37100 -1.71100 43.84500
H  -4.06500 -2.10000 42.11900
H  -1.15100 -5.11400 43.05800
H  -0.01600 -5.21000 45.81000
H  -2.19100 -5.34600 45.86300
H  -2.99200 -5.70700 44.21100
H  -3.06500 -4.14400 45.03700
H  1.33600 -6.94300 45.37300
H  1.54500 -6.49900 43.66800
H  -0.30000 -7.79800 43.09700
H  -1.11500 -7.73700 44.76000
H  0.23000 -8.75200 44.44500
H  4.98000 -5.42400 45.72800
H  6.33200 -4.41000 46.20500
H  6.24900 -5.13100 44.54600
H  6.81300 0.04200 42.22300
H  7.71200 3.69700 44.16000
H  9.17300 3.53800 43.27600
H  9.00900 2.81300 44.82200
Mg 5.89300 53.46300 40.84200
C  5.16600 50.10500 40.75400
C  9.11600 52.88300 40.00000
C  6.18800 56.80500 39.99800
C  2.49800 53.97900 41.51000
N  6.89500 51.66700 40.09700
C  6.44400 50.41300 40.36200
C  7.55200 49.35200 40.10900
C  8.83800 50.28800 40.28300
C  8.25900 51.69500 40.10400
C  9.69400 50.15900 41.61200
C  7.39000 48.56900 38.75500
C  6.58500 49.17100 37.56900
H  7.34200 49.88000 36.42500
N  7.47900 54.73500 40.08800
C  8.68500 54.27500 39.90100
C  9.55700 55.37700 39.53700
C  8.77700 56.57700 39.48600
C  7.42600 56.11200 39.86100
C  10.99300 55.05400 39.07300
C  9.23900 57.95300 39.09000
O  10.35000 58.11800 38.64100
C  8.38200 59.19300 39.19800
N  4.48100 55.18000 40.80800
C  4.88400 56.44700 40.40800
C  3.71100 57.47000 40.69600
C  2.53100 56.51600 41.06900
C  3.17300 55.15000 41.06500
C  4.02600 58.67500 41.72900
C  1.26600 56.59900 40.23600
C  0.05900 57.01400 41.05400
N  4.14500 52.29600 41.07300
C  2.89600 52.69300 41.46500
C  2.13600 51.46200 41.91000
C  3.08200 50.43500 41.58100
C  4.11100 51.00000 40.96200
C  0.85100 51.43700 42.68300
C  3.21700 48.98300 41.68500
O  2.54300 48.11900 42.32200
C  4.58100 48.69300 40.98900
C  4.21300 47.85600 39.83900
O  3.57100 48.22700 38.84100
O  4.71700 46.61400 40.08100
C  4.51200 45.71300 38.91400
H  10.15300 52.55400 39.90400
H  6.25300 57.88200 39.83000
H  1.44200 54.19500 41.68200
H  7.63400 48.62700 40.92000
H  9.56400 50.11500 39.48900
H  9.59900 51.08400 42.18000
H  10.75800 49.92200 41.59600
H  9.24400 49.32200 42.14600
H  7.02200 47.56700 38.97600
H  8.42800 48.43300 38.44900
H  5.90200 49.92600 37.95700
H  6.04100 48.39000 37.03700
H  11.08700 54.00800 38.78300
H  11.76600 55.37300 39.77300
H  11.10700 55.55600 38.11200
H  8.93300 60.08800 38.90900
H  8.04100 59.26100 40.23100
H  7.57900 59.12100 38.46400
H  3.55200 57.92800 39.72000
H  2.35100 56.71100 42.12600
H  5.00700 58.41100 42.12400
H  3.28300 58.80400 42.51500
H  4.17800 59.58900 41.15500
H  0.95000 55.67900 39.74300
H  1.37900 57.41600 39.52500
H  0.17800 56.76800 42.10900
H  -0.82600 56.56500 40.60200
H  -0.17900 58.04100 40.77600
H  0.59100 50.55300 43.26600
H  0.00300 51.64400 42.03000
H  1.10100 52.29600 43.30600
H  5.24800 48.09800 41.61200
H  4.64700 46.24500 37.97300
H  3.46400 45.43100 38.81500
H  5.02500 44.76400 39.07200

