158

Mg 24.16200 -4.72100 45.70400
C  26.29600 -2.50100 44.17900
C  21.54900 -3.49400 43.77800
C  22.39500 -7.63400 46.22700
C  26.95600 -6.11100 47.27700
N  23.98900 -3.27800 44.16900
C  24.97700 -2.43000 43.73300
C  24.50100 -1.48000 42.63600
C  22.97600 -1.56700 42.81700
C  22.81300 -2.88000 43.61900
C  22.35300 -0.37400 43.53000
C  25.12700 -2.02900 41.17200
C  26.09200 -0.96900 40.46500
H  26.09200 -0.84900 38.91300
N  22.21000 -5.38200 45.27100
C  21.26500 -4.66700 44.58400
C  20.07700 -5.48900 44.45500
C  20.26100 -6.69900 45.18100
C  21.64700 -6.59700 45.63000
C  18.87300 -5.03700 43.68600
C  19.25500 -7.86700 45.29900
O  18.13400 -7.80300 44.82800
C  19.48700 -9.01200 46.28900
N  24.50500 -6.49000 46.80300
C  23.66300 -7.56400 46.81300
C  24.20900 -8.73600 47.71500
C  25.70800 -8.24500 47.97300
C  25.76500 -6.91200 47.27300
C  23.40900 -9.07500 49.03000
C  26.76200 -9.24400 47.41000
C  27.81900 -9.85500 48.40500
N  26.26600 -4.36100 45.80500
C  27.26200 -4.97100 46.51800
C  28.52200 -4.30300 46.38200
C  28.20600 -3.29600 45.37100
C  26.80700 -3.42200 45.07900
C  29.77200 -4.75700 47.00000
C  28.73600 -2.29200 44.55100
O  29.85000 -1.86300 44.46500
C  27.53000 -1.63000 43.82900
C  27.39100 -0.15200 44.09500
O  26.85600 0.35100 45.08700
O  27.92700 0.56000 43.09200
C  27.71300 2.04900 43.15000
H  20.75000 -3.15500 43.11600
H  21.91700 -8.60600 46.36300
H  27.71900 -6.53600 47.93200
H  24.91100 -0.52200 42.95700
H  22.47000 -1.67600 41.85700
H  23.13700 0.36100 43.71100
H  21.80800 -0.72800 44.40600
H  21.72000 0.03200 42.74000
H  24.38800 -2.39700 40.46000
H  25.75000 -2.90000 41.37600
H  27.12900 -1.06500 40.78900
H  25.68500 0.01300 40.70700
H  18.01500 -5.13000 44.35200
H  18.79700 -5.62200 42.76900
H  18.91100 -4.00500 43.33500
H  18.58000 -9.56400 46.53400
H  19.96100 -8.69500 47.21800
H  20.14000 -9.68100 45.72900
H  24.18700 -9.62900 47.09100
H  25.85500 -8.11600 49.04500
H  22.96900 -8.14000 49.37500
H  24.19600 -9.45600 49.68100
H  22.65500 -9.83600 48.82800
H  27.38000 -8.78300 46.63900
H  26.38400 -10.16500 46.96700
H  27.50700 -9.66000 49.43100
H  28.69400 -9.21200 48.30500
H  27.96900 -10.91000 48.17500
H  29.66500 -4.50100 48.05400
H  30.65300 -4.22900 46.63500
H  29.98600 -5.81000 46.81700
H  27.62900 -1.58300 42.74400
H  27.25500 2.48200 44.03900
H  27.04300 2.24800 42.31500
H  28.66100 2.47000 42.81300
Mg 26.98500 49.39100 25.26500
C  24.81000 50.50600 28.05100
C  29.08100 48.28500 27.73600
C  28.94800 48.63300 22.77200
C  24.68200 50.90900 23.07600
N  26.80200 49.35000 27.70300
C  25.94600 49.86500 28.56800
C  26.27500 49.55400 29.95600
C  27.83800 49.12500 29.89400
C  27.92500 48.85400 28.34800
C  28.88800 50.05300 30.49300
C  25.42200 48.39600 30.60700
C  24.85500 48.64100 31.97400
H  25.88000 49.20500 32.99700
N  28.73600 48.57800 25.28100
C  29.44900 48.05700 26.36000
C  30.74800 47.55800 25.86000
C  30.79100 47.79200 24.45000
C  29.46500 48.40200 24.07900
C  31.71200 46.95400 26.82700
C  32.05300 47.63800 23.59500
O  32.17300 48.21300 22.52400
C  33.26000 46.93000 24.11100
N  26.81900 49.65100 23.20900
C  27.76300 49.18800 22.31900
C  27.25500 49.27400 20.90800
C  25.93300 50.03100 21.00900
C  25.77600 50.23100 22.50800
C  28.21700 49.71100 19.83800
C  24.76500 49.29100 20.33500
C  23.96400 50.07600 19.31600
N  25.12300 50.45200 25.51100
C  24.29200 50.95300 24.50600
C  23.20400 51.68900 25.10900
C  23.37100 51.55500 26.46600
C  24.54800 50.78000 26.69700
C  22.16400 52.46700 24.34500
C  22.79100 51.92000 27.74600
O  21.81700 52.52900 28.04200
C  23.71000 51.17900 28.83800
C  24.12900 52.15500 29.86600
O  24.97600 53.00100 29.79100
O  23.43100 51.92100 31.04100
C  23.95800 52.71900 32.11400
H  29.80300 47.98800 28.50000
H  29.53200 48.25400 21.93000
H  23.90500 51.32900 22.43500
H  26.16000 50.43600 30.58500
H  27.93900 48.24400 30.52800
H  29.43500 49.37500 31.14900
H  28.39300 50.89500 30.97700
H  29.60100 50.38500 29.73800
H  25.99800 47.48400 30.76100
H  24.62500 48.11200 29.91900
H  24.44800 47.71600 32.38200
H  24.03400 49.35700 31.93400
H  31.33900 46.60300 27.79000
H  32.48200 47.71300 26.96100
H  32.21400 46.11200 26.35200
H  33.16900 45.86300 24.31500
H  33.55000 47.30900 25.09200
H  34.12600 47.02600 23.45600
H  26.97300 48.25700 20.63600
H  25.99300 51.01200 20.53700
H  28.57000 48.77900 19.39700
H  29.09000 50.16000 20.31300
H  27.78700 50.32400 19.04600
H  24.17800 48.91300 21.17200
H  25.17100 48.37700 19.90100
H  22.91600 49.78200 19.24900
H  24.30400 49.76900 18.32700
H  24.00900 51.16100 19.41700
H  21.16800 52.19100 24.69300
H  22.29500 52.28400 23.27800
H  22.44400 53.43600 24.75900
H  23.09100 50.46900 29.38700
H  23.57100 52.26700 33.02800
H  23.62600 53.75800 32.10100
H  25.04700 52.77100 32.11200

