158

Mg 46.86500 24.47500 28.28800
C  47.43400 26.64500 31.09100
C  46.15300 22.08300 30.73200
C  47.01100 22.36100 25.94000
C  48.13200 26.98400 26.26300
N  46.94300 24.36900 30.70000
C  47.09400 25.39000 31.58600
C  46.80000 24.99600 33.06300
C  46.55800 23.40800 32.98400
C  46.53700 23.27300 31.38200
C  47.66800 22.51800 33.69800
C  45.65600 25.80800 33.69900
C  45.83600 26.06200 35.18200
H  44.57000 25.91200 36.06900
N  46.48800 22.53100 28.29600
C  46.09200 21.72300 29.36800
C  45.67900 20.49400 28.78000
C  46.01600 20.53700 27.36300
C  46.61800 21.80100 27.16700
C  45.01200 19.41700 29.59500
C  45.75900 19.39900 26.32300
O  46.09200 19.54600 25.13100
C  45.18000 18.02400 26.71300
N  47.57800 24.63100 26.39300
C  47.51100 23.60200 25.57800
C  47.92800 23.98400 24.20500
C  48.25000 25.50400 24.24000
C  47.88000 25.76000 25.69400
C  49.04000 23.08800 23.64700
C  47.33800 26.35000 23.14400
C  46.02300 26.98100 23.72500
N  47.62000 26.42300 28.62300
C  48.06000 27.33800 27.60300
C  48.39400 28.57100 28.24500
C  48.08600 28.34500 29.61900
C  47.65600 27.03200 29.78900
C  49.07100 29.83000 27.64500
C  48.26500 28.97700 30.89200
O  48.63600 30.07600 31.27800
C  47.87500 27.87700 31.87400
C  49.04300 27.52800 32.71700
O  49.97500 26.88800 32.37600
O  48.83400 28.07000 34.02300
C  49.82300 27.62400 35.05100
H  45.70100 21.34900 31.40300
H  47.00900 21.59700 25.15900
H  48.55100 27.73700 25.59200
H  47.67900 25.10300 33.70000
H  45.60400 23.14400 33.44000
H  47.19000 21.84800 34.41300
H  48.40500 23.15500 34.18700
H  48.05400 21.88300 32.90100
H  44.68700 25.31100 33.75100
H  45.50900 26.73300 33.14200
H  46.24500 27.06200 35.32900
H  46.65000 25.43900 35.55400
H  44.00900 19.07800 29.33900
H  44.91700 19.68900 30.64600
H  45.53600 18.46800 29.48000
H  45.51200 17.59500 27.65900
H  45.16400 17.20900 25.98900
H  44.22000 18.49400 26.92600
H  47.07600 23.80200 23.55000
H  49.30400 25.66200 24.01000
H  49.48400 22.38300 24.35000
H  49.88200 23.67900 23.28700
H  48.61000 22.50500 22.83200
H  47.19400 25.73400 22.25600
H  47.98500 27.19700 22.91700
H  46.10500 28.03100 24.00700
H  45.62300 26.40700 24.56100
H  45.29400 26.84100 22.92700
H  48.45400 30.69200 27.89700
H  49.00600 29.78000 26.55800
H  50.08400 29.91900 28.03700
H  47.09400 28.27400 32.52300
H  49.40000 27.15900 35.94200
H  50.28700 28.50800 35.48900
H  50.61000 27.00900 34.61500
Mg 40.62400 41.75600 26.51300
C  39.94600 43.85400 29.39200
C  41.70000 39.32500 28.80600
C  41.49000 39.67600 23.90800
C  40.00200 44.34500 24.46000
N  40.85400 41.70400 28.83900
C  40.38900 42.55700 29.81300
C  40.38700 42.05600 31.24300
C  40.98400 40.60100 31.05600
C  41.18500 40.52900 29.46700
C  42.32100 40.44900 31.79200
C  38.96400 42.02900 31.88900
C  38.81300 41.19400 33.12500
H  38.10500 41.88400 34.32200
N  41.55100 39.85600 26.40800
C  41.84500 39.03700 27.46600
C  42.21300 37.71400 26.99300
C  42.17900 37.72800 25.54600
C  41.81100 39.13700 25.20900
C  42.55300 36.51300 27.94100
C  42.52300 36.69600 24.53700
O  42.69600 36.93500 23.30800
C  42.73400 35.23400 25.06500
N  40.69100 41.98900 24.48700
C  40.98700 40.96800 23.56400
C  41.11800 41.53400 22.14200
C  40.35000 42.91300 22.33900
C  40.43700 43.15600 23.87900
C  42.61500 41.64700 21.78300
C  38.90500 42.77000 21.93600
C  38.27600 44.07800 21.33800
N  39.96500 43.63300 26.77800
C  39.67800 44.60700 25.84100
C  39.20000 45.83800 26.47300
C  39.26800 45.59500 27.85900
C  39.67800 44.25800 28.01900
C  38.96800 47.13500 25.72000
C  39.06200 46.19000 29.18900
O  38.81300 47.34200 29.54100
C  39.34300 45.01100 30.16000
C  40.33700 45.47700 31.12900
O  41.47800 45.72000 30.91800
O  39.68900 45.85000 32.30100
C  40.52800 46.43400 33.36200
H  41.64700 38.57000 29.59300
H  41.62200 38.94400 23.10800
H  39.72200 45.12800 23.75100
H  41.06300 42.62900 31.87800
H  40.49000 39.72000 31.46500
H  43.09100 40.27100 31.04000
H  42.15900 39.60000 32.45600
H  42.58900 41.16000 32.57300
H  38.28800 41.60900 31.14400
H  38.70800 43.04500 32.18900
H  39.77000 40.78500 33.44800
H  38.21000 40.32200 32.87000
H  43.53100 36.17000 27.60100
H  41.85900 35.67300 27.95000
H  42.61600 36.78800 28.99400
H  41.87700 34.89300 25.64600
H  43.68500 35.16800 25.59200
H  42.84100 34.61900 24.17100
H  40.57500 40.86900 21.47000
H  40.81300 43.75900 21.83000
H  43.17500 41.08800 22.53200
H  42.94800 42.68400 21.79500
H  42.83900 41.11900 20.85600
H  38.40300 42.42100 22.83800
H  38.67000 42.05100 21.15200
H  37.60000 43.69700 20.57200
H  39.00200 44.82700 21.02400
H  37.60500 44.52800 22.06900
H  38.99100 48.04500 26.31900
H  37.98500 47.16500 25.25000
H  39.79200 47.24700 25.01400
H  38.50300 44.64100 30.74800
H  41.42800 45.83200 33.48300
H  39.96800 46.48600 34.29600
H  40.74100 47.48900 33.18900

