158

Mg 7.77700 2.67600 27.22000
C  9.31400 1.54600 30.21200
C  5.86700 4.85800 29.07400
C  6.79000 4.14600 24.31800
C  9.81500 0.50500 25.50300
N  7.66100 3.14600 29.35000
C  8.37300 2.57600 30.41300
C  8.15800 3.37400 31.70200
C  6.79700 4.14100 31.38800
C  6.73700 4.03400 29.79700
C  5.48400 3.67100 32.16100
C  9.39400 4.17500 32.16100
C  9.22200 4.75700 33.58700
H  10.12700 4.26700 34.76700
N  6.33100 4.19100 26.70200
C  5.68800 4.93000 27.65900
C  4.75600 5.81800 27.03100
C  5.09100 5.77400 25.58900
C  6.06900 4.65500 25.45000
C  3.84400 6.74200 27.75300
C  4.66700 6.68500 24.40400
O  5.10200 6.60500 23.27200
C  3.65600 7.72900 24.80500
N  8.17300 2.30000 25.23900
C  7.72100 3.12900 24.24500
C  8.11200 2.57900 22.85800
C  9.07900 1.42200 23.22400
C  8.98000 1.39100 24.71000
C  6.97100 2.19000 21.84000
C  10.49700 1.75900 22.80700
C  11.30900 2.66100 23.74400
N  9.19700 1.21600 27.69200
C  9.97500 0.42200 26.88800
C  10.84900 -0.39900 27.71200
C  10.60300 0.03400 29.00300
C  9.55500 0.92400 29.02700
C  11.79400 -1.44100 27.20700
C  11.00400 -0.17600 30.34900
O  11.90600 -0.96000 30.70900
C  10.32800 0.85600 31.19100
C  9.68300 0.17300 32.30000
O  8.59300 -0.37600 32.29200
O  10.44900 0.37700 33.42100
C  9.81700 0.04400 34.68000
H  5.26100 5.42300 29.78500
H  6.67300 4.53600 23.30500
H  10.41300 -0.22600 24.95500
H  7.92900 2.61700 32.45200
H  6.82500 5.17600 31.72700
H  5.75800 2.74200 32.66000
H  4.73600 3.47000 31.39400
H  5.11300 4.44800 32.83000
H  9.42700 5.05500 31.52000
H  10.36800 3.68500 32.13700
H  8.18600 4.51100 33.81900
H  9.30300 5.82600 33.38600
H  4.13200 7.79300 27.76800
H  3.67000 6.32500 28.74500
H  2.85200 6.57500 27.33500
H  2.81300 7.14300 25.17100
H  3.42600 8.41500 23.99000
H  4.07800 8.28400 25.64200
H  8.68200 3.32000 22.29800
H  8.88800 0.43500 22.80300
H  5.95100 2.35800 22.18500
H  7.18500 1.14400 21.62100
H  7.12700 2.74200 20.91300
H  10.40000 2.17300 21.80300
H  10.99700 0.79000 22.79100
H  10.73700 3.06300 24.58000
H  11.51900 3.57100 23.18300
H  12.19500 2.13300 24.09700
H  11.97000 -1.30600 26.14000
H  11.50300 -2.48300 27.33900
H  12.70300 -1.32700 27.79700
H  11.08000 1.59400 31.47200
H  8.79000 -0.32000 34.65500
H  9.71400 0.93800 35.29400
H  10.46500 -0.74300 35.06600
Mg 47.90600 16.31800 28.54700
C  45.79200 16.85100 31.49900
C  50.23600 18.26300 30.14200
C  49.30500 16.71100 25.65200
C  44.97700 15.07200 27.01500
N  48.03700 17.41600 30.64800
C  47.06600 17.37800 31.69100
C  47.63800 18.04000 32.94100
C  48.98800 18.66900 32.41600
C  49.13600 18.08300 30.98500
C  49.06800 20.20600 32.53900
C  47.89900 16.96900 34.05700
C  47.64800 17.27200 35.57800
H  47.50200 18.77800 36.02200
N  49.68600 17.20300 28.01300
C  50.55300 17.93600 28.81000
C  51.72100 18.35000 28.03300
C  51.49700 17.85600 26.74700
C  50.16200 17.16400 26.76500
C  52.90900 19.18100 28.71300
C  52.39300 17.95500 25.50200
O  51.99400 17.53400 24.40800
C  53.75400 18.66300 25.60600
N  47.11700 16.10000 26.57600
C  47.97200 16.25200 25.53200
C  47.36900 15.82500 24.18800
C  46.14700 15.00400 24.66000
C  46.06900 15.35500 26.18100
C  47.11700 16.98800 23.13600
C  46.25500 13.48300 24.44800
C  45.50200 12.90500 23.21900
N  45.83500 15.87900 29.14500
C  44.80900 15.42000 28.38500
C  43.56600 15.27400 29.15600
C  43.87900 15.88300 30.34200
C  45.27500 16.27100 30.35600
C  42.25300 14.68400 28.68500
C  43.36500 16.30200 31.63700
O  42.18800 16.17000 32.04700
C  44.60700 16.78200 32.49800
C  44.22800 18.06600 33.19500
O  44.04900 19.20600 32.70500
O  43.92500 17.69500 34.47200
C  43.24400 18.63700 35.35500
H  51.09000 18.70900 30.65500
H  49.73400 16.75900 24.64900
H  44.10000 14.56700 26.60400
H  46.87100 18.74800 33.25500
H  49.74800 18.21700 33.05300
H  48.11500 20.71000 32.70100
H  49.53400 20.77100 31.73200
H  49.65500 20.39200 33.43700
H  48.93100 16.62000 34.04200
H  47.27400 16.17100 33.65700
H  48.48100 16.83600 36.13000
H  46.76200 16.75500 35.94700
H  52.89000 20.19600 28.31600
H  53.88500 18.74400 28.49800
H  52.75200 19.26000 29.78900
H  54.24000 18.73700 24.63300
H  54.27900 18.02200 26.31500
H  53.68800 19.67800 25.99800
H  48.06400 15.07600 23.80700
H  45.23800 15.45600 24.26100
H  47.31300 17.93900 23.63000
H  46.05800 16.96900 22.88100
H  47.72700 16.87100 22.23900
H  45.92700 13.06000 25.39700
H  47.31500 13.26300 24.31900
H  45.00800 13.76400 22.76200
H  44.75200 12.24300 23.65200
H  46.09400 12.23200 22.59900
H  41.60000 14.46600 29.53000
H  42.30300 13.77800 28.08100
H  41.90900 15.54200 28.10700
H  44.84000 15.95900 33.17300
H  42.26100 18.83900 34.92900
H  43.76300 19.58300 35.20600
H  43.18400 18.38200 36.41400

