158

Mg 31.09300 58.36800 40.31500
C  28.21700 56.76500 38.82100
C  33.01200 55.78100 38.98300
C  33.82400 60.27000 40.41500
C  29.11000 61.11300 41.07400
N  30.59300 56.48800 39.14500
C  29.36500 56.06800 38.65100
C  29.44000 54.66600 38.30400
C  30.91100 54.19100 38.80500
C  31.55200 55.57900 38.89600
C  30.73800 53.50200 40.21600
C  29.12700 54.40000 36.74900
C  29.19700 55.52100 35.74300
H  28.29800 55.45300 34.48400
N  33.22700 58.06500 39.84900
C  33.70600 56.89400 39.40700
C  35.14700 56.99400 39.21200
C  35.45300 58.35900 39.56400
C  34.19200 58.95000 40.01300
C  35.95100 55.98700 38.53900
C  36.80900 58.98800 39.44400
O  37.74900 58.48700 38.87500
C  37.01200 60.32800 40.02400
N  31.39500 60.37800 40.56500
C  32.63200 60.97300 40.62600
C  32.56400 62.46500 41.04200
C  31.03200 62.72600 41.41800
C  30.45300 61.33500 40.99600
C  33.59200 62.76400 42.21100
C  30.32700 63.88500 40.76500
C  29.50500 64.86300 41.61900
N  28.99900 58.81900 40.24800
C  28.35300 59.99400 40.55400
C  26.93100 59.79600 40.36900
C  26.80300 58.54100 39.66200
C  28.13700 57.99000 39.58700
C  25.85600 60.77100 40.74700
C  25.91000 57.60600 38.98100
O  24.73300 57.62700 38.71600
C  26.70500 56.41000 38.62400
C  26.23100 55.20600 39.32500
O  25.97600 55.12200 40.55200
O  26.01600 54.21600 38.42700
C  25.39700 53.04800 39.05700
H  33.55400 54.87100 38.71800
H  34.60400 61.03300 40.45200
H  28.63200 62.04400 41.38600
H  28.64900 54.15500 38.85200
H  31.44500 53.56300 38.09200
H  31.47800 52.70300 40.26000
H  29.78500 52.97600 40.16400
H  30.91100 54.25100 40.98900
H  28.11500 54.01600 36.62000
H  29.79000 53.62000 36.37600
H  30.20200 55.51600 35.32000
H  29.01500 56.51400 36.15500
H  35.72500 56.10500 37.48000
H  35.76600 54.94500 38.80100
H  36.99100 56.18800 38.79700
H  36.57200 60.38100 41.01900
H  36.48500 61.04000 39.38900
H  38.08200 60.53800 40.03800
H  32.75800 63.02200 40.12500
H  30.94000 62.72500 42.50400
H  34.50600 63.27400 41.90600
H  33.99900 61.84800 42.63900
H  33.14200 63.39600 42.97700
H  29.52900 63.53200 40.11200
H  31.02400 64.48100 40.17700
H  30.21300 65.59900 41.99800
H  28.92800 64.37200 42.40400
H  28.77700 65.44000 41.04800
H  25.74200 61.51600 39.96000
H  26.30300 61.31300 41.58200
H  24.91800 60.29300 41.02800
H  26.48800 56.28500 37.56300
H  25.53900 52.30700 38.27100
H  24.33600 53.16500 39.28000
H  25.92600 52.73200 39.95600
Mg 9.39100 48.43200 25.86300
C  7.36300 48.98800 28.72700
C  12.07000 50.10800 27.63600
C  11.43200 48.23200 23.10100
C  6.68000 47.42800 24.16400
N  9.68600 49.40600 27.99000
C  8.73000 49.51300 28.97400
C  9.43400 49.86100 30.27600
C  10.82200 50.41600 29.82900
C  10.87200 50.01100 28.36700
C  11.10100 51.92900 30.09400
C  9.50600 48.68900 31.19800
C  9.11000 48.98100 32.67400
H  8.91500 47.80200 33.61400
N  11.46100 48.94300 25.47100
C  12.31700 49.69700 26.30000
C  13.60500 49.60800 25.72000
C  13.45400 49.06200 24.39600
C  12.08600 48.67600 24.27300
C  14.84300 50.28000 26.43000
C  14.63000 48.84900 23.38800
O  14.39900 48.32900 22.29800
C  16.09000 49.41000 23.58700
N  9.19200 47.89600 23.89600
C  10.10900 47.91200 22.92200
C  9.47700 47.48400 21.53300
C  8.09600 46.97000 22.01200
C  7.94600 47.42900 23.43500
C  9.46800 48.69800 20.57200
C  7.90900 45.40300 21.89100
C  8.57600 44.52500 22.96200
N  7.34100 48.22600 26.25000
C  6.32800 47.95200 25.40600
C  5.12200 47.91500 26.13600
C  5.44900 48.35800 27.40400
C  6.86400 48.57700 27.45800
C  3.83000 47.57900 25.56500
C  4.83500 48.69300 28.74400
O  3.69100 48.76200 29.10400
C  6.13000 48.89900 29.69100
C  6.15000 47.67300 30.53000
O  6.73200 46.60900 30.25000
O  5.21200 47.74800 31.54000
C  5.04100 46.46000 32.32100
H  12.86800 50.63300 28.16500
H  12.07900 48.07700 22.23600
H  5.85400 46.98900 23.60100
H  8.90900 50.70200 30.72800
H  11.66700 49.84000 30.20500
H  10.71300 52.41400 29.19800
H  12.16500 52.16100 30.13000
H  10.58300 52.25600 30.99500
H  10.50100 48.25500 31.09400
H  8.89800 47.84400 30.87600
H  8.12900 49.42800 32.51700
H  9.81100 49.66700 33.15000
H  14.68500 50.59900 27.46000
H  15.19900 51.16300 25.90000
H  15.64600 49.54300 26.43800
H  15.89800 50.45000 23.32500
H  16.74300 48.98800 22.82200
H  16.46600 49.15700 24.57800
H  10.15500 46.72500 21.14400
H  7.39900 47.39600 21.29100
H  9.70600 49.63300 21.08000
H  8.49300 48.85500 20.11000
H  10.27900 48.58900 19.85100
H  8.37200 45.16300 20.93300
H  6.85600 45.12300 21.89200
H  9.37600 45.01300 23.51900
H  8.95000 43.68500 22.37700
H  7.87200 44.25000 23.74700
H  3.64200 46.51500 25.42700
H  3.83600 48.10200 24.60800
H  3.03700 47.92700 26.22700
H  5.98600 49.84900 30.20600
H  5.39700 46.70900 33.32100
H  5.61200 45.60900 31.95100
H  4.00200 46.14900 32.43200

