158

Mg 7.21200 55.59300 40.57100
C  6.05600 52.25500 40.27400
C  10.39000 54.46800 39.78000
C  8.28600 58.86400 40.25100
C  3.95300 56.59600 40.96200
N  8.01700 53.58800 39.83200
C  7.38000 52.34800 39.96300
C  8.43100 51.27700 39.67900
C  9.80000 52.03100 39.81600
C  9.40500 53.47400 39.77200
C  10.66100 51.64000 41.02400
C  8.32200 50.62500 38.26500
C  7.89500 51.55900 37.07200
H  6.43400 51.44000 36.52100
N  9.05500 56.53400 40.07500
C  10.25000 55.89300 39.80100
C  11.27200 56.87600 39.50600
C  10.72000 58.12900 39.69400
C  9.32800 57.87000 40.13200
C  12.70500 56.54800 39.19200
C  11.46100 59.43500 39.50000
O  12.65700 59.49800 39.36000
C  10.76800 60.72500 39.64700
N  6.17600 57.43900 40.46700
C  6.88400 58.61700 40.48100
C  5.83000 59.76800 40.53600
C  4.44700 59.06500 40.94900
C  4.87200 57.59400 40.84300
C  6.17300 60.93200 41.52000
C  3.29200 59.54600 40.03900
C  2.08300 60.15700 40.80000
N  5.41600 54.63000 40.62300
C  4.19900 55.22500 40.90700
C  3.19200 54.20800 41.12400
C  3.91400 52.99300 40.92200
C  5.22800 53.33700 40.63600
C  1.67200 54.33700 41.35200
C  3.91200 51.54000 40.92100
O  2.96000 50.86100 41.18200
C  5.30000 51.00400 40.45300
C  5.11300 50.09100 39.33000
O  4.41900 50.42400 38.38500
O  5.59500 48.79400 39.54500
C  5.33000 47.81500 38.53700
H  11.40300 54.06000 39.75400
H  8.53000 59.91800 40.10300
H  2.90400 56.82300 41.16100
H  8.40900 50.48800 40.43100
H  10.46300 51.69600 39.01800
H  11.55300 51.12000 40.67500
H  10.11500 51.02100 41.73600
H  11.03900 52.49900 41.57800
H  7.64100 49.77500 38.31500
H  9.30900 50.27200 37.96600
H  8.49900 51.29600 36.20300
H  8.05700 52.62400 37.24200
H  12.83100 55.48800 38.97000
H  13.33900 56.91900 39.99800
H  12.94600 57.08200 38.27300
H  11.50000 61.51200 39.46400
H  10.34700 60.74100 40.65200
H  10.02500 60.61700 38.85700
H  5.82100 60.01800 39.47500
H  4.27000 59.19500 42.01700
H  6.44600 61.87000 41.03500
H  7.05500 60.61200 42.07400
H  5.32300 61.13800 42.17000
H  3.10600 58.71700 39.35600
H  3.60300 60.36300 39.38700
H  1.38900 59.32300 40.69800
H  1.73500 61.08700 40.35000
H  2.18500 60.23200 41.88200
H  1.15100 53.49700 41.81100
H  1.10400 54.44200 40.42800
H  1.40000 55.22600 41.92100
H  5.60300 50.45200 41.34200
H  6.05100 46.99800 38.49900
H  5.12600 48.16000 37.52300
H  4.37400 47.41500 38.87600
Mg -9.98200 16.97000 41.00600
C  -6.47000 16.50600 41.31200
C  -9.36900 20.37200 40.73700
C  -13.13300 17.43400 40.33500
C  -10.32200 13.45000 41.09500
N  -8.17000 18.24800 41.17900
C  -6.85500 17.85100 41.14400
C  -5.94100 19.01300 40.68900
C  -6.78400 20.24300 41.04600
C  -8.24000 19.61500 41.07700
C  -6.37300 20.90800 42.36900
C  -5.39100 18.95800 39.22400
C  -3.85800 19.02500 38.97100
H  -3.40000 18.13500 37.85900
N  -11.07400 18.66300 40.42900
C  -10.67300 19.97400 40.39400
C  -11.84300 20.90600 40.11700
C  -12.93900 20.01200 40.20600
C  -12.41600 18.66500 40.28400
C  -11.67800 22.40200 40.04800
C  -14.39800 20.47200 40.07200
O  -14.64400 21.69500 40.00800
C  -15.61500 19.55500 40.05700
N  -11.42200 15.53600 40.45700
C  -12.69800 16.04900 40.55600
C  -13.75400 14.93200 40.59000
C  -12.83400 13.63800 40.62600
C  -11.46100 14.20800 40.76700
C  -14.82100 15.07300 41.74200
C  -13.01400 12.55800 39.53800
C  -13.32000 11.16400 40.00500
N  -8.75300 15.32900 41.37500
C  -9.01900 13.95300 41.35700
C  -7.87000 13.18400 41.71000
C  -6.79200 14.10800 41.60500
C  -7.40300 15.38600 41.42000
C  -7.83500 11.72400 42.01700
C  -5.39300 14.24700 41.53700
O  -4.49000 13.41500 41.57800
C  -5.10400 15.78500 41.16400
C  -4.17800 16.25400 42.18900
O  -3.08000 16.75200 41.99600
O  -4.68700 16.15200 43.47800
C  -4.00600 16.60300 44.71600
H  -9.22300 21.45400 40.75800
H  -14.21200 17.45000 40.16800
H  -10.47800 12.37100 41.14600
H  -5.13500 18.87600 41.41000
H  -6.71900 21.00900 40.27400
H  -5.57100 20.44700 42.94500
H  -7.24900 21.03400 43.00600
H  -5.98200 21.88400 42.08100
H  -5.81700 19.76600 38.62900
H  -5.77500 18.04200 38.77500
H  -3.36600 18.70100 39.88900
H  -3.67400 20.04300 38.62700
H  -12.55000 22.85000 39.57100
H  -10.79500 22.59000 39.43800
H  -11.59500 22.77800 41.06800
H  -15.60000 18.92000 39.17100
H  -16.52700 20.14700 39.98500
H  -15.68800 19.14600 41.06400
H  -14.26500 14.95000 39.62800
H  -13.07400 13.08900 41.53700
H  -14.98000 16.03000 42.23900
H  -14.61800 14.35800 42.53900
H  -15.76600 14.76600 41.29400
H  -12.18400 12.48300 38.83600
H  -13.81600 12.81100 38.84400
H  -12.85900 10.41700 39.35900
H  -14.38600 10.93800 39.96500
H  -12.96300 10.95000 41.01300
H  -8.83500 11.37600 42.27600
H  -7.16400 11.30300 42.76600
H  -7.55800 11.23700 41.08200
H  -4.62400 15.89800 40.19200
H  -4.51900 17.51400 45.02400
H  -2.92700 16.71900 44.61900
H  -4.12600 15.95200 45.58200

