158

Mg -2.03300 16.91100 26.45400
C  -2.37000 14.56000 29.07300
C  -2.96800 19.31700 28.74000
C  -2.34200 19.05900 23.87700
C  -1.92900 14.25700 24.16900
N  -2.71900 16.90600 28.73400
C  -2.56700 15.86200 29.59000
C  -2.73400 16.24300 31.06300
C  -2.86300 17.80500 30.91200
C  -2.96300 18.03600 29.37600
C  -4.08600 18.42900 31.73600
C  -1.73900 15.74200 32.23700
C  -1.67000 16.59100 33.47800
H  -1.24900 15.98500 34.76400
N  -2.32000 18.90600 26.36400
C  -2.72000 19.72400 27.40400
C  -2.71400 21.06400 26.88600
C  -2.61500 21.02800 25.53500
C  -2.35700 19.64500 25.17800
C  -2.98700 22.26600 27.78900
C  -2.84600 22.20300 24.54400
O  -2.98000 22.03500 23.34800
C  -3.13800 23.64600 24.94900
N  -2.26800 16.67000 24.33100
C  -2.32300 17.73900 23.53400
C  -2.30700 17.27700 22.06000
C  -1.78700 15.84300 22.16900
C  -1.95900 15.55800 23.63100
C  -3.68100 17.45900 21.33700
C  -0.36800 15.57400 21.75700
C  0.87600 16.08800 22.50100
N  -2.15500 14.82500 26.49100
C  -2.03000 13.85700 25.48000
C  -2.10800 12.53800 26.03800
C  -2.18500 12.75400 27.40200
C  -2.23700 14.13700 27.65000
C  -2.11500 11.27000 25.15700
C  -2.34200 12.08600 28.68800
O  -2.41400 10.90200 28.98000
C  -2.49000 13.26700 29.79900
C  -1.39500 12.97200 30.80200
O  -0.24500 13.44200 30.81000
O  -1.87800 12.05300 31.72400
C  -1.10900 11.57000 32.85600
H  -3.12800 20.13600 29.44400
H  -2.35600 19.69400 22.98900
H  -1.69900 13.54400 23.37500
H  -3.68700 15.89800 31.46500
H  -1.94700 18.33400 31.17300
H  -4.46300 17.69200 32.44500
H  -4.89900 18.66500 31.04900
H  -3.76100 19.31600 32.27900
H  -0.71700 15.67200 31.86400
H  -2.15000 14.77400 32.52300
H  -2.69700 16.90700 33.65800
H  -1.03400 17.46300 33.32600
H  -2.74400 22.15200 28.84600
H  -4.03600 22.55700 27.73000
H  -2.33700 23.09800 27.51900
H  -2.41300 23.91900 25.71700
H  -4.08500 23.54000 25.47800
H  -3.17600 24.32300 24.09600
H  -1.52900 17.89000 21.60600
H  -2.37300 15.06600 21.68000
H  -4.20800 18.14100 22.00400
H  -4.32500 16.58200 21.39200
H  -3.61500 17.78100 20.29700
H  -0.15200 15.69700 20.69600
H  -0.23900 14.49200 21.77000
H  1.44200 16.73500 21.83100
H  1.59000 15.30100 22.74700
H  0.57300 16.58000 23.42400
H  -1.43400 11.34100 24.30800
H  -3.12700 10.91400 24.96200
H  -1.62400 10.49100 25.74000
H  -3.51300 13.17000 30.16300
H  -0.14800 12.05500 33.02400
H  -0.84200 10.52300 32.71300
H  -1.68600 11.66200 33.77600
Mg 49.37200 45.04200 42.77500
C  45.97900 45.43000 41.39000
C  49.17900 41.73900 41.75700
C  52.65300 44.94700 43.02600
C  49.36900 48.54500 43.04700
N  47.77700 43.80800 41.69900
C  46.44400 44.12500 41.31300
C  45.86100 42.85200 40.68500
C  46.71500 41.67900 41.26300
C  47.96900 42.43300 41.62500
C  46.07200 40.94100 42.42600
C  45.84900 42.92500 39.05900
C  44.44100 42.85300 38.41800
H  44.08700 43.88400 37.33900
N  50.70200 43.47000 42.58100
C  50.39400 42.17000 42.15800
C  51.65000 41.43300 42.34200
C  52.69600 42.30900 42.75400
C  52.03900 43.68000 42.85700
C  51.77400 39.92600 41.97800
C  54.08100 41.87400 43.26200
O  54.47800 40.77300 43.10500
C  54.97500 42.74800 44.15400
N  50.86800 46.55500 42.99300
C  52.16300 46.26400 43.08600
C  53.10000 47.54000 43.10500
C  52.02200 48.69600 43.22200
C  50.63100 47.92200 43.05700
C  54.10100 47.40800 44.36300
C  52.12700 49.83500 42.23500
C  52.65200 51.22500 42.82900
N  47.99400 46.69400 42.41000
C  48.06800 47.99900 42.68600
C  46.73000 48.64700 42.66800
C  45.96300 47.74000 42.09200
C  46.70100 46.50800 41.94700
C  46.36300 50.00700 42.99600
C  44.66600 47.52700 41.53100
O  43.73500 48.27500 41.34600
C  44.56000 45.99200 41.13500
C  43.51900 45.35200 42.03500
O  42.77400 44.39100 41.74900
O  43.26900 46.02800 43.17700
C  41.88800 45.86600 43.72100
H  49.13900 40.68700 41.46600
H  53.74200 44.94000 42.94500
H  49.34800 49.63400 43.12300
H  44.80900 42.83700 40.97000
H  46.88200 40.89600 40.52300
H  45.99900 39.86400 42.27200
H  45.07100 41.33400 42.60200
H  46.69400 41.09700 43.30700
H  46.30800 42.01300 38.67800
H  46.40500 43.80400 38.73400
H  43.69100 43.06000 39.18100
H  44.17900 41.93200 37.89800
H  52.58600 39.81400 41.26000
H  50.89100 39.43000 41.57600
H  52.13500 39.26500 42.76700
H  55.38000 43.59700 43.60100
H  55.82100 42.10900 44.40700
H  54.37300 43.06400 45.00600
H  53.76700 47.61500 42.24600
H  52.05200 49.12400 44.22400
H  53.83400 46.52900 44.95100
H  54.02200 48.26600 45.03100
H  55.10100 47.31200 43.94100
H  51.18800 50.01300 41.71000
H  52.81400 49.60300 41.42100
H  52.25200 52.06700 42.26500
H  53.73600 51.18700 42.72000
H  52.37500 51.37200 43.87200
H  45.29200 50.19700 42.92200
H  46.92600 50.69600 42.36700
H  46.60500 50.12400 44.05200
H  44.31000 46.04300 40.07600
H  41.18600 46.03400 42.90400
H  41.63200 46.62300 44.46300
H  41.78000 44.97900 44.34500

