158

Mg 26.26400 1.18600 28.16600
C  27.85800 0.89100 31.24900
C  23.27900 1.69800 29.93300
C  24.66000 1.15800 25.28500
C  29.18500 0.24300 26.57700
N  25.67800 1.34400 30.39700
C  26.52300 1.35200 31.42400
C  25.79300 1.57100 32.74500
C  24.30600 1.73700 32.29300
C  24.43900 1.68300 30.78400
C  23.34100 0.70800 32.88500
C  26.32200 2.69800 33.78700
C  26.68900 2.36000 35.21500
H  26.56500 3.41200 36.33800
N  24.25200 1.34500 27.66500
C  23.17900 1.58600 28.54200
C  21.99200 1.74300 27.79300
C  22.30000 1.55000 26.40400
C  23.77800 1.28300 26.37700
C  20.57800 1.95500 28.35700
C  21.38100 1.45900 25.14400
O  21.76000 1.19900 24.02300
C  19.92500 1.82900 25.30100
N  26.85200 0.77000 26.18800
C  26.00500 1.04000 25.16000
C  26.81000 0.93300 23.79000
C  28.25300 0.53000 24.17900
C  28.14000 0.55200 25.71500
C  26.13900 0.01900 22.73100
C  29.38600 1.58100 23.77900
C  29.65300 1.71100 22.27600
N  28.09500 0.67000 28.76000
C  29.16500 0.24700 28.00400
C  30.23900 -0.20300 28.86600
C  29.81500 0.15600 30.15400
C  28.48300 0.68500 30.01100
C  31.59900 -0.70500 28.40800
C  30.16800 0.09900 31.56800
O  31.20800 -0.19800 32.13600
C  28.91400 0.63500 32.28500
C  28.56700 -0.29000 33.35000
O  27.64600 -1.08000 33.35200
O  29.37100 -0.11400 34.47800
C  29.05300 -0.85200 35.61800
H  22.32300 1.81500 30.44900
H  24.16900 1.16100 24.31000
H  30.09900 -0.10700 26.09300
H  25.87300 0.56000 33.14300
H  23.91000 2.73600 32.47500
H  23.84400 0.12600 33.65600
H  22.94400 0.12300 32.05500
H  22.64700 1.33100 33.44900
H  25.54500 3.46200 33.80000
H  27.15400 3.18900 33.28200
H  27.71300 2.04200 35.41100
H  26.08400 1.48400 35.44900
H  19.96100 2.56600 27.69800
H  20.59400 2.49400 29.30400
H  20.14600 0.95600 28.41800
H  19.49800 1.90200 24.30100
H  19.92500 2.87400 25.61200
H  19.36100 1.23700 26.02200
H  26.84800 1.95600 23.41400
H  28.64200 -0.42900 23.83700
H  25.25800 -0.45900 23.16000
H  26.78100 -0.72900 22.26600
H  25.80100 0.64200 21.90400
H  30.37600 1.22300 24.06200
H  29.23000 2.51000 24.32700
H  29.04000 0.96700 21.76800
H  30.66500 1.48800 21.93800
H  29.36100 2.70700 21.94200
H  32.21600 -0.59000 29.29900
H  31.85000 -0.06800 27.56000
H  31.54700 -1.76200 28.14700
H  29.13100 1.59400 32.75500
H  29.26300 -1.88700 35.34700
H  28.04800 -0.75200 36.02800
H  29.69800 -0.49600 36.42100
Mg -3.35400 34.74800 26.88600
C  -4.88400 33.02500 29.49800
C  -1.86500 36.78400 29.28300
C  -2.45200 36.97800 24.45400
C  -5.61500 33.20600 24.61000
N  -3.50000 34.98700 29.18000
C  -3.97600 33.96900 29.97300
C  -3.63400 34.26200 31.43500
C  -2.77600 35.54800 31.42000
C  -2.69200 35.87600 29.87900
C  -3.22400 36.68300 32.32000
C  -2.96500 33.00900 32.13400
C  -3.53900 32.68800 33.49000
H  -2.58500 33.12000 34.59700
N  -2.25800 36.47000 26.83800
C  -1.67400 37.11900 27.95500
C  -0.80900 38.21500 27.46600
C  -0.92800 38.20900 26.05100
C  -1.95300 37.22100 25.70300
C  0.00200 39.05700 28.41700
C  -0.15100 39.14800 25.03600
O  -0.21200 39.04200 23.81900
C  0.86100 40.03400 25.49400
N  -3.90200 35.01200 24.85200
C  -3.39500 35.99700 24.01700
C  -4.12900 36.02400 22.62500
C  -5.00300 34.69900 22.67100
C  -4.84100 34.25600 24.12100
C  -4.91700 37.39200 22.60300
C  -4.47000 33.63000 21.66300
C  -3.20700 32.69100 22.03500
N  -4.79100 33.19500 26.91300
C  -5.68800 32.70200 25.95000
C  -6.40700 31.63900 26.56100
C  -6.08900 31.72400 27.89300
C  -5.18700 32.74300 28.11700
C  -7.38300 30.73600 25.83500
C  -6.36600 31.09400 29.16800
O  -7.00600 30.13700 29.34700
C  -5.63700 31.91000 30.30100
C  -6.71900 32.51600 31.11300
O  -7.72800 33.09000 30.75700
O  -6.46200 32.24400 32.37300
C  -7.50200 32.48600 33.43700
H  -1.19200 37.30500 29.96700
H  -2.18600 37.73500 23.71300
H  -6.39300 32.82100 23.94800
H  -4.55700 34.45700 31.98100
H  -1.74100 35.30200 31.66000
H  -4.10100 36.33300 32.86400
H  -3.41700 37.63600 31.82900
H  -2.35900 36.80900 32.97200
H  -1.95000 33.35900 32.32300
H  -2.81900 32.08900 31.56700
H  -3.64200 31.60400 33.53900
H  -4.49100 33.21000 33.59000
H  1.06300 39.08500 28.17100
H  -0.00200 38.86200 29.49000
H  -0.28900 40.08500 28.20100
H  1.42200 40.39500 24.63100
H  1.63200 39.47800 26.02700
H  0.33700 40.73600 26.14300
H  -3.32600 36.05700 21.88900
H  -6.04700 34.98400 22.53800
H  -5.95000 37.19700 22.31700
H  -4.45800 38.07000 21.88300
H  -5.08800 37.88400 23.56100
H  -4.25800 34.21600 20.76900
H  -5.41100 33.11400 21.47500
H  -2.71600 33.07000 22.93200
H  -2.45700 32.67000 21.24500
H  -3.61500 31.71900 22.31300
H  -8.16300 30.41900 26.52700
H  -6.91900 29.82100 25.46700
H  -7.80400 31.27100 24.98400
H  -4.97400 31.35400 30.96300
H  -6.89200 32.57300 34.33600
H  -8.18000 31.64900 33.59900
H  -8.12900 33.35800 33.25000

