158

Mg 7.33500 3.21300 28.27100
C  8.81100 1.46400 30.80400
C  5.39700 4.87800 30.51300
C  5.86600 4.78200 25.70000
C  9.23200 1.28100 25.98100
N  6.99100 3.01400 30.38600
C  7.87000 2.37300 31.25600
C  7.59900 2.79600 32.74500
C  6.43100 3.82800 32.55500
C  6.23800 3.89600 31.07800
C  5.19800 3.48200 33.47300
C  8.89000 3.32900 33.49600
C  8.61600 4.31700 34.73100
H  9.48500 4.03800 35.89900
N  5.84000 4.59700 28.10000
C  5.16600 5.16100 29.14400
C  4.26500 6.22100 28.66200
C  4.34800 6.18400 27.23400
C  5.36100 5.14000 26.91200
C  3.24500 6.92500 29.54800
C  3.51500 6.93400 26.23700
O  3.65500 6.88600 24.96900
C  2.39800 7.87800 26.73400
N  7.38800 2.98200 26.07600
C  6.80600 3.81200 25.29500
C  7.25800 3.52300 23.86000
C  8.45800 2.62100 23.96200
C  8.30900 2.18400 25.45900
C  6.09800 3.08100 22.94500
C  9.87300 3.32000 23.63500
C  10.54800 4.13900 24.72700
N  8.62100 1.56400 28.29200
C  9.35600 0.93500 27.33500
C  10.35000 0.07500 27.95000
C  10.21400 0.30600 29.31200
C  9.10400 1.10900 29.46000
C  11.15000 -0.91600 27.13000
C  10.62100 -0.14600 30.60400
O  11.49800 -0.93800 30.94100
C  9.85100 0.78300 31.60500
C  9.25300 -0.03600 32.65000
O  8.34700 -0.82500 32.52000
O  9.88400 0.19200 33.86100
C  9.35000 -0.46700 35.11600
H  5.02600 5.59500 31.24800
H  5.51400 5.32500 24.82000
H  9.89300 0.74200 25.29900
H  7.36600 1.89300 33.30900
H  6.83900 4.79400 32.85400
H  5.48300 2.81000 34.28300
H  4.40900 2.92400 32.97000
H  4.74900 4.35600 33.94500
H  9.37000 3.99000 32.77400
H  9.66300 2.60000 33.73800
H  7.57100 4.30100 35.03900
H  8.69300 5.32700 34.32900
H  2.23000 6.74200 29.19700
H  3.36400 8.00100 29.42400
H  3.21400 6.52900 30.56300
H  1.62700 7.44000 27.36800
H  1.78200 8.08400 25.85800
H  2.75900 8.86300 27.03000
H  7.68100 4.43800 23.44700
H  8.24900 1.68100 23.45100
H  5.33400 2.60600 23.56100
H  6.49400 2.28400 22.31500
H  5.73100 3.83400 22.24800
H  9.75700 3.84400 22.68600
H  10.57200 2.52400 23.37900
H  10.65500 5.14300 24.31700
H  11.54500 3.69700 24.73600
H  10.05000 4.05800 25.69300
H  10.52500 -1.31100 26.32900
H  11.36700 -1.69600 27.86000
H  11.95800 -0.24300 26.84100
H  10.54900 1.48800 32.05700
H  9.23300 -1.53900 34.95200
H  8.53400 0.04300 35.62800
H  10.16700 -0.34900 35.82700
Mg 40.24400 10.14800 29.32700
C  42.20800 11.35500 31.96400
C  37.85500 9.18000 31.71300
C  38.32400 8.83900 26.83500
C  42.69500 10.74000 27.02300
N  40.10900 10.12800 31.59400
C  41.01600 10.77500 32.47200
C  40.52600 10.71700 33.90100
C  39.26300 9.74300 33.77900
C  39.03200 9.67800 32.27200
C  39.55300 8.28400 34.34700
C  40.31500 12.15400 34.50000
C  39.65000 12.14300 35.91900
H  40.57700 12.41900 37.13500
N  38.43800 9.05800 29.32900
C  37.61400 8.75400 30.43200
C  36.43100 7.99200 30.02200
C  36.55000 7.96000 28.57800
C  37.80500 8.63600 28.17700
C  35.35100 7.49200 30.96000
C  35.52800 7.41300 27.58100
O  35.69800 7.31200 26.41500
C  34.15200 7.03700 28.12700
N  40.54500 9.72900 27.28800
C  39.50400 9.34500 26.45600
C  39.92900 9.26400 24.95800
C  41.37000 9.79300 25.03800
C  41.59300 10.10800 26.49700
C  39.83000 7.83100 24.43500
C  41.64000 10.95400 24.00400
C  41.48900 12.36200 24.45800
N  42.03100 11.04700 29.44900
C  42.93100 11.16700 28.40300
C  44.24000 11.65800 28.94100
C  43.98800 11.85100 30.37400
C  42.61900 11.39100 30.58100
C  45.46100 11.97100 28.12100
C  44.46100 12.31200 31.65900
O  45.51700 12.82400 32.01600
C  43.36000 11.99800 32.71200
C  43.84500 11.00000 33.70100
O  44.11500 9.82200 33.46800
O  44.04900 11.64800 34.95900
C  44.53000 10.73900 36.03400
H  37.15000 8.94700 32.51400
H  37.67000 8.59400 25.99600
H  43.51500 10.82000 26.30700
H  41.34400 10.19500 34.39900
H  38.38800 10.13600 34.29700
H  38.79900 8.16400 35.12500
H  40.50400 8.25900 34.87800
H  39.62500 7.49900 33.59400
H  39.68100 12.78600 33.87800
H  41.27500 12.66300 34.59600
H  39.23700 11.14800 36.08600
H  38.94600 12.97400 35.87400
H  34.42600 8.06800 30.95100
H  35.82800 7.49800 31.94000
H  34.95100 6.50100 30.74600
H  34.10800 6.16500 28.78000
H  33.58400 6.60400 27.30400
H  33.78200 7.99500 28.49300
H  39.24600 9.99600 24.52700
H  42.17000 9.08400 24.82700
H  39.32100 7.12600 25.09300
H  40.82600 7.39200 24.37000
H  39.40700 7.81400 23.43100
H  41.00800 10.72600 23.14600
H  42.63900 10.88900 23.57300
H  41.26000 12.54200 25.50900
H  40.66000 12.88700 23.98300
H  42.44200 12.85100 24.25700
H  45.35500 11.24000 27.32000
H  46.34700 12.00900 28.75500
H  45.47600 12.98300 27.71600
H  43.11400 12.93100 33.21900
H  45.40400 10.18600 35.69000
H  43.73700 10.06000 36.34600
H  44.89000 11.33200 36.87500

