158

Mg 2.07600 8.33500 24.85800
C  2.60500 10.06100 27.81800
C  2.14600 5.37600 26.70500
C  1.69300 6.56500 22.03400
C  2.52900 11.28300 22.96100
N  2.42200 7.83400 27.00100
C  2.50200 8.70600 28.05000
C  2.58000 7.97600 29.45000
C  2.55600 6.44100 29.03600
C  2.32200 6.51100 27.49400
C  3.83300 5.59400 29.44300
C  1.32100 8.45300 30.32300
C  1.54300 8.65900 31.88200
H  2.73700 8.00600 32.53900
N  1.78300 6.28000 24.41100
C  1.87600 5.25500 25.34600
C  1.77700 3.97800 24.71200
C  1.71600 4.25200 23.28100
C  1.69700 5.75100 23.18300
C  1.83100 2.65100 25.46200
C  1.74200 3.19700 22.11100
O  1.59500 3.55400 20.95200
C  1.96100 1.73800 22.36700
N  2.24500 8.85000 22.77400
C  1.91800 7.96500 21.78000
C  1.82700 8.57000 20.41100
C  2.31300 10.06500 20.74400
C  2.40500 10.07600 22.23600
C  2.47900 7.83500 19.21400
C  1.33200 11.17900 20.20900
C  -0.12300 11.30300 20.78600
N  2.40700 10.29000 25.25100
C  2.54300 11.41700 24.42400
C  2.87700 12.59800 25.21300
C  2.87000 12.09900 26.55200
C  2.50700 10.73600 26.50300
C  3.04400 14.01400 24.61900
C  3.00100 12.47800 27.93500
O  3.21200 13.61700 28.37600
C  2.73600 11.23400 28.81000
C  3.77100 11.15500 29.80100
O  4.83200 10.81000 29.46500
O  3.42400 11.65500 31.03500
C  4.52400 11.82200 31.93700
H  2.13600 4.43200 27.25400
H  1.46600 6.01500 21.11800
H  2.74900 12.18800 22.39200
H  3.51600 8.19700 29.96300
H  1.69900 5.98400 29.53000
H  3.45200 4.75800 30.02900
H  4.55300 6.10900 30.07900
H  4.28500 5.15900 28.55200
H  0.46000 7.83800 30.06300
H  0.91400 9.34500 29.84600
H  0.63100 8.20300 32.26800
H  1.60000 9.71600 32.14300
H  2.85100 2.46400 25.79600
H  1.52200 1.82700 24.81800
H  1.19700 2.54700 26.34300
H  2.77100 1.58200 23.08000
H  2.02400 1.16700 21.44100
H  0.95800 1.51500 22.73100
H  0.79700 8.54600 20.05400
H  3.27400 10.11800 20.23200
H  1.71300 7.60400 18.47400
H  3.00700 6.97200 19.61900
H  3.19200 8.48600 18.70700
H  1.34100 10.98600 19.13600
H  1.84100 12.12500 20.39500
H  -0.79700 11.07100 19.96100
H  -0.21800 12.31500 21.17900
H  -0.28500 10.61000 21.61100
H  2.79400 13.97400 23.55800
H  4.00100 14.49400 24.82300
H  2.29400 14.70900 24.99600
H  1.75500 11.28900 29.28100
H  4.08300 12.31600 32.80300
H  5.28000 12.47100 31.49500
H  5.03200 10.90200 32.22800
Mg 17.31400 -1.61500 28.30800
C  16.81200 0.74000 30.89800
C  19.12600 -3.51900 30.62800
C  18.53600 -3.60700 25.83000
C  16.48900 0.79300 25.98100
N  17.78700 -1.49300 30.64300
C  17.57300 -0.32500 31.42700
C  18.27600 -0.48100 32.75500
C  19.12900 -1.79200 32.61200
C  18.65100 -2.27600 31.24600
C  20.65100 -1.47000 32.60500
C  17.14000 -0.65300 33.75900
C  17.47000 -0.78300 35.22500
H  18.68700 -0.09900 35.81700
N  18.38200 -3.49200 28.30800
C  19.02400 -4.04600 29.32500
C  19.67900 -5.26400 28.93500
C  19.46200 -5.41900 27.49600
C  18.75500 -4.12900 27.14000
C  20.39800 -6.27400 29.84300
C  19.83800 -6.52700 26.37700
O  19.53000 -6.49800 25.20900
C  20.70700 -7.61000 26.84500
N  17.42600 -1.42000 26.12800
C  18.01700 -2.36000 25.34600
C  18.07600 -1.87300 23.93200
C  17.37400 -0.46800 23.92700
C  17.02200 -0.34600 25.42600
C  19.54900 -1.77400 23.45700
C  16.03600 -0.33100 23.06800
C  14.69700 -0.78400 23.63100
N  16.53900 0.24500 28.32100
C  16.22800 1.12600 27.34700
C  15.70000 2.38500 27.89200
C  15.85000 2.18300 29.30800
C  16.39900 0.91100 29.51700
C  15.18700 3.54500 27.10700
C  15.60200 2.82700 30.57900
O  14.99100 3.88000 30.79100
C  16.26300 1.88900 31.65100
C  17.25300 2.67200 32.37500
O  18.37000 2.69100 32.02000
O  16.66000 3.36400 33.42800
C  17.49500 4.28500 34.08500
H  19.66600 -4.16400 31.32500
H  19.03900 -4.23700 25.09300
H  16.52100 1.65300 25.31000
H  18.93800 0.38000 32.85000
H  18.91100 -2.60600 33.30400
H  21.30700 -2.28200 32.29200
H  20.95000 -1.10400 33.58700
H  20.69700 -0.53400 32.04900
H  16.61800 -1.57600 33.50500
H  16.50500 0.23300 33.76200
H  17.37100 -1.83100 35.50700
H  16.61800 -0.26600 35.66500
H  21.47200 -6.09400 29.78000
H  20.25500 -7.33400 29.63000
H  19.95600 -6.12000 30.82700
H  21.62200 -7.17100 27.24300
H  20.93200 -8.25600 25.99600
H  20.11600 -8.18200 27.56000
H  17.56700 -2.56300 23.25900
H  18.02100 0.39500 23.77200
H  19.76400 -0.78600 23.05100
H  19.71100 -2.54200 22.70100
H  20.32700 -1.99500 24.18800
H  16.36200 -0.72000 22.10300
H  16.00000 0.74600 22.90300
H  14.06100 0.08400 23.80000
H  14.79000 -1.27400 24.60100
H  14.16800 -1.43900 22.93900
H  14.60500 4.13700 27.81200
H  14.52000 3.31900 26.27500
H  16.02200 4.16800 26.78500
H  15.52100 1.49500 32.34500
H  18.06400 4.92500 33.41000
H  18.20000 3.78200 34.74800
H  16.93700 4.96500 34.72900

