158

Mg 26.58800 49.79500 26.68000
C  24.34600 50.86700 29.13500
C  28.63600 48.72200 29.15900
C  28.72300 48.91200 24.34100
C  24.54400 51.41500 24.33300
N  26.28900 49.45300 28.90500
C  25.35700 50.03800 29.68000
C  25.54000 49.68100 31.17300
C  26.99900 49.05000 31.23000
C  27.37200 49.02200 29.70000
C  28.07400 49.77900 32.03100
C  24.41900 48.74000 31.71200
C  23.79900 49.27700 33.11200
H  24.82400 49.89100 34.18000
N  28.38400 48.90200 26.76600
C  29.08400 48.54200 27.83200
C  30.32800 47.87500 27.47200
C  30.44800 47.94800 26.04100
C  29.15500 48.66700 25.63600
C  31.37300 47.29400 28.38500
C  31.61800 47.48000 25.07300
O  31.55000 47.78500 23.86600
C  32.86900 46.82100 25.60000
N  26.63300 50.15400 24.62300
C  27.61400 49.57000 23.89400
C  27.25600 49.61900 22.42000
C  25.85400 50.34000 22.35100
C  25.60800 50.63600 23.83700
C  28.27900 50.23600 21.42400
C  24.69000 49.55100 21.60200
C  23.61000 50.54400 21.07000
N  24.76000 50.85400 26.63700
C  24.20500 51.61500 25.67000
C  23.07100 52.27200 26.16900
C  23.10000 52.06500 27.53000
C  24.17900 51.25700 27.77300
C  22.10200 53.17700 25.48300
C  22.44000 52.41900 28.77400
O  21.42100 53.09700 28.99900
C  23.33200 51.70800 29.82800
C  23.89600 52.85100 30.61400
O  24.91800 53.44900 30.30100
O  23.08300 53.07300 31.75900
C  23.50900 54.24000 32.43000
H  29.28900 48.28200 29.91600
H  29.45200 48.65500 23.56900
H  23.89300 51.89500 23.59900
H  25.55300 50.66900 31.63300
H  26.92100 47.98600 31.45400
H  28.60800 50.58200 31.52200
H  28.80300 48.99400 32.23500
H  27.65400 50.13600 32.97100
H  24.86900 47.75600 31.84900
H  23.66100 48.62500 30.93800
H  23.39500 48.32700 33.46000
H  22.99600 49.95600 32.82400
H  31.58200 46.25800 28.11800
H  31.07700 47.18900 29.42900
H  32.24100 47.94200 28.26400
H  33.26200 47.51300 26.34400
H  33.62800 46.63400 24.84000
H  32.30200 45.97700 25.99300
H  27.09900 48.65300 21.94000
H  25.98500 51.37100 22.02100
H  28.01000 51.28300 21.28300
H  28.19800 49.77000 20.44200
H  29.29100 50.19600 21.82800
H  24.24400 49.03100 22.45000
H  25.05300 48.71700 21.00100
H  24.04200 51.53000 20.89800
H  22.73700 50.65300 21.71400
H  23.17500 50.16600 20.14600
H  22.68300 53.56000 24.64500
H  21.76500 54.01500 26.09300
H  21.32000 52.52200 25.09800
H  22.79200 51.06400 30.52300
H  22.67500 54.56300 33.05400
H  23.84300 54.98800 31.71100
H  24.39800 53.90700 32.96600
Mg 0.27000 42.23300 25.12300
C  2.00700 42.47300 28.16100
C  -2.55200 41.30700 27.07700
C  -1.50200 41.87300 22.42800
C  3.19100 42.67600 23.43500
N  -0.17600 41.83100 27.34100
C  0.64200 42.21200 28.38200
C  -0.08900 42.11800 29.72700
C  -1.42600 41.51600 29.33300
C  -1.41000 41.58200 27.81200
C  -1.72900 40.05100 29.92300
C  -0.14700 43.60300 30.40100
C  0.42600 43.68500 31.85800
H  -0.68100 44.04500 32.87800
N  -1.76500 41.65000 24.72500
C  -2.69800 41.22000 25.68600
C  -3.91100 40.96100 24.98300
C  -3.65000 41.12400 23.62500
C  -2.27600 41.58200 23.53800
C  -5.13800 40.49200 25.62900
C  -4.50400 40.88400 22.41300
O  -4.16500 40.94500 21.24100
C  -5.99100 40.56200 22.66000
N  0.90700 41.94800 23.16700
C  -0.09700 41.93900 22.23200
C  0.54100 42.11300 20.77200
C  2.04000 42.40300 21.07600
C  2.06400 42.44000 22.65000
C  0.15300 40.93500 19.73300
C  2.57200 43.56700 20.24600
C  2.32800 44.99400 20.74800
N  2.25800 42.42200 25.66200
C  3.33200 42.68100 24.81800
C  4.51100 42.84500 25.69700
C  4.03500 42.70900 27.00600
C  2.61900 42.48200 26.93000
C  5.87600 43.23800 25.24800
C  4.46900 42.75500 28.37000
O  5.59100 42.79500 28.80400
C  3.10800 42.60100 29.19400
C  3.28000 41.49900 30.18700
O  3.18600 40.25800 30.08000
O  3.52300 42.08700 31.39500
C  3.51700 41.21100 32.59000
H  -3.50100 41.10300 27.57600
H  -2.01100 41.91300 21.46300
H  4.17700 42.82600 22.99000
H  0.37700 41.40700 30.40900
H  -2.28600 42.12200 29.61900
H  -0.90000 39.75300 30.56500
H  -1.76800 39.24400 29.19000
H  -2.65200 39.94400 30.49300
H  -1.18400 43.92600 30.49600
H  0.45900 44.34000 29.87500
H  1.24400 44.39100 32.00100
H  0.84000 42.70900 32.11200
H  -5.53800 39.60400 25.13900
H  -5.75300 41.39200 25.63400
H  -4.97200 40.20500 26.66800
H  -6.21000 39.61700 23.15600
H  -6.54400 40.52500 21.72100
H  -6.42500 41.27000 23.36500
H  0.17500 43.03400 20.31900
H  2.67500 41.53700 20.89000
H  -0.79100 40.58800 20.15300
H  0.86600 40.11000 19.71400
H  0.08900 41.33500 18.72100
H  2.17800 43.49200 19.23200
H  3.63900 43.35200 20.20500
H  1.53500 45.07200 21.49100
H  2.12700 45.60600 19.86800
H  3.17000 45.33900 21.34900
H  5.67900 44.16000 24.70100
H  6.25900 42.48200 24.56300
H  6.64500 43.38900 26.00500
H  2.98900 43.56200 29.69600
H  4.54500 40.87200 32.71800
H  2.80200 40.39100 32.51600
H  3.18400 41.76200 33.47000

