158

Mg 36.24000 49.69500 24.48300
C  36.27300 47.80700 27.23100
C  35.07000 52.37800 26.16400
C  35.73400 51.29100 21.47300
C  37.26600 46.75700 22.61900
N  35.59600 50.00400 26.36900
C  35.83100 49.09300 27.41600
C  35.57900 49.74700 28.76800
C  35.07700 51.14900 28.42500
C  35.26700 51.16700 26.92100
C  33.65800 51.42000 28.87400
C  36.81600 49.75000 29.74400
C  36.63300 49.30000 31.22900
H  35.19900 49.34300 31.74300
N  35.56000 51.61600 23.89000
C  35.22600 52.63100 24.75800
C  34.94900 53.85900 23.98300
C  35.09800 53.54700 22.57200
C  35.43200 52.08400 22.57600
C  34.64600 55.12300 24.71500
C  34.99400 54.48400 21.32700
O  35.10100 54.04600 20.19600
C  34.71000 55.89000 21.47000
N  36.48400 49.06600 22.40000
C  36.21200 49.93300 21.35500
C  36.39800 49.28200 19.92100
C  36.99700 47.89300 20.34100
C  36.80300 47.83700 21.85000
C  35.13700 49.30100 19.03700
C  38.49200 47.55500 19.90600
C  39.65800 48.10300 20.73500
N  36.58600 47.56600 24.79200
C  37.12600 46.57000 23.96700
C  37.46900 45.38700 24.80400
C  37.12200 45.78900 26.11700
C  36.56900 47.11400 26.03000
C  38.08700 44.08400 24.31500
C  37.18400 45.51200 27.50200
O  37.61600 44.50700 28.00600
C  36.63700 46.74900 28.35600
C  35.47800 46.35000 29.16600
O  34.33500 46.36300 28.83500
O  36.02800 45.87900 30.31600
C  35.02100 45.32200 31.28300
H  34.74500 53.24800 26.73800
H  35.70400 51.85900 20.54100
H  37.58000 45.92500 21.98400
H  34.79000 49.17300 29.25500
H  35.68600 51.96600 28.81000
H  33.60600 52.29900 29.51700
H  33.23000 50.52800 29.33100
H  33.09600 51.50700 27.94400
H  37.10800 50.79700 29.82000
H  37.60000 49.11000 29.33700
H  37.20700 49.97700 31.86300
H  36.95000 48.25800 31.26500
H  33.63400 55.42700 24.45000
H  35.28000 55.93300 24.35400
H  34.67700 55.05500 25.80200
H  35.73000 56.27500 21.47400
H  34.33800 56.28200 22.41700
H  34.22100 56.28700 20.58000
H  37.16000 49.85500 19.39200
H  36.41500 47.08800 19.89100
H  34.92700 50.20600 18.46800
H  34.32900 49.09200 19.73800
H  35.23900 48.47200 18.33600
H  38.66400 48.00300 18.92700
H  38.62000 46.47600 19.81500
H  40.25600 48.74200 20.08500
H  40.32300 47.33900 21.13800
H  39.40300 48.78600 21.54500
H  39.16900 44.09500 24.45300
H  37.78100 43.88800 23.28800
H  37.71500 43.34700 25.02700
H  37.45400 47.13900 28.96400
H  34.02900 45.11100 30.88500
H  35.00700 46.07800 32.06800
H  35.29000 44.35900 31.71800
Mg -12.20400 16.59600 41.82800
C  -9.67500 14.32600 41.04900
C  -10.34400 19.00600 40.15300
C  -14.94900 18.49600 41.62900
C  -14.31100 13.79700 42.58700
N  -10.26100 16.47500 40.55100
C  -9.36700 15.54600 40.46600
C  -8.05000 16.01900 39.82900
C  -8.28500 17.53300 39.65500
C  -9.76000 17.70800 40.14100
C  -7.26100 18.49500 40.25900
C  -7.70500 15.15700 38.60400
C  -6.16200 15.10400 38.46300
H  -5.53200 15.86700 37.28200
N  -12.55700 18.51100 41.09300
C  -11.72300 19.39500 40.45700
C  -12.33400 20.70600 40.36500
C  -13.70600 20.52100 40.75900
C  -13.77900 19.13300 41.20600
C  -11.66600 21.90100 39.79100
C  -14.78500 21.65900 40.84000
O  -14.55300 22.72300 40.31200
C  -16.21800 21.59100 41.41200
N  -14.39700 16.27100 42.24400
C  -15.29300 17.21000 42.01000
C  -16.74600 16.71300 42.29600
C  -16.50700 15.13900 42.60400
C  -14.98900 15.01700 42.51400
C  -17.48600 17.63900 43.30800
C  -17.36300 14.15000 41.69900
C  -18.70500 13.70900 42.25500
N  -12.02600 14.59000 42.11300
C  -12.98100 13.56500 42.39300
C  -12.36900 12.27400 42.43400
C  -11.05100 12.53000 42.03300
C  -10.91000 13.90700 41.71000
C  -13.04200 11.07100 42.92000
C  -9.74400 11.99600 41.88300
O  -9.29000 10.91100 42.17700
C  -8.78900 13.06200 41.20500
C  -7.59300 13.44000 41.94400
O  -7.35800 13.73700 43.10200
O  -6.56000 13.34500 41.05400
C  -5.27300 13.84900 41.53200
H  -9.67300 19.81500 39.85500
H  -15.80600 19.17000 41.56700
H  -15.01300 12.97700 42.75000
H  -7.35100 15.81000 40.63900
H  -8.41600 17.70800 38.58700
H  -7.60000 19.04700 41.13500
H  -6.79900 19.09500 39.47500
H  -6.45100 17.84800 40.59600
H  -8.09000 15.74200 37.76900
H  -8.15500 14.16400 38.58600
H  -5.76700 14.09100 38.37700
H  -5.68400 15.62000 39.29600
H  -12.25300 22.81900 39.81600
H  -11.58000 21.59400 38.74900
H  -10.70700 22.14700 40.24900
H  -16.81700 21.02000 40.70200
H  -16.51700 22.63900 41.44500
H  -16.30600 20.99300 42.32000
H  -17.30900 16.81900 41.36800
H  -16.90500 15.04000 43.61400
H  -18.25700 18.13400 42.71700
H  -16.77400 18.39400 43.63900
H  -18.03100 17.22000 44.15500
H  -16.81600 13.27400 41.34900
H  -17.57600 14.72700 40.79900
H  -19.41400 14.13200 41.54300
H  -18.83700 14.04600 43.28300
H  -18.63400 12.62300 42.31600
H  -13.92800 11.02200 42.28800
H  -13.48100 11.14000 43.91600
H  -12.45600 10.15200 42.92800
H  -8.60200 12.64000 40.21800
H  -5.15600 14.92500 41.39900
H  -4.45800 13.41700 40.95000
H  -4.90100 13.63000 42.53300

