158

Mg -1.23700 17.61700 27.05800
C  -1.47800 15.23700 29.65100
C  -2.04400 20.08700 29.17200
C  -1.35800 19.64900 24.24600
C  -1.55300 14.80200 24.78300
N  -1.52700 17.59200 29.09100
C  -1.67600 16.54800 30.01700
C  -2.09800 17.07700 31.37800
C  -2.32500 18.62400 31.20000
C  -1.94100 18.79000 29.66200
C  -3.70700 19.19100 31.54500
C  -1.10200 16.59300 32.44000
C  -0.76900 17.43700 33.65100
H  -0.44900 16.81200 35.06900
N  -1.57800 19.53900 26.79400
C  -1.88500 20.42800 27.80900
C  -1.79400 21.74900 27.30100
C  -1.62000 21.62200 25.79900
C  -1.52800 20.20200 25.50400
C  -1.98600 22.90700 28.12000
C  -1.37900 22.74600 24.81400
O  -1.36100 22.60800 23.61700
C  -1.01200 24.16800 25.33600
N  -1.41900 17.29800 24.84900
C  -1.36900 18.30200 23.93500
C  -1.26300 17.82300 22.52700
C  -1.22700 16.26600 22.67100
C  -1.42100 16.08100 24.18900
C  -2.40400 18.41400 21.56000
C  0.15500 15.68600 22.17900
C  1.52600 16.10700 22.83000
N  -1.30300 15.38200 27.18300
C  -1.47400 14.48200 26.18100
C  -1.66700 13.13000 26.75500
C  -1.57800 13.39800 28.09800
C  -1.39500 14.80300 28.32300
C  -2.16600 11.88900 25.98300
C  -1.73000 12.77100 29.35700
O  -1.90600 11.64600 29.76200
C  -1.78200 13.99700 30.42700
C  -0.76400 13.65100 31.44000
O  0.42700 14.12000 31.46400
O  -1.32000 12.80300 32.39500
C  -0.40300 12.30100 33.41100
H  -2.16000 20.92100 29.86700
H  -1.29400 20.31300 23.38200
H  -1.64100 13.93100 24.13100
H  -3.04500 16.59200 31.61300
H  -1.64600 19.22700 31.80200
H  -4.23600 18.48500 32.18400
H  -4.25100 19.38900 30.62100
H  -3.47100 20.16900 31.96300
H  -0.13200 16.39400 31.98500
H  -1.54200 15.72900 32.93800
H  -1.61500 18.11700 33.75200
H  0.03800 18.02300 33.21000
H  -2.82100 23.41500 27.63700
H  -1.04700 23.45900 28.15400
H  -2.17500 22.70500 29.17400
H  -0.00700 24.03800 25.73800
H  -1.70300 24.56800 26.07800
H  -0.94500 24.80200 24.45200
H  -0.31700 18.13200 22.08200
H  -2.09300 15.85900 22.14800
H  -1.89900 19.07600 20.85700
H  -3.01400 19.04000 22.21100
H  -3.02600 17.70700 21.01100
H  0.29800 15.93600 21.12700
H  0.15000 14.59900 22.26600
H  1.36600 17.02000 23.40400
H  2.17500 16.56800 22.08600
H  2.00600 15.25800 23.31800
H  -1.48400 11.56800 25.19500
H  -3.11300 12.09400 25.48400
H  -2.39700 11.03000 26.61300
H  -2.79600 13.89900 30.81500
H  -0.92300 11.69700 34.15500
H  0.01900 13.15500 33.94100
H  0.33900 11.61800 32.99700
Mg 35.70100 48.25900 24.98700
C  36.10800 46.41800 27.99400
C  34.11900 50.81500 26.76900
C  35.22800 49.76100 22.15900
C  36.79700 45.43000 23.20000
N  35.12600 48.51900 27.16600
C  35.50800 47.67600 28.20000
C  35.23800 48.41000 29.53000
C  34.39000 49.65000 29.06900
C  34.42900 49.65700 27.56600
C  32.96600 49.55800 29.60200
C  36.55700 48.87700 30.18700
C  36.61600 48.58500 31.68400
H  35.26500 48.67500 32.42400
N  34.82800 50.11600 24.48700
C  34.32400 51.05900 25.36600
C  33.87900 52.29200 24.55500
C  34.34200 52.04400 23.18600
C  34.84600 50.60600 23.18900
C  33.30400 53.53600 25.12800
C  34.28800 52.92300 21.88300
O  34.77100 52.63000 20.82200
C  33.36100 54.10000 21.91200
N  35.69300 47.59300 22.97700
C  35.53400 48.43300 22.01600
C  35.84800 47.82100 20.65900
C  36.72500 46.65600 21.07000
C  36.41000 46.52600 22.52600
C  34.58300 47.42900 19.79800
C  38.26000 46.81100 20.67100
C  39.16600 47.49700 21.70900
N  36.36800 46.31400 25.42300
C  36.84900 45.31200 24.62400
C  37.22700 44.15000 25.40700
C  37.01800 44.57800 26.75800
C  36.43000 45.88400 26.69000
C  37.64800 42.77400 24.85000
C  37.01700 44.16600 28.17200
O  37.40200 43.15300 28.68200
C  36.41900 45.34000 29.01900
C  35.19400 44.90400 29.70100
O  34.11400 44.80300 29.18900
O  35.43600 44.84300 31.01400
C  34.23300 44.56400 31.78000
H  33.67700 51.65000 27.31600
H  35.19700 50.24800 21.18200
H  37.13000 44.59900 22.57500
H  34.68400 47.69200 30.13400
H  34.79400 50.62700 29.33400
H  32.84300 50.39300 30.29200
H  32.78500 48.59200 30.07300
H  32.18300 49.56900 28.84300
H  36.62200 49.94700 29.98700
H  37.43100 48.37700 29.77000
H  37.31000 49.29600 32.13100
H  36.98600 47.56700 31.81000
H  33.83700 54.40400 24.73800
H  33.46800 53.68100 26.19600
H  32.25100 53.55800 24.84500
H  33.69800 54.79800 22.67800
H  32.33500 53.79300 22.11600
H  33.33500 54.73400 21.02600
H  36.40100 48.62000 20.16600
H  36.46800 45.77300 20.48400
H  33.67100 47.52900 20.38700
H  34.59700 46.49300 19.23900
H  34.46000 48.19300 19.03000
H  38.39700 47.38400 19.75400
H  38.49800 45.78700 20.38100
H  38.71100 47.47600 22.69900
H  39.26000 48.55100 21.44900
H  40.11200 46.95600 21.69200
H  37.31500 42.79400 23.81200
H  36.98000 42.08500 25.36800
H  38.67900 42.48200 25.05100
H  37.15300 45.65000 29.76300
H  34.12100 43.49000 31.62900
H  33.43900 45.21800 31.41800
H  34.41000 44.75800 32.83800

