158

Mg 49.04700 16.88800 29.27300
C  46.90000 16.75700 31.98300
C  51.30900 18.73400 31.04500
C  50.83600 17.14900 26.44700
C  46.24500 15.62500 27.30900
N  49.02800 17.73400 31.20900
C  48.08900 17.51500 32.19100
C  48.58400 18.02700 33.51600
C  49.85300 18.82700 33.17400
C  50.13100 18.41100 31.76500
C  49.66300 20.38400 33.24700
C  48.83900 16.92000 34.53200
C  48.35800 17.24000 35.97500
H  47.78100 18.60400 36.24300
N  50.95000 17.63500 28.85800
C  51.72100 18.32000 29.76100
C  52.98300 18.70800 29.11300
C  52.92700 18.16000 27.81400
C  51.56200 17.59800 27.61500
C  54.00300 19.64400 29.84000
C  53.97000 18.12900 26.65100
O  53.82800 17.61700 25.54900
C  55.29000 18.91400 26.86200
N  48.46400 16.59900 27.14300
C  49.49400 16.79500 26.22700
C  49.00500 16.61100 24.81600
C  47.72000 15.81000 25.08100
C  47.41400 16.05300 26.60200
C  48.71500 17.77900 23.87300
C  47.87400 14.32100 24.73600
C  46.70600 13.53800 24.00200
N  47.01900 16.20700 29.57000
C  46.02400 15.70400 28.69800
C  44.92900 15.31700 29.50600
C  45.18400 15.75600 30.77600
C  46.48500 16.29900 30.73700
C  43.71100 14.62300 29.06200
C  44.64400 15.80400 32.07100
O  43.58700 15.39900 32.52900
C  45.76200 16.40800 32.98600
C  45.10400 17.63000 33.51700
O  45.08800 18.77300 32.99000
O  44.33000 17.13000 34.57800
C  43.34600 18.12400 35.07700
H  52.03700 19.38200 31.53700
H  51.38400 17.07800 25.50500
H  45.58600 15.05300 26.65200
H  47.76200 18.68800 33.79000
H  50.64300 18.77300 33.92300
H  48.62700 20.53000 33.55200
H  49.72600 20.84800 32.26200
H  50.39900 20.76400 33.95500
H  49.92300 16.83200 34.60600
H  48.41800 15.94500 34.28500
H  49.16100 16.94800 36.65000
H  47.51200 16.62100 36.27300
H  54.65400 18.99000 30.42000
H  53.49700 20.43300 30.39600
H  54.60900 20.32400 29.24200
H  55.97900 18.84100 26.02100
H  55.81700 18.43400 27.68700
H  55.05000 19.95100 27.09800
H  49.70300 15.95800 24.29200
H  46.94300 16.09500 24.37200
H  48.91400 17.52700 22.83200
H  49.42300 18.58300 24.07800
H  47.72100 18.18800 24.05100
H  48.07400 13.88700 25.71600
H  48.76200 14.18900 24.11800
H  47.06800 12.71800 23.38200
H  46.12700 14.21200 23.37100
H  46.00900 13.10800 24.72100
H  43.96600 13.79400 28.40200
H  43.00000 15.26000 28.53600
H  43.24600 14.20900 29.95700
H  46.00700 15.63800 33.71800
H  43.72600 18.99800 35.60700
H  42.61800 17.59200 35.68900
H  42.76300 18.39900 34.19800
Mg -12.14800 37.71600 42.35600
C  -10.05500 35.01400 41.50000
C  -9.93200 39.79900 40.63300
C  -14.58700 39.91800 42.31300
C  -14.49800 35.18100 43.45300
N  -10.29800 37.40400 40.94600
C  -9.61200 36.19800 40.89000
C  -8.33100 36.40400 40.08100
C  -8.13900 37.95900 40.07100
C  -9.51500 38.44300 40.59500
C  -7.05400 38.39300 41.01000
C  -8.40400 35.72900 38.69400
C  -7.16700 34.89000 38.40400
H  -6.11800 35.41300 37.50900
N  -12.18300 39.64000 41.71000
C  -11.11600 40.38300 41.11800
C  -11.61900 41.78800 41.07800
C  -12.94400 41.82000 41.56700
C  -13.34100 40.45300 41.84500
C  -10.73300 42.85200 40.60200
C  -13.84600 43.05000 41.65200
O  -13.43800 44.12800 41.19800
C  -15.18600 43.12900 42.29000
N  -14.32100 37.56900 42.40400
C  -15.01000 38.68500 42.61500
C  -16.43900 38.39800 43.11900
C  -16.39900 36.90100 43.45200
C  -15.02400 36.46600 43.06300
C  -16.94100 39.38000 44.25500
C  -17.50000 35.96700 42.78500
C  -18.26000 34.98300 43.78900
N  -12.25200 35.57400 42.61600
C  -13.16200 34.72700 43.17200
C  -12.60400 33.42700 43.35100
C  -11.36200 33.42100 42.69400
C  -11.24400 34.79200 42.18700
C  -13.27600 32.33300 44.13000
C  -10.25000 32.64500 42.21400
O  -9.96300 31.44300 42.31400
C  -9.33900 33.64500 41.44600
C  -7.95300 33.60700 41.93500
O  -7.15200 32.72200 41.60000
O  -7.65300 34.60800 42.76800
C  -6.28600 34.60800 43.40300
H  -9.17200 40.49600 40.27400
H  -15.33800 40.68600 42.50400
H  -15.15300 34.55900 44.06700
H  -7.56400 35.91500 40.68200
H  -7.97600 38.31700 39.05400
H  -7.48800 38.93000 41.85400
H  -6.34500 38.99800 40.44500
H  -6.51900 37.62200 41.56400
H  -8.49400 36.47200 37.90200
H  -9.24900 35.07900 38.46600
H  -7.55800 33.96400 37.98300
H  -6.70600 34.50700 39.31500
H  -9.66600 42.63100 40.62900
H  -10.81100 43.69700 41.28600
H  -10.98600 43.17900 39.59300
H  -16.04800 42.91400 41.65700
H  -15.28700 44.15100 42.65500
H  -15.31000 42.46500 43.14600
H  -17.14400 38.54700 42.30100
H  -16.51200 36.93900 44.53600
H  -16.46800 40.35200 44.11300
H  -16.70200 38.96200 45.23200
H  -17.98500 39.66900 44.13200
H  -16.98600 35.31200 42.08200
H  -18.21400 36.55300 42.20700
H  -18.37100 34.01000 43.31000
H  -19.16400 35.54100 44.03200
H  -17.62400 34.96800 44.67400
H  -12.68800 31.45100 44.38400
H  -14.13000 31.98400 43.54800
H  -13.62900 32.76900 45.06500
H  -9.37000 33.26700 40.42400
H  -5.62200 35.31400 42.90400
H  -5.76100 33.65300 43.39000
H  -6.50200 35.02400 44.38700

