158

Mg 44.14000 3.40300 47.50700
C  41.71400 5.88000 46.76300
C  41.55000 1.12200 47.19000
C  46.47800 0.95200 47.56800
C  46.57300 5.71200 46.76700
N  41.88600 3.57700 47.20300
C  41.09900 4.67400 46.91800
C  39.69200 4.28900 46.50100
C  39.64700 2.91400 47.21000
C  41.12200 2.48600 47.14100
C  39.08600 2.81200 48.60300
C  39.47100 4.32400 44.97600
C  38.31700 5.15900 44.41100
H  38.61700 6.41700 43.61300
N  44.06100 1.26600 47.40600
C  42.89000 0.50200 47.32800
C  43.28900 -0.82900 47.49000
C  44.72000 -0.90000 47.63600
C  45.17500 0.46600 47.53600
C  42.37600 -1.94500 47.34800
C  45.62900 -2.16000 47.65600
O  45.10600 -3.27100 47.65700
C  47.08400 -2.12600 47.52300
N  46.22900 3.35000 47.04200
C  47.00500 2.28000 47.25100
C  48.47700 2.60900 47.28400
C  48.52100 4.08100 46.97800
C  47.03800 4.42900 46.94500
C  49.12700 2.30000 48.65700
C  49.34200 4.61000 45.75200
C  50.75500 5.15800 46.02500
N  44.15500 5.45900 47.01500
C  45.25900 6.25200 46.76200
C  44.78000 7.59700 46.66600
C  43.40700 7.49400 46.61800
C  43.08500 6.18500 46.81500
C  45.55700 8.89500 46.45600
C  42.11000 8.26500 46.54800
O  41.82200 9.45500 46.59000
C  41.03600 7.16400 46.59600
C  40.08100 7.37000 47.68300
O  40.42100 7.40700 48.86900
O  38.74800 7.53600 47.28300
C  37.81300 7.56900 48.40100
H  40.74300 0.39500 47.08000
H  47.31000 0.28500 47.80100
H  47.38700 6.43900 46.71700
H  38.98500 5.03800 46.85800
H  39.16500 2.14000 46.61200
H  38.50500 3.66300 48.95800
H  39.90400 2.63800 49.30200
H  38.45500 1.92400 48.65900
H  39.19600 3.30400 44.70600
H  40.38100 4.48900 44.39900
H  37.64300 5.47600 45.20700
H  37.83000 4.37500 43.83100
H  41.39900 -1.66600 46.95300
H  42.15600 -2.44600 48.29100
H  42.77900 -2.74400 46.72600
H  47.49000 -1.46800 46.75500
H  47.53000 -3.12000 47.46900
H  47.39700 -1.78900 48.51100
H  49.06000 2.04600 46.55500
H  48.77800 4.67000 47.85800
H  48.37500 2.25300 49.44400
H  49.88100 3.07600 48.78900
H  49.78800 1.43600 48.59100
H  48.80700 5.16400 44.98100
H  49.53400 3.65000 45.27200
H  50.77900 5.16600 47.11500
H  50.92400 6.14600 45.59800
H  51.54400 4.47700 45.70800
H  46.31600 9.02300 47.22800
H  44.99100 9.81100 46.62300
H  46.17300 8.93400 45.55800
H  40.53900 7.21500 45.62800
H  37.62000 8.61000 48.65700
H  38.10500 6.94100 49.24300
H  36.85900 7.16700 48.05800
Mg -11.05700 17.47200 41.35700
C  -7.85600 16.01300 40.97100
C  -9.81300 20.51700 40.86800
C  -14.28600 18.66500 41.29200
C  -12.29100 14.19300 41.24100
N  -9.04600 18.15000 41.08300
C  -7.91000 17.39500 40.95200
C  -6.67800 18.32000 40.92900
C  -7.35000 19.79100 41.08800
C  -8.84500 19.43900 41.04000
C  -6.86500 20.54500 42.40600
C  -5.95200 18.22300 39.52300
C  -4.46900 17.71700 39.54200
H  -4.08100 16.53100 38.62000
N  -11.93400 19.32800 41.24200
C  -11.22800 20.44400 40.92800
C  -12.14300 21.55500 40.72000
C  -13.45600 21.07500 40.95600
C  -13.27000 19.60900 41.18600
C  -11.71900 22.94700 40.23500
C  -14.72000 21.85500 40.84900
O  -14.71900 23.02600 40.51100
C  -16.08600 21.22800 41.22000
N  -12.98200 16.55800 41.25800
C  -14.14000 17.26600 41.37400
C  -15.36200 16.35600 41.23400
C  -14.72400 14.98100 41.53400
C  -13.17800 15.21300 41.35100
C  -16.59900 16.66700 42.17900
C  -15.31000 13.70300 40.83300
C  -15.39700 12.44900 41.58400
N  -10.25600 15.44700 41.07500
C  -10.85000 14.22000 41.12000
C  -9.89100 13.12100 40.91500
C  -8.68400 13.84600 40.99900
C  -8.97900 15.23800 41.04000
C  -10.19600 11.66000 40.75600
C  -7.21500 13.64500 41.24000
O  -6.55700 12.63100 41.24000
C  -6.65300 15.12000 41.22400
C  -5.82400 15.36300 42.48400
O  -4.56200 15.34900 42.49200
O  -6.53600 15.42800 43.63300
C  -5.70700 15.68300 44.79000
H  -9.42000 21.53400 40.80300
H  -15.31600 18.95500 41.07300
H  -12.64900 13.16200 41.26000
H  -6.16600 18.01200 41.84100
H  -7.16200 20.38900 40.19600
H  -7.63800 20.54600 43.17500
H  -6.54200 21.54500 42.11500
H  -6.01000 19.95100 42.72800
H  -6.07700 19.14300 38.95200
H  -6.51700 17.43700 39.02200
H  -4.18200 17.31200 40.51300
H  -3.79700 18.56900 39.44400
H  -10.82900 22.66300 39.67200
H  -11.55200 23.64300 41.05700
H  -12.50200 23.49300 39.70900
H  -16.31600 20.53200 40.41400
H  -16.85300 22.00200 41.21600
H  -15.99400 20.70300 42.17100
H  -15.64400 16.37700 40.18100
H  -14.96900 14.81900 42.58300
H  -17.04800 15.77400 42.61400
H  -17.28800 17.20200 41.52600
H  -16.29700 17.26900 43.03600
H  -14.73500 13.41000 39.95500
H  -16.24100 14.01800 40.36300
H  -14.38900 12.13700 41.85700
H  -15.82900 11.63700 41.00000
H  -15.95100 12.57200 42.51500
H  -10.52600 11.28600 41.72500
H  -9.29700 11.26200 40.28400
H  -11.03100 11.46200 40.08400
H  -6.03500 15.25800 40.33700
H  -5.03000 16.49300 44.51800
H  -5.22800 14.74600 45.07400
H  -6.18000 16.17100 45.64300

