158

Mg 16.31600 51.53700 26.90000
C  18.28800 50.34200 29.52700
C  13.98400 52.48600 29.11900
C  14.43700 52.55700 24.25600
C  18.94500 50.66900 24.70900
N  16.18700 51.47300 29.05300
C  17.12600 50.98400 29.92000
C  16.66900 51.22400 31.39900
C  15.14800 51.57800 31.31300
C  15.09600 51.86100 29.76100
C  14.04900 50.45600 31.68100
C  17.60300 52.38200 32.01500
C  17.93500 52.33300 33.57000
H  17.02500 51.40500 34.46000
N  14.42100 52.40000 26.69100
C  13.65900 52.76300 27.74400
C  12.59100 53.52100 27.21700
C  12.60900 53.48000 25.83500
C  13.82200 52.74300 25.47700
C  11.64700 54.23600 28.08200
C  11.68200 54.12100 24.86700
O  11.81500 53.99900 23.67000
C  10.56900 55.04200 25.35500
N  16.66100 51.59800 24.83000
C  15.67300 52.02200 23.88500
C  16.34900 52.21000 22.53900
C  17.73100 51.60600 22.70700
C  17.81700 51.29400 24.19200
C  15.50800 51.80300 21.28100
C  18.88800 52.44900 22.11100
C  20.03100 51.73400 21.29800
N  18.22100 50.58300 27.00500
C  19.19900 50.32900 26.09400
C  20.38800 49.67100 26.70600
C  20.04900 49.77400 28.06600
C  18.75100 50.27800 28.21200
C  21.72600 49.23700 26.01400
C  20.58000 49.51500 29.32500
O  21.70800 49.10900 29.65000
C  19.46800 49.89400 30.37900
C  19.17500 48.54000 30.95300
O  19.14200 47.42800 30.40200
O  18.92600 48.66300 32.34400
C  18.11900 47.56600 32.86800
H  13.18200 52.82400 29.77900
H  13.81200 53.02600 23.49300
H  19.73000 50.38100 24.00800
H  16.59400 50.35200 32.04800
H  15.01500 52.43200 31.97600
H  13.41800 50.59700 32.55800
H  14.55900 49.49500 31.75900
H  13.40900 50.53400 30.80300
H  17.05500 53.32300 31.96600
H  18.56100 52.36400 31.49500
H  17.96200 53.35700 33.94200
H  18.93800 51.92600 33.69600
H  11.72700 54.11700 29.16200
H  10.70100 53.71800 27.92400
H  11.34100 55.24100 27.78800
H  9.96900 55.43100 24.53200
H  10.77700 55.98100 25.86800
H  9.93800 54.48800 26.05000
H  16.55200 53.28100 22.51200
H  17.80700 50.59300 22.31200
H  15.47500 52.65100 20.59700
H  14.46300 51.54400 21.45100
H  16.03100 51.00100 20.75900
H  19.40600 52.87100 22.97200
H  18.42200 53.24700 21.53300
H  20.43800 52.47000 20.60400
H  19.77700 50.78300 20.83000
H  20.84300 51.54600 22.00100
H  22.47500 48.90500 26.73300
H  22.13900 50.09300 25.47800
H  21.53000 48.39800 25.34600
H  19.86100 50.55700 31.15000
H  17.64200 47.91300 33.78500
H  18.63600 46.62800 33.06900
H  17.21600 47.43800 32.27100
Mg 0.38600 43.41400 26.21800
C  2.59700 43.22500 29.07700
C  -2.18800 42.66100 28.35700
C  -1.56700 42.88400 23.65400
C  3.24700 43.63500 24.17400
N  0.24100 43.12200 28.48100
C  1.23000 43.18100 29.39800
C  0.73000 43.19800 30.77300
C  -0.78200 42.73500 30.58500
C  -0.97300 42.85500 29.04000
C  -1.22800 41.38100 31.27400
C  0.94300 44.53400 31.52200
C  1.55100 44.47800 32.90600
H  1.09200 43.30600 33.75600
N  -1.54600 42.76200 26.01100
C  -2.43700 42.62100 27.00000
C  -3.77600 42.37100 26.48300
C  -3.64300 42.40600 25.06300
C  -2.25000 42.70700 24.82900
C  -5.02600 42.34300 27.40400
C  -4.65400 42.24000 23.92500
O  -4.49300 42.44300 22.75300
C  -6.01800 42.07000 24.34600
N  0.87400 43.20500 24.23900
C  -0.18200 43.16000 23.31000
C  0.29600 43.22900 21.81400
C  1.75300 43.66200 22.07700
C  1.99200 43.43400 23.53900
C  0.14800 41.91200 21.04800
C  1.91000 45.19400 21.63600
C  1.72000 46.22700 22.71100
N  2.46300 43.60600 26.53500
C  3.48800 43.68700 25.58800
C  4.76900 43.64000 26.29100
C  4.46700 43.38500 27.61500
C  3.04400 43.44000 27.73100
C  6.12000 43.76600 25.66100
C  5.04000 43.10600 28.88100
O  6.21200 42.94200 29.24000
C  3.84600 43.08100 29.95700
C  4.03200 41.86300 30.70300
O  3.93100 40.70400 30.30400
O  4.41400 42.16700 31.98700
C  4.61200 40.93800 32.80200
H  -3.08100 42.45900 28.95100
H  -2.13700 42.85600 22.72300
H  4.10700 43.66900 23.50200
H  1.39400 42.56800 31.36500
H  -1.37100 43.54900 31.00800
H  -1.88000 41.69000 32.09100
H  -0.42900 40.86500 31.80600
H  -1.70600 40.70200 30.56800
H  -0.02500 45.03600 31.52900
H  1.64600 45.09000 30.90200
H  1.33200 45.34700 33.52600
H  2.61600 44.70100 32.84900
H  -5.85600 42.85800 26.91900
H  -4.89300 42.80500 28.38200
H  -5.15000 41.28700 27.64500
H  -6.74500 41.76100 23.59500
H  -6.36800 43.02700 24.73400
H  -6.08600 41.38700 25.19300
H  -0.24400 44.05400 21.34800
H  2.61900 43.15900 21.64700
H  -0.26400 41.10700 21.65700
H  1.12900 41.61500 20.67700
H  -0.47300 42.16800 20.19000
H  1.30900 45.51500 20.78500
H  2.94900 45.43800 21.41200
H  2.73300 46.40700 23.07000
H  1.06400 45.84000 23.49100
H  1.34100 47.15900 22.29400
H  6.05100 43.54800 24.59500
H  6.63500 43.00400 26.24500
H  6.58600 44.74200 25.79100
H  4.02600 44.00900 30.50000
H  3.68300 40.55200 33.22300
H  5.19200 41.26800 33.66400
H  5.18400 40.18300 32.26300

