158

Mg -1.65300 18.22800 27.67300
C  -2.37700 16.12600 30.43500
C  -2.59400 20.82000 29.63400
C  -1.42200 20.14300 24.93700
C  -1.62800 15.31400 25.70800
N  -2.42800 18.39900 29.79500
C  -2.38600 17.45000 30.79000
C  -2.54800 17.97200 32.20800
C  -2.90900 19.48600 31.85400
C  -2.64700 19.59800 30.36700
C  -4.44100 19.89100 32.20000
C  -1.32900 17.78700 33.12400
C  -1.81200 17.29600 34.48700
H  -0.82200 17.28400 35.66400
N  -1.82700 20.21900 27.38400
C  -2.23200 21.08600 28.28800
C  -2.14700 22.48200 27.72400
C  -1.85100 22.31800 26.32600
C  -1.75000 20.85700 26.12000
C  -2.39200 23.76800 28.51600
C  -1.58500 23.36500 25.32100
O  -1.37900 23.16600 24.10700
C  -1.21900 24.66800 25.82600
N  -1.49000 17.83800 25.56300
C  -1.31900 18.80100 24.67100
C  -1.34700 18.20400 23.23000
C  -1.09200 16.68200 23.51900
C  -1.47500 16.57300 25.08000
C  -2.60500 18.46500 22.38500
C  0.31000 16.05100 23.19400
C  1.45600 16.59200 24.00500
N  -1.76600 16.10900 28.01700
C  -1.75000 15.08400 27.11700
C  -1.80400 13.88500 27.78000
C  -2.07900 14.21500 29.11000
C  -2.05400 15.61500 29.19300
C  -1.90600 12.58000 27.20300
C  -2.36500 13.58400 30.35100
O  -2.52300 12.42900 30.67000
C  -2.48800 14.86000 31.34600
C  -1.45800 14.51100 32.37200
O  -0.28300 14.83100 32.31200
O  -2.09000 13.71500 33.28800
C  -1.36700 13.12200 34.38200
H  -2.75400 21.71300 30.24100
H  -1.37200 20.73700 24.02200
H  -1.77800 14.46200 25.04200
H  -3.41200 17.46400 32.63700
H  -2.18300 20.15200 32.32000
H  -4.99100 19.15200 32.78200
H  -5.04000 19.98000 31.29400
H  -4.43400 20.81800 32.77400
H  -0.93500 18.77800 33.34600
H  -0.60400 17.07800 32.72300
H  -2.19400 16.28100 34.38000
H  -2.57500 18.02200 34.76700
H  -1.41300 24.10900 28.85200
H  -3.03700 23.63800 29.38500
H  -2.88600 24.46700 27.84100
H  -0.62500 24.43500 26.71000
H  -2.18300 25.11100 26.07500
H  -0.69800 25.27800 25.08700
H  -0.42100 18.51900 22.75000
H  -1.86200 16.07300 23.04600
H  -3.29700 17.64500 22.57400
H  -2.29700 18.55600 21.34300
H  -3.03600 19.42700 22.66100
H  0.52100 16.13900 22.12800
H  0.30500 14.97600 23.37800
H  1.12600 17.45700 24.58000
H  2.21100 16.85400 23.26400
H  1.86300 15.80800 24.64400
H  -0.94200 12.20700 26.85800
H  -2.45900 12.64100 26.26500
H  -2.44000 11.97800 27.93800
H  -3.47700 14.87500 31.80500
H  -0.35300 12.94300 34.02400
H  -1.74500 12.15000 34.69700
H  -1.46700 13.80400 35.22600
Mg 48.17600 34.31400 26.58100
C  46.31300 32.90100 29.09700
C  48.77400 37.13800 28.56200
C  49.32900 35.94700 23.92900
C  47.31000 31.63400 24.50800
N  47.62600 34.87400 28.52500
C  47.00700 34.07600 29.44900
C  47.22700 34.63600 30.91100
C  47.56900 36.14600 30.65000
C  47.98300 36.05400 29.14200
C  46.43800 37.20100 30.84800
C  48.32400 33.81400 31.57700
C  48.21500 33.82200 33.11300
H  47.04200 34.38400 33.95800
N  48.94600 36.26800 26.34000
C  49.15600 37.22000 27.20200
C  49.95200 38.26900 26.65900
C  50.12800 37.98100 25.29700
C  49.44200 36.67700 25.13000
C  50.31700 39.41200 27.48300
C  50.81200 38.78000 24.22600
O  50.93300 38.41700 23.06100
C  51.50200 40.05200 24.60100
N  48.15700 33.98900 24.44900
C  48.81200 34.71900 23.53300
C  48.97500 34.04500 22.17900
C  48.67400 32.52900 22.53400
C  48.01400 32.69500 23.91200
C  48.17300 34.59000 20.93700
C  49.89500 31.57900 22.50600
C  50.14400 30.78000 21.20400
N  47.08700 32.63100 26.73600
C  46.73400 31.67500 25.74500
C  45.89900 30.69300 26.38900
C  45.66200 31.18200 27.68000
C  46.39600 32.36700 27.76300
C  45.22100 29.55500 25.80000
C  44.95500 30.87400 28.87900
O  44.15000 29.95000 29.18400
C  45.26600 32.07000 29.87000
C  45.84000 31.36000 31.05100
O  46.87300 30.68700 31.04400
O  44.96600 31.41600 32.12400
C  45.31300 30.73400 33.37800
H  49.01200 37.82100 29.37900
H  49.77900 36.47600 23.08700
H  47.18000 30.77300 23.84900
H  46.26400 34.60900 31.42200
H  48.36100 36.41100 31.35000
H  45.65600 36.98200 31.57600
H  45.86000 37.26200 29.92600
H  46.92500 38.15200 31.06300
H  49.33200 34.22200 31.50600
H  48.45900 32.78100 31.25500
H  49.04900 34.30700 33.62000
H  48.12800 32.79800 33.47600
H  49.85000 40.22200 26.92300
H  51.37100 39.60800 27.29100
H  50.06800 39.42700 28.54400
H  51.96300 40.60800 23.78500
H  52.27500 39.92000 25.35800
H  50.71300 40.73500 24.91500
H  50.01200 34.15800 21.86300
H  47.87400 32.16300 21.89000
H  47.12300 34.75800 21.17700
H  48.20200 33.86900 20.12100
H  48.72600 35.48200 20.64400
H  49.73200 30.91000 23.35100
H  50.72800 32.25800 22.68700
H  50.30300 31.41900 20.33600
H  49.30100 30.11100 21.03100
H  51.08300 30.28800 21.45700
H  45.90500 28.73800 26.02900
H  45.09100 29.63100 24.72100
H  44.23800 29.43200 26.25700
H  44.33100 32.61400 30.01000
H  46.30500 30.99400 33.74700
H  45.23400 29.65000 33.29500
H  44.50400 30.93500 34.08000

