158

Mg 47.01300 16.73500 28.80200
C  44.99000 16.33100 31.43400
C  49.15100 18.68100 30.56600
C  48.77400 17.32400 25.86600
C  44.50900 15.15800 26.72200
N  47.03500 17.40600 30.72900
C  46.09000 17.11700 31.66900
C  46.55600 17.56000 33.05800
C  47.70800 18.53100 32.68600
C  48.01500 18.21400 31.25300
C  47.58000 20.08800 32.96100
C  47.10300 16.37800 33.92500
C  47.19400 16.58600 35.47000
H  46.93200 17.97100 36.21100
N  48.83700 17.80200 28.32600
C  49.55000 18.54200 29.19600
C  50.70300 19.12800 28.50100
C  50.53900 18.66200 27.11500
C  49.39600 17.79700 27.07100
C  51.75500 20.11100 29.20200
C  51.46600 19.08800 25.96800
O  51.27300 18.97100 24.79200
C  52.79500 19.74600 26.22300
N  46.76000 16.12300 26.55300
C  47.60600 16.62200 25.60100
C  47.05300 16.42200 24.22900
C  45.71900 15.58200 24.46300
C  45.63900 15.61500 26.00800
C  46.91400 17.62800 23.33600
C  45.71500 14.18600 23.97000
C  44.87000 13.87400 22.69500
N  45.18000 15.82300 28.97700
C  44.28300 15.29800 28.08100
C  43.09100 14.99600 28.81600
C  43.36200 15.26400 30.14100
C  44.61700 15.83100 30.18700
C  41.90400 14.36200 28.28400
C  42.72300 15.21300 31.36500
O  41.57600 14.85100 31.70600
C  43.85800 15.81800 32.35600
C  43.31200 16.92400 33.14200
O  43.04400 18.07200 32.73200
O  43.22400 16.48800 34.41100
C  42.60900 17.38900 35.43500
H  49.78600 19.22700 31.26700
H  49.27200 17.50900 24.91200
H  43.69800 14.76500 26.10500
H  45.74900 18.11500 33.53500
H  48.62900 18.25000 33.19600
H  46.66500 20.35200 33.49000
H  47.65400 20.73700 32.08700
H  48.42700 20.37500 33.58400
H  48.07100 16.07300 33.52700
H  46.40600 15.55600 33.76200
H  48.23100 16.37700 35.73000
H  46.53200 15.84000 35.90900
H  52.13200 20.94000 28.60300
H  52.66200 19.56300 29.45700
H  51.29600 20.51800 30.10300
H  53.32700 19.08800 26.91000
H  52.63600 20.80800 26.40800
H  53.50900 19.65200 25.40400
H  47.82900 15.80000 23.78300
H  44.83300 16.02300 24.00500
H  46.69800 18.56200 23.85500
H  46.03100 17.42700 22.73000
H  47.76400 17.49700 22.66700
H  45.36800 13.46300 24.70800
H  46.75500 13.86100 23.93300
H  45.44900 13.99300 21.77900
H  43.98000 14.49800 22.78100
H  44.58900 12.82200 22.73300
H  41.92400 13.29100 28.48400
H  41.71000 14.68700 27.26200
H  41.06000 14.86600 28.75600
H  44.16200 15.04700 33.06500
H  43.38900 18.11700 35.65700
H  42.25900 16.85300 36.31700
H  41.78000 17.89700 34.94200
Mg 48.36700 35.78100 28.11000
C  46.28800 34.02700 30.39900
C  48.66900 38.18700 30.32100
C  49.93500 37.47700 25.64800
C  47.39000 33.38200 25.69100
N  47.59200 36.00900 30.02500
C  46.89900 35.14600 30.79200
C  46.83000 35.64800 32.19700
C  47.12000 37.18400 32.10200
C  47.84000 37.15900 30.72600
C  45.84500 38.15000 32.18000
C  47.67400 34.81200 33.25600
C  48.68400 35.60800 34.18400
H  48.21500 36.66600 35.21100
N  49.32900 37.51900 28.06900
C  49.39400 38.38100 29.15300
C  50.16300 39.48300 28.81200
C  50.59700 39.32800 27.43400
C  49.95100 38.07400 26.95400
C  50.37400 40.66800 29.71400
C  51.36400 40.31800 26.52400
O  51.63900 40.01200 25.34700
C  51.92900 41.69700 26.92900
N  48.51500 35.47100 26.01600
C  49.26400 36.34700 25.19300
C  49.49300 35.80600 23.71500
C  48.96300 34.33200 23.96700
C  48.20900 34.43900 25.30300
C  48.83000 36.69800 22.60000
C  50.06100 33.27200 23.91400
C  49.70400 31.92400 23.27600
N  47.07600 34.06900 28.00400
C  46.77000 33.19500 26.93900
C  45.82800 32.15700 27.35500
C  45.51000 32.48700 28.68600
C  46.39700 33.58800 29.02700
C  45.35500 31.04100 26.36700
C  44.70900 32.17900 29.82400
O  43.92400 31.30700 30.10300
C  45.09700 33.22900 30.89300
C  45.32200 32.62200 32.21000
O  46.23300 31.87800 32.52400
O  44.36200 33.04900 33.09700
C  44.43500 32.63900 34.52900
H  48.70000 39.06200 30.97400
H  50.50100 37.98500 24.86400
H  47.15200 32.71100 24.86300
H  45.81700 35.49500 32.56900
H  47.82800 37.57400 32.83300
H  44.91500 37.61100 32.35600
H  45.72000 38.62900 31.20800
H  45.91100 38.98000 32.88300
H  48.14100 33.92900 32.82100
H  46.90500 34.35100 33.87600
H  49.44700 36.04200 33.53800
H  49.29700 34.87300 34.70400
H  50.10800 40.63200 30.77100
H  49.81500 41.47400 29.23800
H  51.42800 40.86000 29.91700
H  51.14200 42.44300 27.03900
H  52.52400 42.04400 26.08400
H  52.48700 41.58500 27.85900
H  50.55800 35.83100 23.48700
H  48.22000 34.03000 23.22900
H  49.49600 36.91900 21.76600
H  48.52500 37.64900 23.03600
H  47.94700 36.22400 22.17100
H  50.42400 33.10500 24.92800
H  50.80500 33.79100 23.31000
H  50.35600 31.74400 22.42200
H  48.71400 31.87600 22.82100
H  49.87400 31.11700 23.98900
H  44.49000 30.49000 26.73500
H  46.15900 30.32000 26.21900
H  45.18400 31.37000 25.34200
H  44.28400 33.95500 30.91500
H  45.47600 32.50700 34.82600
H  43.88100 31.76800 34.87900
H  43.92700 33.42600 35.08600

