158

Mg 26.90000 50.75200 25.93200
C  25.09400 51.97400 28.84400
C  29.40900 49.80100 27.98700
C  28.55800 49.62400 23.24400
C  24.56400 52.28500 23.83400
N  27.11400 50.72900 28.21600
C  26.27700 51.22600 29.18100
C  26.90500 51.17900 30.54100
C  28.37600 50.70800 30.20800
C  28.36300 50.41700 28.66700
C  29.53400 51.59000 30.71500
C  26.06200 50.40400 31.64000
C  25.74700 51.16500 32.94900
H  26.72400 51.07800 34.13500
N  28.65200 49.69500 25.68800
C  29.57800 49.38700 26.67300
C  30.67100 48.62700 26.04300
C  30.28100 48.41700 24.70400
C  29.13200 49.33800 24.49100
C  31.83800 48.09200 26.79000
C  30.88400 47.50500 23.65300
O  30.41700 47.50100 22.49300
C  31.95000 46.48800 23.98200
N  26.64300 51.03400 23.81100
C  27.42400 50.37800 22.89300
C  27.01400 50.61000 21.41100
C  25.63700 51.27400 21.68200
C  25.58200 51.56900 23.22000
C  28.11100 51.41100 20.69400
C  24.40500 50.42100 21.50400
C  23.35400 50.89400 20.36000
N  25.18400 51.85400 26.19300
C  24.31300 52.38000 25.23600
C  23.20000 52.96900 25.95300
C  23.47900 52.84500 27.32300
C  24.70300 52.17600 27.43900
C  21.97000 53.58300 25.33400
C  22.94200 53.04900 28.66600
O  21.81200 53.44000 29.00500
C  24.02300 52.56300 29.67700
C  24.45300 53.68200 30.59200
O  25.36200 54.45100 30.40000
O  23.60600 53.79500 31.68000
C  23.97900 55.04600 32.41400
H  30.22900 49.52700 28.65500
H  29.11000 49.25000 22.38000
H  23.75200 52.74500 23.26700
H  26.98400 52.22400 30.83900
H  28.57800 49.74600 30.67800
H  30.22900 51.84300 29.91400
H  30.02200 51.11700 31.56800
H  29.08400 52.53300 31.02300
H  26.70600 49.54200 31.81400
H  25.14300 49.98100 31.23400
H  24.76500 50.85000 33.30100
H  25.50700 52.20100 32.71000
H  31.76100 48.29600 27.85800
H  32.62400 48.74600 26.41200
H  32.17800 47.08700 26.54200
H  31.68300 45.75100 24.73900
H  32.71900 47.17100 24.34000
H  32.17400 46.06100 23.00400
H  26.91800 49.80200 20.68600
H  25.51800 52.19100 21.10600
H  28.76400 51.95400 21.37800
H  27.51100 52.17600 20.20100
H  28.64800 50.78600 19.98000
H  23.70900 50.37000 22.34100
H  24.69200 49.38100 21.34700
H  23.73100 51.53700 19.56400
H  22.51500 51.35200 20.88400
H  22.90000 50.06900 19.81200
H  22.04600 54.66900 25.38900
H  21.08700 53.27200 25.89100
H  21.76600 53.25300 24.31500
H  23.45300 51.80900 30.22000
H  25.03600 55.14500 32.66100
H  23.55300 54.92300 33.41000
H  23.58200 55.89500 31.85800
Mg 9.82700 48.57200 24.98000
C  7.81800 48.79600 27.85100
C  12.45500 49.76100 26.81000
C  11.64700 48.01800 22.39100
C  6.82200 48.14100 23.14700
N  10.02300 49.12700 27.04700
C  9.15000 49.03500 28.09300
C  9.76700 49.54700 29.37400
C  11.03100 50.35800 28.88400
C  11.20200 49.80800 27.48700
C  10.85300 51.89700 28.87600
C  10.12500 48.35200 30.41300
C  9.56600 48.41500 31.84400
H  9.59100 47.26500 32.84300
N  11.79700 48.92700 24.65300
C  12.72000 49.33700 25.51600
C  14.04800 49.27000 24.86100
C  13.86800 48.69600 23.61900
C  12.37200 48.51500 23.49200
C  15.29500 49.70900 25.65000
C  14.84800 48.29600 22.54300
O  14.54000 47.85200 21.46600
C  16.34000 48.54000 22.67900
N  9.27100 48.13600 23.05000
C  10.24700 47.88800 22.15300
C  9.57300 47.63500 20.69700
C  8.03200 47.52000 21.03500
C  8.00700 47.88700 22.48200
C  9.85600 48.73100 19.60900
C  7.31600 46.14700 20.78100
C  7.74900 44.96700 21.61900
N  7.66200 48.58700 25.37600
C  6.61400 48.38600 24.54100
C  5.44300 48.29300 25.36100
C  5.83600 48.49600 26.66600
C  7.21200 48.59600 26.59400
C  4.01200 47.97500 24.86600
C  5.42000 48.63700 28.01800
O  4.30200 48.69100 28.54500
C  6.71200 48.81700 28.87100
C  6.86800 47.59400 29.75500
O  7.43000 46.60300 29.49100
O  6.19500 47.84600 30.93200
C  6.16500 46.80700 31.85200
H  13.25800 50.18300 27.41900
H  12.14700 47.88000 21.43000
H  5.93600 47.94400 22.54000
H  9.14500 50.24200 29.93900
H  11.92800 50.02200 29.40300
H  10.02600 52.10100 29.55500
H  10.52600 52.23200 27.89200
H  11.74500 52.45000 29.17200
H  11.21300 48.30100 30.41800
H  9.98300 47.35600 29.99300
H  8.55200 48.80700 31.91000
H  10.21200 49.20600 32.22500
H  15.47700 49.08600 26.52600
H  15.04100 50.69600 26.03700
H  16.22400 49.79500 25.08700
H  16.56300 49.59000 22.86800
H  16.83800 48.20800 21.76800
H  16.74200 47.92600 23.48500
H  9.92800 46.63700 20.43800
H  7.54900 48.40400 20.62000
H  8.96700 49.00400 19.04100
H  10.63100 48.40300 18.91600
H  10.07800 49.68800 20.08000
H  7.59200 45.85500 19.76800
H  6.25900 46.40300 20.84500
H  6.86200 44.49800 22.04400
H  8.37800 45.30800 22.44100
H  8.36700 44.28200 21.03800
H  3.53500 47.29300 25.57000
H  4.00800 47.35400 23.97000
H  3.42500 48.89200 24.81800
H  6.70800 49.63500 29.59200
H  6.59800 47.04600 32.82400
H  6.69200 45.92100 31.49600
H  5.13900 46.54400 32.10900

