158

Mg -1.18700 17.55200 25.45900
C  -1.69300 15.28300 28.15200
C  -1.63400 20.10900 27.63500
C  -0.80800 19.57400 22.79800
C  -0.83200 14.82700 23.42200
N  -1.78500 17.62200 27.67700
C  -1.65300 16.64000 28.62800
C  -1.68700 17.19500 30.07000
C  -1.75500 18.75200 29.82600
C  -1.71100 18.83300 28.24500
C  -2.96000 19.37000 30.45500
C  -0.55900 16.75100 31.00300
C  -0.45900 17.46300 32.40300
H  -0.25600 16.69900 33.68200
N  -1.19700 19.62300 25.20800
C  -1.38700 20.50900 26.23300
C  -1.24000 21.84600 25.73400
C  -0.99600 21.73600 24.27500
C  -0.93300 20.30900 24.02200
C  -1.52700 23.02600 26.64600
C  -0.87000 22.78300 23.24400
O  -0.87700 22.40100 22.07800
C  -0.66600 24.30500 23.61600
N  -1.03600 17.27800 23.38500
C  -0.85500 18.23700 22.50100
C  -0.56100 17.62500 21.08500
C  -0.18200 16.13700 21.41600
C  -0.69600 16.10000 22.82400
C  -1.83200 17.73200 20.16300
C  1.26800 15.70800 21.17400
C  2.16300 15.39600 22.39200
N  -1.40400 15.45200 25.61100
C  -1.30300 14.50200 24.68300
C  -1.49200 13.17400 25.22600
C  -1.60300 13.41600 26.57900
C  -1.59800 14.81400 26.77700
C  -1.41900 11.85000 24.50100
C  -1.58100 12.79400 27.88600
O  -1.61000 11.60000 28.21800
C  -1.64700 13.90100 28.91700
C  -0.36500 13.71700 29.69200
O  0.75800 14.01200 29.38600
O  -0.70200 13.24600 30.96700
C  0.29900 13.23100 32.02700
H  -1.96800 20.92800 28.27500
H  -0.69300 20.17800 21.89500
H  -0.77500 13.97700 22.73900
H  -2.61400 16.81000 30.49400
H  -0.84100 19.22200 30.18900
H  -3.58100 18.73000 31.08200
H  -3.56700 19.73900 29.62800
H  -2.74400 20.17200 31.16100
H  0.33100 17.02200 30.43500
H  -0.76600 15.69600 31.18000
H  -1.27500 18.13700 32.66600
H  0.41600 18.11200 32.36700
H  -0.64500 23.56800 26.98700
H  -1.98200 22.88900 27.62700
H  -2.18100 23.67200 26.06000
H  -0.01000 24.21700 24.48200
H  -1.67300 24.62900 23.87800
H  -0.19300 24.89300 22.82900
H  0.23500 18.07700 20.49300
H  -0.78500 15.42700 20.85000
H  -2.25400 16.74000 20.00000
H  -1.54900 18.19100 19.21600
H  -2.52000 18.37200 20.71500
H  1.74100 16.52700 20.63200
H  1.11600 14.79700 20.59500
H  1.76900 15.16700 23.38200
H  2.77000 16.28900 22.54400
H  2.85600 14.60300 22.10900
H  -1.78500 11.90600 23.47600
H  -1.90200 11.05100 25.06200
H  -0.38700 11.49900 24.47000
H  -2.47100 13.64200 29.58200
H  0.77200 14.21300 32.05400
H  0.98200 12.39800 31.86700
H  -0.15500 13.07800 33.00700
Mg 47.22700 15.68600 28.06400
C  45.24300 15.44200 30.93000
C  49.24900 17.82200 29.78200
C  48.87200 16.14800 25.22400
C  44.74000 14.11200 26.25000
N  47.19200 16.57500 30.13700
C  46.35000 16.29100 31.11800
C  46.88100 16.93200 32.45300
C  47.98900 17.88600 32.01200
C  48.19200 17.46400 30.55400
C  47.76600 19.43900 32.07200
C  47.27200 15.82700 33.44900
C  47.99200 16.25200 34.71900
H  47.63900 17.76200 35.26900
N  48.91600 16.76000 27.60800
C  49.66300 17.51700 28.46600
C  50.92000 17.92300 27.72300
C  50.78700 17.53500 26.34900
C  49.49100 16.77600 26.31400
C  52.01200 18.69700 28.30100
C  51.77300 17.68400 25.17100
O  51.44900 17.33100 24.01600
C  53.07900 18.41300 25.31100
N  46.78300 15.31900 25.97200
C  47.70700 15.48500 25.00400
C  47.32400 14.88400 23.67500
C  46.02000 14.14100 24.03900
C  45.82000 14.49100 25.51100
C  47.03200 15.93800 22.58500
C  45.83900 12.69900 23.61500
C  46.29500 11.58700 24.52100
N  45.48700 14.83400 28.48500
C  44.52300 14.21800 27.65700
C  43.43600 13.81100 28.42100
C  43.72000 14.14900 29.70700
C  44.95300 14.83700 29.73700
C  42.07100 13.16200 27.83000
C  43.04500 14.20700 31.00400
O  41.96400 13.75800 31.34800
C  44.14600 15.00100 31.87300
C  43.44000 16.20000 32.54100
O  43.08100 17.21300 32.05000
O  43.27300 15.89700 33.87000
C  42.60500 16.89000 34.73900
H  49.93800 18.43400 30.36800
H  49.51100 16.10500 24.33900
H  44.01200 13.52800 25.68300
H  46.02900 17.46700 32.87200
H  48.88300 17.59500 32.56300
H  46.69100 19.60700 32.14000
H  48.04700 19.99500 31.17800
H  48.31300 19.77100 32.95500
H  47.92600 15.19000 32.85400
H  46.33200 15.35900 33.74100
H  49.07300 16.17600 34.59700
H  47.73500 15.47200 35.43600
H  52.96900 18.18500 28.19900
H  52.00400 18.78500 29.38800
H  52.10700 19.61200 27.71700
H  53.73300 18.02100 26.08900
H  52.81400 19.38700 25.72300
H  53.58400 18.53000 24.35200
H  48.06200 14.14200 23.36800
H  45.15800 14.53200 23.49700
H  47.57500 16.82400 22.91400
H  45.96900 16.16600 22.50700
H  47.37700 15.51200 21.64300
H  46.33600 12.59100 22.65100
H  44.79000 12.43400 23.48000
H  45.43600 11.11700 24.99700
H  46.92000 11.98200 25.32200
H  46.87900 10.85300 23.96500
H  41.24400 13.22300 28.53800
H  42.12500 12.12300 27.50400
H  41.79000 13.74200 26.95000
H  44.46800 14.47200 32.77100
H  43.10900 17.85600 34.69800
H  42.56100 16.40300 35.71300
H  41.57500 17.06800 34.42900

