158

Mg 41.06900 9.57600 29.31400
C  42.93500 10.84300 31.88400
C  38.91400 8.32900 31.62500
C  39.33100 8.36300 26.71000
C  43.50700 10.85100 27.04300
N  41.09600 9.37200 31.55600
C  41.81400 10.22900 32.40500
C  41.15700 10.21300 33.78200
C  40.04600 9.15000 33.69400
C  40.03900 8.84900 32.22900
C  40.40100 7.88400 34.60600
C  40.71500 11.61700 34.35400
C  40.07400 11.70500 35.65200
H  40.58200 12.68300 36.73300
N  39.43500 8.46100 29.17300
C  38.60900 8.03200 30.27500
C  37.42500 7.33800 29.69500
C  37.57100 7.35100 28.28100
C  38.79500 8.07900 27.98700
C  36.27500 6.74200 30.49400
C  36.60600 6.76600 27.19900
O  36.75000 6.81100 25.97700
C  35.40100 6.03100 27.64200
N  41.37100 9.60100 27.20000
C  40.44500 9.06300 26.34700
C  40.88600 9.29300 24.91400
C  42.15800 10.06200 25.01800
C  42.36500 10.25300 26.52300
C  41.05000 7.93300 24.18500
C  42.11600 11.45000 24.32500
C  41.31700 12.56600 24.98700
N  42.79900 10.65900 29.38100
C  43.71700 11.01500 28.46700
C  44.80600 11.77000 29.02600
C  44.47000 11.72300 30.33100
C  43.30500 11.02300 30.54500
C  45.85400 12.47100 28.35200
C  44.89700 12.17900 31.64000
O  45.87500 12.86000 31.90100
C  43.83200 11.76100 32.63700
C  44.32800 11.10500 33.93500
O  44.92900 10.05600 33.95900
O  44.07700 11.88100 35.07000
C  44.49600 11.44900 36.42200
H  38.15000 8.00800 32.33600
H  38.85700 7.98700 25.80100
H  44.15500 11.23300 26.25200
H  41.98000 9.99100 34.46000
H  39.06800 9.53600 33.98000
H  40.26300 7.01500 33.96400
H  39.71900 7.77100 35.44900
H  41.44600 7.87000 34.91600
H  39.98000 12.00800 33.65100
H  41.60900 12.23800 34.41100
H  40.12800 10.69400 36.05700
H  39.02200 11.84000 35.39900
H  35.26400 7.12900 30.36800
H  36.56900 6.91400 31.52900
H  36.18200 5.67100 30.31300
H  35.71300 5.11700 28.14600
H  34.85500 5.77200 26.73500
H  34.69600 6.62300 28.22700
H  40.20000 9.89900 24.32200
H  43.05400 9.59300 24.61200
H  40.62000 7.07700 24.70600
H  42.12200 7.73300 24.17400
H  40.62100 7.91500 23.18400
H  41.71700 11.43900 23.31100
H  43.18300 11.64800 24.22400
H  42.03600 13.24200 25.44900
H  40.55600 12.19500 25.67300
H  40.75200 13.11100 24.23200
H  45.54700 12.67300 27.32600
H  46.84600 12.05400 28.52700
H  45.97700 13.40000 28.90900
H  43.15000 12.59400 32.81100
H  44.27800 10.45000 36.80100
H  43.99400 12.16800 37.06900
H  45.57700 11.54600 36.51800
Mg 6.00400 54.09200 40.75400
C  5.40500 50.77700 40.19200
C  9.25800 53.70400 39.69500
C  6.33800 57.43600 40.77300
C  2.62900 54.45100 41.79800
N  7.12300 52.44900 39.80900
C  6.72600 51.17700 39.81500
C  7.86900 50.28500 39.19400
C  9.12600 51.15000 39.58500
C  8.46300 52.52600 39.68700
C  9.85300 50.78600 40.91300
C  7.65500 50.16100 37.65400
C  7.75500 48.85600 36.94000
H  6.75000 48.62200 35.79300
N  7.55300 55.38200 40.21400
C  8.78100 55.02200 39.81700
C  9.59800 56.21600 39.55700
C  8.77600 57.33700 39.86200
C  7.49400 56.76900 40.26200
C  11.06800 56.13300 39.17200
C  9.20000 58.81600 39.87600
O  10.30000 59.13300 39.42700
C  8.36700 59.96500 40.24000
N  4.63500 55.66400 41.09300
C  5.02800 56.97800 41.07800
C  3.91100 57.93100 41.57800
C  2.75100 56.97700 41.86600
C  3.33000 55.63800 41.52500
C  4.43400 58.91700 42.73900
C  1.29500 57.29200 41.14600
C  0.20200 58.03700 41.98600
N  4.20700 52.91300 40.97500
C  3.02100 53.12900 41.56500
C  2.32000 51.87700 41.62900
C  3.18100 50.98900 41.10000
C  4.36000 51.61300 40.76200
C  0.97800 51.57800 42.36600
C  3.32900 49.55700 40.83200
O  2.53200 48.66600 41.06800
C  4.85700 49.37000 40.35900
C  4.93800 48.50500 39.10900
O  4.11300 48.31400 38.17400
O  5.87700 47.49000 39.46000
C  5.64600 46.14600 39.00800
H  10.31200 53.43300 39.61200
H  6.46500 58.51900 40.82600
H  1.59600 54.55700 42.13600
H  7.73800 49.32100 39.68600
H  9.79500 51.20100 38.72600
H  9.33400 50.00100 41.46300
H  10.05500 51.56600 41.64700
H  10.82400 50.40100 40.60100
H  8.51600 50.63200 37.18100
H  6.74500 50.63700 37.28900
H  7.65300 48.07300 37.69200
H  8.73600 48.73400 36.48100
H  11.69200 55.30700 39.51400
H  11.67900 57.01400 39.36700
H  10.97900 56.15700 38.08600
H  8.95700 60.87700 40.32800
H  8.18400 59.81900 41.30500
H  7.57200 60.00100 39.49600
H  3.67900 58.64900 40.79200
H  2.56900 57.00000 42.94000
H  3.76100 58.75700 43.58200
H  4.28000 59.97700 42.53600
H  5.48200 58.72700 42.96700
H  0.98700 56.27000 40.92200
H  1.52000 57.73600 40.17700
H  0.26100 57.88100 43.06400
H  -0.78900 57.70100 41.68000
H  0.28000 59.12200 41.90800
H  0.90700 50.61000 42.86200
H  0.11400 51.82500 41.75000
H  0.84200 52.17100 43.27100
H  5.25300 48.83900 41.22500
H  4.71200 45.82200 39.46700
H  6.45500 45.53600 39.40900
H  5.48100 46.10000 37.93100

