158

Mg 2.01700 -1.50600 44.49400
C  5.42400 -0.62600 43.75900
C  1.12400 1.11200 42.30900
C  -1.12700 -2.60500 44.72100
C  3.22400 -4.46400 45.78000
N  3.11900 -0.05000 43.05700
C  4.51600 0.12500 43.07300
C  4.89700 1.26800 42.13300
C  3.52500 1.96100 41.93800
C  2.50900 0.99600 42.44000
C  3.48100 3.36200 42.53200
C  5.55100 0.77100 40.88300
C  6.60000 1.85300 40.36300
H  6.55000 2.30300 38.94900
N  0.21100 -0.79600 43.75700
C  0.09000 0.25800 42.86300
C  -1.34900 0.45200 42.66600
C  -2.01700 -0.63800 43.32000
C  -0.93600 -1.43300 44.00400
C  -1.87800 1.42300 41.67900
C  -3.51200 -0.81600 43.34400
O  -4.13600 -0.01000 42.72700
C  -4.17700 -1.97300 44.07700
N  1.14500 -3.33500 45.10500
C  -0.17500 -3.52500 45.12200
C  -0.46700 -4.91300 45.73200
C  0.89200 -5.55300 45.93700
C  1.81400 -4.42200 45.60900
C  -1.32700 -4.84600 47.10100
C  1.19500 -6.80500 44.97100
C  0.62900 -8.25500 45.42400
N  3.88400 -2.33900 44.83800
C  4.23300 -3.55300 45.38800
C  5.64100 -3.71900 45.61000
C  6.17000 -2.58200 45.02300
C  5.05400 -1.77400 44.51200
C  6.29200 -4.88500 46.18400
C  7.37900 -1.83300 44.68400
O  8.50600 -2.09400 45.02000
C  6.96000 -0.57900 43.92200
C  7.54900 0.64200 44.51800
O  7.44100 0.93800 45.69500
O  8.22800 1.40400 43.55900
C  8.76800 2.69400 44.02400
H  0.99300 2.06400 41.79100
H  -2.11300 -3.07400 44.70100
H  3.45100 -5.45900 46.16800
H  5.65200 1.82300 42.69100
H  3.32400 2.12300 40.87900
H  3.68800 4.14500 41.80300
H  4.15100 3.36500 43.39200
H  2.52000 3.68200 42.93500
H  4.77300 0.75900 40.11900
H  5.95900 -0.23800 40.94000
H  7.53600 1.30600 40.47700
H  6.63100 2.75500 40.97500
H  -2.32400 0.85400 40.86200
H  -1.12700 2.04400 41.19100
H  -2.63300 2.03100 42.17800
H  -5.25400 -1.84800 43.96600
H  -3.93400 -1.81400 45.12800
H  -3.87900 -2.92000 43.62800
H  -1.10800 -5.34300 44.96300
H  1.07300 -5.87600 46.96200
H  -1.66000 -5.82800 47.43700
H  -2.17500 -4.26600 46.73800
H  -0.75700 -4.36900 47.89800
H  2.25300 -6.92900 44.74200
H  0.68200 -6.53800 44.04700
H  1.42000 -8.93700 45.73600
H  0.08300 -8.68200 44.58300
H  -0.15700 -8.08000 46.16000
H  5.82700 -5.28000 47.08600
H  7.30900 -4.68100 46.52200
H  6.22400 -5.74100 45.51300
H  7.31900 -0.62600 42.89400
H  9.34100 3.09900 43.18900
H  9.37000 2.51400 44.91500
H  7.97600 3.39700 44.28200
Mg 46.00900 4.75600 48.21000
C  43.73600 7.20200 47.45100
C  43.37200 2.47300 47.69400
C  48.17000 2.20800 48.12000
C  48.62500 7.06800 47.47100
N  43.71400 4.87800 47.82100
C  43.04800 5.96200 47.40200
C  41.60700 5.67800 46.92300
C  41.45400 4.19100 47.37800
C  42.89500 3.82700 47.72100
C  40.43200 4.03200 48.52200
C  41.68600 5.88400 45.37400
C  40.78100 7.03500 44.78800
H  41.33600 7.92600 43.65300
N  45.81100 2.66700 48.04800
C  44.64800 1.93400 47.84900
C  45.03200 0.54800 47.67400
C  46.38500 0.34300 47.89600
C  46.83800 1.72700 48.11300
C  44.01400 -0.56800 47.31900
C  47.21800 -0.93600 47.71000
O  46.61100 -2.01400 47.52800
C  48.65500 -0.97400 47.73700
N  48.07400 4.60800 47.98200
C  48.77600 3.44300 48.13300
C  50.31300 3.65300 47.96100
C  50.45600 5.22600 47.85400
C  48.98800 5.67800 47.76200
C  50.97900 3.01700 49.21900
C  51.35100 5.80000 46.79500
C  52.56300 6.58500 47.31700
N  46.23100 6.71800 47.77700
C  47.31500 7.51400 47.50700
C  46.92900 8.89500 47.50100
C  45.53600 8.83800 47.43600
C  45.12300 7.48100 47.63100
C  47.89000 10.08400 47.56800
C  44.37300 9.67200 47.34800
O  44.29500 10.90600 47.15900
C  43.13600 8.63900 47.31500
C  42.10000 8.97700 48.33500
O  41.94800 8.32200 49.35300
O  41.15100 9.87000 47.82400
C  40.12400 10.16800 48.76800
H  42.53900 1.77800 47.56900
H  48.96400 1.46200 48.18300
H  49.45300 7.78000 47.47100
H  40.86300 6.38000 47.29800
H  41.10200 3.47500 46.63400
H  40.98400 3.70400 49.40300
H  39.61000 3.34700 48.31300
H  39.85900 4.94700 48.67400
H  41.34800 5.01400 44.81000
H  42.64800 6.20500 44.97600
H  40.58900 7.70200 45.62900
H  39.76800 6.68100 44.59900
H  44.41400 -1.03500 46.41900
H  43.05200 -0.10600 47.09600
H  44.06700 -1.12700 48.25400
H  48.97300 -0.57200 48.69900
H  49.06400 -0.30300 46.98200
H  49.13400 -1.95200 47.69300
H  50.55800 3.16300 47.01900
H  50.89700 5.66100 48.75100
H  51.38300 2.11900 48.75200
H  50.20700 2.65600 49.89900
H  51.78700 3.65100 49.58400
H  50.91100 6.49500 46.08000
H  51.88900 4.98900 46.30400
H  52.36500 7.11700 48.24700
H  52.86000 7.31100 46.56100
H  53.40600 5.93200 47.54400
H  48.69400 9.91500 46.85100
H  48.32700 10.17300 48.56200
H  47.31800 10.98200 47.33500
H  42.61400 8.86000 46.38300
H  39.48500 10.91400 48.29400
H  40.37800 10.47200 49.78300
H  39.45100 9.31800 48.87800

