158

Mg 45.69200 4.36300 47.48300
C  43.38400 6.99300 46.73800
C  42.98200 2.16300 46.96100
C  47.80900 1.82800 47.65600
C  48.18200 6.66200 47.27000
N  43.35700 4.59100 46.69200
C  42.67400 5.74600 46.61700
C  41.19600 5.45700 46.46200
C  41.06000 3.93700 46.73200
C  42.57200 3.55300 46.82500
C  40.13900 3.52200 47.86200
C  40.69200 6.05100 45.13000
C  39.25000 6.53600 45.21300
H  38.55400 6.68600 43.88400
N  45.43100 2.27300 47.30600
C  44.26700 1.59700 47.16200
C  44.54800 0.21000 47.18600
C  45.97800 0.04600 47.41200
C  46.46000 1.40900 47.56400
C  43.45800 -0.83500 47.05100
C  46.64200 -1.24100 47.56100
O  46.08600 -2.28600 47.27200
C  48.07500 -1.31600 48.01500
N  47.70700 4.22500 47.30600
C  48.36300 3.11100 47.61900
C  49.82800 3.37700 48.01800
C  49.98900 4.88000 47.62100
C  48.49800 5.32500 47.42100
C  50.04100 2.94200 49.49800
C  50.89000 5.15400 46.40600
C  51.83200 6.39600 46.43300
N  45.85400 6.45300 47.15100
C  46.96300 7.25000 47.14000
C  46.52600 8.62000 46.99900
C  45.13300 8.50300 46.95200
C  44.77800 7.21300 46.90500
C  47.41800 9.84400 46.98200
C  43.92700 9.27000 46.87000
O  43.78700 10.47100 46.87600
C  42.80500 8.32100 46.73000
C  41.84300 8.54700 47.85700
O  41.92200 7.93400 48.90300
O  40.88600 9.56100 47.53800
C  39.92100 9.95900 48.65800
H  42.20200 1.43900 46.71700
H  48.62800 1.12000 47.79800
H  49.11500 7.19600 47.45700
H  40.57300 5.95300 47.20600
H  40.68200 3.46200 45.82700
H  39.72600 4.33500 48.45900
H  40.74400 2.85600 48.47800
H  39.32100 2.95500 47.41900
H  41.00200 5.32900 44.37500
H  41.35000 6.88800 44.90000
H  39.25600 7.56000 45.58800
H  38.69100 5.87100 45.87100
H  43.02200 -0.78300 46.05300
H  42.62600 -0.56200 47.70000
H  43.67800 -1.86800 47.31800
H  48.76100 -0.91900 47.26700
H  48.30500 -2.33200 48.33500
H  48.10200 -0.69600 48.91100
H  50.47300 2.73300 47.42100
H  50.45600 5.42200 48.44300
H  50.87400 2.24800 49.61000
H  49.10300 2.52700 49.86500
H  50.32400 3.81800 50.08400
H  50.25600 5.16600 45.52000
H  51.58700 4.33200 46.24400
H  52.79600 6.07500 46.82700
H  51.51800 7.22100 47.07300
H  51.75800 6.66300 45.37900
H  47.82500 9.99700 45.98300
H  48.15700 9.63700 47.75700
H  46.96600 10.79600 47.26100
H  42.27100 8.52900 45.80200
H  39.53900 10.92700 48.33500
H  40.32200 10.09000 49.66300
H  39.02500 9.34500 48.75600
Mg 41.75800 41.19800 27.17100
C  40.88700 43.66400 29.45800
C  42.83700 39.24200 29.81600
C  42.46900 38.68300 24.96900
C  41.15200 43.31600 24.54400
N  41.73100 41.36900 29.34400
C  41.32000 42.47600 30.05700
C  41.25500 42.19000 31.57900
C  41.65700 40.67300 31.68000
C  42.14000 40.40000 30.21200
C  42.80400 40.31300 32.77200
C  39.94200 42.58900 32.27800
C  39.33900 41.68400 33.39200
H  39.02700 42.35200 34.75900
N  42.68100 39.34900 27.35000
C  43.04900 38.74300 28.51500
C  43.58400 37.38500 28.25600
C  43.40700 37.14300 26.86400
C  42.83400 38.48200 26.33400
C  44.22400 36.47400 29.25900
C  43.72600 35.90700 26.00900
O  43.49900 35.85800 24.80100
C  44.32100 34.66000 26.58100
N  42.02200 41.07900 25.09500
C  42.26600 39.88600 24.39200
C  41.96900 40.01100 22.85300
C  41.49300 41.47900 22.82600
C  41.51800 42.02300 24.25400
C  43.35800 39.74600 22.01100
C  40.14500 41.66900 22.09200
C  38.93200 41.12700 22.86300
N  41.09200 43.06900 26.97000
C  40.92500 43.84100 25.83900
C  40.52200 45.14600 26.28300
C  40.52600 45.08500 27.69300
C  40.88600 43.82400 28.06400
C  40.37300 46.38100 25.37300
C  40.28900 45.93600 28.86500
O  39.98000 47.10300 28.95900
C  40.48500 44.95100 30.06300
C  41.51100 45.58500 30.89800
O  42.67900 45.63000 30.68300
O  40.92400 45.97800 32.09400
C  41.80000 46.55900 33.04700
H  43.02700 38.60900 30.68600
H  42.61100 37.96200 24.16100
H  41.10800 43.98800 23.68500
H  42.05300 42.64400 32.16600
H  40.86200 39.94000 31.81900
H  43.76300 40.23500 32.26000
H  42.66300 39.32400 33.20700
H  42.83500 41.10300 33.52200
H  39.25000 42.48100 31.44200
H  39.90700 43.61100 32.65500
H  40.06900 40.90200 33.60400
H  38.45800 41.17200 33.00400
H  45.26400 36.50900 28.93300
H  43.86100 35.44800 29.30100
H  44.09100 36.78800 30.29400
H  43.76000 34.46100 27.49500
H  45.37900 34.88600 26.71300
H  44.15600 33.84100 25.88100
H  41.18500 39.37300 22.44500
H  42.27800 42.18400 22.55300
H  44.01800 39.01800 22.48400
H  43.89700 40.69300 21.99800
H  43.20600 39.39800 20.99000
H  40.25200 41.26100 21.08700
H  40.01000 42.74200 21.95200
H  39.22100 40.33600 23.55400
H  38.19300 40.65800 22.21400
H  38.41400 41.86000 23.48200
H  39.38800 46.51200 24.92500
H  40.96600 46.27700 24.46400
H  40.73800 47.26700 25.89200
H  39.56100 44.80900 30.62300
H  42.48400 47.38000 32.83200
H  42.39300 45.76600 33.50300
H  41.16200 46.89600 33.86300

