158

Mg -1.45200 18.21200 27.34400
C  -2.39700 15.93700 29.90000
C  -1.79900 20.76000 29.39900
C  -0.49300 20.18000 24.72700
C  -1.72200 15.46900 24.99900
N  -1.88300 18.24400 29.40500
C  -2.18900 17.25700 30.35000
C  -2.32700 17.78300 31.76400
C  -2.33400 19.38200 31.48600
C  -1.93800 19.50900 30.02200
C  -3.61500 20.21700 31.97200
C  -1.06300 17.36800 32.67100
C  -1.45900 16.52500 33.83800
H  -0.92000 16.65100 35.28900
N  -1.05200 20.16700 27.19000
C  -1.32500 21.06800 28.12100
C  -0.89100 22.43700 27.62100
C  -0.30700 22.16700 26.32400
C  -0.55300 20.80400 25.99800
C  -1.06400 23.71000 28.41800
C  0.15300 23.11400 25.29600
O  0.79100 22.88600 24.29000
C  0.09600 24.57000 25.67000
N  -1.42400 17.94900 25.04300
C  -0.83300 18.94100 24.25600
C  -0.59700 18.46700 22.80200
C  -0.95100 16.86400 22.93000
C  -1.32300 16.69300 24.42700
C  -1.33800 19.38300 21.82100
C  0.16200 15.87100 22.59400
C  1.49800 16.09600 23.39000
N  -2.03700 16.13800 27.32800
C  -2.01700 15.17500 26.33600
C  -2.34300 13.91700 26.93500
C  -2.59600 14.14000 28.30000
C  -2.28200 15.50800 28.50700
C  -2.51900 12.62200 26.11400
C  -3.05400 13.59900 29.51900
O  -3.55600 12.56100 29.83700
C  -2.95300 14.70300 30.66000
C  -2.05600 14.06600 31.54500
O  -0.84700 14.00100 31.47800
O  -2.84800 13.49200 32.51800
C  -2.23700 12.61900 33.53700
H  -1.90000 21.67200 29.99000
H  -0.06900 20.71700 23.87600
H  -1.86000 14.65500 24.28500
H  -3.27400 17.42700 32.17000
H  -1.47200 19.79900 32.00700
H  -4.15700 20.68700 31.15200
H  -3.24800 21.00500 32.63000
H  -4.30400 19.62400 32.57400
H  -0.53200 18.18600 33.15900
H  -0.31600 16.82000 32.09500
H  -1.12500 15.54500 33.49600
H  -2.54200 16.56200 33.95900
H  -0.18400 24.05300 28.96100
H  -1.83000 23.61900 29.18800
H  -1.41500 24.49000 27.74200
H  0.70700 24.73600 26.55700
H  -0.97300 24.78400 25.69700
H  0.72700 25.18600 25.03000
H  0.45000 18.54800 22.51000
H  -1.88900 16.73500 22.39000
H  -1.97900 20.08400 22.35700
H  -1.96800 18.83900 21.11700
H  -0.64800 19.96200 21.20700
H  0.34600 16.12100 21.55000
H  -0.18900 14.85900 22.79500
H  2.15100 15.22300 23.41500
H  1.26500 16.38300 24.41500
H  2.07500 16.90300 22.93800
H  -1.67300 12.50600 25.43600
H  -3.46400 12.45900 25.59600
H  -2.27600 11.76700 26.74400
H  -3.96200 14.89600 31.02500
H  -2.97600 11.95900 33.98900
H  -1.76300 13.26200 34.27900
H  -1.42400 12.04000 33.09800
Mg 54.30700 23.65700 43.73800
C  51.48300 25.72600 43.26900
C  52.33700 20.98800 42.73400
C  57.16200 22.10100 43.25600
C  56.20400 26.71100 44.23000
N  52.16000 23.40000 42.91800
C  51.16500 24.44800 42.91400
C  49.88100 23.87500 42.38000
C  50.19800 22.33400 42.60500
C  51.66300 22.20200 42.78000
C  49.52600 21.73100 43.80100
C  49.67900 24.18800 40.83500
C  48.24100 24.22500 40.31300
H  47.84400 24.79000 38.91900
N  54.73100 21.79700 43.23700
C  53.77300 20.77800 42.92500
C  54.48900 19.51400 42.68300
C  55.88700 19.76300 42.89500
C  56.03500 21.28400 43.15900
C  53.83700 18.24900 42.17000
C  57.00000 18.70800 42.78200
O  56.81100 17.52000 42.54800
C  58.44600 19.06800 43.08400
N  56.37700 24.29900 43.80700
C  57.39200 23.38600 43.57600
C  58.81800 23.98300 43.89200
C  58.50700 25.48000 44.06400
C  56.95200 25.55400 44.04600
C  59.43500 23.42800 45.12600
C  58.97700 26.35700 42.86800
C  58.74500 25.99200 41.39500
N  53.91000 25.73000 43.89100
C  54.74600 26.78600 44.21200
C  53.97000 27.97700 44.43100
C  52.67000 27.54100 44.08500
C  52.74000 26.22500 43.69400
C  54.39500 29.29100 45.02800
C  51.25100 28.04700 44.09000
O  50.73200 29.11100 44.51200
C  50.46600 26.96100 43.42700
C  50.07900 27.52200 42.12600
O  50.85300 27.93400 41.26200
O  48.67600 27.51300 41.92300
C  48.22900 28.00500 40.60800
H  51.75600 20.07800 42.56900
H  58.00000 21.44900 43.00100
H  56.72500 27.59300 44.60700
H  49.02000 24.18400 42.97300
H  49.96400 21.81200 41.67700
H  48.79600 22.43100 44.20700
H  50.27300 21.48700 44.55700
H  48.99500 20.79300 43.64200
H  50.12500 23.43500 40.18500
H  50.05700 25.20100 40.69700
H  47.70700 24.70600 41.13300
H  47.87500 23.20600 40.43900
H  53.04100 18.31300 41.42800
H  53.42000 17.71800 43.02600
H  54.37500 17.42000 41.71000
H  58.92300 19.74800 42.37800
H  59.09600 18.19800 43.16600
H  58.43200 19.56800 44.05200
H  59.47000 23.74100 43.05300
H  58.68400 25.77600 45.09800
H  60.47500 23.18600 44.90500
H  58.99400 22.45500 45.34300
H  59.28100 24.05400 46.00500
H  60.03900 26.43900 43.10200
H  58.60600 27.36000 43.08000
H  57.93700 25.27300 41.26300
H  59.70700 25.68000 40.99100
H  58.41800 26.90400 40.89500
H  55.22000 29.05200 45.69800
H  53.53300 29.68200 45.56900
H  54.74400 30.09400 44.37800
H  49.56500 26.73300 43.99700
H  48.39700 29.07400 40.48000
H  47.14400 27.90800 40.60600
H  48.69900 27.46600 39.78400

