158

Mg 17.16500 -2.72700 27.98900
C  16.22200 -0.49200 30.75600
C  19.13400 -4.32700 30.05400
C  18.13300 -4.27900 25.30600
C  15.42200 -0.37300 25.89400
N  17.61800 -2.40900 30.12900
C  17.13700 -1.53700 31.08700
C  17.67800 -1.81500 32.48000
C  18.74700 -2.91100 32.18200
C  18.52000 -3.27800 30.68500
C  20.10800 -2.38500 32.49000
C  16.48900 -2.21200 33.37500
C  16.49000 -1.88500 34.85600
H  17.67500 -1.31600 35.49100
N  18.34000 -4.09100 27.77300
C  19.03500 -4.77400 28.74900
C  19.78400 -5.89900 28.19800
C  19.53400 -5.82800 26.76500
C  18.63300 -4.70100 26.58400
C  20.92800 -6.48900 29.00500
C  20.05200 -6.76900 25.68600
O  19.85200 -6.64700 24.48900
C  20.77100 -8.04400 26.14600
N  16.89100 -2.35900 25.86000
C  17.32600 -3.23200 24.95600
C  17.20600 -2.69900 23.50500
C  16.18000 -1.58200 23.79200
C  16.10100 -1.43400 25.28500
C  18.67300 -2.24300 23.07700
C  14.82000 -1.73200 23.08400
C  13.64900 -2.25100 23.95700
N  15.97400 -0.92400 28.24100
C  15.37200 -0.07800 27.28700
C  14.71500 1.08600 27.91000
C  14.96900 0.91100 29.29600
C  15.78500 -0.25700 29.41900
C  13.87300 2.15700 27.23400
C  14.77500 1.49500 30.59300
O  14.23100 2.55700 30.85500
C  15.51600 0.57700 31.61800
C  16.29200 1.31500 32.65200
O  17.44700 1.65900 32.51500
O  15.47100 1.46300 33.77200
C  16.06900 2.28100 34.85700
H  19.79100 -4.89500 30.71600
H  18.53400 -4.84800 24.46400
H  15.02300 0.44500 25.29100
H  18.14000 -0.89900 32.84500
H  18.48000 -3.88400 32.59300
H  20.69000 -3.25500 32.79500
H  20.16000 -1.61500 33.26000
H  20.62900 -1.94900 31.63700
H  16.35600 -3.29400 33.38600
H  15.56200 -1.84500 32.93500
H  16.12600 -2.80700 35.31000
H  15.66400 -1.18000 34.94700
H  21.41700 -5.68800 29.55900
H  21.73100 -7.00000 28.47400
H  20.40300 -7.16600 29.67900
H  20.79800 -8.73200 25.30100
H  20.35200 -8.58600 26.99400
H  21.79700 -7.74300 26.36000
H  16.83600 -3.48700 22.84800
H  16.65500 -0.69700 23.36900
H  19.37000 -2.20300 23.91400
H  18.67400 -1.25900 22.61000
H  18.98900 -3.00000 22.35900
H  14.97500 -2.49400 22.32000
H  14.65800 -0.83100 22.49200
H  13.17000 -1.37700 24.39700
H  13.90200 -2.94100 24.76200
H  12.90000 -2.71100 23.31200
H  12.80300 1.97800 27.34200
H  14.15300 2.12000 26.18100
H  14.10000 3.15300 27.61300
H  14.70300 0.00800 32.06900
H  15.58000 2.05900 35.80600
H  15.77900 3.32100 34.71200
H  17.14000 2.14400 35.00800
Mg 26.69100 51.83500 25.70700
C  24.15900 52.46400 27.90700
C  28.78000 51.06200 28.37700
C  29.15200 51.43300 23.51100
C  24.52600 52.74300 23.08900
N  26.53800 51.91500 27.86700
C  25.37800 52.07200 28.52000
C  25.50300 51.66800 30.01700
C  27.01400 51.38500 30.12800
C  27.49300 51.46700 28.69000
C  27.77900 52.21100 31.25400
C  24.51600 50.50400 30.51800
C  24.84500 49.74700 31.85700
H  23.84400 49.79700 33.07100
N  28.70000 51.34700 25.87700
C  29.32600 51.10800 27.06300
C  30.71800 50.71200 26.68200
C  30.90200 50.93100 25.29400
C  29.55100 51.26100 24.81200
C  31.73500 50.19700 27.71200
C  32.14000 50.78800 24.39700
O  32.15300 51.04400 23.21400
C  33.28200 50.11800 24.94100
N  26.77800 51.96600 23.56300
C  27.91200 51.71500 22.90900
C  27.70500 51.74800 21.34900
C  26.21000 52.03300 21.14200
C  25.79300 52.28300 22.67100
C  28.62800 52.70900 20.46300
C  25.44000 50.77700 20.52600
C  24.33300 51.14400 19.45600
N  24.78200 52.57000 25.46200
C  23.98800 52.78100 24.38600
C  22.69900 53.23000 24.83300
C  22.64700 53.10000 26.23600
C  23.96000 52.74000 26.53200
C  21.65800 53.77100 23.93700
C  21.88600 53.24600 27.42600
O  20.76100 53.71900 27.64600
C  22.79600 52.78200 28.55300
C  22.90400 53.86300 29.49700
O  23.29400 54.99600 29.18500
O  22.44100 53.47800 30.69100
C  22.54600 54.31600 31.83600
H  29.39800 50.79000 29.23600
H  29.93100 51.23400 22.77300
H  23.73400 52.78500 22.33800
H  25.27900 52.59000 30.55300
H  27.13300 50.38200 30.53700
H  28.22400 53.07700 30.76300
H  28.60600 51.64000 31.67500
H  27.05300 52.48500 32.02000
H  24.45200 49.85500 29.64500
H  23.61200 51.05300 30.78100
H  25.66200 50.35500 32.24500
H  25.07200 48.69400 31.68900
H  32.70500 50.66200 27.53500
H  31.91400 49.12200 27.67700
H  31.43500 50.45800 28.72700
H  33.94100 49.66800 24.19800
H  32.85500 49.29200 25.51000
H  33.71300 50.79800 25.67600
H  27.91000 50.72900 21.02000
H  26.04000 52.97500 20.62000
H  28.08800 53.63000 20.24300
H  28.93800 52.14300 19.58400
H  29.47500 53.05300 21.05500
H  24.96400 50.20200 21.32000
H  26.12900 50.05600 20.08500
H  24.38700 50.56700 18.53300
H  24.28300 52.19100 19.15500
H  23.34300 50.99900 19.88900
H  20.76300 53.71200 24.55600
H  21.57700 53.25200 22.98100
H  21.97500 54.78200 23.68200
H  22.33600 51.88700 28.97100
H  23.36600 53.87000 32.39900
H  21.63400 54.21500 32.42500
H  22.62900 55.33400 31.45500

