158

Mg 0.54900 8.27300 25.13400
C  1.31200 9.92800 28.29600
C  0.75000 5.31900 26.98400
C  0.20600 6.76500 22.30500
C  1.20900 11.28700 23.54600
N  0.86700 7.69700 27.44400
C  1.10600 8.56100 28.44200
C  1.29100 7.78000 29.80000
C  1.15900 6.29800 29.37200
C  1.00200 6.42000 27.80400
C  2.30700 5.27600 29.79300
C  0.28500 8.12900 30.96700
C  0.88600 8.58200 32.28500
H  1.98400 7.68500 32.83100
N  0.48300 6.26000 24.68700
C  0.54100 5.23500 25.55400
C  0.37100 4.01900 24.80300
C  0.22600 4.37900 23.40700
C  0.33900 5.83200 23.38800
C  0.31600 2.69100 25.48600
C  0.19300 3.49600 22.19800
O  0.00000 3.94800 21.08800
C  0.32800 1.97500 22.35400
N  0.80800 8.96700 23.20900
C  0.42900 8.12500 22.23600
C  0.70200 8.81600 20.85900
C  0.76900 10.30300 21.25300
C  0.94200 10.16400 22.75400
C  1.89800 8.24600 20.09200
C  -0.39400 11.23300 20.82200
C  -1.81600 11.11000 21.38600
N  1.17500 10.26200 25.68800
C  1.40900 11.38800 24.93500
C  1.74500 12.51400 25.78800
C  1.68600 12.02300 27.09400
C  1.38800 10.61300 27.00100
C  2.02900 13.88200 25.46800
C  1.80600 12.36500 28.51800
O  2.23100 13.42700 29.02500
C  1.57400 11.04300 29.34200
C  2.84300 10.78600 30.06500
O  3.83600 10.14300 29.69900
O  2.76600 11.45100 31.22500
C  3.86600 11.58700 32.15500
H  0.84600 4.32900 27.43500
H  -0.03400 6.31800 21.33900
H  1.37200 12.28200 23.12600
H  2.30600 8.10800 30.02400
H  0.19300 5.86800 29.63500
H  3.02800 5.57700 30.55400
H  2.81100 4.82500 28.93800
H  1.79900 4.46100 30.30800
H  -0.30100 7.25500 31.25100
H  -0.41900 8.84000 30.53400
H  0.11600 8.49100 33.05100
H  1.11400 9.64600 32.22100
H  -0.42100 2.08400 24.96200
H  -0.14700 2.71700 26.47200
H  1.28600 2.19800 25.55900
H  -0.44700 1.47300 22.93300
H  1.34200 1.91400 22.74900
H  0.35700 1.42500 21.41300
H  -0.19900 8.56600 20.29800
H  1.70100 10.77100 20.93400
H  2.74500 8.93100 20.05200
H  1.57500 8.10100 19.06100
H  2.20400 7.26700 20.45800
H  -0.43200 11.25700 19.73300
H  -0.07700 12.23100 21.12400
H  -2.05100 12.08400 21.81600
H  -1.79300 10.36900 22.18400
H  -2.58200 10.80900 20.67100
H  0.99900 14.21000 25.32800
H  2.60800 13.86000 24.54400
H  2.32900 14.46200 26.34000
H  0.66000 11.08700 29.93500
H  4.74800 11.70700 31.52600
H  4.11100 10.70700 32.74900
H  3.69100 12.34100 32.92300
Mg 29.90000 58.21600 40.10700
C  27.05900 56.17200 39.68000
C  31.87600 55.56600 39.17600
C  32.68200 60.28500 39.85800
C  27.91100 61.02600 40.15500
N  29.48500 56.03900 39.80300
C  28.24200 55.44800 39.59400
C  28.44000 53.99800 39.01200
C  30.02200 53.81800 39.27500
C  30.48100 55.25500 39.27700
C  30.42000 53.19900 40.65100
C  28.16500 53.98800 37.50200
C  28.20900 55.32800 36.68000
H  27.42700 55.41100 35.37600
N  31.99400 57.95400 39.71600
C  32.58800 56.79300 39.36900
C  33.97700 56.98900 39.34500
C  34.28000 58.33700 39.59900
C  32.93800 58.93100 39.76300
C  35.04200 55.86700 39.24700
C  35.72900 58.93200 39.61400
O  36.69900 58.22200 39.41300
C  35.90300 60.38100 40.12400
N  30.26700 60.27400 40.05500
C  31.48600 60.91800 39.95200
C  31.40800 62.43100 39.82500
C  29.81100 62.67800 40.07000
C  29.30500 61.27600 40.07700
C  32.29500 63.19800 40.85500
C  29.05200 63.70600 39.15300
C  28.47700 64.95200 39.91300
N  27.86600 58.52100 40.14800
C  27.19200 59.77400 40.11200
C  25.78300 59.56300 39.96400
C  25.67500 58.17000 39.73600
C  26.97400 57.59600 39.93600
C  24.72700 60.57900 39.91100
C  24.76300 57.05900 39.48000
O  23.55200 56.98200 39.28900
C  25.65100 55.79200 39.32300
C  25.08800 54.66600 40.11000
O  24.89700 54.78300 41.29800
O  24.86400 53.57600 39.35600
C  24.24100 52.38700 40.00400
H  32.45700 54.67600 38.92700
H  33.46400 61.04500 39.79500
H  27.37400 61.97600 40.17000
H  27.85200 53.23900 39.52800
H  30.58600 53.29300 38.50400
H  29.48600 52.77500 41.01900
H  30.80400 53.97700 41.31000
H  31.14500 52.39300 40.53500
H  27.18100 53.52700 37.41500
H  28.98000 53.44500 37.02400
H  29.27600 55.44100 36.48700
H  27.98600 56.22400 37.25800
H  35.63000 56.17100 38.38100
H  34.64600 54.92400 38.86800
H  35.74200 55.66100 40.05600
H  35.79200 61.04500 39.26800
H  36.87400 60.61600 40.55900
H  35.14600 60.51700 40.89700
H  31.69800 62.77900 38.83400
H  29.67600 62.99300 41.10500
H  31.64900 63.67100 41.59500
H  32.90800 63.92200 40.31800
H  32.88000 62.51400 41.47100
H  28.25400 63.31400 38.52200
H  29.82100 64.07600 38.47400
H  29.20300 65.73000 39.67700
H  28.40900 64.69800 40.97100
H  27.51000 65.19200 39.47300
H  24.61300 61.03200 40.89600
H  23.81100 60.07400 39.60600
H  25.05600 61.31300 39.17500
H  25.62600 55.53000 38.26500
H  24.58200 51.49000 39.48700
H  23.15300 52.43600 39.94900
H  24.38300 52.43400 41.08400

