158

Mg 44.77900 5.52600 46.70200
C  42.48400 8.32600 46.99900
C  41.99200 3.46200 46.46700
C  46.81200 3.00500 46.56900
C  47.32600 7.88700 46.22100
N  42.55000 5.93900 46.81600
C  41.85700 7.10300 46.91800
C  40.27800 6.82500 46.80900
C  40.23400 5.28700 46.75000
C  41.66800 4.87100 46.72800
C  39.29400 4.54400 47.73800
C  39.49300 7.47200 45.61300
C  40.11300 7.42100 44.21400
H  40.20600 8.68600 43.39000
N  44.46900 3.53700 46.47600
C  43.30200 2.83000 46.46700
C  43.55500 1.43000 46.40200
C  44.96200 1.28600 46.34100
C  45.47800 2.60800 46.49700
C  42.42700 0.34300 46.50500
C  45.74100 -0.10000 46.24300
O  45.09500 -1.14200 46.32700
C  47.22900 -0.16700 45.91400
N  46.76500 5.42000 46.16400
C  47.41500 4.26100 46.47000
C  48.93200 4.49400 46.48300
C  49.01000 5.88700 45.81000
C  47.65700 6.49000 46.13700
C  49.59900 4.32100 47.92800
C  49.25200 5.86900 44.30600
C  50.67800 6.25600 43.90500
N  44.98200 7.67300 46.80400
C  46.08800 8.49500 46.52500
C  45.68300 9.89400 46.63100
C  44.33800 9.85300 46.93200
C  43.92600 8.52300 46.95200
C  46.43100 11.27000 46.47600
C  43.17400 10.68200 47.16300
O  43.06300 11.92500 47.21000
C  41.93500 9.74500 47.12100
C  40.92700 9.87100 48.28500
O  41.00200 9.20300 49.26100
O  39.96300 10.82000 47.92300
C  38.88100 11.00500 48.91600
H  41.11000 2.90900 46.13600
H  47.52700 2.18900 46.69200
H  48.20200 8.50300 46.01000
H  39.92200 7.01700 47.82100
H  39.87700 5.00700 45.75800
H  38.40700 4.22200 47.19300
H  39.04000 5.10900 48.63400
H  39.81000 3.69100 48.17800
H  39.23900 8.52400 45.73900
H  38.55400 6.93500 45.48200
H  39.62100 6.63600 43.64100
H  41.18500 7.28500 44.35600
H  42.49300 -0.27000 45.60600
H  41.42900 0.76100 46.63100
H  42.54800 -0.35200 47.33600
H  47.44600 -1.14400 45.48100
H  47.61500 0.02300 46.91500
H  47.58700 0.57700 45.20200
H  49.50500 3.77200 45.90000
H  49.69100 6.51600 46.38400
H  50.60700 3.90500 47.93700
H  48.96800 3.62700 48.48200
H  49.65600 5.30600 48.39200
H  48.52300 6.46300 43.75400
H  49.12900 4.83400 43.99000
H  51.18000 5.50100 43.30000
H  51.36200 6.56400 44.69600
H  50.49500 7.12000 43.26600
H  46.39900 11.76400 47.44700
H  45.86500 11.89100 45.78200
H  47.46100 11.05200 46.19200
H  41.38200 9.90200 46.19500
H  38.88300 12.05000 49.22700
H  39.08700 10.38000 49.78500
H  37.86500 10.86600 48.54700
Mg 1.12900 42.24400 26.81800
C  2.66600 42.16600 29.98000
C  -1.75600 41.03600 28.31000
C  -0.15100 41.72800 23.73700
C  4.23900 42.82200 25.45000
N  0.55500 41.64600 28.89100
C  1.28000 41.84200 30.04800
C  0.36600 41.68200 31.32100
C  -0.99600 41.21500 30.75600
C  -0.73400 41.27900 29.18500
C  -1.23500 39.77700 31.12800
C  0.33900 42.95700 32.15100
C  0.51000 42.84600 33.61700
H  -0.09900 41.63400 34.26500
N  -0.76700 41.66700 26.07000
C  -1.82900 41.18200 26.90500
C  -2.91200 40.81000 26.02300
C  -2.49800 41.09700 24.66200
C  -1.11600 41.56400 24.73700
C  -4.30600 40.26000 26.57100
C  -3.33000 40.86200 23.36000
O  -2.89800 41.23200 22.26100
C  -4.72400 40.28300 23.35100
N  1.91400 42.40200 24.94200
C  1.20700 42.05000 23.79500
C  2.13300 42.02100 22.57400
C  3.38200 42.79100 23.07000
C  3.19500 42.72500 24.58400
C  2.36600 40.58300 21.92700
C  3.44000 44.23200 22.69000
C  3.82900 44.44200 21.16400
N  3.04000 42.58500 27.43600
C  4.19600 42.80100 26.78700
C  5.27300 43.08300 27.73100
C  4.69500 42.85600 28.93500
C  3.34600 42.49600 28.78300
C  6.72600 43.38800 27.46100
C  4.93300 42.72100 30.35000
O  6.05000 42.77800 30.88000
C  3.62800 42.40100 31.11100
C  3.84900 41.07300 31.80600
O  3.88100 39.98000 31.31700
O  4.07100 41.33600 33.16200
C  4.25100 40.15600 34.06000
H  -2.66300 40.66500 28.79100
H  -0.55500 41.51800 22.74400
H  5.24000 42.85200 25.01400
H  0.76000 40.90500 31.97600
H  -1.76500 41.88100 31.14800
H  -2.31000 39.65000 31.25100
H  -0.63100 39.59600 32.01700
H  -0.90500 39.10700 30.33400
H  -0.61200 43.45200 31.95600
H  1.11800 43.61000 31.75700
H  0.19500 43.78300 34.07600
H  1.57800 42.89600 33.82900
H  -4.20700 40.12200 27.64700
H  -4.47700 39.23600 26.23800
H  -5.18800 40.86200 26.35200
H  -4.80500 39.33000 23.87400
H  -4.96800 40.10000 22.30400
H  -5.44900 41.01400 23.70900
H  1.65600 42.56300 21.75800
H  4.28600 42.26700 22.76000
H  1.46300 39.98500 22.05100
H  3.22000 40.03500 22.32700
H  2.47600 40.56900 20.84300
H  4.34100 44.57900 23.19600
H  2.54900 44.73300 23.06700
H  3.00400 44.95200 20.66500
H  4.03200 43.46100 20.73500
H  4.74400 45.02600 21.06700
H  7.02300 43.82800 28.41300
H  6.86300 44.01700 26.58100
H  7.31900 42.47400 27.44000
H  3.38500 43.24800 31.75300
H  5.28500 40.17400 34.40400
H  4.02600 39.20900 33.56900
H  3.59600 40.21800 34.92900

