158

Mg 30.01400 58.04200 39.99200
C  27.07100 56.39600 39.17000
C  31.86000 55.66800 38.47000
C  32.56700 60.36500 40.05200
C  27.79900 60.94700 40.76600
N  29.46200 56.36700 38.79900
C  28.27000 55.75000 38.78700
C  28.31500 54.38500 38.06500
C  29.84200 54.12700 37.92200
C  30.46600 55.46100 38.45100
C  30.36000 52.81300 38.58600
C  27.56200 54.32200 36.63000
C  28.13600 55.31000 35.57100
H  27.24500 56.07000 34.67700
N  31.88200 57.95900 39.53600
C  32.53800 56.81900 38.93500
C  33.94100 57.08600 38.91000
C  34.20000 58.39600 39.37300
C  32.80400 58.97800 39.67900
C  35.00200 56.02400 38.36800
C  35.54500 58.99100 39.49400
O  36.56100 58.33900 39.29400
C  35.72500 60.45100 39.68000
N  30.16500 60.35200 40.29200
C  31.36100 60.96800 40.39600
C  31.27300 62.46100 40.79100
C  29.73800 62.57700 41.13000
C  29.19800 61.20100 40.73800
C  32.17500 62.88400 41.96200
C  29.01900 63.77900 40.47600
C  28.14500 64.67000 41.34800
N  27.88700 58.56500 40.14000
C  27.17000 59.72900 40.38500
C  25.76200 59.38500 40.51000
C  25.71300 58.11700 39.91300
C  27.00100 57.64200 39.77500
C  24.57700 60.31900 40.90600
C  24.82000 57.10300 39.40200
O  23.58300 57.13200 39.50300
C  25.59600 55.97600 38.90600
C  25.25900 54.70800 39.57700
O  25.59700 54.48600 40.73500
O  24.45900 53.92400 38.76600
C  24.28400 52.55700 39.31600
H  32.42200 54.80900 38.09700
H  33.44200 60.99500 40.22600
H  27.14100 61.78000 41.02200
H  27.85900 53.68500 38.76500
H  30.06400 54.14400 36.85500
H  29.57200 52.14300 38.93000
H  30.79900 53.06500 39.55200
H  31.06800 52.27300 37.95700
H  26.49200 54.45600 36.79100
H  27.60200 53.30900 36.23000
H  28.77000 54.61300 35.02300
H  28.67600 56.09000 36.10700
H  35.54700 56.38700 37.49700
H  34.60900 55.06800 38.02200
H  35.65100 55.95800 39.24100
H  35.11100 61.09700 39.05200
H  36.75800 60.66400 39.40400
H  35.55400 60.64700 40.73800
H  31.72000 63.06200 39.99900
H  29.48600 62.58100 42.19000
H  32.61500 62.12300 42.60700
H  31.71900 63.70800 42.50900
H  33.05800 63.35300 41.53000
H  28.44900 63.31100 39.67400
H  29.71800 64.43200 39.95200
H  27.75100 65.32400 40.57000
H  28.77500 65.29200 41.98300
H  27.30000 64.27800 41.91400
H  24.41800 61.14100 40.20800
H  24.75100 60.62200 41.93800
H  23.71300 59.67100 41.05000
H  25.47400 55.97400 37.82300
H  23.52000 52.50600 40.09200
H  25.25800 52.21400 39.66600
H  24.08900 51.90100 38.46700
Mg -1.81800 35.12300 26.81100
C  -3.74600 33.21800 29.11100
C  -1.25500 37.30700 29.21300
C  -0.24700 36.67000 24.43400
C  -3.14600 32.98900 24.33200
N  -2.51200 35.26100 28.84600
C  -3.13400 34.34000 29.64100
C  -3.09700 34.69700 31.16800
C  -2.55400 36.11500 31.11200
C  -2.03600 36.26800 29.66100
C  -3.55700 37.30700 31.56400
C  -2.23200 33.64500 31.98300
C  -2.95400 32.96700 33.17300
H  -2.14600 32.65800 34.50800
N  -0.75800 36.74200 26.88300
C  -0.62000 37.54800 27.94300
C  0.23600 38.65600 27.55800
C  0.56500 38.50000 26.12300
C  -0.19400 37.27600 25.77300
C  0.53300 39.79600 28.47200
C  1.50700 39.28400 25.27500
O  1.67900 39.01600 24.10200
C  2.29300 40.43500 25.80900
N  -1.62100 34.79700 24.74400
C  -0.92500 35.58700 23.99100
C  -0.92600 35.17100 22.49100
C  -1.52300 33.82100 22.53500
C  -2.19500 33.88400 23.94500
C  -1.67800 36.20500 21.59300
C  -0.66900 32.53800 22.40900
C  0.68700 32.58900 23.14500
N  -3.18300 33.56300 26.70200
C  -3.63300 32.73700 25.59000
C  -4.58800 31.77600 26.02200
C  -4.52000 31.91500 27.41600
C  -3.72500 32.96900 27.75200
C  -5.42200 30.92700 25.14500
C  -5.11100 31.24500 28.60300
O  -5.92800 30.36800 28.71900
C  -4.52900 32.06900 29.72000
C  -5.61100 32.55300 30.54500
O  -6.41100 33.48200 30.26800
O  -5.59800 31.81900 31.71500
C  -6.39400 32.31800 32.83700
H  -0.87700 37.98200 29.98400
H  0.20200 37.27900 23.64600
H  -3.23200 32.27100 23.51400
H  -4.09500 34.66600 31.60300
H  -1.80500 36.18700 31.90000
H  -2.85900 37.92200 32.13200
H  -4.36500 37.05100 32.24900
H  -3.96500 37.92500 30.76400
H  -1.26800 34.07200 32.25900
H  -1.89200 32.78100 31.41300
H  -3.28300 31.96600 32.89400
H  -3.78200 33.60200 33.48800
H  -0.00200 39.79400 29.42100
H  0.02300 40.55100 27.87400
H  1.59800 40.02400 28.50600
H  2.94900 40.22600 26.65500
H  1.55200 41.15700 26.15200
H  2.93500 40.77600 24.99600
H  0.09800 35.11400 22.12300
H  -2.23200 33.66600 21.72200
H  -2.10000 36.97400 22.23900
H  -2.54000 35.68200 21.17900
H  -0.94900 36.62700 20.90100
H  -0.34200 32.45600 21.37200
H  -1.27600 31.63500 22.48400
H  0.53200 31.75200 23.82600
H  0.87000 33.56500 23.59500
H  1.51300 32.35300 22.47400
H  -5.30900 31.07500 24.07200
H  -6.48700 30.96000 25.37700
H  -5.07500 29.91400 25.34800
H  -3.81300 31.42900 30.23600
H  -6.18900 33.37700 32.99400
H  -6.00200 31.88000 33.75500
H  -7.45900 32.10500 32.74800

