158

Mg 41.06500 9.19500 29.91500
C  43.03800 10.60000 32.33200
C  38.92100 7.96900 32.28800
C  39.18000 7.69100 27.48400
C  43.59400 9.91600 27.46000
N  40.96900 9.29200 32.04600
C  41.89600 9.95000 32.86500
C  41.38600 9.98700 34.27000
C  40.24200 8.94700 34.23300
C  40.01300 8.65300 32.73200
C  40.57400 7.61400 35.07000
C  41.00300 11.41200 34.73400
C  40.48400 11.60200 36.21800
H  41.33500 12.37200 37.31300
N  39.15500 8.14200 29.84200
C  38.43200 7.76800 30.99300
C  37.14800 7.22100 30.48000
C  37.22600 7.14000 29.06200
C  38.55500 7.64700 28.74100
C  36.11800 6.73000 31.51100
C  36.17800 6.69700 28.02500
O  36.33600 6.61500 26.84200
C  34.88100 6.39200 28.50100
N  41.35200 8.80300 27.77700
C  40.39900 8.20000 27.04600
C  40.70300 8.26100 25.52700
C  42.08100 8.98400 25.52400
C  42.38900 9.29100 26.99500
C  40.68500 6.92600 24.74300
C  42.10700 10.22100 24.59600
C  41.80800 11.59600 25.12700
N  42.96100 10.10000 29.84800
C  43.85400 10.27800 28.79000
C  45.04000 10.86400 29.31100
C  44.72200 11.11100 30.70300
C  43.51900 10.52600 30.95000
C  46.33500 11.21300 28.60000
C  45.17600 11.71100 31.91800
O  46.24100 12.20400 32.18100
C  44.16600 11.27900 33.11000
C  44.90100 10.42800 34.04200
O  45.25000 9.24600 33.84000
O  45.14800 11.17500 35.10600
C  45.99000 10.58700 36.10600
H  38.21900 7.63200 33.05300
H  38.55500 7.37400 26.64500
H  44.35500 10.19600 26.72900
H  42.21200 9.58800 34.85800
H  39.38600 9.37200 34.75600
H  41.62300 7.32000 35.03500
H  40.04300 6.75700 34.65500
H  40.29500 7.82200 36.10300
H  40.26800 11.91800 34.10800
H  41.95500 11.91300 34.56200
H  40.23600 10.70000 36.77800
H  39.47900 12.00200 36.35200
H  36.42300 6.67200 32.55600
H  35.83000 5.75800 31.11100
H  35.22800 7.35700 31.45200
H  34.40900 7.25100 28.97800
H  35.06200 5.56600 29.18900
H  34.22100 5.97000 27.74300
H  39.89700 8.90000 25.16500
H  42.90200 8.34600 25.19800
H  40.07800 6.94100 23.83800
H  40.17800 6.16700 25.33900
H  41.70700 6.60500 24.54100
H  41.37300 10.08400 23.80200
H  43.04600 10.37200 24.06500
H  42.79700 11.98700 25.36400
H  41.22500 11.42200 26.03100
H  41.17200 12.22700 24.50700
H  46.14700 11.02800 27.54200
H  47.16600 10.59200 28.93700
H  46.56300 12.21400 28.96600
H  43.76500 12.16700 33.59900
H  45.82900 9.56600 36.45400
H  45.76600 11.24100 36.94900
H  46.96600 10.64200 35.62300
Mg -2.79200 34.17000 26.77400
C  -4.66500 32.47800 29.22100
C  -1.92700 36.58400 29.17800
C  -1.24200 35.81300 24.38600
C  -4.09500 32.01600 24.32300
N  -3.33800 34.48400 28.91000
C  -4.02400 33.61100 29.72600
C  -3.92200 34.01000 31.20200
C  -3.32200 35.46800 31.03500
C  -2.84100 35.53800 29.62300
C  -4.34700 36.57600 31.36000
C  -3.10000 33.03000 31.97700
C  -3.82800 32.29400 33.06000
H  -4.30100 33.01900 34.26600
N  -1.69200 35.98100 26.79000
C  -1.46000 36.80300 27.86000
C  -0.49200 37.79100 27.47800
C  -0.30000 37.61900 26.03100
C  -1.07200 36.41800 25.68900
C  -0.07800 38.94600 28.33000
C  0.45700 38.48400 25.10700
O  0.50000 38.22400 23.94900
C  1.12800 39.79600 25.59500
N  -2.64400 33.84700 24.64400
C  -1.90500 34.66500 23.90400
C  -1.64200 34.20800 22.43400
C  -2.42400 32.82500 22.52000
C  -3.10100 32.91000 23.91200
C  -2.12900 35.11800 21.29600
C  -1.51800 31.53000 22.41800
C  -2.04200 30.37500 21.52700
N  -4.12100 32.66400 26.70700
C  -4.43400 31.78300 25.64600
C  -5.27800 30.80300 26.20100
C  -5.37700 30.97600 27.54300
C  -4.66200 32.12600 27.82700
C  -5.75400 29.68700 25.38800
C  -6.01300 30.45700 28.73900
O  -6.74200 29.49700 28.81800
C  -5.57300 31.43500 29.92400
C  -6.82000 32.06500 30.59600
O  -7.35300 33.14100 30.25700
O  -7.24500 31.30300 31.70200
C  -8.03700 32.00100 32.66300
H  -1.62300 37.25900 29.98000
H  -0.72400 36.22200 23.51600
H  -4.32800 31.21800 23.61400
H  -4.88000 34.06000 31.71900
H  -2.54300 35.69100 31.76400
H  -4.56800 37.16400 30.46900
H  -3.86500 37.28500 32.03400
H  -5.22700 36.13200 31.82400
H  -2.27400 33.48600 32.52400
H  -2.57900 32.25400 31.41700
H  -3.29400 31.40500 33.39600
H  -4.71600 31.78200 32.68700
H  0.97900 38.82900 28.57100
H  -0.63000 38.98600 29.26900
H  -0.14900 39.92300 27.85100
H  0.41300 40.58400 25.83200
H  1.81300 40.27900 24.89800
H  1.72700 39.58700 26.48100
H  -0.60000 33.93200 22.27100
H  -3.19000 32.82500 21.74400
H  -2.45100 36.06600 21.72600
H  -2.94600 34.63200 20.76200
H  -1.31900 35.30700 20.59100
H  -1.27100 31.22800 23.43600
H  -0.52700 31.88700 22.13800
H  -2.42100 29.56400 22.14900
H  -1.15000 30.16100 20.93900
H  -2.87700 30.70100 20.90700
H  -5.12300 29.33100 24.57400
H  -6.65500 30.01000 24.86600
H  -6.03800 28.88900 26.07400
H  -4.97200 30.88600 30.64900
H  -8.83500 32.60800 32.23400
H  -7.38400 32.65800 33.23800
H  -8.42200 31.33800 33.43800

