158

Mg 16.96200 51.72900 26.00600
C  18.58100 50.08300 28.69500
C  14.64900 52.85100 28.12600
C  15.38800 52.82700 23.34100
C  19.46700 50.41000 23.84600
N  16.72500 51.56400 28.10800
C  17.53200 50.94300 29.07700
C  17.10100 51.35700 30.43000
C  15.69500 52.05500 30.24500
C  15.67500 52.23900 28.70900
C  14.40900 51.34200 30.83300
C  18.22500 52.11500 31.26000
C  18.71300 51.47200 32.51100
H  17.95200 51.64600 33.82800
N  15.21400 52.72100 25.78700
C  14.37300 53.09700 26.74800
C  13.26800 53.82300 26.20900
C  13.51800 53.84800 24.77900
C  14.77400 53.09800 24.52700
C  12.13300 54.21500 26.96400
C  12.71200 54.44800 23.69000
O  12.93500 54.23300 22.54000
C  11.53400 55.39800 24.09100
N  17.31800 51.60500 23.92700
C  16.54500 52.13900 23.03500
C  16.99800 51.83100 21.59600
C  18.51100 51.61600 21.94400
C  18.41500 51.11000 23.33700
C  16.31200 50.54100 21.07200
C  19.40100 52.82700 21.72700
C  20.19300 52.77400 20.45300
N  18.67700 50.54200 26.19300
C  19.56200 50.08000 25.20100
C  20.55900 49.21700 25.85000
C  20.26500 49.35900 27.23000
C  19.03800 50.00800 27.37900
C  21.67100 48.40600 25.25500
C  20.76000 48.94600 28.55800
O  21.71300 48.22300 28.88200
C  19.61400 49.42900 29.53800
C  19.08500 48.35100 30.28300
O  18.16400 47.59400 30.01700
O  19.95800 48.33200 31.39100
C  19.83800 47.20000 32.17700
H  13.96200 53.26000 28.87000
H  14.97300 53.15600 22.38600
H  20.28000 50.01300 23.23400
H  16.74900 50.50400 31.01000
H  15.59400 53.01000 30.76000
H  13.71400 52.08500 31.22400
H  14.72200 50.51900 31.47500
H  13.95200 50.89700 29.94900
H  17.86900 53.10800 31.53100
H  19.10700 52.33300 30.65700
H  19.64800 51.99600 32.71000
H  18.89800 50.39700 32.50900
H  11.27800 53.73900 26.48400
H  12.03000 55.29700 26.88100
H  12.07800 53.91400 28.01000
H  11.10700 55.82200 23.18200
H  11.86900 56.16200 24.79300
H  10.72200 54.87600 24.59700
H  16.74800 52.58900 20.85400
H  18.92000 50.79300 21.35900
H  15.40000 50.37200 21.64400
H  17.01700 49.71300 21.15200
H  16.00600 50.60800 20.02900
H  20.01100 52.90300 22.62700
H  18.69200 53.65400 21.77500
H  21.16500 53.25800 20.55600
H  19.68200 53.35800 19.68800
H  20.46800 51.77100 20.12600
H  21.87800 47.61200 25.97200
H  22.56400 49.00000 25.06100
H  21.27400 47.88800 24.38100
H  20.09400 50.24000 30.08600
H  19.58500 47.49200 33.19600
H  20.75900 46.61800 32.21300
H  19.08300 46.45100 31.94300
Mg -5.52700 24.91200 25.64300
C  -4.21800 25.99400 28.69300
C  -7.43700 22.64500 27.44900
C  -6.55600 23.65000 22.70700
C  -3.32100 27.07200 23.97400
N  -5.64100 24.32600 27.73300
C  -5.17200 24.97200 28.85400
C  -5.64600 24.43000 30.17800
C  -6.49800 23.23000 29.70100
C  -6.56000 23.42800 28.16500
C  -5.86700 21.81100 30.13600
C  -6.44900 25.58800 30.96300
C  -6.47100 25.47200 32.47500
H  -5.62500 24.33900 33.10000
N  -6.84200 23.37100 25.17000
C  -7.59400 22.60200 26.02500
C  -8.53500 21.78900 25.32500
C  -8.27400 21.97800 23.92300
C  -7.13300 23.02700 23.86200
C  -9.54600 20.87600 25.97100
C  -8.87800 21.25100 22.74000
O  -8.52000 21.56600 21.64100
C  -9.94000 20.14500 22.82000
N  -4.99000 25.19700 23.63200
C  -5.53400 24.54700 22.56300
C  -4.88300 24.93000 21.18700
C  -4.02300 26.20300 21.62000
C  -4.09000 26.17100 23.16100
C  -4.12100 23.77500 20.40800
C  -4.54300 27.66700 21.20500
C  -4.14000 28.12800 19.78200
N  -4.16700 26.33000 26.16400
C  -3.36200 27.14700 25.38500
C  -2.59400 27.91900 26.30500
C  -2.87000 27.41500 27.54700
C  -3.81200 26.54900 27.46300
C  -1.51800 28.91600 25.99100
C  -2.40900 27.63100 28.91300
O  -1.55800 28.40900 29.44400
C  -3.37200 26.69500 29.75400
C  -2.62000 25.88000 30.70300
O  -2.03900 24.83500 30.40200
O  -2.52500 26.53200 31.92000
C  -1.73900 25.83700 32.88900
H  -8.07500 22.07400 28.12700
H  -6.97000 23.18200 21.81100
H  -2.60000 27.76000 23.52800
H  -4.72500 24.10100 30.66000
H  -7.47100 23.21100 30.19100
H  -5.68500 21.19700 29.25400
H  -6.56800 21.22000 30.72600
H  -4.95400 21.89600 30.72600
H  -7.50000 25.52100 30.67900
H  -6.29000 26.65200 30.78800
H  -7.54100 25.32800 32.62200
H  -6.19900 26.44100 32.89200
H  -10.47100 21.01300 25.41100
H  -9.63400 21.01100 27.04900
H  -9.17500 19.86500 25.80500
H  -9.97900 19.61800 21.86700
H  -10.94300 20.48400 23.07500
H  -9.56600 19.48900 23.60600
H  -5.62400 25.25500 20.45600
H  -2.97400 26.26600 21.33000
H  -4.92500 23.29100 19.85300
H  -3.80300 22.94900 21.04400
H  -3.32100 24.22200 19.81800
H  -4.09700 28.39900 21.87800
H  -5.59600 27.63000 21.48500
H  -3.91500 27.26600 19.15300
H  -3.16600 28.60800 19.87500
H  -4.93000 28.78500 19.41800
H  -1.39100 29.02500 24.91400
H  -0.60100 28.58000 26.47700
H  -1.77800 29.86600 26.46000
H  -4.17600 27.27000 30.21400
H  -1.72600 24.74900 32.83300
H  -2.30700 25.98500 33.80800
H  -0.68600 26.11600 32.93400

