158

Mg 25.38300 2.44400 29.58400
C  27.44600 2.26200 32.24000
C  22.68800 2.92400 31.81300
C  23.15000 2.07700 27.04000
C  27.86100 1.04400 27.53200
N  25.09300 2.48600 31.75900
C  26.10500 2.60800 32.56100
C  25.69100 3.01300 34.00800
C  24.13000 3.07300 33.88400
C  23.94700 2.78300 32.39300
C  23.51900 1.98100 34.72500
C  26.39400 4.32800 34.50700
C  27.28500 4.19500 35.80700
H  26.91300 5.11900 36.91800
N  23.21100 2.61600 29.44600
C  22.25600 2.78400 30.47900
C  20.96900 2.97800 29.89600
C  21.04500 2.66500 28.54600
C  22.48300 2.40500 28.23500
C  19.78500 3.36700 30.76200
C  19.94400 2.60000 27.41200
O  20.10200 2.30100 26.24900
C  18.62200 3.00200 27.87200
N  25.48700 1.60400 27.53300
C  24.46200 1.82500 26.66500
C  24.90200 1.52500 25.17700
C  26.40400 1.18400 25.39000
C  26.60300 1.27400 26.90600
C  24.04000 0.45400 24.47900
C  27.46600 1.86400 24.54800
C  27.85000 3.27500 25.11100
N  27.32600 1.75800 29.79000
C  28.19500 1.26700 28.87000
C  29.49500 1.09700 29.53700
C  29.23600 1.50500 30.88700
C  27.89800 1.83700 30.97900
C  30.70700 0.44600 29.00700
C  29.78400 1.69000 32.25100
O  30.93400 1.41100 32.67700
C  28.63600 2.09700 33.16100
C  28.50300 1.06800 34.27100
O  27.79800 0.06700 34.26000
O  29.35400 1.37600 35.33800
C  29.25900 0.43700 36.43600
H  21.89400 3.10100 32.54200
H  22.44700 1.98800 26.20900
H  28.61900 0.72500 26.81300
H  25.84100 2.28300 34.80300
H  23.64100 4.01200 34.14700
H  24.07500 1.29000 35.35800
H  22.87400 1.33900 34.12600
H  22.86700 2.60000 35.34100
H  25.67300 5.12400 34.69000
H  27.20500 4.57800 33.82300
H  28.29200 4.34100 35.41600
H  27.16200 3.19100 36.21100
H  19.11400 4.07200 30.27100
H  20.07900 3.69100 31.76000
H  19.17500 2.46600 30.83300
H  17.78700 2.90700 27.17700
H  18.62400 4.01800 28.26700
H  18.46600 2.38100 28.75400
H  24.74400 2.47600 24.66900
H  26.46200 0.13200 25.11100
H  23.41300 0.89000 23.70100
H  23.30500 -0.01900 25.13000
H  24.63100 -0.30400 23.96400
H  27.08500 2.08800 23.55100
H  28.38600 1.28100 24.52600
H  27.52100 3.63100 26.08700
H  27.46200 4.00100 24.39700
H  28.94000 3.25300 25.08000
H  30.75600 -0.48000 29.58000
H  31.56300 1.01900 29.36400
H  30.68600 0.30600 27.92600
H  28.93000 2.98800 33.71600
H  30.28400 0.34700 36.79600
H  29.05700 -0.62200 36.28000
H  28.65600 0.75000 37.28800
Mg 9.48500 47.59800 26.40100
C  7.70400 47.74100 29.37400
C  12.19600 48.79300 27.91000
C  11.17600 47.86300 23.35800
C  6.45500 47.12300 24.66200
N  9.81800 48.37100 28.40900
C  9.03700 48.14900 29.51200
C  9.90800 48.33100 30.76900
C  11.17800 49.14500 30.21200
C  11.08300 48.79100 28.70400
C  11.33300 50.64400 30.58400
C  10.35100 46.98300 31.41500
C  10.99500 47.11000 32.86400
H  10.29900 46.36300 34.01100
N  11.51200 48.05100 25.76300
C  12.45400 48.48400 26.57900
C  13.69100 48.63500 25.82400
C  13.41400 48.29100 24.49500
C  11.97200 47.99300 24.52100
C  15.03100 48.92600 26.50500
C  14.36500 48.29400 23.24200
O  13.97700 48.11500 22.04800
C  15.78400 48.31800 23.46800
N  8.87400 47.66500 24.37100
C  9.74800 47.65600 23.35100
C  9.04000 47.30900 22.01400
C  7.63100 46.91600 22.34800
C  7.66200 47.25800 23.90800
C  9.04700 48.60600 21.14500
C  7.38800 45.38100 22.09200
C  7.88800 44.34900 23.12700
N  7.45600 47.41900 26.89200
C  6.37200 47.17900 26.08700
C  5.17800 47.18800 26.86700
C  5.61200 47.35400 28.19200
C  7.01700 47.49100 28.16100
C  3.75400 47.04400 26.41000
C  5.22100 47.49100 29.58200
O  4.13800 47.56400 30.21900
C  6.58900 47.60200 30.35800
C  6.63400 46.43600 31.21400
O  7.02600 45.31800 30.98700
O  6.13200 46.79000 32.45100
C  6.17600 45.75300 33.47100
H  13.03700 49.21800 28.46300
H  11.60700 47.70100 22.36800
H  5.56400 46.61400 24.28900
H  9.47600 48.93500 31.56700
H  12.06500 48.65200 30.60900
H  12.19200 50.77500 31.24100
H  10.41000 50.92000 31.09500
H  11.39100 51.16000 29.62600
H  11.05200 46.41200 30.80600
H  9.44400 46.38200 31.49100
H  11.09600 48.17200 33.09000
H  12.01800 46.73500 32.89900
H  15.39100 49.95000 26.40300
H  15.82900 48.34800 26.03900
H  14.92700 48.71300 27.56900
H  16.27300 48.14100 22.51000
H  15.94400 47.35100 23.94400
H  16.09700 49.19100 24.04100
H  9.56900 46.54100 21.44900
H  6.90800 47.51100 21.78900
H  9.42400 49.41600 21.77000
H  8.10600 48.84500 20.64800
H  9.67600 48.52700 20.25800
H  7.81900 45.06900 21.14000
H  6.30300 45.36200 21.98900
H  8.48800 44.71700 23.96000
H  8.39900 43.60900 22.51200
H  7.04800 43.79600 23.54700
H  3.16500 47.01900 27.32700
H  3.72400 46.14300 25.79700
H  3.45300 47.91000 25.82100
H  6.49600 48.56000 30.87000
H  5.51500 45.93000 34.32000
H  7.22000 45.65700 33.77100
H  5.87600 44.75600 33.14900

