158

Mg 7.96200 3.05100 27.75900
C  9.60000 2.09300 30.79800
C  5.97600 5.14800 29.65000
C  6.32500 3.77300 24.98800
C  9.69500 0.42600 26.20100
N  7.66000 3.34400 30.04800
C  8.44800 2.95900 31.03500
C  8.06500 3.73000 32.36000
C  6.83900 4.63600 32.00100
C  6.76300 4.32300 30.48600
C  5.47400 4.44600 32.80100
C  9.18800 4.45100 33.14900
C  8.67400 5.00900 34.48900
H  9.50800 4.66500 35.71000
N  6.46300 4.32200 27.34800
C  5.82100 5.15600 28.21900
C  5.01600 6.03500 27.43400
C  5.19600 5.78900 26.05500
C  5.90400 4.54300 26.08100
C  4.23200 7.13200 28.01700
C  4.82300 6.58500 24.85200
O  5.13900 6.21900 23.74300
C  4.07000 7.85700 24.99500
N  7.93100 2.12300 26.00200
C  7.20800 2.66500 24.92500
C  7.40900 1.87400 23.62000
C  8.54500 0.91800 24.06200
C  8.75900 1.14300 25.49900
C  6.20900 1.27200 22.90900
C  9.79200 1.03900 23.14400
C  10.71400 2.22800 23.35500
N  9.40100 1.49300 28.29300
C  10.01500 0.52900 27.56200
C  10.97000 -0.17900 28.39600
C  10.78000 0.41200 29.65100
C  9.81200 1.45900 29.52700
C  11.81700 -1.23900 27.94400
C  11.23000 0.40100 31.03800
O  12.06800 -0.32500 31.53900
C  10.37700 1.41700 31.88800
C  9.48600 0.64700 32.85000
O  8.55000 -0.11700 32.56500
O  9.97300 0.91700 34.06700
C  9.42700 0.21900 35.22600
H  5.44500 5.92100 30.20800
H  5.87700 4.01500 24.02200
H  10.20400 -0.39200 25.68600
H  7.69600 3.01300 33.09300
H  7.17200 5.66800 32.11700
H  5.57300 3.93800 33.76000
H  4.87800 3.84900 32.11100
H  4.96100 5.38800 32.99500
H  9.57800 5.29800 32.58300
H  9.98500 3.76800 33.44300
H  7.66200 4.63700 34.65000
H  8.67300 6.08200 34.30000
H  4.01800 7.04900 29.08300
H  3.22400 7.10500 27.60400
H  4.69900 8.09000 27.79100
H  3.04800 7.62000 25.29000
H  4.03200 8.20500 23.96300
H  4.54400 8.58300 25.65600
H  7.95900 2.59000 23.00900
H  8.18600 -0.09400 23.87600
H  6.36100 0.22900 22.63000
H  6.03700 1.81400 21.98000
H  5.29200 1.40900 23.48200
H  9.65600 1.26400 22.08600
H  10.39800 0.14700 23.30200
H  11.68200 1.82300 23.64900
H  10.30100 2.95200 24.05700
H  10.90800 2.72300 22.40400
H  11.45200 -2.13000 28.45400
H  12.87000 -1.06400 28.16400
H  11.59200 -1.37000 26.88500
H  10.97500 2.12700 32.46000
H  9.81100 0.50800 36.20500
H  9.76200 -0.79500 35.01100
H  8.33800 0.18700 35.25100
Mg 41.17900 9.31200 29.15100
C  42.65000 10.31000 32.28700
C  38.74800 7.89800 31.10900
C  39.71100 8.54000 26.39800
C  43.97300 10.53800 27.49900
N  40.79600 9.25700 31.47300
C  41.50000 9.64200 32.49900
C  40.82700 9.32500 33.85800
C  39.69300 8.29900 33.41700
C  39.70600 8.50300 31.92400
C  39.78900 6.86700 33.93800
C  40.35100 10.58000 34.63200
C  40.53300 10.54100 36.16600
H  41.49900 11.46600 36.83100
N  39.50700 8.30100 28.76500
C  38.62000 7.80900 29.65100
C  37.54200 7.13900 28.95900
C  37.66700 7.50900 27.59800
C  39.00100 8.11700 27.49600
C  36.43400 6.39100 29.67800
C  36.70600 7.38700 26.47600
O  36.84400 7.94500 25.38900
C  35.40300 6.73600 26.69000
N  41.85400 9.50000 27.25900
C  40.98400 9.17400 26.24000
C  41.57900 9.44500 24.80000
C  43.00600 10.01500 25.16600
C  42.99700 9.96600 26.76500
C  41.45800 8.20600 23.82700
C  43.38500 11.41400 24.64700
C  42.60600 12.66000 25.00100
N  43.06700 10.05400 29.76200
C  44.04800 10.61700 28.92000
C  45.10400 11.13900 29.76400
C  44.56700 11.07600 31.02200
C  43.34800 10.43900 31.00300
C  46.33900 11.67800 29.33300
C  44.87200 11.39400 32.40400
O  45.84900 11.88100 32.87400
C  43.63300 10.82500 33.33700
C  44.14800 9.93600 34.35400
O  44.10700 8.70200 34.29300
O  44.81100 10.67000 35.36700
C  45.67800 9.96500 36.31500
H  37.92500 7.56400 31.74500
H  39.25000 8.18200 25.47400
H  44.72800 11.10600 26.95200
H  41.54900 8.80400 34.48800
H  38.70800 8.65700 33.71400
H  38.81900 6.50000 34.27400
H  40.46700 6.72300 34.77900
H  40.07000 6.20500 33.11900
H  39.28900 10.72100 34.43000
H  40.67400 11.49800 34.14100
H  40.74800 9.54000 36.54000
H  39.59000 10.90700 36.57200
H  36.75600 5.99100 30.63900
H  36.11700 5.59600 29.00400
H  35.58300 6.99900 29.98300
H  35.55500 5.69900 26.99100
H  34.77700 6.73800 25.79800
H  34.84000 7.20300 27.49800
H  40.94100 10.24500 24.42400
H  43.82400 9.35900 24.86600
H  41.24700 7.27000 24.34300
H  42.41600 8.29000 23.31300
H  40.66500 8.40800 23.10700
H  43.32900 11.21400 23.57700
H  44.46800 11.46200 24.76400
H  41.73700 12.49600 25.63900
H  42.15000 13.05800 24.09500
H  43.29800 13.39100 25.41700
H  46.87000 12.18700 30.13800
H  46.07400 12.45300 28.61400
H  47.01100 10.97200 28.84500
H  43.30200 11.71500 33.87100
H  46.72700 10.26000 36.35600
H  45.71500 8.90600 36.06300
H  45.29900 10.04000 37.33400

