158

Mg 34.02900 49.28800 24.89000
C  34.00500 47.48500 27.90600
C  32.51600 51.88000 26.51600
C  33.76200 50.78900 21.92400
C  35.29500 46.31700 23.34400
N  33.53600 49.68700 27.02400
C  33.65700 48.83000 28.04000
C  33.54600 49.57100 29.36600
C  32.92600 50.92300 28.88500
C  32.92200 50.85000 27.37800
C  31.55500 51.30100 29.54700
C  34.88900 49.64700 30.12800
C  34.84700 49.28800 31.62500
H  33.56600 49.30400 32.42100
N  33.27500 51.16500 24.32900
C  32.62300 52.11900 25.10400
C  32.02000 53.16200 24.29400
C  32.44400 52.90500 22.95800
C  33.20300 51.59300 23.01000
C  31.26900 54.30000 24.86900
C  32.19200 53.67200 21.68000
O  32.64100 53.20900 20.59400
C  31.37200 54.98000 21.61200
N  34.45600 48.64600 22.98000
C  34.36800 49.53700 21.92500
C  34.79800 48.88800 20.60700
C  35.52000 47.58500 21.16800
C  35.08000 47.47100 22.58300
C  33.64600 48.62100 19.64700
C  37.06300 47.77200 20.88600
C  37.67100 46.66400 20.00500
N  34.56400 47.25700 25.40200
C  34.96700 46.13800 24.69400
C  35.24800 45.02600 25.51700
C  34.87600 45.45500 26.76500
C  34.43600 46.87900 26.66500
C  35.78200 43.64000 25.17500
C  34.78900 45.10600 28.14200
O  35.03100 44.04100 28.67900
C  34.26400 46.39300 28.97500
C  33.00200 46.08700 29.74900
O  31.91100 46.43500 29.43900
O  33.31900 45.36700 30.90800
C  32.11800 45.11900 31.70200
H  32.13200 52.72000 27.09700
H  33.84000 51.35100 20.99100
H  35.81400 45.52600 22.79800
H  32.75400 49.11400 29.96000
H  33.63300 51.69700 29.18500
H  31.36400 50.78300 30.48700
H  30.78400 50.99600 28.84000
H  31.39800 52.35000 29.80000
H  35.40200 50.55400 29.80900
H  35.55900 48.91800 29.67200
H  35.49600 50.01000 32.12000
H  35.37100 48.33300 31.67200
H  31.34600 54.41800 25.95000
H  30.19700 54.19000 24.70000
H  31.49500 55.23000 24.34800
H  30.45600 54.96400 22.20100
H  31.15200 55.05000 20.54700
H  32.15400 55.64200 21.98400
H  35.48400 49.62100 20.18100
H  35.16800 46.67600 20.67800
H  33.77600 47.64800 19.17300
H  33.76300 49.37200 18.86600
H  32.69500 48.67100 20.17800
H  37.52800 47.83100 21.87000
H  37.28300 48.72900 20.41400
H  36.99200 46.23700 19.26700
H  37.97000 45.87700 20.69700
H  38.54200 47.18500 19.60700
H  36.19300 43.27800 26.11800
H  36.58300 43.72300 24.44000
H  35.03500 43.00600 24.69800
H  34.98200 46.69300 29.73800
H  31.51900 45.99400 31.95700
H  32.53400 44.85200 32.67400
H  31.51400 44.27900 31.36000
Mg -9.54400 42.46400 42.48500
C  -8.32100 39.12600 41.72800
C  -6.51100 43.51700 40.94400
C  -10.78200 45.43300 42.24700
C  -12.53900 40.96400 43.48000
N  -7.51900 41.38200 41.56400
C  -7.30100 40.06000 41.40000
C  -6.02300 39.76100 40.62600
C  -5.32900 41.23800 40.63700
C  -6.53300 42.14700 41.10500
C  -4.04600 41.36500 41.41100
C  -6.23600 39.16000 39.21800
C  -5.39200 37.92200 38.82700
H  -4.32700 38.29200 37.76500
N  -8.69200 44.19600 41.72800
C  -7.47800 44.43800 41.12200
C  -7.35100 45.88700 40.93100
C  -8.56700 46.48400 41.32100
C  -9.41000 45.35100 41.81200
C  -6.21000 46.55500 40.21600
C  -8.86800 48.01500 41.28500
O  -7.98100 48.78000 40.90100
C  -10.23300 48.58600 41.57200
N  -11.44300 43.07900 42.77700
C  -11.71200 44.43800 42.73100
C  -13.05700 44.70800 43.54500
C  -13.57400 43.25000 43.98200
C  -12.46500 42.36100 43.37700
C  -12.78200 45.63900 44.80000
C  -15.04300 42.89400 43.55700
C  -16.07900 42.96000 44.68900
N  -10.26500 40.49200 42.72800
C  -11.51400 40.07900 43.07700
C  -11.59700 38.65000 42.99300
C  -10.41800 38.25000 42.44900
C  -9.60300 39.39800 42.25000
C  -12.79400 37.86000 43.31000
C  -9.69500 37.03500 42.03400
O  -10.00200 35.82500 42.09200
C  -8.30100 37.61200 41.56500
C  -7.27600 36.73300 42.21100
O  -6.91100 36.73200 43.40500
O  -6.62000 35.97500 41.23400
C  -5.74200 34.99900 41.82200
H  -5.52900 43.87000 40.62100
H  -11.09000 46.46500 42.42800
H  -13.38900 40.39600 43.86400
H  -5.37300 39.05600 41.14500
H  -5.18400 41.61800 39.62600
H  -3.42000 40.49000 41.23800
H  -4.43400 41.46700 42.42400
H  -3.66000 42.31500 41.03900
H  -5.95800 40.00600 38.58900
H  -7.29200 38.93700 39.06200
H  -6.06100 37.18900 38.37700
H  -4.88700 37.48500 39.68800
H  -5.69600 47.32900 40.78600
H  -6.67100 47.02400 39.34700
H  -5.52700 45.81400 39.80200
H  -10.28900 48.50400 42.65700
H  -10.93200 47.99000 40.98500
H  -10.42800 49.63500 41.34700
H  -13.83800 45.27500 43.03700
H  -13.49100 43.18000 45.06600
H  -11.85500 46.17200 44.59000
H  -12.70200 45.06000 45.72000
H  -13.54700 46.41500 44.78800
H  -15.08000 41.95000 43.01400
H  -15.35200 43.70600 42.89900
H  -16.70000 43.84400 44.54600
H  -15.61800 43.06500 45.67100
H  -16.81500 42.15600 44.67200
H  -12.42200 36.90000 43.66700
H  -13.41600 37.77400 42.41900
H  -13.27700 38.33400 44.16400
H  -8.27400 37.41900 40.49300
H  -4.96800 35.53800 42.36700
H  -5.21300 34.52500 40.99500
H  -6.27700 34.19400 42.32700

