158

Mg 16.53600 -2.69000 28.20200
C  15.47300 -0.45500 30.77700
C  18.18000 -4.56900 30.46200
C  18.21300 -4.25400 25.62200
C  15.02700 -0.50500 25.87300
N  16.79100 -2.41400 30.34400
C  16.17600 -1.56800 31.24400
C  16.41000 -1.99900 32.68700
C  17.39100 -3.19200 32.52500
C  17.45700 -3.47300 30.98700
C  18.80000 -3.07100 33.09700
C  15.12900 -2.26900 33.51000
C  14.97800 -1.89300 34.98600
H  16.19600 -1.30700 35.63300
N  17.97700 -4.24400 28.06100
C  18.47900 -4.92800 29.11300
C  19.25300 -6.08000 28.60700
C  19.42300 -5.91100 27.17400
C  18.54000 -4.75500 26.91400
C  19.83400 -7.09900 29.50500
C  20.06500 -6.83800 26.14500
O  19.88900 -6.81100 24.91700
C  21.05500 -7.83100 26.60200
N  16.70400 -2.35000 26.07800
C  17.34300 -3.24100 25.23900
C  17.14500 -2.83100 23.77200
C  16.11400 -1.65900 23.88300
C  15.86500 -1.56400 25.39300
C  18.51000 -2.60500 23.06200
C  14.80000 -1.88200 23.11400
C  14.62200 -1.08400 21.86900
N  15.50400 -0.90600 28.26500
C  14.91200 -0.19100 27.20500
C  14.40400 1.06800 27.73500
C  14.51800 0.99500 29.14300
C  15.20700 -0.25800 29.40900
C  13.75100 2.12700 26.91200
C  14.23100 1.62200 30.37400
O  13.48700 2.59700 30.63100
C  14.91500 0.75200 31.47600
C  15.95800 1.57700 32.16000
O  16.98400 1.93300 31.58700
O  15.59500 1.94500 33.40300
C  16.53300 2.91600 34.07100
H  18.68000 -5.14900 31.24100
H  18.75400 -4.70300 24.78700
H  14.43000 0.14900 25.23400
H  16.92500 -1.15800 33.15200
H  16.99100 -4.10400 32.96800
H  18.77300 -2.31100 33.87700
H  19.59100 -2.94800 32.35600
H  19.06400 -3.99500 33.61300
H  14.93200 -3.32900 33.35200
H  14.38400 -1.67800 32.97800
H  14.72800 -2.84000 35.46500
H  14.09800 -1.26300 35.11900
H  19.52200 -8.03800 29.04900
H  19.58400 -6.93400 30.55300
H  20.92200 -7.02500 29.50700
H  21.45800 -7.47700 27.55100
H  21.79300 -8.09000 25.84300
H  20.45500 -8.70200 26.86900
H  16.65100 -3.67100 23.28400
H  16.58900 -0.75100 23.51200
H  19.21100 -2.60800 23.89700
H  18.46800 -1.66300 22.51500
H  18.66600 -3.46200 22.40700
H  13.94900 -1.59500 23.73200
H  14.62700 -2.91400 22.80600
H  13.92400 -0.24700 21.85000
H  14.35600 -1.79100 21.08300
H  15.52400 -0.51800 21.63600
H  12.78400 1.81600 26.51600
H  14.27900 2.30600 25.97500
H  13.68700 3.02900 27.52100
H  14.03400 0.50600 32.06900
H  16.08600 3.41500 34.93100
H  16.77100 3.73200 33.38900
H  17.42200 2.41000 34.44900
Mg -1.62100 34.64200 26.06000
C  -3.23000 32.76800 28.54500
C  -0.50400 36.82300 28.52700
C  -0.18700 36.44600 23.65100
C  -3.00500 32.56800 23.70600
N  -1.85700 34.70800 28.27000
C  -2.64700 33.89600 29.08500
C  -2.46100 34.33400 30.54600
C  -1.71700 35.64400 30.48700
C  -1.34200 35.73800 28.95400
C  -2.55000 36.87700 30.98500
C  -1.74000 33.17200 31.27800
C  -2.30000 32.72200 32.66900
H  -1.29400 32.63700 33.91600
N  -0.48700 36.37000 26.13400
C  -0.07900 37.13700 27.22400
C  0.74200 38.26700 26.83500
C  0.80000 38.16900 25.39700
C  -0.01900 36.93800 24.99800
C  1.32000 39.26800 27.81400
C  1.52200 39.10000 24.42400
O  1.46200 38.97200 23.21600
C  2.09100 40.37900 24.96900
N  -1.74300 34.67100 23.96100
C  -0.93000 35.41400 23.19500
C  -1.10100 35.18000 21.74700
C  -1.95600 33.86500 21.73000
C  -2.28800 33.67400 23.23200
C  -1.83200 36.31000 20.93700
C  -1.25400 32.59100 21.17500
C  0.02300 32.23900 21.92700
N  -2.91300 33.03700 26.08000
C  -3.35900 32.29000 25.04000
C  -4.16100 31.21300 25.44600
C  -4.22500 31.35400 26.88000
C  -3.36300 32.43700 27.20800
C  -5.03600 30.36000 24.57700
C  -4.87900 30.95000 28.13600
O  -5.69900 30.03100 28.27300
C  -4.13600 31.79100 29.27500
C  -5.19800 32.50900 30.09500
O  -5.93400 33.42200 29.70300
O  -5.29100 32.05900 31.35000
C  -6.26800 32.56200 32.30400
H  -0.04600 37.37300 29.35100
H  0.45500 36.94600 22.92200
H  -3.41700 31.86400 22.98000
H  -3.49800 34.39200 30.87500
H  -0.80000 35.55700 31.06900
H  -2.67300 37.71600 30.30000
H  -2.03500 37.31800 31.83900
H  -3.54000 36.64600 31.37900
H  -0.72100 33.49600 31.48800
H  -1.50100 32.29100 30.68300
H  -2.78400 31.74600 32.61500
H  -3.05600 33.48000 32.87600
H  2.24300 39.72000 27.45100
H  1.38800 38.91700 28.84400
H  0.58800 40.07400 27.78000
H  2.29200 41.03200 24.11900
H  3.02100 40.15000 25.49000
H  1.36600 40.88900 25.60300
H  -0.15200 35.08200 21.21900
H  -2.83500 33.77800 21.09100
H  -2.35800 36.90800 21.68100
H  -2.51700 35.96400 20.16300
H  -1.07400 36.85400 20.37300
H  -0.88400 32.79700 20.17100
H  -2.04500 31.84100 21.20300
H  0.08300 31.17000 22.12800
H  0.11700 32.77800 22.87000
H  0.85300 32.47800 21.26200
H  -6.05600 30.28600 24.95400
H  -4.62500 29.39000 24.29700
H  -5.08700 30.91600 23.64100
H  -3.45800 31.17700 29.86800
H  -5.73100 33.22400 32.98300
H  -6.59200 31.72500 32.92100
H  -7.09200 33.11700 31.85400

