158

Mg 46.61000 16.81400 27.62600
C  44.71000 16.54000 30.53600
C  48.94100 18.64600 29.57200
C  48.55600 17.40800 24.96500
C  44.13700 15.49700 25.76100
N  46.79000 17.64200 29.86500
C  45.86900 17.24300 30.88500
C  46.29200 17.70600 32.28000
C  47.55500 18.58100 31.95400
C  47.78100 18.36500 30.35100
C  47.55000 20.20700 32.15300
C  46.64300 16.47000 33.30600
C  46.42900 16.72700 34.78200
H  46.39000 18.19300 35.33800
N  48.60100 17.67900 27.38700
C  49.34700 18.36400 28.28800
C  50.60400 18.75900 27.62100
C  50.48600 18.32100 26.28100
C  49.21100 17.78200 26.14600
C  51.79700 19.25900 28.39600
C  51.49600 18.58800 25.18800
O  51.27900 18.58100 23.98100
C  52.95700 18.99700 25.58800
N  46.41100 16.53200 25.72600
C  47.30000 16.82600 24.70400
C  46.90800 16.26300 23.32000
C  45.66400 15.49400 23.69700
C  45.37700 15.86400 25.13200
C  46.58000 17.33500 22.33100
C  45.80100 13.98300 23.52100
C  45.18400 13.43100 22.20100
N  44.73500 16.14900 27.98300
C  43.88200 15.51800 27.12600
C  42.73900 15.02100 27.90800
C  43.00800 15.45700 29.24600
C  44.28100 16.10200 29.20000
C  41.50000 14.21200 27.36000
C  42.45100 15.54800 30.60400
O  41.37600 15.20300 31.00800
C  43.53400 16.32600 31.45900
C  42.89800 17.53900 32.02200
O  42.93300 18.65100 31.51700
O  42.36300 17.13900 33.24900
C  41.62600 18.16000 33.93700
H  49.68900 19.31600 30.00300
H  49.18000 17.71600 24.12300
H  43.43500 14.93500 25.14100
H  45.55800 18.35700 32.75400
H  48.40700 18.19400 32.51200
H  48.25900 20.36200 32.96600
H  46.66900 20.79700 32.40300
H  47.91700 20.73100 31.27000
H  47.69400 16.20600 33.18200
H  46.07200 15.57400 33.06600
H  47.24100 16.14000 35.21200
H  45.50800 16.18300 34.98800
H  52.69900 18.73300 28.08300
H  51.71900 19.18800 29.48100
H  51.92200 20.30600 28.12000
H  53.55200 18.28200 26.15800
H  52.89200 19.91200 26.17700
H  53.52500 19.12700 24.66700
H  47.66300 15.58300 22.92400
H  44.75100 15.83500 23.20900
H  45.50800 17.45400 22.17700
H  47.00900 17.03200 21.37600
H  46.95500 18.30900 22.64800
H  45.41100 13.43300 24.37800
H  46.80600 13.56000 23.49500
H  44.53200 14.24500 21.88600
H  44.48600 12.59900 22.29300
H  45.89400 13.27200 21.38900
H  41.79300 13.87300 26.36600
H  40.59300 14.81700 27.34000
H  41.33700 13.36300 28.02400
H  43.78900 15.64400 32.27000
H  42.29700 18.97700 34.20200
H  41.19400 17.78200 34.86400
H  40.89500 18.64700 33.29100
Mg -12.12300 16.78700 40.49200
C  -8.89300 15.47600 40.13000
C  -10.70200 19.90200 40.22600
C  -15.19600 18.03200 40.21000
C  -13.38900 13.55600 40.53600
N  -10.04500 17.65700 40.08300
C  -8.90800 16.90000 39.99700
C  -7.59400 17.80000 40.00200
C  -8.18800 19.28100 40.14300
C  -9.71200 18.96100 40.18800
C  -7.73800 20.20600 41.32800
C  -6.76800 17.69900 38.67100
C  -5.36500 17.08700 38.73400
H  -4.80700 15.73200 38.17200
N  -12.85600 18.74400 40.11600
C  -12.11400 19.84900 40.05800
C  -13.08800 20.95100 39.82700
C  -14.37400 20.42100 39.78400
C  -14.23200 18.99800 40.01900
C  -12.54500 22.34000 39.67000
C  -15.57400 21.21400 39.56000
O  -15.51600 22.43800 39.34800
C  -16.95400 20.56300 39.47600
N  -14.01500 15.87200 40.24900
C  -15.14200 16.60200 40.31100
C  -16.40500 15.74900 40.42700
C  -15.86200 14.34000 40.26500
C  -14.27400 14.58100 40.51800
C  -17.13100 15.99700 41.81800
C  -16.08200 13.60000 38.84600
C  -17.51100 13.31800 38.51300
N  -11.38000 14.90600 40.31300
C  -11.98800 13.66700 40.50600
C  -11.06500 12.61500 40.48700
C  -9.79000 13.22900 40.26300
C  -10.04700 14.65900 40.22700
C  -11.47100 11.19500 40.62800
C  -8.35200 13.08600 40.19300
O  -7.67400 12.08000 40.34800
C  -7.74700 14.49000 40.14300
C  -6.82000 14.53100 41.26400
O  -7.09900 14.99800 42.34000
O  -5.55100 14.18000 40.89000
C  -4.57300 14.35500 41.96300
H  -10.23500 20.88300 40.12100
H  -16.23300 18.36500 40.13800
H  -13.80200 12.54500 40.55600
H  -6.99400 17.51000 40.86400
H  -8.10000 19.88400 39.24000
H  -8.60100 20.45500 41.94600
H  -7.40000 21.11900 40.83800
H  -6.95800 19.67900 41.87800
H  -6.74800 18.61700 38.08300
H  -7.29200 17.05300 37.96700
H  -5.11500 17.15500 39.79300
H  -4.63000 17.75800 38.29000
H  -13.08800 22.92200 38.92500
H  -11.53100 22.36200 39.26900
H  -12.49400 22.93700 40.58000
H  -16.80800 19.75000 38.76400
H  -17.73900 21.25300 39.17000
H  -17.20400 20.24700 40.48900
H  -17.06800 16.04200 39.61200
H  -16.18800 13.63700 41.03200
H  -18.05400 16.57500 41.86300
H  -16.41300 16.29000 42.58300
H  -17.55700 15.02800 42.08100
H  -15.39100 12.78000 38.65100
H  -15.68600 14.36500 38.17700
H  -17.69900 12.24500 38.49000
H  -17.82900 13.60100 37.50900
H  -18.18500 13.81100 39.21400
H  -11.84800 10.76200 39.70100
H  -12.11100 10.91400 41.46400
H  -10.46500 10.79300 40.75200
H  -7.14500 14.60000 39.24000
H  -4.40200 15.43000 42.02400
H  -3.58100 13.99200 41.69400
H  -4.83300 13.98500 42.95400

