158

Mg -0.19800 7.96100 24.62200
C  0.44100 8.95900 28.01600
C  -0.38300 4.72900 25.70700
C  -0.58500 7.16900 21.48700
C  0.02900 11.35400 23.74700
N  0.05100 6.94900 26.67300
C  0.32400 7.53200 27.89400
C  0.62100 6.48100 28.96500
C  0.43500 5.08800 28.13000
C  0.01500 5.59600 26.79000
C  1.66100 3.99500 28.12500
C  -0.27900 6.41900 30.25600
C  0.56600 6.61800 31.52100
H  1.77900 5.77800 31.84700
N  -0.43300 6.19200 23.72800
C  -0.46600 4.92900 24.36400
C  -0.49400 3.89800 23.31100
C  -0.54000 4.62400 22.05100
C  -0.54200 6.03400 22.37600
C  -0.66600 2.42300 23.60300
C  -0.63000 4.07200 20.62500
O  -0.73700 4.82700 19.62200
C  -0.50500 2.56600 20.42500
N  -0.30400 9.10500 22.86400
C  -0.44500 8.50300 21.68200
C  -0.40400 9.54500 20.48100
C  -0.33600 10.83400 21.28500
C  -0.13100 10.40900 22.75300
C  0.79800 9.42800 19.49600
C  -1.63300 11.76800 21.15700
C  -2.89100 11.21700 21.86600
N  0.26500 9.81600 25.61000
C  0.18800 11.12500 25.13100
C  0.61500 12.05000 26.20600
C  0.66900 11.25800 27.29800
C  0.47300 9.88800 26.94300
C  0.86700 13.45900 26.02700
C  0.89600 11.32900 28.73600
O  1.10500 12.30600 29.51000
C  0.83700 9.81600 29.21900
C  2.18600 9.63300 29.73700
O  3.11300 9.15400 29.15100
O  2.19000 9.92300 31.09000
C  3.32400 9.44800 31.87600
H  -0.20200 3.68300 25.96300
H  -0.72900 6.87400 20.44600
H  0.01900 12.35700 23.31500
H  1.68000 6.54800 29.21400
H  -0.48100 4.61600 28.48600
H  1.53300 3.56700 27.13100
H  1.57900 3.23000 28.89700
H  2.60900 4.51000 28.28000
H  -0.75400 5.45200 30.41800
H  -1.04100 7.19500 30.19000
H  -0.14600 6.48500 32.33500
H  0.78400 7.68100 31.42000
H  -1.50900 2.07300 23.00700
H  -0.91700 2.25600 24.65100
H  0.28900 2.00100 23.29200
H  0.35200 2.16100 20.96300
H  -0.39100 2.49300 19.34300
H  -1.40600 2.07500 20.79300
H  -1.36100 9.34300 19.99900
H  0.55300 11.42300 21.05900
H  1.35800 10.34200 19.29700
H  0.38200 9.03700 18.56800
H  1.43000 8.66600 19.95200
H  -1.96900 11.87000 20.12500
H  -1.32100 12.71700 21.59400
H  -3.59800 10.97300 21.07300
H  -3.32700 12.11500 22.30400
H  -2.70800 10.30700 22.43800
H  1.65500 13.74900 26.72100
H  0.01000 14.09900 26.23800
H  1.19500 13.62500 25.00100
H  0.07600 9.78600 29.99800
H  3.47300 10.20100 32.65100
H  4.15300 9.35100 31.17500
H  3.16000 8.51500 32.41600
Mg 54.33000 23.29000 45.12400
C  51.97800 25.33400 43.72800
C  52.49200 20.54800 44.27100
C  57.21200 21.25300 45.18300
C  56.39000 26.07300 45.45700
N  52.41600 23.01900 44.11600
C  51.56300 23.96400 43.70200
C  50.28600 23.30900 43.10700
C  50.34300 21.90400 43.79800
C  51.83700 21.75800 44.02800
C  49.54100 21.87500 45.19600
C  50.28100 23.32500 41.54600
C  49.03100 23.76900 40.87900
H  48.82700 23.60600 39.41700
N  54.77400 21.13400 44.83900
C  53.82000 20.21300 44.48200
C  54.44900 18.92000 44.57400
C  55.82100 19.11300 44.78300
C  55.97900 20.54300 44.96000
C  53.64200 17.56300 44.39500
C  56.83200 17.93900 44.77400
O  56.39400 16.76700 44.56600
C  58.29400 18.10900 44.86800
N  56.41700 23.61300 45.29500
C  57.39400 22.65500 45.39300
C  58.77200 23.28100 45.83600
C  58.50500 24.79700 45.76500
C  57.00800 24.83000 45.52100
C  59.23200 22.66800 47.23900
C  59.26200 25.57400 44.66200
C  60.05500 26.83500 45.01800
N  54.07800 25.36000 45.01700
C  55.02800 26.31000 45.17600
C  54.42600 27.58900 45.02900
C  53.26100 27.32900 44.34700
C  53.15300 25.88100 44.33600
C  54.93800 28.81300 45.56900
C  52.08100 27.81200 43.69900
O  51.71200 29.00200 43.59100
C  51.16700 26.57000 43.23100
C  51.01800 26.68300 41.82600
O  51.84200 26.43500 40.97100
O  49.71900 27.12700 41.57700
C  49.42600 27.29000 40.13200
H  51.77800 19.72200 44.25500
H  58.10500 20.63500 45.29400
H  57.01200 26.96900 45.50000
H  49.48100 23.87700 43.57300
H  49.91800 21.18400 43.09900
H  50.05800 21.35100 46.00000
H  48.58600 21.37100 45.05200
H  49.29300 22.86800 45.57100
H  50.36900 22.28300 41.23700
H  51.14200 23.83200 41.11200
H  48.89300 24.81300 41.15800
H  48.18600 23.22500 41.30300
H  52.57700 17.77000 44.49100
H  53.87600 16.80600 45.14500
H  53.85300 17.13800 43.41400
H  58.63600 18.53800 45.81000
H  58.62000 18.65400 43.98300
H  58.80800 17.15300 44.76300
H  59.48400 23.00600 45.05800
H  58.77600 25.23400 46.72600
H  58.61700 21.80900 47.50700
H  59.21700 23.38600 48.05900
H  60.25500 22.30900 47.12500
H  58.57900 25.87000 43.86500
H  59.95000 24.86100 44.20700
H  61.12100 26.61300 44.98300
H  59.94400 27.21900 46.03200
H  59.73400 27.64700 44.36500
H  54.83100 28.80800 46.65400
H  54.36200 29.67800 45.24100
H  55.99000 28.95900 45.32500
H  50.24300 26.74200 43.78400
H  48.48000 27.82200 40.03100
H  49.45000 26.36800 39.55200
H  50.15400 27.91500 39.61600

