158

Mg 41.13500 7.86700 28.67600
C  42.83200 9.23200 31.51600
C  38.79200 6.44700 30.69700
C  39.88300 6.33000 25.97100
C  43.96700 8.77700 26.74800
N  40.87800 7.85100 30.88100
C  41.62000 8.57400 31.83700
C  40.97800 8.42100 33.23800
C  39.72100 7.55200 32.95100
C  39.72500 7.30800 31.37700
C  39.68800 6.13500 33.65200
C  40.55100 9.81800 33.79400
C  39.93100 9.88100 35.19600
H  40.60500 10.59800 36.39300
N  39.52700 6.71100 28.41000
C  38.61400 6.25700 29.31700
C  37.57600 5.49100 28.65100
C  37.79900 5.66300 27.20300
C  39.13400 6.24700 27.13700
C  36.46000 4.71900 29.29600
C  37.01200 5.12300 25.99500
O  37.30400 5.26100 24.81200
C  35.65600 4.43600 26.26000
N  41.87700 7.53600 26.66400
C  41.16500 6.82100 25.72700
C  41.88300 6.77000 24.43800
C  43.27700 7.51100 24.70500
C  43.01100 8.05900 26.10000
C  42.08200 5.35200 23.80400
C  43.61600 8.60300 23.64100
C  43.94200 8.08900 22.24900
N  42.89400 8.89800 28.95600
C  43.89700 9.20500 28.08400
C  45.00400 9.98900 28.80300
C  44.57900 9.95200 30.14000
C  43.37400 9.21000 30.19800
C  46.27200 10.56300 28.24600
C  44.88600 10.34800 31.47600
O  45.88500 10.88300 31.88200
C  43.80200 9.90100 32.42200
C  44.33500 9.03100 33.48900
O  44.86500 7.94000 33.29700
O  44.01500 9.50000 34.73800
C  44.64600 8.72400 35.84800
H  38.10400 5.88200 31.33000
H  39.40800 5.76000 25.17000
H  44.77000 9.17000 26.12200
H  41.70700 7.92000 33.87400
H  38.82400 8.09500 33.25000
H  40.57500 6.03800 34.27800
H  39.71300 5.26500 32.99700
H  38.83000 5.93100 34.29200
H  39.84500 10.23100 33.07400
H  41.32200 10.58400 33.88000
H  39.83800 8.84200 35.51300
H  38.92200 10.29300 35.20500
H  36.41600 4.90700 30.36900
H  36.60400 3.66200 29.07200
H  35.63300 5.20100 28.77700
H  35.87600 3.67800 27.01200
H  35.30300 4.10000 25.28500
H  35.04600 5.27900 26.58700
H  41.34600 7.38400 23.71500
H  44.18300 6.90900 24.77800
H  41.51300 4.51100 24.20200
H  43.13900 5.08700 23.81700
H  41.64100 5.44100 22.81100
H  44.33600 9.37400 23.91400
H  42.77700 9.26500 23.42500
H  43.27000 8.54200 21.52000
H  43.82400 7.00600 22.26000
H  44.97800 8.36800 22.05400
H  46.98000 10.94700 28.98100
H  45.97300 11.30200 27.50200
H  46.86400 9.90300 27.61200
H  43.38300 10.77400 32.92100
H  44.40600 7.66100 35.83300
H  44.53400 9.11600 36.85900
H  45.71400 8.72800 35.63300
Mg -5.01700 25.10800 26.73200
C  -3.43900 26.58500 29.56000
C  -6.42200 22.92400 28.89900
C  -6.45700 23.70400 24.15000
C  -2.94000 27.21700 24.62200
N  -4.94100 24.81000 29.02200
C  -4.31300 25.58600 29.95500
C  -4.71300 25.19400 31.38400
C  -5.14300 23.66000 31.00600
C  -5.55100 23.77900 29.57800
C  -3.85500 22.72900 31.17800
C  -5.80800 26.16500 32.02000
C  -5.48200 26.91100 33.31300
H  -4.80600 26.05200 34.42900
N  -6.36200 23.62600 26.55600
C  -6.94100 22.84900 27.58100
C  -7.82700 21.81800 27.06100
C  -7.85400 22.10800 25.69300
C  -6.87200 23.17400 25.39500
C  -8.57800 20.75100 27.84100
C  -8.79900 21.51200 24.63300
O  -8.69800 21.81500 23.46600
C  -9.88100 20.42500 24.93100
N  -4.67300 25.38500 24.73700
C  -5.57300 24.76100 23.83900
C  -5.37800 25.30400 22.46600
C  -4.23600 26.42200 22.59900
C  -3.87400 26.36400 24.08300
C  -5.11200 24.25900 21.33300
C  -4.60000 27.89100 22.03400
C  -3.58300 28.49700 20.98100
N  -3.51700 26.65400 26.96100
C  -2.72800 27.35400 26.04600
C  -1.81500 28.16500 26.73100
C  -2.10700 27.92800 28.12200
C  -3.12900 26.96900 28.20400
C  -0.85300 29.21100 26.07000
C  -1.65300 28.23000 29.43600
O  -0.69500 28.90100 29.77400
C  -2.65500 27.44700 30.44300
C  -1.68200 26.81800 31.39200
O  -1.29900 25.65400 31.22900
O  -1.35300 27.64800 32.45900
C  -0.44200 27.01000 33.41600
H  -6.90200 22.18000 29.53800
H  -7.07000 23.51100 23.26700
H  -2.43500 27.85100 23.89000
H  -3.77700 25.24400 31.93900
H  -5.96500 23.41500 31.67900
H  -3.97500 22.28200 32.16500
H  -2.96000 23.35000 31.21900
H  -3.82000 21.88800 30.48500
H  -6.76300 25.66500 32.17900
H  -5.96200 26.80700 31.15300
H  -6.38700 27.36000 33.72100
H  -4.71700 27.64300 33.05600
H  -8.29200 20.80400 28.89200
H  -8.39100 19.71600 27.55800
H  -9.65500 20.91300 27.88300
H  -9.39900 19.46000 25.08800
H  -10.47900 20.40800 24.02000
H  -10.41000 20.68800 25.84700
H  -6.28100 25.85400 22.20100
H  -3.39300 26.05200 22.01700
H  -4.63500 24.62800 20.42500
H  -6.05900 24.04200 20.83800
H  -4.78300 23.28400 21.69300
H  -4.82000 28.64100 22.79500
H  -5.55500 27.80800 21.51500
H  -3.49300 29.58000 21.06600
H  -4.08100 28.22600 20.05000
H  -2.54200 28.17300 20.98500
H  -0.66600 28.93500 25.03200
H  0.06200 29.26800 26.66000
H  -1.20600 30.24100 26.01700
H  -3.22500 28.09200 31.11100
H  0.38400 26.60200 32.83400
H  -1.01000 26.28000 33.99300
H  -0.14800 27.78600 34.12200

