158

Mg 39.62800 10.31400 29.95500
C  41.52500 11.35800 32.67600
C  37.40300 8.89400 32.30600
C  37.72300 8.90600 27.43300
C  42.12700 11.14600 27.75900
N  39.58100 10.06400 32.18400
C  40.33200 10.73100 33.08300
C  39.87900 10.69700 34.52500
C  38.71700 9.66400 34.33600
C  38.53200 9.58200 32.84500
C  38.88500 8.21800 35.00000
C  39.50900 12.11100 35.09800
C  40.31700 12.74100 36.27500
H  39.55200 13.19900 37.47900
N  37.82700 9.03800 29.90600
C  37.00300 8.67400 30.96100
C  35.74900 7.98300 30.41300
C  35.83500 7.99100 29.01200
C  37.17700 8.63100 28.73700
C  34.78100 7.34500 31.42300
C  34.82100 7.43300 27.99800
O  34.99400 7.46900 26.80500
C  33.51000 6.88800 28.56900
N  39.91400 9.98500 27.94100
C  38.99100 9.45900 27.03800
C  39.54900 9.61800 25.55100
C  40.78300 10.61400 25.72900
C  40.96900 10.57900 27.24900
C  39.84000 8.29700 24.76200
C  40.47200 12.11700 25.39500
C  41.75000 12.80800 24.73600
N  41.45600 11.06100 30.08800
C  42.35300 11.42200 29.14900
C  43.47200 11.97700 29.75300
C  43.17700 12.10700 31.12700
C  41.96800 11.41700 31.29700
C  44.68400 12.42000 29.00300
C  43.62200 12.65900 32.42200
O  44.65500 13.26600 32.65600
C  42.63700 12.13900 33.47200
C  43.33500 11.20600 34.46400
O  43.76000 10.09800 34.20800
O  43.49400 11.89100 35.68500
C  43.99800 11.10800 36.83000
H  36.70900 8.67300 33.12000
H  37.17800 8.57800 26.54500
H  42.92300 11.38200 27.05000
H  40.73000 10.18900 34.97900
H  37.84300 10.13300 34.78800
H  38.00700 7.88800 35.55600
H  39.73500 8.43800 35.64500
H  39.29600 7.48900 34.30200
H  38.45700 12.01300 35.36800
H  39.59500 12.84500 34.29700
H  40.86400 13.63200 35.96800
H  41.05600 11.97400 36.50400
H  34.36700 6.43700 30.98400
H  33.92000 8.00900 31.50300
H  35.33300 7.12900 32.33700
H  33.23400 7.68700 29.25800
H  33.80000 6.01100 29.14800
H  32.71800 6.60700 27.87500
H  38.82100 10.07500 24.88100
H  41.64200 10.30800 25.13200
H  40.92600 8.25500 24.67900
H  39.35800 7.96400 23.84300
H  39.57000 7.46800 25.41800
H  40.10200 12.70500 26.23500
H  39.65400 12.20700 24.68000
H  41.42900 12.98100 23.70900
H  42.60300 12.13500 24.81900
H  41.94600 13.77400 25.20100
H  44.58800 12.02200 27.99200
H  45.65300 12.10400 29.38600
H  44.86000 13.49500 28.96200
H  42.27200 13.02900 33.98400
H  43.49200 11.27900 37.78000
H  45.07800 11.24400 36.88700
H  43.74100 10.05400 36.72300
Mg -11.90600 15.30600 41.90200
C  -9.02100 13.39100 41.58700
C  -10.49800 17.85200 40.32300
C  -15.00300 16.69100 41.66100
C  -13.57400 12.18100 42.72000
N  -10.12400 15.42500 40.80300
C  -9.02500 14.61700 40.94500
C  -7.82400 15.27400 40.31000
C  -8.15400 16.72600 40.34200
C  -9.73700 16.68300 40.43000
C  -7.68400 17.56700 41.53100
C  -7.35300 14.68700 38.92800
C  -5.89000 14.79700 38.64300
H  -5.44100 15.46600 37.38800
N  -12.67000 17.12800 41.17400
C  -11.85300 18.08600 40.70800
C  -12.64800 19.31300 40.60100
C  -13.99400 19.02100 40.91900
C  -13.95700 17.60700 41.26500
C  -12.10900 20.64100 40.31900
C  -15.18400 19.91200 41.06200
O  -15.10200 21.12800 40.82600
C  -16.60900 19.43600 41.47200
N  -13.89600 14.50900 42.01000
C  -14.97600 15.35500 42.04300
C  -16.31600 14.61700 42.30800
C  -15.83800 13.14200 42.32100
C  -14.31800 13.28700 42.33900
C  -17.09400 15.18200 43.55100
C  -16.24400 12.28200 41.12000
C  -17.00300 11.01100 41.39800
N  -11.39300 13.27100 42.31100
C  -12.15000 12.16500 42.71500
C  -11.32200 10.95500 42.93000
C  -10.05700 11.46300 42.58300
C  -10.21200 12.81700 42.09700
C  -11.78200 9.44800 43.33800
C  -8.67300 11.06700 42.46500
O  -8.05500 10.08900 42.88100
C  -7.96400 12.30500 41.77300
C  -6.94700 12.80600 42.66400
O  -7.10000 13.40200 43.74800
O  -5.76700 12.57800 42.01200
C  -4.68600 13.43400 42.51600
H  -9.94600 18.72500 39.96800
H  -15.97800 17.16800 41.77500
H  -13.97300 11.17800 42.88500
H  -6.99500 15.02000 40.97100
H  -7.72600 17.20900 39.46400
H  -7.47100 16.93000 42.38900
H  -8.34200 18.38700 41.82000
H  -6.70300 17.89400 41.18700
H  -7.98700 15.23900 38.23500
H  -7.67500 13.66600 38.72400
H  -5.36900 13.83900 38.66000
H  -5.47200 15.24100 39.54700
H  -12.17400 20.86600 39.25500
H  -11.08300 20.47200 40.64800
H  -12.49500 21.39000 41.01000
H  -17.35700 20.20800 41.29500
H  -16.52600 19.18600 42.53000
H  -16.83800 18.56000 40.86600
H  -16.93700 14.82800 41.43700
H  -16.22700 12.61800 43.19300
H  -17.83100 15.93100 43.26300
H  -16.44400 15.62500 44.30600
H  -17.57800 14.34700 44.05700
H  -15.32600 11.99800 40.60600
H  -16.81200 12.92000 40.44300
H  -16.50300 10.04400 41.33800
H  -17.68600 11.02800 40.55000
H  -17.57400 10.97400 42.32600
H  -12.85900 9.44500 43.50500
H  -11.27300 9.27500 44.28600
H  -11.45200 8.76100 42.55900
H  -7.72800 11.96200 40.76600
H  -3.89600 13.42300 41.76500
H  -4.21400 13.14500 43.45600
H  -4.98000 14.47800 42.61800

