158

Mg -2.63300 17.11800 26.28500
C  -3.25900 14.89700 28.72600
C  -3.30600 19.78100 28.46300
C  -2.12100 19.38700 23.79800
C  -2.15600 14.52400 23.95400
N  -3.08800 17.34800 28.41300
C  -3.25300 16.22400 29.16600
C  -3.66100 16.71100 30.58700
C  -4.13600 18.20600 30.32700
C  -3.40700 18.47300 29.04900
C  -5.58700 18.39200 30.25200
C  -2.47900 16.53600 31.53700
C  -2.70200 16.00800 32.97900
H  -1.53300 15.63500 33.80900
N  -2.57900 19.34700 26.20600
C  -2.83800 20.18400 27.21600
C  -2.63500 21.53200 26.70700
C  -2.36200 21.46200 25.32100
C  -2.37700 20.02800 25.03100
C  -2.83900 22.85300 27.62900
C  -2.09700 22.56500 24.32800
O  -1.95100 22.43800 23.11300
C  -2.04900 23.98100 24.83200
N  -2.25600 16.97100 24.12900
C  -2.09200 18.06200 23.39100
C  -1.78800 17.71200 21.97700
C  -1.57000 16.14400 21.96700
C  -2.10300 15.81300 23.41000
C  -2.71600 18.23100 20.87200
C  -0.08700 15.83600 21.78500
C  0.83700 16.25300 22.96600
N  -2.81800 15.11700 26.27400
C  -2.53600 14.18700 25.32300
C  -2.75600 12.84600 25.84200
C  -3.11000 13.10700 27.20900
C  -3.08100 14.47700 27.37400
C  -2.49400 11.55000 25.08900
C  -3.54600 12.40500 28.41600
O  -3.69500 11.21200 28.60900
C  -3.43900 13.58200 29.52600
C  -2.15900 13.19300 30.23200
O  -1.11800 13.83100 30.23700
O  -2.40400 12.13600 31.04600
C  -1.59300 12.07600 32.24100
H  -3.40400 20.54300 29.23900
H  -1.89600 20.06900 22.97500
H  -2.09700 13.64200 23.31300
H  -4.53000 16.20000 31.00100
H  -3.72200 18.87200 31.08400
H  -6.10800 17.53700 30.68300
H  -5.82600 18.46700 29.19100
H  -5.87100 19.32000 30.74900
H  -2.14000 17.55600 31.71700
H  -1.69600 15.92800 31.08300
H  -3.26600 15.07800 32.90100
H  -3.40000 16.63700 33.53000
H  -3.23800 22.64100 28.62100
H  -3.65900 23.48700 27.29000
H  -1.94000 23.47000 27.63700
H  -1.24400 24.08500 25.56100
H  -2.96200 24.25200 25.36100
H  -1.89700 24.66600 23.99800
H  -0.82200 18.18500 21.79700
H  -2.18100 15.58200 21.26200
H  -2.09100 18.63200 20.07500
H  -3.27300 19.04300 21.34000
H  -3.40500 17.48800 20.47100
H  0.22700 16.29400 20.84700
H  -0.00800 14.76200 21.61600
H  1.45500 15.51800 23.48100
H  0.36500 16.87400 23.72700
H  1.56600 16.93200 22.52400
H  -3.31400 11.19400 24.46500
H  -2.28700 10.85300 25.90000
H  -1.60000 11.61700 24.47000
H  -4.27000 13.66100 30.22600
H  -0.93800 12.92000 32.45700
H  -1.02600 11.14900 32.32400
H  -2.37700 12.05300 32.99800
Mg 24.47100 -7.04500 47.38300
C  27.18700 -4.96400 46.34800
C  22.69700 -5.59100 44.88000
C  22.22800 -9.47500 47.70900
C  26.76400 -8.74500 49.38200
N  24.83100 -5.34800 45.94100
C  26.01400 -4.79600 45.58600
C  25.78500 -3.74500 44.50200
C  24.22600 -3.68300 44.31200
C  23.89500 -4.96700 45.05300
C  23.45200 -2.44600 44.80700
C  26.51100 -4.13000 43.11100
C  27.05800 -2.91100 42.37200
H  26.88700 -2.83700 40.84500
N  22.64700 -7.43200 46.54300
C  22.12500 -6.71100 45.48600
C  20.78500 -7.16100 45.26700
C  20.54300 -8.33600 46.11400
C  21.89600 -8.46600 46.81700
C  19.76300 -6.45900 44.35300
C  19.36200 -9.18500 46.24800
O  18.33900 -8.95600 45.59100
C  19.26700 -10.37700 47.14900
N  24.49000 -8.82100 48.47300
C  23.43100 -9.66700 48.45200
C  23.64800 -10.86200 49.37700
C  25.12600 -10.65300 49.83100
C  25.49500 -9.37300 49.22500
C  22.66200 -10.98000 50.58300
C  26.12400 -11.80300 49.55400
C  27.00500 -12.00700 50.78100
N  26.52500 -6.88200 47.88000
C  27.30600 -7.60900 48.71600
C  28.55900 -7.05100 48.81700
C  28.59600 -5.98800 47.93200
C  27.33500 -5.90000 47.38900
C  29.71300 -7.63600 49.66200
C  29.38300 -4.88900 47.35800
O  30.46800 -4.45800 47.67500
C  28.53100 -4.23200 46.31600
C  28.47400 -2.76400 46.64100
O  28.18100 -2.26600 47.70500
O  28.76300 -2.03800 45.50900
C  28.66600 -0.61500 45.71000
H  22.14700 -5.12000 44.06200
H  21.61000 -10.32800 47.99500
H  27.57600 -9.25800 49.90000
H  26.12800 -2.75300 44.79500
H  23.94000 -3.79700 43.26700
H  23.01100 -1.89200 43.97800
H  24.07900 -1.91300 45.52100
H  22.50700 -2.75600 45.25300
H  25.84000 -4.68200 42.45200
H  27.38100 -4.78500 43.15200
H  28.10100 -2.81900 42.67500
H  26.50500 -2.07400 42.79900
H  19.14900 -7.15400 43.78000
H  20.33300 -5.81200 43.68600
H  19.14800 -5.79500 44.96000
H  20.00800 -11.12000 46.85500
H  18.29000 -10.81800 46.95200
H  19.44300 -10.02700 48.16600
H  23.62600 -11.79700 48.81700
H  25.22600 -10.47800 50.90200
H  23.23800 -10.96500 51.50900
H  22.18300 -11.94200 50.40400
H  21.96000 -10.14600 50.59700
H  26.65700 -11.49200 48.65600
H  25.66100 -12.76800 49.34500
H  27.71500 -12.77000 50.46300
H  26.39800 -12.49400 51.54400
H  27.38200 -11.07800 51.20900
H  30.53700 -6.93200 49.78100
H  30.03000 -8.48500 49.05500
H  29.43600 -8.05200 50.63100
H  28.93200 -4.41900 45.32000
H  29.29200 -0.34600 46.56100
H  27.67800 -0.15700 45.75900
H  29.21100 -0.14100 44.89400

