158

Mg 0.10600 6.39300 25.76200
C  0.83100 8.47900 28.64500
C  0.12600 3.69200 28.03100
C  -0.41100 4.49400 23.09700
C  0.50600 9.20300 23.79700
N  0.23300 6.19200 28.13100
C  0.58600 7.16700 29.02000
C  0.83600 6.59500 30.43300
C  0.84000 5.09200 30.13500
C  0.33900 4.93200 28.70300
C  2.18100 4.30900 30.38000
C  -0.30100 7.15400 31.36200
C  0.22200 7.64400 32.75300
H  1.30600 6.92400 33.58500
N  -0.22300 4.36600 25.55700
C  -0.20600 3.42100 26.57400
C  -0.60700 2.15800 25.95100
C  -0.68500 2.35000 24.55400
C  -0.41500 3.82000 24.34300
C  -0.76200 0.84700 26.66100
C  -1.15900 1.41700 23.45600
O  -1.13800 1.77600 22.29300
C  -1.46800 -0.02400 23.73900
N  0.18000 6.81500 23.70200
C  -0.22900 5.83500 22.86400
C  -0.43800 6.51100 21.46900
C  -0.50000 8.05600 21.75800
C  0.10300 8.07000 23.18900
C  0.63900 6.05900 20.46200
C  -1.90200 8.78500 21.57100
C  -2.65200 8.35800 20.39200
N  0.69300 8.45300 26.08800
C  0.83400 9.44100 25.15900
C  1.29000 10.60500 25.84800
C  1.28400 10.26200 27.20300
C  0.92100 8.99400 27.33800
C  1.56200 11.92200 25.11900
C  1.44300 10.88000 28.48600
O  1.73700 12.04900 28.81200
C  1.22300 9.71000 29.50900
C  2.53200 9.56200 30.20700
O  3.47300 8.90700 29.74800
O  2.55200 10.11200 31.48600
C  3.88700 10.14200 32.13000
H  0.41000 2.85800 28.67600
H  -0.57800 3.96200 22.15800
H  0.64500 10.05900 23.13400
H  1.78500 6.94500 30.84000
H  0.06200 4.57000 30.69200
H  2.64000 4.14200 29.40600
H  1.98200 3.37800 30.91000
H  2.90700 4.81200 31.02000
H  -1.03800 6.36000 31.48200
H  -0.71400 8.04600 30.89000
H  -0.58400 7.76300 33.47700
H  0.58600 8.63900 32.49600
H  -0.06600 0.16800 26.16800
H  -1.78900 0.50600 26.52500
H  -0.46100 0.93900 27.70400
H  -2.28900 -0.20400 24.43300
H  -0.57100 -0.50200 24.13200
H  -1.79200 -0.55800 22.84600
H  -1.38300 6.10500 21.10900
H  0.28400 8.52300 21.16100
H  1.13900 6.96300 20.11400
H  0.09100 5.52700 19.68400
H  1.43900 5.43100 20.85300
H  -1.81800 9.87200 21.56000
H  -2.57500 8.57600 22.40300
H  -3.55200 7.79800 20.65000
H  -2.21300 7.55500 19.79900
H  -2.74400 9.17400 19.67500
H  0.93300 11.98500 24.23200
H  2.60000 12.06000 24.81400
H  1.33400 12.80100 25.72200
H  0.46500 9.81200 30.28600
H  3.94500 10.87000 32.94000
H  4.73600 10.39700 31.49600
H  3.96300 9.26300 32.76900
Mg -0.92500 34.34500 26.79500
C  -1.95500 32.89300 29.78700
C  0.77600 36.73800 28.79500
C  -0.15200 36.05300 24.09900
C  -2.63600 31.93500 25.02300
N  -0.40000 34.58100 29.09500
C  -0.99500 33.89200 30.15200
C  -0.55400 34.32000 31.48200
C  0.17200 35.70200 31.10400
C  0.19600 35.73200 29.55300
C  -0.45100 36.95400 31.78300
C  0.22300 33.20400 32.20300
C  -0.53800 32.66200 33.43400
H  -0.00900 32.77200 34.81500
N  0.28800 36.02900 26.49500
C  0.98800 36.87800 27.35400
C  1.82700 37.82500 26.66000
C  1.66300 37.55800 25.30000
C  0.52300 36.62000 25.18500
C  2.85300 38.64600 27.37800
C  2.35100 38.25200 24.09200
O  1.97300 38.02200 22.92800
C  3.44300 39.29100 24.35400
N  -1.58300 34.14000 24.87700
C  -1.02400 34.92200 23.89500
C  -1.46800 34.49300 22.52900
C  -1.95100 33.04800 22.84400
C  -2.07900 33.00100 24.35400
C  -2.54000 35.42700 21.89800
C  -0.95100 31.94000 22.21500
C  0.25500 31.34100 22.97600
N  -2.12100 32.80400 27.24500
C  -2.78400 31.87200 26.46500
C  -3.40000 30.85000 27.19300
C  -3.21000 31.29300 28.56200
C  -2.38200 32.43900 28.51300
C  -4.47400 29.84200 26.65600
C  -3.43600 30.94300 29.97200
O  -4.01900 30.03200 30.51700
C  -2.80700 32.14600 30.74800
C  -4.00900 32.89700 31.37700
O  -4.57500 33.78700 30.75500
O  -4.57200 32.29000 32.50800
C  -5.81300 32.85600 32.97900
H  1.34500 37.51300 29.31300
H  0.09400 36.55100 23.15900
H  -2.97000 31.09600 24.41000
H  -1.52600 34.66100 31.83700
H  1.20100 35.73600 31.46100
H  0.36400 37.53600 32.21400
H  -1.18000 36.83900 32.58500
H  -0.88200 37.46500 30.92200
H  1.16000 33.63700 32.55500
H  0.47200 32.43900 31.46800
H  -0.79700 31.63500 33.17600
H  -1.45100 33.25600 33.47500
H  3.85400 38.23400 27.24700
H  2.66100 38.71700 28.44800
H  2.87500 39.66400 26.99000
H  2.85600 40.14300 24.69700
H  4.04300 39.53200 23.47600
H  4.13300 39.07400 25.16900
H  -0.60200 34.46800 21.86700
H  -2.92600 32.76200 22.44900
H  -3.05100 35.96600 22.69500
H  -3.40100 35.04300 21.35000
H  -2.10000 36.15900 21.22000
H  -0.61400 32.37200 21.27200
H  -1.62100 31.09300 22.07100
H  0.37700 31.74900 23.98000
H  1.14900 31.50900 22.37600
H  0.13900 30.26400 23.09400
H  -5.44100 30.34400 26.65400
H  -4.44300 28.98900 27.33400
H  -4.24000 29.70800 25.60000
H  -2.17500 31.77400 31.55500
H  -6.32500 32.10100 33.57600
H  -6.41700 33.31700 32.19700
H  -5.65300 33.68600 33.66600

