158

Mg 1.88800 -1.50600 43.21700
C  5.36600 -1.09300 42.83300
C  1.40100 1.37000 41.25900
C  -1.38600 -2.26500 42.90400
C  2.48200 -4.72700 44.54400
N  3.14000 -0.10100 42.14100
C  4.54000 -0.07800 42.18800
C  5.16200 1.05100 41.45700
C  3.85000 2.08600 41.33900
C  2.70700 1.05900 41.61800
C  3.86700 3.31300 42.29900
C  5.77200 0.71400 40.03200
C  6.69100 1.83800 39.50900
H  6.29400 2.51700 38.17500
N  0.24300 -0.56400 42.32900
C  0.25400 0.58000 41.50200
C  -1.13800 0.83700 41.07800
C  -1.96800 -0.14800 41.61600
C  -1.06200 -1.02800 42.39300
C  -1.60000 1.93400 40.20400
C  -3.46600 -0.19900 41.42300
O  -4.10000 0.65100 40.78800
C  -4.33200 -1.25700 42.08300
N  0.74500 -3.31200 43.61100
C  -0.60000 -3.24800 43.58000
C  -1.23500 -4.54300 43.94100
C  -0.02000 -5.36400 44.52100
C  1.16900 -4.45300 44.11700
C  -2.43900 -4.51300 44.99400
C  0.10300 -6.80600 43.91200
C  0.36100 -7.93200 44.91200
N  3.53500 -2.61800 43.80600
C  3.66800 -3.87600 44.36100
C  5.04200 -4.16600 44.60400
C  5.79500 -3.18100 44.01300
C  4.85200 -2.20100 43.54500
C  5.44100 -5.44400 45.27200
C  7.06200 -2.62400 43.62400
O  8.18400 -3.09100 43.81600
C  6.86100 -1.35900 42.85600
C  7.52300 -0.22200 43.43900
O  7.21900 0.44000 44.42800
O  8.68500 -0.00600 42.70900
C  9.13700 1.35400 42.81200
H  1.32200 2.27900 40.65900
H  -2.42100 -2.61400 42.93100
H  2.57500 -5.73300 44.95800
H  5.91000 1.54200 42.08100
H  3.81700 2.33900 40.27900
H  2.88900 3.49700 42.74400
H  4.04000 4.14700 41.61900
H  4.62300 3.17300 43.07200
H  4.96000 0.61400 39.31100
H  6.25000 -0.26500 40.02200
H  7.70000 1.42400 39.51800
H  6.69400 2.57400 40.31300
H  -0.78600 2.65100 40.10400
H  -2.38400 2.53900 40.65800
H  -1.91200 1.60500 39.21300
H  -5.38800 -1.17900 41.82800
H  -4.09200 -1.15600 43.14200
H  -3.92100 -2.19800 41.71800
H  -1.48900 -5.15200 43.07300
H  -0.08500 -5.32100 45.60800
H  -3.40400 -4.71900 44.53100
H  -2.41300 -3.53300 45.46900
H  -2.29900 -5.37800 45.64200
H  1.05200 -6.83700 43.37600
H  -0.80200 -6.99000 43.33300
H  1.30200 -8.44200 44.70400
H  -0.48000 -8.61500 44.79200
H  0.23300 -7.51700 45.91200
H  6.53000 -5.40400 45.25600
H  5.26900 -6.32200 44.65000
H  5.17400 -5.65300 46.30800
H  7.07200 -1.51900 41.79900
H  10.10100 1.39300 42.30500
H  9.23800 1.70100 43.84100
H  8.43200 2.10700 42.45800
Mg 41.26300 8.01000 30.01900
C  42.94800 9.56000 32.84600
C  38.96500 6.91200 32.25400
C  39.87400 6.55900 27.35100
C  43.96500 8.91600 28.15300
N  40.96800 8.33600 32.27700
C  41.71500 9.05500 33.17600
C  41.05100 9.10900 34.58700
C  39.90000 8.06900 34.44300
C  39.89000 7.73100 32.87400
C  40.03100 6.79800 35.25000
C  40.61400 10.46600 35.20000
C  40.35000 10.39800 36.70600
H  41.10900 11.40500 37.57600
N  39.66800 6.79600 29.82100
C  38.79400 6.53000 30.90100
C  37.65100 5.82700 30.29000
C  37.93800 5.64800 28.88400
C  39.19300 6.27600 28.57900
C  36.42100 5.50200 31.16900
C  37.08000 5.16400 27.79700
O  37.52800 4.89800 26.72000
C  35.59200 5.15100 28.03000
N  41.80300 7.82200 27.96000
C  41.04300 7.21800 27.04100
C  41.56500 7.35800 25.63500
C  42.92600 8.16200 25.91000
C  42.90600 8.32600 27.39700
C  41.80200 6.01700 24.88500
C  43.00000 9.57700 25.11600
C  41.93300 10.67900 25.44600
N  43.19500 8.96800 30.39100
C  44.24000 9.22600 29.50000
C  45.29500 9.81400 30.13100
C  44.85300 10.01800 31.46600
C  43.57200 9.47200 31.55300
C  46.66200 10.06300 29.58400
C  45.21200 10.55700 32.73100
O  46.21700 11.15600 33.08100
C  43.98700 10.28200 33.70400
C  44.36900 9.34200 34.79700
O  44.65800 8.17500 34.60300
O  44.22800 9.97100 35.96200
C  44.32700 9.14200 37.09800
H  38.20800 6.66400 33.00000
H  39.35300 6.23100 26.44900
H  44.75900 9.15700 27.44300
H  41.81100 8.62600 35.20100
H  38.96600 8.51800 34.78000
H  40.20200 6.04200 34.48400
H  39.09000 6.45900 35.68300
H  40.83300 6.69700 35.98200
H  39.79900 10.98400 34.69500
H  41.48900 11.05800 34.93100
H  40.61100 9.39100 37.03100
H  39.28800 10.63900 36.76600
H  36.82700 5.40500 32.17600
H  35.90400 4.59800 30.84900
H  35.64600 6.24700 31.35500
H  35.03400 5.10200 27.09500
H  35.31800 6.08900 28.51300
H  35.20700 4.35100 28.66300
H  40.87500 8.02300 25.11500
H  43.76600 7.50200 25.69400
H  41.59600 6.12100 23.81900
H  41.07000 5.29500 25.24600
H  42.82300 5.67200 25.04600
H  42.89200 9.22700 24.09000
H  43.99200 10.00100 25.27100
H  42.38800 11.29000 26.22600
H  41.00100 10.22000 25.77500
H  41.72000 11.34500 24.61000
H  47.44400 9.63400 30.21100
H  46.83000 11.12500 29.40600
H  46.69300 9.59500 28.60000
H  43.62400 11.19100 34.18400
H  45.28800 8.75900 37.44100
H  43.68500 8.27600 36.93000
H  43.75800 9.66600 37.86600

