158

Mg 24.28300 -4.61800 45.68300
C  26.34300 -2.19900 44.08100
C  21.65500 -3.40000 43.57400
C  22.51600 -7.38400 46.35000
C  27.05100 -5.82800 47.35700
N  24.07700 -3.03600 43.97800
C  25.00900 -2.16000 43.61100
C  24.58300 -1.25900 42.44900
C  23.04900 -1.37100 42.60300
C  22.91300 -2.69900 43.42100
C  22.33300 -0.22100 43.35600
C  25.12100 -1.87800 41.05400
C  25.77700 -0.76300 40.16800
H  25.34400 -0.88600 38.68000
N  22.27100 -5.25600 45.12400
C  21.44000 -4.64200 44.25100
C  20.23500 -5.45800 44.15900
C  20.41900 -6.66200 44.93500
C  21.78900 -6.45700 45.51500
C  19.11200 -5.12700 43.29000
C  19.38400 -7.72000 45.17900
O  18.29600 -7.65300 44.60000
C  19.63800 -8.75300 46.20000
N  24.69900 -6.29300 46.68100
C  23.82900 -7.34100 46.84500
C  24.24100 -8.42100 47.78400
C  25.65300 -7.88800 48.20600
C  25.79700 -6.54400 47.42400
C  23.24800 -8.78500 48.91300
C  26.88700 -8.85400 48.04900
C  28.05400 -8.74500 49.03600
N  26.32800 -4.12400 45.81800
C  27.31900 -4.66000 46.57000
C  28.60100 -3.96700 46.42700
C  28.28300 -2.98200 45.38100
C  26.88000 -3.11500 45.05100
C  29.98700 -4.35500 47.10000
C  28.80400 -1.92700 44.54500
O  29.91000 -1.35300 44.49600
C  27.58200 -1.36600 43.65400
C  27.36000 0.06900 43.92400
O  26.61200 0.58100 44.78100
O  28.07100 0.75700 42.95000
C  27.82800 2.19100 43.01000
H  20.87400 -2.94000 42.96400
H  21.93200 -8.25300 46.66100
H  27.85000 -6.22500 47.98700
H  24.96700 -0.25000 42.59900
H  22.56400 -1.39500 41.62800
H  21.73500 -0.62700 44.17200
H  21.62400 0.19200 42.63800
H  22.99800 0.60500 43.61100
H  24.27700 -2.21300 40.45000
H  25.79600 -2.72900 41.14500
H  26.86700 -0.77300 40.14000
H  25.48500 0.21700 40.54500
H  18.93000 -5.97900 42.63500
H  19.17700 -4.12700 42.86100
H  18.23300 -5.08600 43.93400
H  18.74500 -9.37900 46.20600
H  19.77300 -8.33200 47.19600
H  20.38600 -9.50800 45.95700
H  24.44500 -9.28300 47.14900
H  25.44100 -7.69100 49.25700
H  22.44400 -8.05000 48.96600
H  23.74700 -8.72500 49.88000
H  22.70500 -9.73000 48.88000
H  27.30300 -8.83200 47.04200
H  26.50600 -9.87400 48.00100
H  28.12200 -9.53900 49.78000
H  27.79800 -7.88600 49.65600
H  29.01100 -8.62000 48.53000
H  30.08300 -5.43000 46.94400
H  30.03200 -4.14200 48.16800
H  30.85600 -3.86000 46.66600
H  27.82700 -1.60300 42.61900
H  26.90400 2.50400 43.49500
H  27.71800 2.53100 41.98000
H  28.60600 2.83400 43.42200
Mg -1.04000 33.89400 27.17200
C  -2.95300 32.38800 29.66300
C  0.21800 35.93900 29.75400
C  0.18300 35.98200 24.89200
C  -2.74300 32.26000 24.83200
N  -1.42500 34.15500 29.39100
C  -2.17300 33.36700 30.23500
C  -2.08200 33.70800 31.76400
C  -1.19000 35.00700 31.62200
C  -0.85100 35.11800 30.14700
C  -1.82400 36.42400 32.13300
C  -1.77500 32.53700 32.77000
C  -0.80500 32.84600 33.89400
H  -1.12100 32.21400 35.25500
N  0.22400 35.56200 27.29700
C  0.68800 36.19100 28.41500
C  1.60400 37.26600 27.99200
C  1.57000 37.37200 26.59100
C  0.59800 36.29400 26.15700
C  2.24900 38.15500 28.97700
C  2.32200 38.23100 25.63600
O  2.30100 38.21000 24.42000
C  3.39700 39.07400 26.25800
N  -1.27000 34.11600 25.19800
C  -0.59500 34.97000 24.37400
C  -0.81300 34.72800 22.91300
C  -1.69800 33.43000 22.86200
C  -1.92200 33.18200 24.38900
C  -1.46900 35.89200 22.19100
C  -0.95000 32.29500 22.17300
C  0.01500 31.39000 22.96400
N  -2.53300 32.51300 27.19000
C  -3.11300 31.91800 26.10600
C  -4.06600 30.99400 26.53500
C  -4.02900 31.05400 27.94500
C  -3.11400 32.06600 28.33000
C  -4.99500 30.11300 25.70500
C  -4.60100 30.56700 29.19600
O  -5.52100 29.73400 29.41400
C  -3.76600 31.30500 30.35700
C  -4.86300 31.77800 31.25400
O  -5.43700 32.84700 31.08500
O  -5.01200 30.86600 32.35700
C  -5.93000 31.37400 33.35800
H  0.61100 36.52000 30.59100
H  0.45800 36.64800 24.07100
H  -3.13600 31.55200 24.09900
H  -3.07500 34.08000 32.01600
H  -0.21500 34.81100 32.06900
H  -2.78500 36.22400 32.60700
H  -1.84500 36.99500 31.20500
H  -1.18600 36.84400 32.91000
H  -1.29600 31.77500 32.15500
H  -2.67900 32.10800 33.20300
H  -0.80600 33.92600 34.03800
H  0.19400 32.56300 33.56300
H  2.31500 39.22400 28.77800
H  3.23700 37.71700 29.12100
H  1.85700 38.05000 29.98900
H  4.09900 38.44200 26.80300
H  2.74900 39.65700 26.91200
H  3.92200 39.79700 25.63400
H  0.17000 34.52000 22.49200
H  -2.63000 33.59100 22.32000
H  -1.46600 36.85300 22.70500
H  -2.50500 35.75700 21.87900
H  -0.91300 36.06300 21.26900
H  -0.33500 32.70400 21.37200
H  -1.78000 31.71400 21.76800
H  0.12900 31.68200 24.00800
H  0.91800 31.38200 22.35400
H  -0.41800 30.39000 22.99300
H  -5.98700 30.49000 25.95200
H  -4.89000 29.05500 25.94900
H  -4.74400 30.26700 24.65500
H  -3.12100 30.58400 30.85800
H  -6.84800 31.77200 32.92500
H  -5.42700 32.20900 33.84500
H  -6.27400 30.54000 33.97100

