158

Mg 47.85800 25.25500 28.68800
C  48.58400 27.53100 31.17400
C  47.13800 22.87300 31.27100
C  47.25400 23.08200 26.26000
C  49.00400 27.55400 26.34600
N  47.62700 25.27200 30.99600
C  47.99800 26.39200 31.77200
C  47.68800 26.20900 33.23700
C  47.37100 24.64400 33.26000
C  47.40200 24.17900 31.73400
C  48.25900 23.77700 34.11600
C  46.56800 27.23200 33.87200
C  47.00700 28.12800 35.07200
H  46.06400 28.40300 36.28300
N  47.16200 23.21100 28.75600
C  46.98100 22.44100 29.92400
C  46.60700 21.11100 29.46000
C  46.61000 21.13800 28.02000
C  46.96200 22.51700 27.59200
C  46.29800 19.97700 30.40600
C  46.28600 19.94600 27.08000
O  46.43700 20.02000 25.90400
C  45.97400 18.67100 27.59900
N  48.09400 25.37700 26.58700
C  47.77600 24.33700 25.77900
C  48.07100 24.59400 24.26400
C  48.40700 26.10800 24.27700
C  48.56800 26.40900 25.79900
C  49.12100 23.66300 23.61600
C  47.47200 27.08400 23.57300
C  48.02100 28.01100 22.44300
N  48.79000 27.11600 28.70300
C  49.09600 27.95000 27.70400
C  49.54000 29.25100 28.22600
C  49.37000 29.12600 29.61800
C  48.88800 27.80000 29.82700
C  50.05900 30.40300 27.45400
C  49.49800 29.86400 30.81300
O  49.87100 30.96100 31.13000
C  49.05300 28.80100 31.87100
C  50.19700 28.51300 32.81600
O  51.17800 27.82600 32.51200
O  49.88300 29.10000 34.04400
C  51.04000 29.05800 35.00500
H  47.00600 22.13100 32.06200
H  47.11400 22.27800 25.53500
H  49.26000 28.31900 25.61000
H  48.56200 26.44300 33.84500
H  46.32100 24.66600 33.55100
H  48.78200 23.01200 33.54200
H  47.66400 23.24600 34.85800
H  49.06800 24.41400 34.47500
H  45.73300 26.68700 34.31200
H  46.24700 27.80100 33.00000
H  47.08400 29.10900 34.60400
H  48.05000 27.98300 35.35400
H  47.02200 19.21100 30.12800
H  45.27100 19.64000 30.26400
H  46.53800 20.21900 31.44200
H  46.90000 18.38000 28.09500
H  45.62200 18.08000 26.75400
H  45.11000 18.91300 28.21800
H  47.10100 24.57100 23.76600
H  49.40400 26.12800 23.83700
H  49.62900 24.05300 22.73300
H  48.72900 22.72700 23.21900
H  49.86300 23.35700 24.35300
H  47.08800 27.75100 24.34500
H  46.57400 26.53700 23.28600
H  47.86300 29.08800 22.49600
H  47.57900 27.67000 21.50600
H  49.09700 27.91700 22.30000
H  49.63700 31.30900 27.88700
H  49.73800 30.21000 26.43000
H  51.14700 30.37900 27.50800
H  48.22300 29.08400 32.51900
H  50.84700 28.37300 35.83100
H  51.16300 30.04600 35.45000
H  51.99300 28.97200 34.48300
Mg 42.19700 40.73700 26.50600
C  41.40100 43.36600 28.79600
C  42.93200 38.78800 29.21300
C  43.35100 38.50000 24.33600
C  41.93600 43.17100 23.96300
N  42.15400 41.17900 28.77400
C  41.84600 42.28900 29.50000
C  41.77800 42.02900 31.01200
C  42.35500 40.56500 31.08400
C  42.55400 40.12700 29.56100
C  43.43400 40.38100 32.16600
C  40.43500 42.13100 31.67700
C  40.35000 42.80900 33.05000
H  39.65000 41.94600 34.18000
N  42.95800 38.87300 26.70400
C  43.12200 38.19300 27.90900
C  43.56200 36.83900 27.59200
C  43.65800 36.75800 26.22800
C  43.36300 38.04700 25.65400
C  43.73000 35.92400 28.67000
C  43.99300 35.58200 25.39000
O  44.16200 35.59800 24.15400
C  44.25000 34.24300 26.08900
N  42.73400 40.87300 24.48200
C  43.11800 39.80500 23.82700
C  43.14700 40.13700 22.42700
C  42.83100 41.63900 22.24200
C  42.46900 41.97800 23.65000
C  44.54900 39.78500 21.68500
C  41.68800 41.84900 21.24100
C  41.96900 42.82200 20.15800
N  41.63400 42.77200 26.29000
C  41.54300 43.63600 25.21800
C  41.16400 44.96000 25.66900
C  41.09600 44.86100 27.06100
C  41.40500 43.52600 27.43400
C  40.96500 46.15200 24.77900
C  40.67900 45.59900 28.24800
O  40.30600 46.74900 28.41700
C  40.93800 44.67600 29.48600
C  41.97200 45.27200 30.41800
O  43.11400 45.57800 30.13500
O  41.32300 45.64100 31.59000
C  42.11900 46.32300 32.61800
H  43.14300 38.27600 30.15400
H  43.71400 37.79000 23.59100
H  41.74900 43.86200 23.13800
H  42.43500 42.77000 31.46700
H  41.60800 39.90900 31.53000
H  43.95600 41.29700 32.44000
H  44.21100 39.70800 31.80200
H  43.10200 39.87400 33.07200
H  39.95200 41.15700 31.75300
H  39.71300 42.55000 30.97600
H  39.83500 43.76600 32.95900
H  41.34700 43.02900 33.43100
H  44.64700 35.34600 28.55600
H  42.83200 35.30900 28.74100
H  43.90100 36.35100 29.65800
H  43.44200 34.10600 26.80700
H  45.22800 34.07600 26.54100
H  44.32100 33.47800 25.31600
H  42.42700 39.48400 21.93200
H  43.78400 42.12600 22.03600
H  45.27700 39.56800 22.46700
H  44.92900 40.48100 20.93700
H  44.45900 38.86600 21.10600
H  40.86800 42.30500 21.79600
H  41.39200 40.90900 20.77400
H  42.15300 42.26600 19.23900
H  42.86100 43.37600 20.45200
H  41.13700 43.47300 19.89300
H  40.91000 45.92800 23.71300
H  41.75300 46.89400 24.90500
H  40.06000 46.71000 25.02000
H  39.99600 44.61200 30.03000
H  43.17800 46.08000 32.52900
H  41.84800 45.91300 33.59100
H  41.79200 47.36200 32.66300

