158

Mg 47.42600 16.34100 28.70000
C  45.19800 16.18200 31.59600
C  49.55500 18.25300 30.63400
C  49.06900 17.02700 25.98100
C  44.74400 15.01400 26.82900
N  47.43500 16.98100 30.99400
C  46.39900 16.94500 31.88100
C  46.80600 17.55400 33.27000
C  48.14900 18.35800 32.88400
C  48.44600 17.84600 31.44900
C  47.98400 19.94000 32.99600
C  47.11400 16.45700 34.28500
C  46.65000 16.64800 35.70300
H  46.51300 18.12900 36.22800
N  49.26000 17.26500 28.42000
C  49.94300 18.02600 29.29200
C  51.16000 18.47100 28.67000
C  51.00800 18.09800 27.28500
C  49.75800 17.38500 27.18700
C  52.30400 19.16300 29.41200
C  51.95200 18.28400 26.04200
O  51.73700 17.81800 24.94800
C  53.24900 19.04400 26.30900
N  46.99900 15.95500 26.74200
C  47.82000 16.45300 25.77100
C  47.10700 16.41600 24.39500
C  45.94900 15.37800 24.67000
C  45.86800 15.44800 26.17800
C  46.49300 17.79500 23.92400
C  46.22600 13.86900 24.12100
C  45.00400 13.15400 23.55400
N  45.38600 15.57400 29.07900
C  44.44900 15.06600 28.23000
C  43.37900 14.48200 28.97800
C  43.61400 14.88100 30.29900
C  44.81800 15.65500 30.28300
C  42.37900 13.52500 28.40800
C  43.10100 14.76600 31.61800
O  42.10900 14.18100 32.09700
C  44.12100 15.65700 32.52800
C  43.32800 16.67600 33.38800
O  42.86100 17.71900 32.96500
O  43.34200 16.29000 34.67100
C  42.77700 17.37500 35.60400
H  50.24200 18.89400 31.19100
H  49.59100 17.32200 25.06900
H  44.04000 14.46300 26.20100
H  46.03000 18.21100 33.66400
H  48.99600 18.00700 33.47300
H  48.36700 20.28500 32.03600
H  48.53200 20.31500 33.86100
H  46.97100 20.27600 33.21900
H  48.15400 16.14200 34.18800
H  46.56500 15.64600 33.80600
H  47.12400 15.88400 36.31900
H  45.62000 16.29100 35.71000
H  52.22800 19.08200 30.49600
H  52.19100 20.22500 29.19200
H  53.23400 18.76600 29.00400
H  53.08200 19.89700 26.96700
H  53.51200 19.46800 25.34000
H  54.08400 18.39400 26.57000
H  47.82200 16.06100 23.65300
H  45.01000 15.72500 24.24100
H  46.85700 18.48800 24.68300
H  45.41100 17.77500 23.78800
H  47.03500 18.00700 23.00300
H  46.51700 13.23800 24.96100
H  47.00400 13.99400 23.36800
H  45.19100 12.10800 23.79800
H  45.04900 13.25800 22.47000
H  44.05800 13.47200 23.99100
H  42.72400 12.49300 28.33800
H  42.12100 13.94500 27.43600
H  41.46300 13.58800 28.99700
H  44.53100 14.91800 33.21600
H  41.70800 17.18200 35.69300
H  42.88400 18.36200 35.15300
H  43.31700 17.21900 36.53800
Mg -11.08300 17.50700 40.38100
C  -7.56100 17.09200 40.55300
C  -10.52300 20.93300 39.66700
C  -14.28400 17.81800 39.53300
C  -11.41700 14.03700 40.54000
N  -9.11800 18.85900 40.13300
C  -7.89500 18.47000 40.30400
C  -6.95900 19.64200 39.97000
C  -7.93100 20.88500 40.04500
C  -9.30800 20.24000 39.94500
C  -7.87800 21.80900 41.29900
C  -6.37700 19.50900 38.45600
C  -4.94700 19.04000 38.26300
H  -4.67000 17.96400 37.21700
N  -12.29300 19.23000 39.81600
C  -11.85100 20.51900 39.49900
C  -12.95800 21.23100 39.04000
C  -14.08100 20.38100 38.91200
C  -13.63100 19.07900 39.42900
C  -12.77200 22.67900 38.67900
C  -15.37100 20.76700 38.34600
O  -15.65800 21.95600 38.06900
C  -16.46900 19.84400 38.01900
N  -12.61400 16.14700 40.13200
C  -13.88200 16.52000 39.89700
C  -14.88700 15.28600 39.80300
C  -13.93200 14.09600 40.02500
C  -12.54700 14.73100 40.31500
C  -16.05100 15.55800 40.79800
C  -13.81500 13.02600 38.87800
C  -14.25400 11.61000 39.42800
N  -9.83000 15.81600 40.56300
C  -10.13900 14.49100 40.60100
C  -8.93100 13.74500 40.85000
C  -7.87700 14.69500 40.77800
C  -8.47300 15.96500 40.60000
C  -8.85200 12.27200 40.96500
C  -6.43300 14.95700 40.81000
O  -5.49100 14.24100 40.82800
C  -6.15500 16.44100 40.71900
C  -5.35100 16.93800 41.90300
O  -4.61100 17.84400 41.89800
O  -5.41800 16.04300 42.94800
C  -4.22100 16.11300 43.82800
H  -10.37200 22.01300 39.60000
H  -15.31500 17.97900 39.21000
H  -11.54600 12.95300 40.54800
H  -6.16700 19.70900 40.71600
H  -7.82300 21.45400 39.12200
H  -7.76000 22.86000 41.03400
H  -7.01700 21.44400 41.85900
H  -8.68900 21.57200 41.98700
H  -6.51000 20.44800 37.91700
H  -6.90800 18.66500 38.01700
H  -4.62500 18.59700 39.20500
H  -4.27100 19.86900 38.04900
H  -13.28100 22.84900 37.73100
H  -11.71400 22.88700 38.51500
H  -13.22600 23.29400 39.45600
H  -16.10800 18.96200 37.49000
H  -17.14800 20.39100 37.36500
H  -17.08300 19.74600 38.91500
H  -15.32300 15.17900 38.80900
H  -14.29700 13.51300 40.87000
H  -15.95800 16.62900 40.98200
H  -16.11300 14.84800 41.62300
H  -17.01900 15.46000 40.30700
H  -12.85000 12.95700 38.37500
H  -14.52800 13.23400 38.08000
H  -15.31500 11.37100 39.50800
H  -13.83700 11.38300 40.40900
H  -13.75100 10.93100 38.74000
H  -7.93500 11.82400 40.58100
H  -9.59100 11.69200 40.41100
H  -8.99800 11.97500 42.00400
H  -5.57300 16.46000 39.79700
H  -3.77700 15.12500 43.95000
H  -4.55700 16.47700 44.79800
H  -3.46000 16.83700 43.53500

