158

Mg 41.99500 40.69500 26.28200
C  41.31900 43.07700 28.68900
C  43.01800 38.49900 28.64500
C  42.74000 38.57700 23.63000
C  40.83200 43.06400 23.83200
N  42.29400 40.82200 28.36700
C  41.75200 41.89100 29.18300
C  41.86100 41.54300 30.62300
C  42.48300 40.07000 30.65900
C  42.62900 39.75500 29.13000
C  43.83000 39.95800 31.42900
C  40.50200 41.71500 31.42800
C  40.51200 42.59600 32.79100
H  40.01500 41.97500 34.07300
N  42.81400 38.81000 26.15800
C  43.16200 38.03200 27.26300
C  43.58300 36.68900 26.75600
C  43.63100 36.70700 25.29900
C  42.99200 38.05400 25.00200
C  44.08500 35.61700 27.75100
C  44.13100 35.72400 24.30900
O  44.13100 36.02500 23.10900
C  44.67900 34.40300 24.75200
N  41.85000 40.84400 24.08100
C  42.25900 39.82400 23.25600
C  42.00300 40.14600 21.83300
C  41.21400 41.48400 21.86500
C  41.27400 41.82700 23.36100
C  43.17300 40.32200 20.85000
C  39.71000 41.32500 21.37500
C  38.85300 40.34500 22.13800
N  41.24600 42.70900 26.25300
C  40.87600 43.49900 25.20400
C  40.40300 44.72800 25.75100
C  40.61600 44.65500 27.12000
C  41.13900 43.37200 27.37700
C  39.93100 45.83400 24.90600
C  40.44900 45.39000 28.31300
O  40.09000 46.54600 28.56400
C  40.92300 44.32400 29.38900
C  42.07900 44.85900 30.20300
O  43.29800 44.67300 29.96500
O  41.66200 45.64300 31.34600
C  42.74800 46.21500 32.14400
H  43.27900 37.75400 29.40000
H  42.93200 37.88100 22.81100
H  40.56900 43.65900 22.95500
H  42.63900 42.22200 30.97200
H  41.85700 39.34400 31.17700
H  44.64100 39.68400 30.75400
H  43.80100 39.27500 32.27700
H  44.14300 40.90500 31.86900
H  40.23400 40.71300 31.76400
H  39.70100 41.88700 30.71000
H  39.75900 43.34800 32.55500
H  41.51500 43.01000 32.89200
H  43.91800 35.95000 28.77600
H  45.16300 35.53000 27.61500
H  43.65900 34.62400 27.60800
H  43.77300 33.80800 24.87200
H  45.27600 34.44000 25.66300
H  45.16300 33.98900 23.86800
H  41.40100 39.31400 21.46900
H  41.64800 42.32600 21.32500
H  43.76300 39.43200 20.62900
H  43.80500 41.17100 21.11100
H  42.68000 40.60800 19.92100
H  39.70700 40.99400 20.33600
H  39.25700 42.30800 21.50800
H  38.36600 39.64300 21.46200
H  38.07400 40.85700 22.70400
H  39.46100 39.78100 22.84500
H  40.09500 45.55200 23.86600
H  40.58700 46.69900 25.01600
H  38.89100 46.12000 25.06100
H  40.11300 44.15200 30.09700
H  42.85100 45.47600 32.93900
H  42.58900 47.17500 32.63500
H  43.72700 46.30300 31.67500
Mg 0.08100 43.85400 26.73400
C  2.34200 44.06200 29.31000
C  -2.50500 43.27600 29.04700
C  -1.85700 42.73500 24.26600
C  2.71000 44.31900 24.44700
N  -0.01700 43.75400 28.91800
C  1.00700 43.93300 29.81400
C  0.56500 43.91300 31.27200
C  -0.90400 43.36300 31.11500
C  -1.22900 43.54100 29.62400
C  -1.10400 41.99800 31.85600
C  0.71300 45.31400 32.00300
C  1.22600 45.35200 33.45500
H  0.91500 44.14600 34.20700
N  -2.00100 43.38200 26.64300
C  -2.86200 43.21600 27.69500
C  -4.17100 42.90100 27.18100
C  -4.09600 42.75500 25.79200
C  -2.60300 42.95500 25.48500
C  -5.43300 42.89800 28.11300
C  -5.08500 42.53800 24.75500
O  -4.81500 42.55900 23.55200
C  -6.50800 42.30500 25.19900
N  0.33300 43.48300 24.68000
C  -0.56000 42.89400 23.89200
C  -0.07500 42.62200 22.52400
C  1.23900 43.53900 22.49000
C  1.45900 43.82900 23.95700
C  0.23100 41.07400 22.18900
C  1.24200 44.75700 21.45300
C  1.78500 44.30900 20.04500
N  2.04200 44.11900 26.77700
C  3.04200 44.27900 25.79900
C  4.29400 44.44000 26.35100
C  4.10500 44.35700 27.73800
C  2.74700 44.11400 27.95300
C  5.54600 44.60300 25.68700
C  4.79600 44.41500 29.00100
O  5.97000 44.57700 29.29000
C  3.64800 44.21600 30.12400
C  4.03400 43.13900 31.09800
O  3.97300 41.92500 30.90500
O  4.58300 43.66500 32.16500
C  4.71000 42.65700 33.25900
H  -3.22100 43.00600 29.82600
H  -2.51800 42.11100 23.66000
H  3.46700 44.70400 23.76100
H  1.16300 43.18800 31.82400
H  -1.61400 43.96700 31.68000
H  -1.96800 42.07000 32.51600
H  -0.28000 41.65000 32.47800
H  -1.39100 41.23000 31.13800
H  -0.26900 45.78700 32.02400
H  1.40700 45.92900 31.43000
H  0.88200 46.24500 33.97700
H  2.31300 45.39900 33.38700
H  -5.27900 43.22600 29.14100
H  -5.70500 41.84300 28.13000
H  -6.25900 43.50800 27.74600
H  -7.06500 43.19900 25.47800
H  -6.47000 41.55800 25.99200
H  -7.08200 41.87600 24.37800
H  -0.83100 42.92100 21.79800
H  2.12800 42.94900 22.26900
H  1.15300 40.89300 21.63700
H  -0.65100 40.73900 21.64300
H  0.23400 40.64000 23.18900
H  1.86800 45.58500 21.78400
H  0.25200 45.21200 21.40300
H  1.27200 44.86500 19.26000
H  1.81500 43.22500 19.93600
H  2.82800 44.59300 19.90300
H  5.77400 45.65400 25.50500
H  5.46800 44.16800 24.69100
H  6.33100 44.08100 26.23500
H  3.56900 45.16900 30.64700
H  5.49900 41.92500 33.08700
H  3.80100 42.07300 33.40700
H  4.90400 43.20800 34.17900

