158

Mg 43.78000 42.64800 26.22000
C  42.63200 44.82400 28.90500
C  45.03600 40.59900 28.51700
C  44.61700 40.57700 23.75800
C  42.79700 45.10200 23.90300
N  43.79900 42.75200 28.51700
C  43.25600 43.67400 29.35800
C  43.37600 43.18400 30.87100
C  44.30000 41.90200 30.66900
C  44.42000 41.67000 29.16500
C  45.67300 42.04600 31.42100
C  41.99000 42.92000 31.52300
C  41.63800 43.66200 32.84300
H  42.68900 43.55000 34.02300
N  44.76700 40.92400 26.13000
C  45.24800 40.25100 27.17300
C  46.09900 39.08700 26.74300
C  45.85000 38.98200 25.35800
C  45.04700 40.18000 25.00100
C  46.97900 38.32100 27.69600
C  46.41600 37.96800 24.31500
O  46.27400 38.10100 23.09400
C  47.09800 36.86300 24.89200
N  43.78400 42.86800 24.21500
C  44.13600 41.85100 23.34500
C  44.00800 42.27600 21.87900
C  43.07400 43.51000 22.02700
C  43.19500 43.83500 23.48600
C  45.36700 42.57600 21.15700
C  41.53100 43.20100 21.62100
C  41.03400 41.67800 21.88600
N  42.90700 44.54800 26.32900
C  42.65600 45.45900 25.31800
C  42.10300 46.64600 25.85500
C  42.13800 46.41500 27.21600
C  42.65900 45.16500 27.49000
C  41.49100 47.79900 25.17100
C  41.76000 46.97200 28.44600
O  41.26600 48.08700 28.63100
C  42.01800 45.94500 29.60100
C  43.01000 46.62400 30.54100
O  44.22800 46.63800 30.58400
O  42.31700 47.33100 31.51900
C  43.11800 47.94500 32.53600
H  45.42000 39.91000 29.27200
H  44.74700 39.83800 22.96400
H  42.33300 45.77600 23.18100
H  43.85900 44.04100 31.34000
H  43.84800 40.96600 30.99600
H  46.50700 42.16500 30.73000
H  45.70000 41.15800 32.05200
H  45.65200 42.89700 32.10200
H  41.81600 41.85300 31.66600
H  41.29700 43.22500 30.73900
H  40.71100 43.15800 33.11700
H  41.52600 44.74500 32.78500
H  46.60500 37.33100 27.95600
H  47.07200 38.88800 28.62300
H  47.97000 38.15300 27.27600
H  46.93700 36.06200 24.17100
H  46.58600 36.52000 25.79100
H  48.11500 37.23800 25.01200
H  43.47800 41.45000 21.40400
H  43.37700 44.31200 21.35200
H  45.22000 42.08600 20.19400
H  46.23200 42.17100 21.68100
H  45.47900 43.65500 21.05000
H  41.53300 43.33700 20.54000
H  40.82000 43.84900 22.13600
H  40.84800 41.14600 20.95300
H  40.15500 41.60000 22.52600
H  41.71700 41.07100 22.48000
H  41.99300 48.05100 24.23700
H  41.41700 48.63900 25.86200
H  40.50000 47.48300 24.84500
H  41.07200 45.60900 30.02700
H  43.73300 47.15500 32.96700
H  42.49400 48.31800 33.34800
H  43.69000 48.71600 32.02000
Mg -5.58600 24.96800 25.38000
C  -3.84800 26.37700 28.24500
C  -7.32500 22.98300 27.65900
C  -6.99400 23.47300 22.80400
C  -3.52200 26.81600 23.26800
N  -5.50600 24.73300 27.66900
C  -4.91400 25.52000 28.63500
C  -5.33800 25.11000 30.08600
C  -6.17400 23.81000 29.81200
C  -6.32700 23.80600 28.27200
C  -5.68900 22.45000 30.44900
C  -6.07400 26.34500 30.70800
C  -5.80500 26.51000 32.24200
H  -5.56200 25.33100 33.22900
N  -7.02800 23.50800 25.28000
C  -7.66600 22.93300 26.34300
C  -8.80900 22.18200 25.81500
C  -8.68900 22.23500 24.42000
C  -7.57600 23.13700 24.08700
C  -9.72600 21.21100 26.77100
C  -9.49800 21.43400 23.41200
O  -9.17800 21.35100 22.21700
C  -10.61900 20.57600 23.95200
N  -5.18100 24.95800 23.27400
C  -5.99400 24.32900 22.40200
C  -5.63600 24.64800 21.00000
C  -4.69500 25.94200 21.15800
C  -4.38400 25.90200 22.64000
C  -5.06100 23.33200 20.38600
C  -5.38100 27.26200 20.59900
C  -4.50100 28.02200 19.64500
N  -3.91600 26.28800 25.61600
C  -3.25300 26.99800 24.68100
C  -2.28300 27.81600 25.34200
C  -2.50300 27.60400 26.77300
C  -3.49000 26.63000 26.86400
C  -1.35000 28.79000 24.68200
C  -2.14100 28.04100 28.08100
O  -1.46100 28.96900 28.45400
C  -2.89700 27.18700 29.07200
C  -2.05000 26.34400 29.92300
O  -1.29900 25.47100 29.45100
O  -2.13500 26.72700 31.26800
C  -1.54700 25.73800 32.10700
H  -7.68400 22.28100 28.41400
H  -7.43200 23.04500 21.89900
H  -3.05000 27.56300 22.62600
H  -4.43500 24.91000 30.66300
H  -7.17000 23.95900 30.22700
H  -4.95000 22.66600 31.22100
H  -5.25800 21.79000 29.69800
H  -6.53300 21.90800 30.87500
H  -7.11900 26.18900 30.44100
H  -5.64800 27.23100 30.23700
H  -6.73400 26.99500 32.54000
H  -5.01800 27.25700 32.35500
H  -9.83800 20.20700 26.36300
H  -10.68200 21.73500 26.77300
H  -9.25700 21.19400 27.75500
H  -11.12900 20.28500 23.03400
H  -11.16800 21.26400 24.59500
H  -10.25900 19.70300 24.49700
H  -6.53900 24.87700 20.43400
H  -3.79400 25.76500 20.57000
H  -3.97300 23.28000 20.40700
H  -5.46300 23.19400 19.38300
H  -5.40300 22.45800 20.94000
H  -5.72500 27.93700 21.38300
H  -6.21500 26.89900 19.99900
H  -4.59200 29.10100 19.76700
H  -4.96600 27.78000 18.68900
H  -3.44900 27.73600 19.64100
H  -2.00200 29.54700 24.24500
H  -0.75000 28.17500 24.01100
H  -0.82800 29.27000 25.51000
H  -3.48000 27.90200 29.65300
H  -1.70400 24.74100 31.69400
H  -2.09800 25.76100 33.04700
H  -0.47500 25.86400 32.25900

