158

Mg 25.82100 -0.13200 29.05000
C  27.61900 -0.65800 32.01400
C  22.94400 -0.03500 30.84000
C  24.14700 0.20800 26.22500
C  28.82900 -0.81500 27.19500
N  25.36900 -0.31400 31.13400
C  26.23800 -0.44500 32.21600
C  25.49100 -0.34400 33.60600
C  23.98600 -0.26200 33.18500
C  24.09600 -0.25400 31.61900
C  23.05000 -1.33400 33.83100
C  26.00300 0.88300 34.49500
C  26.46200 0.70200 35.94900
H  26.21400 1.79500 36.99000
N  23.85900 0.17900 28.60400
C  22.76300 0.20400 29.45000
C  21.49900 0.24300 28.77100
C  21.83900 0.34800 27.38100
C  23.35300 0.30800 27.35600
C  20.10800 0.12200 29.32000
C  21.02300 0.45900 26.13900
O  21.58100 0.48400 25.01300
C  19.58200 0.41300 26.22800
N  26.40900 -0.44500 26.98700
C  25.54100 -0.00200 26.03800
C  26.11400 -0.10600 24.56800
C  27.66600 -0.28100 24.88100
C  27.69000 -0.52800 26.41500
C  25.40400 -1.08300 23.67400
C  28.56100 0.92900 24.44600
C  28.19600 2.23900 25.01500
N  27.79000 -0.62700 29.45000
C  28.85300 -0.88000 28.58500
C  30.00500 -1.22900 29.38700
C  29.54200 -1.10200 30.72500
C  28.23900 -0.74100 30.74100
C  31.40600 -1.40100 28.87400
C  30.02700 -1.23300 32.09500
O  31.16200 -1.49100 32.47200
C  28.77200 -0.82900 33.03200
C  28.51400 -2.07000 33.84300
O  27.74200 -2.95200 33.48100
O  29.20100 -1.88400 35.05200
C  28.84000 -2.97600 35.99100
H  21.95700 0.01400 31.30500
H  23.84300 0.59300 25.24900
H  29.74400 -1.00000 26.62800
H  25.65800 -1.25100 34.18600
H  23.56000 0.72600 33.36000
H  23.50500 -1.74000 34.73400
H  22.81800 -2.14900 33.14600
H  22.11800 -0.86400 34.14600
H  25.18500 1.59700 34.59300
H  26.86600 1.38400 34.05700
H  27.55000 0.67900 35.88000
H  26.07200 -0.23800 36.33900
H  20.15700 -0.02100 30.40000
H  19.41700 -0.53900 28.79600
H  19.63300 1.10300 29.33100
H  19.21600 1.12200 26.97000
H  19.37800 -0.64100 26.41600
H  19.23000 0.73100 25.24700
H  25.95100 0.87100 24.11200
H  28.10200 -1.18700 24.46200
H  26.11700 -1.76100 23.20300
H  25.03300 -0.43000 22.88400
H  24.57000 -1.60000 24.14600
H  28.49000 1.16700 23.38500
H  29.59500 0.73500 24.73200
H  29.03900 2.65000 25.57000
H  27.33900 2.18200 25.68700
H  27.93700 3.00000 24.28000
H  31.45300 -2.04300 27.99500
H  32.04700 -1.59800 29.73300
H  31.51000 -0.40000 28.45600
H  29.03300 0.13000 33.47800
H  29.73200 -3.01700 36.61700
H  28.72200 -3.92300 35.46300
H  27.98200 -2.65800 36.58300
Mg 35.69500 0.83100 30.16100
C  33.31800 1.99800 32.39400
C  38.00200 1.07800 32.54700
C  37.75800 -0.08200 27.88800
C  33.22600 1.35300 27.57800
N  35.71200 1.75800 32.25200
C  34.59500 1.83400 33.03700
C  34.97500 1.75800 34.54700
C  36.52700 1.87800 34.47100
C  36.76400 1.51500 33.01900
C  36.98500 3.33200 34.74600
C  34.50700 0.40200 35.17700
C  33.51300 0.57600 36.37400
H  33.99900 1.63300 37.42300
N  37.62500 0.42000 30.22300
C  38.41500 0.59200 31.30000
C  39.74600 0.11900 30.92500
C  39.68900 -0.24000 29.49800
C  38.28600 0.05200 29.14500
C  40.88100 -0.08900 31.86000
C  40.76400 -0.93300 28.54400
O  40.52600 -1.40900 27.42400
C  42.19000 -1.15700 29.04900
N  35.49300 0.57600 28.03900
C  36.51200 0.17100 27.35300
C  36.16300 0.00900 25.85900
C  34.63500 0.36000 25.82900
C  34.42600 0.77700 27.26200
C  37.07400 0.93500 24.94400
C  33.65900 -0.79500 25.36700
C  32.84300 -0.60400 24.07500
N  33.70400 1.62700 29.96000
C  32.87500 1.84300 28.84900
C  31.60000 2.38900 29.31300
C  31.68200 2.23000 30.73900
C  33.02100 1.94200 31.02800
C  30.42600 2.70800 28.48300
C  30.96400 2.30700 31.96100
O  29.77400 2.49200 32.04900
C  31.96100 2.19100 33.09700
C  32.02100 3.46600 33.81800
O  32.59500 4.49000 33.51100
O  31.33000 3.25800 34.97800
C  31.23000 4.40900 35.88600
H  38.82300 1.14600 33.26400
H  38.40800 -0.47100 27.10100
H  32.46000 1.30100 26.80200
H  34.61600 2.67200 35.02100
H  37.11200 1.11200 34.97900
H  36.74900 3.98400 33.90600
H  38.04800 3.29800 34.98500
H  36.56700 3.71200 35.67800
H  35.29900 -0.29100 35.46100
H  34.02500 -0.17900 34.39100
H  33.54400 -0.31800 36.99800
H  32.49000 0.70400 36.02000
H  41.72600 0.41300 31.38900
H  41.09000 -1.12300 32.13600
H  40.77900 0.46500 32.79300
H  42.74300 -1.71500 28.29300
H  42.15300 -1.86300 29.87900
H  42.51200 -0.17000 29.37900
H  36.17000 -1.06700 25.68900
H  34.29700 1.19300 25.21200
H  37.50400 1.65800 25.63800
H  36.39500 1.40500 24.23300
H  37.73500 0.35000 24.30500
H  32.98100 -1.07900 26.17200
H  34.16900 -1.75200 25.26200
H  33.31100 0.27300 23.62900
H  31.77500 -0.45300 24.23200
H  32.88300 -1.38300 23.31400
H  30.64200 2.58900 27.42100
H  30.14500 3.74600 28.65800
H  29.56100 2.12500 28.79700
H  31.70300 1.34600 33.73600
H  32.25400 4.46400 36.25700
H  30.54500 4.16300 36.69800
H  30.83900 5.33100 35.45500

