158

Mg -2.11900 16.80500 26.99500
C  -2.70200 14.58400 29.59800
C  -2.42200 19.45400 29.16600
C  -2.07600 18.92500 24.34800
C  -2.53900 14.10100 24.73100
N  -2.42800 16.94500 29.13400
C  -2.47400 15.89400 30.08100
C  -2.63500 16.41500 31.51100
C  -2.62200 17.97100 31.23100
C  -2.53500 18.17400 29.71700
C  -3.87700 18.80400 31.76000
C  -1.58300 15.81900 32.54300
C  -1.15400 16.73600 33.73600
H  -1.18700 16.09200 35.18200
N  -1.97700 18.88900 26.79600
C  -2.16100 19.78600 27.80600
C  -2.06100 21.11000 27.29200
C  -1.94500 20.94200 25.86900
C  -2.04200 19.51800 25.60500
C  -2.09500 22.32400 28.25300
C  -1.82200 22.06700 24.84100
O  -2.00100 21.95200 23.60000
C  -1.77400 23.50500 25.34000
N  -2.59000 16.57000 24.79000
C  -2.25500 17.56000 23.97600
C  -2.49700 17.17000 22.48900
C  -2.36200 15.55700 22.62300
C  -2.46200 15.38500 24.15100
C  -3.93500 17.56200 22.03500
C  -1.11300 14.78500 21.99500
C  -1.37800 13.36200 21.41000
N  -2.51900 14.74000 27.09200
C  -2.60200 13.74800 26.09400
C  -2.71300 12.48900 26.66800
C  -2.79400 12.78900 28.02900
C  -2.65000 14.14400 28.24100
C  -2.86500 11.12700 26.08700
C  -2.91100 12.16700 29.30100
O  -3.05100 11.00500 29.63700
C  -2.83100 13.31900 30.38300
C  -1.64400 13.03700 31.22200
O  -0.45500 13.23900 30.93700
O  -2.09000 12.51000 32.41200
C  -1.09100 12.20300 33.40600
H  -2.48700 20.17500 29.98300
H  -1.95400 19.60000 23.49800
H  -2.60700 13.26200 24.03400
H  -3.62000 16.14700 31.89300
H  -1.71500 18.36300 31.69300
H  -4.44300 19.01100 30.85200
H  -3.68900 19.72800 32.30700
H  -4.59100 18.19900 32.31800
H  -0.76500 15.54900 31.87400
H  -2.04600 14.93200 32.97500
H  -1.66700 17.69700 33.69000
H  -0.14100 17.11700 33.61000
H  -3.06100 22.82700 28.21100
H  -1.37300 23.10800 28.02300
H  -2.10400 22.03700 29.30500
H  -1.63800 24.09900 24.43600
H  -0.79500 23.55200 25.81600
H  -2.59900 23.76700 26.00200
H  -1.78400 17.64400 21.81400
H  -3.25100 15.10200 22.18600
H  -4.60500 17.82600 22.85300
H  -4.39900 16.78600 21.42600
H  -3.79100 18.48700 21.47700
H  -0.28300 14.76600 22.70100
H  -0.73200 15.37300 21.16000
H  -0.91600 13.24900 20.43000
H  -2.44700 13.20500 21.26200
H  -0.96200 12.57300 22.03600
H  -3.88000 11.04100 25.69800
H  -2.57900 10.30200 26.73900
H  -2.26700 10.91400 25.20100
H  -3.71800 13.36300 31.01500
H  -1.44100 11.24600 33.79400
H  -1.23100 12.89500 34.23700
H  -0.04800 12.16700 33.09200
Mg 35.30200 2.65900 30.35300
C  32.91800 3.92700 32.50800
C  37.56200 2.72100 32.95900
C  37.79700 2.00200 28.16400
C  33.05900 3.05300 27.75300
N  35.24300 3.37100 32.42200
C  34.16400 3.65200 33.15000
C  34.42300 3.70000 34.64000
C  35.97400 3.55900 34.66500
C  36.32600 3.15000 33.24900
C  36.73500 4.87300 35.02700
C  33.54100 2.57500 35.34300
C  33.71100 2.31200 36.83400
H  34.41400 3.32300 37.73300
N  37.34900 2.42900 30.51500
C  38.07600 2.34500 31.69800
C  39.39600 1.85400 31.38000
C  39.53300 1.81400 29.92200
C  38.14900 2.01600 29.46900
C  40.35800 1.48200 32.46300
C  40.79900 1.51200 29.08900
O  40.86200 1.57700 27.83200
C  42.11600 1.16700 29.74400
N  35.43200 2.74700 28.21600
C  36.58300 2.27500 27.55400
C  36.39200 2.08200 26.05400
C  34.77000 2.16400 25.95700
C  34.32900 2.68500 27.40000
C  37.25800 3.10600 25.17800
C  34.07300 0.87000 25.47400
C  32.84600 1.09500 24.55600
N  33.41900 3.39000 30.09400
C  32.55400 3.35600 29.03500
C  31.26600 3.73000 29.43700
C  31.35600 4.04100 30.81400
C  32.64700 3.78600 31.15300
C  29.97900 3.66700 28.61400
C  30.57300 4.53000 31.90000
O  29.43200 4.93200 31.97500
C  31.52900 4.35600 33.13400
C  31.57200 5.70400 33.80200
O  32.09600 6.72200 33.34200
O  31.14600 5.60500 35.09300
C  31.40200 6.73800 35.91600
H  38.25400 2.63000 33.79800
H  38.44100 1.48900 27.44800
H  32.31500 3.00000 26.95500
H  34.14200 4.67900 35.03000
H  36.28400 2.79100 35.37500
H  36.14900 5.51500 35.68500
H  37.04200 5.46200 34.16400
H  37.63100 4.50600 35.52900
H  33.66300 1.63400 34.80600
H  32.50000 2.88900 35.26300
H  34.14000 1.31900 36.97100
H  32.69200 2.16300 37.18900
H  41.16400 2.20600 32.33400
H  40.96500 0.64600 32.11600
H  39.91100 1.24900 33.42900
H  42.17200 0.19300 30.22900
H  42.32400 1.88200 30.54000
H  42.95100 1.15100 29.04400
H  36.43900 1.00700 25.87800
H  34.54600 2.98800 25.27900
H  38.20300 2.65300 24.87900
H  37.44100 4.01700 25.74800
H  36.83100 3.50200 24.25600
H  33.72600 0.21800 26.27600
H  34.79500 0.30900 24.88100
H  32.19100 0.30200 24.91600
H  33.34100 0.95000 23.59600
H  32.38600 2.08200 24.50200
H  29.11400 3.29400 29.16200
H  30.06400 3.10300 27.68500
H  29.74100 4.69300 28.33200
H  31.17500 3.58600 33.81900
H  32.37100 7.23100 35.83200
H  31.39600 6.33000 36.92700
H  30.64700 7.52100 35.85400

