158

Mg 49.39600 45.33000 42.81800
C  46.13600 46.32300 42.17400
C  48.52700 42.06200 42.20200
C  52.73200 44.67500 42.63000
C  50.13500 48.73400 43.32400
N  47.46100 44.26100 42.34500
C  46.28800 44.91400 41.96200
C  45.36500 43.91500 41.24100
C  46.02100 42.53700 41.68500
C  47.41300 42.93000 42.17300
C  45.17800 41.71600 42.72300
C  45.29300 44.10400 39.67700
C  44.02600 43.44900 39.13500
H  43.48000 43.77200 37.71500
N  50.43300 43.63700 42.56300
C  49.86900 42.43500 42.35800
C  50.94500 41.43500 42.37400
C  52.15900 42.11600 42.51300
C  51.80800 43.53400 42.61400
C  50.66400 39.94800 42.08300
C  53.50500 41.43900 42.49300
O  53.56900 40.21900 42.34800
C  54.79300 42.15800 42.67600
N  51.20800 46.54200 42.88400
C  52.47000 46.03100 42.82700
C  53.53400 47.18900 42.91900
C  52.68900 48.47900 43.17600
C  51.24400 47.90000 43.16900
C  54.71000 46.95100 43.97500
C  52.97100 49.60600 42.10700
C  52.09900 49.64600 40.82700
N  48.37200 47.20000 42.78000
C  48.76000 48.50000 43.09100
C  47.65300 49.39000 43.12100
C  46.61100 48.60700 42.76600
C  47.09300 47.27400 42.60200
C  47.68100 50.87900 43.45800
C  45.18600 48.58800 42.37100
O  44.38100 49.51600 42.31900
C  44.81400 47.13100 41.93400
C  43.67700 46.58800 42.72000
O  43.62900 46.68800 43.93100
O  42.73300 45.96700 41.93600
C  41.52700 45.54200 42.71800
H  48.28500 41.03300 41.92800
H  53.78000 44.38300 42.72700
H  50.32200 49.80300 43.44000
H  44.38000 43.96200 41.70600
H  46.12700 41.91600 40.79600
H  44.29200 42.27300 43.02800
H  45.77700 41.45400 43.59400
H  44.92500 40.78100 42.22200
H  46.21700 43.72300 39.24200
H  45.43200 45.17200 39.51000
H  43.25300 43.95800 39.71100
H  44.08400 42.38800 39.38100
H  51.23700 39.60600 41.22200
H  49.62000 39.67400 41.93100
H  50.90300 39.38800 42.98700
H  54.94600 42.77300 41.78900
H  55.67600 41.51900 42.69300
H  54.79300 42.70600 43.61800
H  53.94500 47.30200 41.91500
H  52.66000 48.85700 44.19800
H  54.83100 47.89100 44.51500
H  55.69500 46.75700 43.55200
H  54.44800 46.15100 44.66700
H  54.01400 49.46400 41.82500
H  52.99200 50.53500 42.67600
H  51.67900 50.64300 40.68900
H  51.35800 48.84800 40.79800
H  52.77900 49.50800 39.98600
H  46.69100 51.14600 43.08600
H  48.42900 51.52300 42.99600
H  47.75700 50.91500 44.54400
H  44.53000 47.13900 40.88100
H  40.74900 45.25500 42.01100
H  41.19600 46.29600 43.43300
H  41.78100 44.65000 43.29100
Mg 46.23600 34.51800 27.05300
C  44.80800 33.08000 29.89100
C  47.13000 37.35600 29.05000
C  47.38800 36.15000 24.34600
C  45.54400 31.70700 25.36500
N  45.81100 35.12700 29.22000
C  45.25900 34.33700 30.21600
C  45.63900 34.96600 31.61100
C  45.94000 36.48300 31.20100
C  46.33900 36.33500 29.74300
C  44.73400 37.38700 31.48900
C  46.74900 34.21400 32.33100
C  46.86400 34.20400 33.82600
H  45.82900 34.90900 34.66100
N  47.25500 36.44700 26.80300
C  47.54400 37.40800 27.73100
C  48.31400 38.42100 27.09000
C  48.35100 38.20500 25.68400
C  47.57800 36.91800 25.57400
C  49.03100 39.47500 27.91300
C  48.94500 39.04900 24.50500
O  48.97500 38.63400 23.34100
C  49.66900 40.37400 24.78900
N  46.27000 34.09800 25.11300
C  46.84600 34.86500 24.16400
C  46.95700 34.17000 22.84100
C  46.51500 32.70700 23.24300
C  46.10000 32.80000 24.67200
C  46.35800 34.88600 21.65700
C  47.38900 31.43400 22.86000
C  48.42100 31.04500 23.89000
N  45.30400 32.76800 27.44700
C  45.15600 31.61100 26.64600
C  44.60400 30.58000 27.36500
C  44.37100 31.13600 28.65300
C  44.83700 32.46000 28.62500
C  44.34300 29.20300 26.93200
C  43.89500 30.97200 29.99200
O  43.39100 29.97500 30.51100
C  43.96200 32.28800 30.73400
C  44.23900 31.98100 32.13800
O  45.23500 31.43900 32.53700
O  43.04900 32.15100 32.80900
C  42.93300 31.87700 34.25000
H  47.37000 38.24300 29.64000
H  47.87800 36.52300 23.44400
H  45.24700 30.85200 24.75400
H  44.70100 34.85400 32.15500
H  46.82600 36.83500 31.72800
H  43.78100 36.86000 31.54600
H  44.71300 38.14700 30.70800
H  44.91700 37.77400 32.49100
H  47.60400 34.82300 32.03700
H  46.83500 33.19500 31.95300
H  47.89200 34.42300 34.11200
H  46.79500 33.14500 34.07500
H  50.11200 39.39300 27.79600
H  48.89900 39.23000 28.96700
H  48.91000 40.51900 27.62200
H  49.89700 40.77700 23.80200
H  50.54100 40.16500 25.40900
H  49.07800 41.11300 25.32900
H  48.02200 34.20600 22.61300
H  45.55600 32.47900 22.77900
H  47.07800 35.18200 20.89500
H  45.96700 35.81900 22.06400
H  45.60300 34.19600 21.28100
H  48.02200 31.73200 22.02500
H  46.78200 30.54800 22.67200
H  49.37700 30.76700 23.44800
H  48.02000 30.13900 24.34400
H  48.66800 31.89500 24.52700
H  45.22300 28.79600 26.43500
H  43.67500 29.31100 26.07800
H  43.96000 28.67300 27.80400
H  42.97200 32.74100 30.69100
H  42.59300 30.85800 34.43400
H  42.24100 32.62100 34.64300
H  43.85200 31.99300 34.82500

