158

Mg 17.37500 -2.15100 27.11500
C  16.06600 -0.22900 29.82900
C  19.35800 -3.76300 29.57400
C  18.84500 -3.68700 24.66200
C  15.66000 -0.03300 24.97100
N  17.56400 -2.04400 29.41000
C  16.92300 -1.15900 30.28400
C  17.45800 -1.34600 31.70600
C  18.64500 -2.32700 31.54000
C  18.53800 -2.77500 30.07200
C  20.07000 -1.76300 31.79200
C  16.36200 -2.05000 32.58000
C  16.39100 -1.60400 34.04100
H  17.63800 -0.85000 34.61500
N  18.78300 -3.68600 27.13500
C  19.52900 -4.18600 28.22500
C  20.24100 -5.34600 27.77700
C  20.15900 -5.29000 26.35500
C  19.32600 -4.14900 25.94300
C  20.93200 -6.38000 28.66700
C  20.73700 -6.23700 25.24800
O  20.53600 -6.07700 24.07300
C  21.47600 -7.46600 25.67500
N  17.39800 -1.70900 25.06000
C  17.99900 -2.60600 24.23800
C  17.85300 -2.15800 22.78600
C  16.61000 -1.25500 22.94300
C  16.52500 -0.95600 24.43500
C  19.12100 -1.48800 22.22800
C  15.22900 -1.75300 22.40500
C  14.42000 -0.77400 21.50300
N  16.15300 -0.41500 27.23900
C  15.44400 0.24900 26.32000
C  14.62100 1.29200 26.89600
C  14.76300 1.05600 28.28200
C  15.80400 0.08700 28.46700
C  13.60800 2.06800 26.05900
C  14.32600 1.54800 29.59100
O  13.50200 2.40800 29.88000
C  15.19100 0.76600 30.61300
C  16.08300 1.74400 31.24900
O  17.03500 2.27800 30.74400
O  15.55100 1.98900 32.47600
C  16.27800 3.00500 33.24700
H  19.99800 -4.31100 30.26900
H  19.15700 -4.19800 23.74900
H  15.04800 0.53500 24.26700
H  17.83900 -0.41800 32.13300
H  18.51900 -3.20700 32.17000
H  20.07100 -0.79300 32.29000
H  20.58000 -1.67300 30.83300
H  20.59600 -2.43400 32.47200
H  16.45700 -3.13200 32.49100
H  15.41300 -1.80100 32.10400
H  16.21400 -2.49000 34.65000
H  15.45900 -1.11200 34.32000
H  21.04900 -5.92800 29.65200
H  21.91300 -6.68100 28.30000
H  20.32700 -7.26900 28.84100
H  20.70600 -8.03700 26.19300
H  22.17000 -7.13700 26.44900
H  21.92700 -8.16300 24.96800
H  17.57100 -3.09800 22.31200
H  16.86700 -0.36300 22.37100
H  19.88100 -1.44800 23.00900
H  19.07900 -0.46900 21.84300
H  19.54100 -2.04800 21.39200
H  14.62700 -1.81200 23.31200
H  15.25400 -2.71600 21.89400
H  13.39100 -0.55200 21.78600
H  14.24100 -1.25800 20.54300
H  14.85800 0.20900 21.32900
H  12.66000 2.03900 26.59600
H  13.43000 1.57200 25.10600
H  13.74500 3.13700 25.89800
H  14.46000 0.28500 31.26200
H  15.69800 3.15100 34.15800
H  16.30000 3.98400 32.76600
H  17.27800 2.72500 33.57800
Mg 40.74700 8.27300 29.02600
C  41.95900 9.77500 31.94300
C  38.55500 6.46200 31.09800
C  39.46900 6.64600 26.33100
C  43.26900 9.70300 27.18400
N  40.23700 8.28200 31.22300
C  40.84200 9.03800 32.17300
C  40.22200 8.76000 33.57800
C  39.27400 7.50300 33.31200
C  39.37700 7.34900 31.74500
C  39.60800 6.18000 33.90000
C  39.66400 10.07600 34.26700
C  39.76100 10.23400 35.82900
H  40.45200 11.38400 36.48500
N  39.17000 6.82100 28.73600
C  38.46100 6.22700 29.70900
C  37.47300 5.30800 29.12100
C  37.58800 5.47200 27.74200
C  38.74900 6.33400 27.50100
C  36.57800 4.31700 29.84900
C  36.75000 5.11800 26.58400
O  37.08500 5.31000 25.40400
C  35.44300 4.56500 26.84200
N  41.22500 8.10800 27.07700
C  40.62900 7.31900 26.11300
C  41.32600 7.50500 24.77600
C  42.33800 8.63600 25.07200
C  42.30300 8.82300 26.56700
C  42.09300 6.25500 24.20100
C  42.14900 9.97000 24.31100
C  41.17900 10.98100 24.91600
N  42.42300 9.33800 29.43500
C  43.33400 9.98000 28.56300
C  44.31000 10.74500 29.36700
C  43.84000 10.69200 30.70600
C  42.68700 9.85700 30.66200
C  45.43600 11.49900 28.76200
C  44.09200 11.06400 32.07700
O  44.97400 11.73600 32.61100
C  42.91800 10.45500 32.87900
C  43.35500 9.52100 33.94000
O  43.88600 8.41600 33.71600
O  43.10000 9.94700 35.20200
C  43.58800 8.96900 36.20800
H  37.90000 5.86300 31.73500
H  39.14800 6.08000 25.45400
H  44.07700 10.06700 26.54500
H  41.06400 8.40700 34.17300
H  38.25600 7.72200 33.63200
H  38.70700 5.87900 34.43500
H  40.41400 6.37500 34.60800
H  40.03800 5.45100 33.21400
H  38.59300 10.12300 34.06900
H  40.14100 10.96800 33.86100
H  40.24900 9.30400 36.11900
H  38.76000 10.14800 36.25200
H  36.74100 4.03900 30.89000
H  36.61700 3.37500 29.30200
H  35.54900 4.66400 29.75200
H  35.57900 3.60900 27.34900
H  34.74700 4.35200 26.03000
H  34.87100 5.17900 27.53700
H  40.59300 7.78500 24.01900
H  43.31400 8.21600 24.83000
H  41.74100 5.36400 24.72000
H  43.17400 6.30900 24.06700
H  41.68800 6.16600 23.19200
H  41.77000 9.78400 23.30600
H  43.17700 10.32800 24.25900
H  41.66900 11.77600 25.47800
H  40.57000 10.62800 25.74800
H  40.55200 11.40500 24.13200
H  45.63000 12.46900 29.22000
H  45.29000 11.81100 27.72800
H  46.31300 10.85700 28.84400
H  42.38100 11.27000 33.36500
H  44.65900 8.85300 36.04000
H  43.13000 8.00100 36.00300
H  43.26900 9.40900 37.15200

