158

Mg 46.65000 16.66200 28.23900
C  44.76000 16.62800 31.06700
C  48.99100 18.78100 29.86900
C  48.10100 17.37800 25.26400
C  44.03400 15.17200 26.54700
N  46.77900 17.73400 30.19000
C  45.97400 17.30800 31.25200
C  46.55800 17.74600 32.61900
C  47.65100 18.79400 32.12400
C  47.88500 18.42000 30.69500
C  47.34800 20.30300 32.31700
C  47.06700 16.50500 33.38100
C  47.13200 16.56500 34.91200
H  47.16600 17.91000 35.62200
N  48.38200 17.72000 27.69000
C  49.18600 18.48000 28.51200
C  50.33300 18.88300 27.74200
C  49.95700 18.72100 26.39500
C  48.80600 17.87100 26.40400
C  51.62000 19.46800 28.35100
C  50.63200 19.19100 25.12300
O  50.24700 18.95100 23.98200
C  51.78900 20.15700 25.26800
N  46.28500 16.04500 26.17700
C  46.99600 16.51400 25.16400
C  46.29400 16.28000 23.81400
C  45.14100 15.28100 24.29600
C  45.14300 15.52300 25.80200
C  45.89800 17.46900 22.95800
C  45.40400 13.86600 23.83400
C  44.80900 13.40000 22.51400
N  44.78600 15.92300 28.67100
C  43.86000 15.27000 27.94500
C  42.65400 14.93400 28.75100
C  42.93800 15.47900 30.01800
C  44.25000 16.06800 29.90400
C  41.57100 14.08400 28.27400
C  42.49200 15.62100 31.33200
O  41.44100 15.21400 31.79200
C  43.68200 16.29600 32.14200
C  43.11300 17.55400 32.73500
O  42.95000 18.62000 32.19800
O  42.64000 17.16500 33.96900
C  41.55900 17.94900 34.52400
H  49.84200 19.32200 30.28900
H  48.33600 17.60000 24.22100
H  43.20400 14.81100 25.93600
H  45.70500 18.11200 33.19000
H  48.56100 18.77400 32.72300
H  46.34100 20.40900 32.72100
H  47.42100 20.93300 31.43000
H  47.99500 20.67200 33.11300
H  48.05400 16.37200 32.93700
H  46.52200 15.63000 33.02700
H  48.00700 15.96600 35.16500
H  46.35100 16.01200 35.43500
H  52.42000 18.74000 28.21700
H  51.52600 19.73100 29.40400
H  51.75100 20.43500 27.86500
H  51.44100 21.14400 25.57100
H  52.26900 20.22600 24.29200
H  52.52900 19.80900 25.99000
H  46.94600 15.62100 23.24000
H  44.17500 15.56700 23.87900
H  46.50200 18.36300 23.11000
H  44.88700 17.72200 23.28000
H  45.99600 17.23100 21.89900
H  44.93000 13.26800 24.61200
H  46.45700 13.58600 23.86500
H  45.69400 13.29600 21.88600
H  44.06000 14.02400 22.02700
H  44.42600 12.40400 22.73500
H  40.65600 14.66300 28.15100
H  41.37300 13.27000 28.97200
H  41.89000 13.74800 27.28700
H  43.94000 15.51800 32.86100
H  40.85000 18.21900 33.74200
H  41.98800 18.87600 34.90600
H  41.09100 17.48800 35.39400
Mg 46.28800 25.56100 28.08000
C  47.64800 27.39600 30.72600
C  45.48300 23.20900 30.55700
C  45.60600 23.35100 25.72600
C  48.00400 27.52200 25.85300
N  46.37300 25.43700 30.35400
C  46.83800 26.39300 31.21200
C  46.43800 26.18100 32.65200
C  45.90000 24.71200 32.68300
C  45.91000 24.38700 31.10900
C  46.48400 23.61600 33.53400
C  45.35500 27.19100 33.10800
C  44.62500 26.94000 34.45600
H  45.00200 27.83500 35.66900
N  45.57400 23.59100 28.12600
C  45.33200 22.76000 29.20300
C  44.78400 21.48800 28.79400
C  44.71000 21.55100 27.41000
C  45.29700 22.86900 27.03100
C  44.45500 20.27200 29.72800
C  44.29300 20.44900 26.47600
O  44.32600 20.48300 25.26500
C  43.75000 19.15600 27.06200
N  46.73500 25.47800 26.00800
C  46.15900 24.50100 25.23200
C  46.30400 24.97000 23.73800
C  47.00200 26.37200 23.79000
C  47.21100 26.51600 25.30300
C  46.83800 23.88700 22.73000
C  46.40400 27.62900 23.06800
C  46.13700 27.62500 21.61900
N  47.63400 27.11500 28.13500
C  48.30500 27.85800 27.17900
C  49.17500 28.83600 27.83100
C  48.85100 28.72900 29.19700
C  47.96400 27.62300 29.39100
C  49.98700 29.83900 27.16300
C  49.09100 29.30700 30.47400
O  49.80000 30.21100 30.84200
C  48.24200 28.57100 31.50900
C  49.08700 28.08700 32.63600
O  50.02700 27.30200 32.51100
O  48.71900 28.67300 33.79600
C  49.34100 28.17400 35.01100
H  45.10100 22.58400 31.36600
H  45.17400 22.63800 25.02000
H  48.53200 28.11400 25.10200
H  47.31400 26.19700 33.30000
H  44.83600 24.80100 32.90300
H  45.73700 23.25200 34.24000
H  47.19900 24.17900 34.13500
H  46.89300 22.74500 33.02100
H  44.60200 27.34800 32.33600
H  45.92600 28.11900 33.13200
H  44.95000 25.94400 34.75500
H  43.55300 26.87900 34.27000
H  43.49100 19.76400 29.75900
H  44.53900 20.62700 30.75500
H  45.19000 19.49900 29.50300
H  42.85300 19.47100 27.59500
H  44.49100 18.68900 27.71100
H  43.44200 18.39700 26.34300
H  45.30800 25.28800 23.42800
H  48.01600 26.21900 23.41800
H  46.73200 22.90900 23.20000
H  47.90100 24.07400 22.57900
H  46.31300 23.83900 21.77500
H  47.09100 28.45100 23.27100
H  45.43800 27.87000 23.51000
H  46.64100 26.67900 21.42300
H  46.65100 28.43000 21.09300
H  45.08300 27.56100 21.34900
H  50.11000 29.68200 26.09100
H  51.00900 29.81800 27.53900
H  49.56900 30.83900 27.28200
H  47.45900 29.24300 31.86000
H  49.65000 29.09600 35.50500
H  50.24500 27.58200 34.87300
H  48.58400 27.72400 35.65300

