158

Mg 42.26600 41.59500 27.10500
C  41.30400 43.63200 29.66200
C  43.31300 39.24700 29.61100
C  43.36800 39.56900 24.68500
C  41.41700 43.98700 24.78800
N  42.40000 41.51800 29.46100
C  41.78200 42.47400 30.20100
C  41.82200 42.02100 31.71800
C  42.58400 40.58100 31.61400
C  42.67800 40.35800 30.14900
C  43.83400 40.57000 32.51000
C  40.36500 42.00600 32.30600
C  40.20100 42.74700 33.64200
H  39.57800 41.96700 34.85100
N  43.10000 39.65900 27.13800
C  43.47900 38.90600 28.24600
C  44.13200 37.70000 27.75600
C  44.17200 37.76100 26.31300
C  43.53200 39.05200 25.97600
C  44.63700 36.52800 28.70600
C  44.54400 36.75100 25.26600
O  44.60100 36.91600 24.06800
C  44.91200 35.33900 25.74500
N  42.45800 41.73400 25.04200
C  42.88700 40.75700 24.25800
C  42.77000 41.01200 22.73800
C  41.98800 42.36600 22.77600
C  41.83600 42.74500 24.28900
C  44.16700 41.00800 22.06500
C  40.58100 42.24400 22.26600
C  39.63600 41.23000 22.97200
N  41.63900 43.47000 27.09400
C  41.35100 44.34700 26.10200
C  40.88500 45.64600 26.68600
C  40.73300 45.32700 28.03900
C  41.30400 44.02600 28.27900
C  40.37000 46.90000 25.91800
C  40.37300 45.87000 29.23900
O  39.98200 47.00700 29.51000
C  40.80900 44.81700 30.39800
C  41.89100 45.58300 31.13000
O  42.88200 46.15700 30.61400
O  41.51500 45.69700 32.40000
C  42.59800 46.16200 33.36200
H  43.61000 38.52500 30.37400
H  43.76300 38.95000 23.87700
H  41.02400 44.71900 24.08000
H  42.42000 42.78700 32.21100
H  42.06100 39.73300 32.05600
H  44.72000 40.64200 31.87900
H  43.87800 39.68800 33.14900
H  44.00500 41.39400 33.20300
H  40.10700 40.96200 32.48400
H  39.79500 42.48200 31.50800
H  39.56100 43.61300 33.47300
H  41.16400 43.09300 34.01800
H  43.80700 35.82500 28.77900
H  45.08400 36.82200 29.65600
H  45.51400 36.17500 28.16400
H  44.18600 35.02600 26.49600
H  45.93100 35.49500 26.10000
H  44.83100 34.67000 24.88800
H  42.10100 40.26400 22.31200
H  42.50900 43.12300 22.19000
H  44.86800 40.29000 22.49000
H  44.47700 42.04700 21.95600
H  44.16700 40.78600 20.99800
H  40.50500 41.95500 21.21800
H  40.11900 43.22400 22.38400
H  40.15200 40.28400 23.13800
H  38.85800 40.91100 22.27800
H  39.12600 41.66600 23.83100
H  39.56300 46.60800 25.24700
H  41.14000 47.58600 25.56500
H  39.88000 47.39800 26.75500
H  39.91700 44.59400 30.98400
H  43.50700 46.47200 32.84600
H  43.05100 45.47000 34.07100
H  42.27000 47.01800 33.95200
Mg -11.93600 39.47400 41.29700
C  -9.94600 36.49300 40.73100
C  -9.44000 41.14000 39.68100
C  -13.91500 42.00800 41.14800
C  -14.42600 37.40800 42.63800
N  -9.99200 38.75700 40.17400
C  -9.36400 37.54800 40.12200
C  -8.17500 37.60400 39.13600
C  -7.95400 39.17900 39.09100
C  -9.23400 39.77000 39.64300
C  -6.60600 39.65700 39.79600
C  -8.50600 36.87000 37.79300
C  -7.59500 35.68900 37.34700
H  -6.41500 35.96300 36.29500
N  -11.63400 41.34100 40.48300
C  -10.60800 41.89100 39.90900
C  -10.81200 43.23400 39.64000
C  -12.12800 43.53900 40.09100
C  -12.62300 42.27300 40.60400
C  -9.72600 44.08900 38.93200
C  -12.85100 44.88300 39.92200
O  -12.27800 45.79100 39.36600
C  -14.23000 45.17600 40.36000
N  -13.82800 39.59700 41.70600
C  -14.49500 40.81900 41.61100
C  -15.91200 40.81400 42.18900
C  -16.08700 39.34400 42.51600
C  -14.72700 38.69500 42.22400
C  -16.21800 41.82400 43.35500
C  -17.33700 38.70200 41.86600
C  -17.36600 38.56300 40.33000
N  -12.16700 37.41800 41.68500
C  -13.16400 36.74800 42.39900
C  -12.79200 35.31900 42.47900
C  -11.49900 35.24500 41.92900
C  -11.18800 36.51800 41.39500
C  -13.54300 34.28800 43.30200
C  -10.39100 34.31700 41.71000
O  -10.19100 33.15800 42.02000
C  -9.37900 35.10700 40.82100
C  -8.13100 34.89600 41.50100
O  -7.36500 33.94200 41.33900
O  -7.81900 35.91500 42.41100
C  -6.91100 35.53900 43.51000
H  -8.58500 41.72200 39.32900
H  -14.48800 42.90500 41.39400
H  -15.18900 36.85900 43.19200
H  -7.34100 37.06500 39.58700
H  -7.87300 39.41700 38.03000
H  -6.01200 38.83900 40.20200
H  -6.82500 40.40300 40.56000
H  -6.13900 40.17200 38.95600
H  -8.47500 37.60500 36.98800
H  -9.53800 36.51900 37.81600
H  -8.22400 34.90700 36.92200
H  -7.13700 35.28700 38.25100
H  -10.07700 44.24100 37.91200
H  -8.67600 43.84500 39.09300
H  -9.71000 45.11000 39.31300
H  -14.13800 45.34900 41.43200
H  -14.94500 44.38700 40.12500
H  -14.49100 46.07500 39.80300
H  -16.52800 41.15100 41.35600
H  -16.20300 39.26800 43.59800
H  -15.23800 42.19900 43.65300
H  -16.77700 41.42000 44.19800
H  -16.79800 42.64200 42.92800
H  -18.12900 39.42000 42.07800
H  -17.57800 37.77400 42.38500
H  -16.48800 39.05500 39.91200
H  -18.14600 39.04000 39.73700
H  -17.42600 37.48600 40.17700
H  -13.11200 34.41700 44.29500
H  -13.24100 33.26900 43.05900
H  -14.60300 34.48200 43.46300
H  -9.40500 34.62700 39.84300
H  -7.04100 34.47400 43.70300
H  -6.97200 36.16000 44.40400
H  -5.86600 35.65800 43.22400

