158

Mg 7.54200 3.04500 26.96600
C  8.68300 1.53800 29.83400
C  5.44000 4.86800 28.92900
C  6.58900 4.67100 24.21300
C  9.03900 0.53500 25.09300
N  7.12800 3.23200 29.19000
C  7.81100 2.59100 30.12700
C  7.45100 3.01900 31.48600
C  6.19000 3.95200 31.18400
C  6.22900 4.04700 29.65100
C  4.86400 3.36600 31.81100
C  8.53400 3.69800 32.24500
C  8.40400 3.78300 33.74400
H  9.65500 3.93500 34.68500
N  6.19100 4.52700 26.62200
C  5.45200 5.25600 27.55900
C  4.73400 6.26000 26.92100
C  5.05700 6.24600 25.52500
C  6.05500 5.16600 25.39600
C  3.95400 7.28900 27.65100
C  4.57600 7.15300 24.34300
O  4.92200 7.05500 23.17300
C  3.68600 8.28200 24.64700
N  7.73400 2.56300 24.92900
C  7.39700 3.48700 24.00900
C  7.60200 2.89600 22.58300
C  8.27600 1.46000 22.83500
C  8.38000 1.44800 24.35900
C  6.25000 3.05200 21.74100
C  9.51000 1.16400 21.92300
C  9.27100 -0.17100 21.17300
N  8.56100 1.38300 27.33900
C  9.15500 0.48900 26.49600
C  10.03600 -0.38800 27.26800
C  9.75800 -0.07100 28.61500
C  8.92000 0.97500 28.57600
C  10.92500 -1.41800 26.75500
C  10.17800 -0.35700 29.95400
O  10.89500 -1.24000 30.38600
C  9.59200 0.71900 30.79100
C  8.84700 0.10900 31.98500
O  7.78000 -0.47000 31.92500
O  9.66100 0.12300 33.09100
C  9.10700 -0.49500 34.37200
H  4.72100 5.41500 29.54300
H  6.28300 5.09900 23.25600
H  9.54700 -0.22400 24.49300
H  7.07600 2.24700 32.15800
H  6.27800 4.95900 31.59300
H  4.01900 3.48400 31.13200
H  4.79700 3.95200 32.72800
H  4.81100 2.28600 31.94400
H  8.56100 4.75000 31.96000
H  9.56000 3.50200 31.93600
H  7.99600 2.81000 34.01700
H  7.68600 4.56600 33.98700
H  3.51400 7.04400 28.61800
H  3.08800 7.44300 27.00700
H  4.34800 8.30500 27.66100
H  3.44700 8.76700 23.70000
H  4.17900 8.95500 25.34800
H  2.69500 7.93600 24.94100
H  8.27000 3.50200 21.97100
H  7.48200 0.78100 22.52500
H  5.34500 3.26100 22.31200
H  6.13400 2.02800 21.38700
H  6.43700 3.79400 20.96500
H  10.47500 1.05500 22.41800
H  9.52100 1.86900 21.09100
H  9.22000 -0.04000 20.09200
H  8.40800 -0.74000 21.52000
H  10.12900 -0.83300 21.29600
H  11.34500 -1.14400 25.78800
H  10.48900 -2.40800 26.61500
H  11.80700 -1.30400 27.38500
H  10.37800 1.28200 31.29400
H  8.43400 0.13400 34.95500
H  9.90700 -0.76500 35.06100
H  8.65800 -1.43400 34.04800
Mg 1.39600 42.11900 25.72100
C  2.92900 42.38900 28.91800
C  -1.30800 40.64700 27.24000
C  0.10800 41.88200 22.80300
C  4.48000 43.23800 24.41300
N  0.86900 41.46700 27.93300
C  1.55800 41.96100 28.99200
C  0.69800 41.67600 30.27400
C  -0.59100 40.99000 29.77700
C  -0.35100 40.99800 28.24800
C  -0.98600 39.70600 30.51100
C  0.51000 42.97000 31.07800
C  0.82300 42.88800 32.60400
H  0.69100 41.53800 33.29100
N  -0.18200 41.15400 25.08200
C  -1.20300 40.66800 25.81400
C  -2.29700 40.26000 24.97000
C  -1.98700 40.76600 23.68200
C  -0.64000 41.29700 23.79900
C  -3.57200 39.59500 25.39600
C  -2.89600 40.83000 22.44900
O  -2.47600 41.32100 21.38100
C  -4.29000 40.49300 22.45000
N  2.25500 42.48000 23.92200
C  1.47600 42.28200 22.78500
C  2.13900 42.84300 21.54500
C  3.43100 43.47700 22.09400
C  3.40200 43.08300 23.54300
C  2.35000 41.87000 20.36400
C  3.48400 45.06500 22.02900
C  4.15600 45.54500 20.76100
N  3.31100 42.70900 26.45800
C  4.45100 43.11100 25.80300
C  5.48800 43.32800 26.76300
C  4.96000 43.00400 27.94200
C  3.63500 42.62700 27.74500
C  7.02400 43.78400 26.55500
C  5.30300 43.01600 29.32600
O  6.28000 43.32500 29.92300
C  3.92900 42.63600 30.13600
C  4.29800 41.41900 30.93000
O  4.37800 40.31600 30.44900
O  4.33500 41.73700 32.24900
C  4.44000 40.60100 33.17400
H  -2.20300 40.31200 27.76700
H  -0.31200 42.04800 21.80900
H  5.41400 43.62800 24.00300
H  1.33000 40.95000 30.78600
H  -1.44900 41.64100 29.94600
H  -1.04600 38.89300 29.78700
H  -1.96600 39.76900 30.98300
H  -0.29600 39.53500 31.33800
H  -0.54400 43.24800 31.06700
H  1.17900 43.74700 30.70800
H  0.01600 43.56100 32.89500
H  1.74500 43.40800 32.86400
H  -4.40900 40.29200 25.35400
H  -3.40700 39.20300 26.40000
H  -3.70200 38.73800 24.73500
H  -4.52100 39.52700 22.90000
H  -4.62800 40.44100 21.41500
H  -4.90300 41.18100 23.03200
H  1.50700 43.67900 21.24600
H  4.33600 43.14600 21.58500
H  1.37700 41.75000 19.88800
H  2.62700 40.87200 20.70400
H  2.96100 42.24700 19.54400
H  3.85300 45.38100 23.00500
H  2.42700 45.33100 22.00400
H  4.42000 44.68400 20.14800
H  5.08500 46.09800 20.90300
H  3.44600 46.20100 20.25700
H  7.58100 42.90000 26.86600
H  7.22700 44.49500 27.35600
H  7.27200 44.14100 25.55500
H  3.64100 43.40200 30.85600
H  5.49800 40.40700 33.34900
H  4.06600 39.70100 32.68600
H  3.85400 40.76000 34.07900

