158

Mg 30.15100 57.63200 40.67800
C  27.57900 55.59800 39.47600
C  32.45900 55.49100 39.26200
C  32.61600 60.00800 41.12700
C  27.85400 60.07100 41.47100
N  30.00800 55.81400 39.61200
C  28.88700 55.07400 39.29800
C  29.24600 53.63800 38.66100
C  30.84300 53.64700 38.89000
C  31.15200 55.09100 39.32400
C  31.43400 52.54800 39.89000
C  28.75400 53.48800 37.19600
C  29.06500 54.42200 36.12600
H  27.95200 55.23800 35.33200
N  32.21800 57.76200 40.28300
C  33.01900 56.74200 39.71500
C  34.42900 57.09100 39.92200
C  34.53000 58.37000 40.52800
C  33.07700 58.78100 40.66100
C  35.45700 55.95800 39.73200
C  35.77600 58.95900 41.11600
O  36.87900 58.51500 40.83100
C  35.69300 60.12800 42.05200
N  30.20800 59.87500 41.00800
C  31.35500 60.54100 41.32100
C  31.04800 61.99200 41.71300
C  29.57500 61.85100 42.18800
C  29.16900 60.53700 41.46600
C  31.94600 62.64900 42.82900
C  28.74200 63.06600 41.66400
C  27.53600 63.64600 42.46300
N  28.13200 57.80100 40.56900
C  27.32000 58.87000 40.91600
C  25.90200 58.47900 40.79600
C  26.03300 57.16000 40.25400
C  27.37900 56.83200 40.03600
C  24.72000 59.21800 41.10200
C  25.24300 56.02600 39.87100
O  24.04000 55.79300 39.95200
C  26.22700 55.01600 39.24400
C  25.89400 53.76000 39.83600
O  26.29100 53.33800 40.93900
O  25.03800 53.05200 39.05700
C  24.48600 51.80900 39.59200
H  33.11400 54.70200 38.88700
H  33.33800 60.82200 41.21700
H  27.11900 60.75700 41.89700
H  28.73100 52.96200 39.34400
H  31.29500 53.52100 37.90600
H  31.15000 51.53600 39.60000
H  31.00200 52.73200 40.87400
H  32.52100 52.57700 39.81400
H  27.67000 53.38000 37.15700
H  29.18100 52.52200 36.92500
H  29.66600 53.89300 35.38700
H  29.56600 55.29900 36.53700
H  36.46700 56.29300 39.49600
H  35.26700 55.22700 38.94700
H  35.53100 55.37000 40.64700
H  35.25000 60.97600 41.53000
H  36.73400 60.21600 42.36400
H  35.03300 59.97000 42.90500
H  31.10000 62.49600 40.74800
H  29.54800 61.87800 43.27700
H  32.73400 62.02900 43.25700
H  31.25500 62.96100 43.61200
H  32.34700 63.53200 42.33200
H  28.29300 62.67300 40.75200
H  29.42200 63.89400 41.46500
H  26.59400 63.50200 41.93400
H  27.65900 64.72200 42.58900
H  27.55200 63.17100 43.44400
H  23.96300 58.46700 41.32600
H  24.37400 59.56700 40.12900
H  24.83400 60.02300 41.82800
H  25.99400 55.04300 38.18000
H  25.25900 51.08200 39.84200
H  23.88100 51.22500 38.89900
H  23.89000 52.10800 40.45500
Mg -9.61100 38.75900 39.80300
C  -8.73300 35.43800 39.22600
C  -6.41800 39.67700 38.55500
C  -10.71300 41.88100 39.38300
C  -12.71800 37.68200 40.77900
N  -7.87100 37.58900 38.83000
C  -7.65800 36.27300 38.90200
C  -6.20800 35.90400 38.51000
C  -5.44400 37.29200 38.71800
C  -6.64500 38.26200 38.74100
C  -4.44400 37.36900 39.92700
C  -6.18900 35.32100 37.01700
C  -6.50700 36.19000 35.83400
H  -7.73100 35.90500 34.99000
N  -8.66700 40.59100 39.12500
C  -7.41500 40.73200 38.62800
C  -7.19500 42.16000 38.44000
C  -8.36200 42.88700 38.81200
C  -9.34500 41.78100 39.14000
C  -5.88900 42.74500 38.07000
C  -8.45800 44.36000 38.82600
O  -7.48100 45.05400 38.54400
C  -9.75500 45.04200 39.24700
N  -11.49300 39.56900 39.90600
C  -11.63200 40.88400 39.77700
C  -13.05500 41.37500 40.15100
C  -13.68800 40.06600 40.78800
C  -12.62900 39.03800 40.41600
C  -13.16500 42.70600 41.00800
C  -15.02100 39.62200 40.34100
C  -16.14500 39.67200 41.40100
N  -10.58700 36.93100 40.14400
C  -11.82200 36.64200 40.60900
C  -11.92300 35.15900 40.84000
C  -10.81600 34.66100 40.19100
C  -9.95800 35.78400 39.81000
C  -13.08900 34.37400 41.51700
C  -10.09900 33.47500 39.74700
O  -10.36700 32.28600 39.88800
C  -8.74300 33.92300 39.11800
C  -7.59300 33.31200 39.91700
O  -7.63900 33.20800 41.13600
O  -6.71200 32.70700 39.09100
C  -5.45000 32.18200 39.69000
H  -5.42800 40.11600 38.41700
H  -11.20300 42.84200 39.21000
H  -13.65200 37.40600 41.27400
H  -5.78000 35.13800 39.15700
H  -4.93600 37.71900 37.85400
H  -4.87500 37.80300 40.82900
H  -3.51900 37.92700 39.78100
H  -4.06300 36.39900 40.24700
H  -6.82500 34.43700 36.97300
H  -5.16200 34.96900 36.92300
H  -5.70700 36.04100 35.10800
H  -6.45100 37.22700 36.16500
H  -5.57700 43.17700 39.02100
H  -5.92100 43.55500 37.34000
H  -5.12600 42.05700 37.70700
H  -9.90500 44.70500 40.27200
H  -10.59200 44.83400 38.58000
H  -9.54500 46.11200 39.23700
H  -13.55200 41.56800 39.20000
H  -13.67000 40.07900 41.87800
H  -12.16500 43.04400 41.28200
H  -13.71300 42.47100 41.92000
H  -13.59400 43.50800 40.40700
H  -14.96500 38.65200 39.84500
H  -15.36200 40.16600 39.46000
H  -16.84500 40.49400 41.25200
H  -15.92800 39.58000 42.46500
H  -16.78900 38.80000 41.28700
H  -14.03600 34.87700 41.32200
H  -12.90900 34.21500 42.58000
H  -13.01400 33.35600 41.13500
H  -8.69100 33.65500 38.06300
H  -4.81100 32.04600 38.81700
H  -5.52100 31.19700 40.15200
H  -5.00800 33.04700 40.18300

