158

Mg 1.17900 -1.98000 43.43100
C  4.60400 -1.64500 42.87500
C  0.52000 0.63700 41.23000
C  -2.06600 -3.04700 43.03900
C  1.90800 -5.23600 44.66300
N  2.44300 -0.72400 42.25800
C  3.78900 -0.75400 42.13100
C  4.24400 0.16300 41.03400
C  2.95300 1.07200 40.84300
C  1.88500 0.33700 41.55500
C  3.17300 2.53600 41.34800
C  4.73200 -0.67400 39.87800
C  6.13400 -0.26500 39.37700
H  6.27700 0.45500 38.01800
N  -0.52000 -1.20600 42.45300
C  -0.60900 -0.05700 41.71500
C  -1.96100 0.16300 41.31600
C  -2.74900 -0.91600 41.77700
C  -1.79600 -1.77900 42.55100
C  -2.33400 1.27600 40.36400
C  -4.25000 -1.17900 41.43400
O  -4.77500 -0.39300 40.63800
C  -5.15100 -2.24800 42.10400
N  0.12400 -3.96300 43.74700
C  -1.26200 -4.03300 43.60400
C  -1.76000 -5.40200 43.95500
C  -0.51900 -6.06200 44.64600
C  0.59700 -5.08000 44.34500
C  -3.03500 -5.53600 44.76100
C  -0.14100 -7.54100 44.27100
C  -0.25500 -8.66200 45.26000
N  2.84200 -3.09300 44.00600
C  2.97600 -4.34000 44.45300
C  4.39100 -4.75500 44.54500
C  5.02700 -3.69500 43.93600
C  4.09700 -2.70200 43.64800
C  4.97800 -6.04200 45.05500
C  6.35800 -3.17600 43.59600
O  7.45000 -3.51500 43.96800
C  6.05200 -1.93200 42.67200
C  6.81100 -0.76800 43.30900
O  7.93000 -0.45500 43.03300
O  6.14300 -0.24200 44.42100
C  6.86500 0.86800 45.14000
H  0.25300 1.40200 40.49800
H  -3.00400 -3.53100 42.76100
H  2.22700 -6.18800 45.09500
H  5.02100 0.80000 41.45600
H  2.74400 1.02100 39.77400
H  3.10200 3.19500 40.48300
H  4.10000 2.72500 41.89100
H  2.38600 2.68000 42.08800
H  3.97500 -0.61500 39.09600
H  4.82800 -1.73900 40.08900
H  6.74900 -1.16400 39.39300
H  6.56300 0.39900 40.12700
H  -1.61800 2.07500 40.55800
H  -3.35100 1.65400 40.46800
H  -2.31000 0.76600 39.40100
H  -6.16600 -1.85400 42.16200
H  -4.86400 -2.41700 43.14200
H  -5.02500 -3.23500 41.66100
H  -1.82700 -5.82900 42.95400
H  -0.63500 -6.09600 45.72900
H  -3.65500 -4.64000 44.73500
H  -2.88300 -5.74400 45.82000
H  -3.59600 -6.42700 44.48100
H  0.87200 -7.55700 43.86800
H  -0.74300 -7.73900 43.38400
H  -0.56700 -8.30100 46.24000
H  0.67100 -9.20900 45.43600
H  -0.98800 -9.38200 44.89400
H  6.06300 -5.94000 45.07700
H  4.74500 -6.80900 44.31700
H  4.60300 -6.26600 46.05400
H  6.33400 -1.98700 41.62100
H  6.27600 1.49100 45.81300
H  7.50200 1.53700 44.56200
H  7.51800 0.33800 45.83400
Mg 4.20000 55.03800 41.10000
C  4.45600 51.64900 40.25500
C  7.19700 55.49400 39.25800
C  3.74000 58.43800 41.23700
C  1.02600 54.49500 42.33700
N  5.46700 53.70500 39.65900
C  5.43000 52.37600 39.61700
C  6.56100 51.79900 38.78600
C  7.61500 52.89300 38.98700
C  6.72500 54.12500 39.28900
C  8.72200 52.83900 40.02400
C  6.03000 51.42800 37.29500
C  6.14900 52.54700 36.23800
H  5.45200 52.28800 34.84100
N  5.27900 56.71200 40.33000
C  6.46900 56.68300 39.64000
C  6.95100 58.01000 39.39400
C  5.95500 58.89100 39.96000
C  4.94000 58.02300 40.59600
C  8.35800 58.36200 38.95900
C  6.00300 60.38600 39.85500
O  6.95600 60.94500 39.37500
C  4.99000 61.30600 40.38600
N  2.53400 56.25800 41.48500
C  2.60500 57.61100 41.55200
C  1.39000 58.22800 42.13300
C  0.56300 57.04300 42.51000
C  1.37600 55.87300 42.04100
C  1.66000 59.15400 43.41300
C  -0.92300 57.12500 42.07400
C  -1.90400 56.96200 43.26200
N  2.99300 53.43700 41.42900
C  1.77600 53.33300 42.05800
C  1.50900 51.91800 42.24300
C  2.52500 51.25000 41.52100
C  3.32600 52.19600 40.96700
C  0.36900 51.29600 42.99700
C  2.97900 49.93200 41.13600
O  2.55200 48.85000 41.44500
C  4.36800 50.10000 40.38200
C  4.25600 49.19400 39.24300
O  3.35200 49.27400 38.42200
O  5.33700 48.36200 39.23500
C  5.18900 47.34200 38.23600
H  8.21800 55.72000 38.94300
H  3.52900 59.50600 41.32300
H  0.08600 54.34800 42.87300
H  6.90200 50.89400 39.28900
H  8.15300 53.00800 38.04600
H  9.67500 52.93500 39.50400
H  8.63600 51.92400 40.61000
H  8.54900 53.56800 40.81500
H  4.99100 51.11400 37.19300
H  6.60400 50.58000 36.92000
H  7.19900 52.76500 36.04500
H  5.81700 53.51600 36.61200
H  8.83800 58.78000 39.84400
H  8.21500 59.02000 38.10200
H  8.97900 57.52000 38.65300
H  5.27400 62.33800 40.17900
H  4.91300 61.14500 41.46100
H  4.12100 61.03000 39.78900
H  0.85700 58.78900 41.36500
H  0.54500 56.90500 43.59100
H  2.66300 58.97600 43.80100
H  0.84400 59.02500 44.12400
H  1.58900 60.16200 43.00500
H  -1.04000 56.41800 41.25200
H  -1.20200 58.08100 41.63100
H  -2.64000 57.76300 43.19200
H  -1.42200 57.03000 44.23700
H  -2.40700 55.99900 43.35200
H  0.58900 50.34000 43.47200
H  -0.38100 50.98300 42.27200
H  -0.08300 51.94300 43.74900
H  5.12400 49.69900 41.05800
H  4.16800 47.09800 37.94100
H  5.57100 46.37600 38.56600
H  5.73200 47.50500 37.30600

