158

Mg 41.44800 40.64900 27.07200
C  40.80000 43.08800 29.71900
C  42.12600 38.34600 29.44000
C  42.29600 38.66200 24.55400
C  41.29400 43.49700 24.79200
N  41.48200 40.81300 29.37700
C  41.03800 41.83700 30.22100
C  40.96700 41.32500 31.65100
C  41.37000 39.77100 31.58000
C  41.76100 39.61500 30.04500
C  42.53500 39.46400 32.53800
C  39.65900 41.62600 32.39700
C  39.71200 42.70500 33.44900
H  39.04200 42.40500 34.79300
N  41.94000 38.75400 27.00500
C  42.25300 37.97700 28.09100
C  42.77600 36.72000 27.62000
C  42.68900 36.70900 26.20300
C  42.24700 38.07600 25.85200
C  43.28200 35.61600 28.50800
C  42.99400 35.51800 25.23600
O  42.79400 35.59000 24.04900
C  43.62900 34.28400 25.65200
N  41.72800 40.99200 25.00000
C  42.14400 39.98400 24.14000
C  42.12000 40.42400 22.66200
C  41.93300 42.03800 22.79000
C  41.53700 42.17500 24.32700
C  43.28400 40.02000 21.78800
C  40.88100 42.49300 21.78600
C  39.38000 42.62400 22.32400
N  41.12600 42.82600 27.17400
C  40.90400 43.72900 26.18300
C  40.41100 44.93600 26.73000
C  40.40700 44.75500 28.14000
C  40.79200 43.42000 28.37200
C  40.16200 46.21400 25.96300
C  40.17700 45.40000 29.34000
O  39.90000 46.58700 29.56800
C  40.39800 44.36600 30.47100
C  41.38800 44.91800 31.39500
O  42.57700 44.75800 31.20000
O  40.85300 45.61300 32.42300
C  41.73100 46.39200 33.30900
H  42.29800 37.49700 30.10600
H  42.61600 37.95800 23.78300
H  41.24300 44.17600 23.93900
H  41.75300 41.87900 32.16400
H  40.50600 39.13100 31.76000
H  43.41400 39.59100 31.90700
H  42.46700 38.44500 32.91700
H  42.40200 40.15000 33.37500
H  39.27700 40.70600 32.83800
H  38.89300 41.98400 31.70900
H  39.10900 43.48300 32.97900
H  40.71600 43.03300 33.71900
H  42.40800 34.98800 28.67900
H  43.62700 35.90800 29.50000
H  44.09600 35.05000 28.05300
H  42.90400 33.80400 26.30800
H  44.52700 34.60400 26.17900
H  43.83100 33.60700 24.82200
H  41.21400 40.09800 22.15200
H  42.82800 42.58700 22.49700
H  42.94600 39.86500 20.76300
H  43.57200 39.05100 22.19400
H  44.12000 40.71600 21.85900
H  40.89400 42.04200 20.79300
H  41.13200 43.50300 21.46300
H  39.34300 42.38600 23.38800
H  38.68300 41.88300 21.93400
H  38.89900 43.59400 22.19700
H  39.95800 45.96900 24.92100
H  40.98800 46.92200 26.04200
H  39.32800 46.70800 26.46200
H  39.44100 44.47800 30.98100
H  41.61100 46.04400 34.33500
H  41.33900 47.40300 33.42600
H  42.77300 46.47700 33.00100
Mg 30.75900 58.71700 38.91000
C  27.62400 57.12300 38.33300
C  32.40000 55.90800 37.78400
C  33.59200 60.61600 38.55700
C  28.98500 61.72600 39.41300
N  30.05100 56.81200 38.02300
C  28.72500 56.32000 38.00400
C  28.73000 54.90800 37.47100
C  30.19700 54.46800 37.58000
C  31.00500 55.81600 37.81500
C  30.42400 53.44700 38.71100
C  28.26200 54.89600 35.99800
C  26.83300 54.35600 35.58900
H  25.95700 55.30200 34.75300
N  32.72600 58.30000 38.45000
C  33.19200 57.07700 38.12800
C  34.64200 57.15400 38.16200
C  35.08200 58.43200 38.34300
C  33.81700 59.25200 38.44800
C  35.57700 55.99000 37.98900
C  36.49300 58.96800 38.42600
O  37.41900 58.25400 38.04600
C  36.74400 60.27800 38.98300
N  31.14000 60.95500 38.84200
C  32.41000 61.44300 38.78500
C  32.40200 62.98800 38.93300
C  30.86600 63.33100 39.22900
C  30.31100 61.93800 39.18200
C  33.38000 63.68400 39.92600
C  30.20500 64.26700 38.21700
C  29.47100 65.53200 38.66600
N  28.67100 59.29200 38.89100
C  28.14200 60.58100 39.15900
C  26.67200 60.42800 39.20500
C  26.41200 59.07300 38.88800
C  27.65800 58.46700 38.77700
C  25.77400 61.54100 39.55200
C  25.39600 58.05200 38.75600
O  24.20900 58.19200 38.80500
C  26.15500 56.74600 38.26900
C  25.76800 55.59800 39.11800
O  26.06700 55.53300 40.28900
O  24.93400 54.72800 38.45400
C  24.30700 53.67800 39.27900
H  33.00000 55.01800 37.58200
H  34.41400 61.33200 38.49100
H  28.40700 62.57700 39.78100
H  28.03200 54.23700 37.97200
H  30.61100 54.07400 36.65100
H  31.13700 52.66800 38.44300
H  29.51000 53.04000 39.14200
H  30.83200 53.94200 39.59300
H  28.94100 54.27100 35.41700
H  28.32000 55.92600 35.64700
H  26.32600 54.05700 36.50600
H  26.76700 53.43300 35.01400
H  35.12600 55.05700 37.65200
H  36.06100 55.76700 38.94000
H  36.38600 56.20700 37.29100
H  37.77200 60.50600 39.26500
H  36.10800 60.40600 39.85900
H  36.52600 61.05400 38.24900
H  32.59600 63.36100 37.92700
H  30.72700 63.56600 40.28400
H  34.06500 62.99100 40.41300
H  32.81400 64.25500 40.66100
H  33.99200 64.37900 39.35000
H  29.59100 63.62800 37.58200
H  31.03200 64.61900 37.60000
H  29.79700 66.41800 38.12000
H  29.64600 65.59400 39.74000
H  28.38500 65.47900 38.59100
H  26.37300 62.19400 40.18800
H  24.84000 61.23300 40.02300
H  25.44500 62.04300 38.64300
H  25.80300 56.64400 37.24300
H  23.91100 54.10700 40.19900
H  25.19500 53.19400 39.68700
H  23.73600 53.02200 38.62200

