158

Mg -10.70400 17.66700 41.22800
C  -7.11100 17.52600 41.07600
C  -10.43000 21.05400 40.53900
C  -13.96300 17.84600 40.35100
C  -10.73000 14.21900 40.95900
N  -8.92100 19.05100 40.77200
C  -7.58300 18.77800 40.87000
C  -6.82200 20.05200 40.64000
C  -7.87800 21.15700 41.08400
C  -9.17100 20.38500 40.77100
C  -7.74000 21.59600 42.52400
C  -6.36200 20.24600 39.11900
C  -4.83600 20.16100 38.80100
H  -4.41700 19.25500 37.75800
N  -11.98500 19.22800 40.63900
C  -11.69600 20.50100 40.43100
C  -12.85200 21.28300 40.00500
C  -13.98100 20.39500 40.01200
C  -13.33800 19.07500 40.36500
C  -12.90400 22.78100 39.72100
C  -15.34300 20.82100 39.79100
O  -15.59600 22.03700 39.66900
C  -16.38900 19.81100 39.82000
N  -12.09000 16.31300 40.61900
C  -13.41200 16.59600 40.48700
C  -14.30500 15.38000 40.63200
C  -13.27800 14.24900 40.63200
C  -11.93500 14.95200 40.72900
C  -15.13400 15.55700 41.87900
C  -13.33000 13.39100 39.23500
C  -13.65700 11.88100 39.27800
N  -9.20500 16.14100 41.19200
C  -9.40100 14.71100 41.10400
C  -8.15600 14.10600 41.29200
C  -7.24100 15.11700 41.34800
C  -7.95500 16.33500 41.15200
C  -7.91300 12.64700 41.32500
C  -5.83600 15.54600 41.38600
O  -4.82900 14.87400 41.66900
C  -5.67800 17.12000 41.21300
C  -5.06900 17.65600 42.44200
O  -5.68300 17.98800 43.44900
O  -3.76400 17.88500 42.17200
C  -3.02900 18.57800 43.22600
H  -10.33600 22.13900 40.46200
H  -15.00600 17.77100 40.03400
H  -10.93300 13.14600 40.97100
H  -6.02700 20.07800 41.38500
H  -7.78500 22.13200 40.60600
H  -6.71300 21.55800 42.88700
H  -8.44300 21.07800 43.17700
H  -7.98600 22.64900 42.65900
H  -6.67700 21.16800 38.63000
H  -6.85700 19.40400 38.63600
H  -4.22400 19.91100 39.66800
H  -4.58900 21.17800 38.49500
H  -13.34600 23.00800 38.75100
H  -11.91400 23.23700 39.73600
H  -13.50600 23.38600 40.39800
H  -16.29100 19.21200 38.91400
H  -17.27600 20.44200 39.77700
H  -16.45100 19.22700 40.73800
H  -14.94000 15.28800 39.75100
H  -13.55600 13.55100 41.42200
H  -15.65700 14.63500 42.13700
H  -15.88400 16.34600 41.82600
H  -14.54100 15.84800 42.74700
H  -12.36800 13.50700 38.73500
H  -14.01600 13.78400 38.48400
H  -14.61400 11.65300 38.80900
H  -13.72000 11.57100 40.32100
H  -12.79600 11.40800 38.80800
H  -7.36900 12.23400 40.47500
H  -8.88800 12.16000 41.30600
H  -7.49500 12.35700 42.28900
H  -5.04600 17.37200 40.36200
H  -1.98000 18.74700 42.98600
H  -2.90800 18.04500 44.16900
H  -3.70900 19.41400 43.39000
Mg -6.35100 25.48500 26.82200
C  -5.30000 27.37800 29.59300
C  -8.00100 23.45400 28.95900
C  -7.26500 23.61600 24.13100
C  -4.37900 27.49600 24.68000
N  -6.41000 25.34700 29.11300
C  -6.04100 26.25500 30.03200
C  -6.70300 26.01200 31.37300
C  -7.32000 24.61500 31.16500
C  -7.29600 24.48200 29.62200
C  -6.51700 23.46600 31.92000
C  -7.58100 27.15600 31.84200
C  -7.88300 27.19700 33.38000
H  -7.27100 26.01500 34.31600
N  -7.55900 23.77700 26.59000
C  -8.17900 23.08800 27.59700
C  -9.00400 22.10200 26.92900
C  -8.70900 22.07200 25.51300
C  -7.76100 23.15200 25.36200
C  -9.88600 21.26500 27.67200
C  -9.27900 21.15300 24.44100
O  -8.92000 21.07400 23.25700
C  -10.48400 20.31500 24.79800
N  -5.82300 25.42000 24.72500
C  -6.33700 24.57300 23.75300
C  -5.73700 24.80700 22.38800
C  -5.15300 26.23300 22.57300
C  -5.07000 26.41700 24.12800
C  -4.66400 23.72700 21.86800
C  -5.98700 27.38500 21.87000
C  -5.28000 28.00600 20.64700
N  -5.09200 27.10100 26.99200
C  -4.36100 27.87600 26.06400
C  -3.69300 28.97800 26.87300
C  -3.99800 28.80000 28.14200
C  -4.87400 27.67000 28.22300
C  -2.78900 30.11500 26.28100
C  -3.85600 29.42400 29.45700
O  -3.27700 30.46300 29.77300
C  -4.65700 28.47200 30.41300
C  -3.77000 27.98700 31.49900
O  -3.00200 27.03600 31.50800
O  -4.00000 28.78500 32.57200
C  -3.11500 28.59400 33.69000
H  -8.42000 22.68000 29.60500
H  -7.58500 22.93000 23.34400
H  -3.82500 28.11900 23.97400
H  -5.81400 25.86100 31.98500
H  -8.33800 24.49900 31.53600
H  -5.89400 23.02600 31.14100
H  -7.23600 22.69400 32.19400
H  -5.96700 23.76900 32.81100
H  -8.47700 27.09200 31.22500
H  -7.18300 28.08800 31.44200
H  -8.96400 27.06700 33.40800
H  -7.78200 28.21300 33.76400
H  -9.83000 20.24300 27.29900
H  -10.94000 21.54400 27.64400
H  -9.58000 21.19800 28.71600
H  -11.11400 20.81700 25.53300
H  -10.34200 19.29300 25.15100
H  -11.11600 20.19800 23.91800
H  -6.51400 24.84600 21.62500
H  -4.14500 26.27000 22.16200
H  -3.81400 24.30400 21.50500
H  -5.20300 23.20600 21.07600
H  -4.35300 23.00700 22.62500
H  -6.30200 28.15300 22.57600
H  -6.84000 26.89100 21.40500
H  -5.89400 27.87900 19.75500
H  -4.27600 27.64000 20.43200
H  -5.24400 29.07500 20.85600
H  -1.82900 29.70200 25.97200
H  -2.59700 30.83300 27.07800
H  -3.38800 30.48700 25.45000
H  -5.51000 29.04700 30.77300
H  -3.23700 29.46900 34.32800
H  -2.06400 28.53600 33.40700
H  -3.45600 27.73600 34.26900

