158

Mg -1.84500 17.26200 26.40900
C  -2.14600 14.67300 28.83400
C  -2.36100 19.56800 28.85500
C  -2.04300 19.84700 24.06700
C  -2.34300 14.80300 24.02200
N  -2.18800 17.06800 28.54300
C  -2.14100 15.98400 29.42600
C  -2.39800 16.33700 30.91400
C  -2.28800 17.91700 30.78000
C  -2.25200 18.19600 29.32500
C  -3.37700 18.67200 31.63300
C  -1.30000 15.78800 31.93600
C  -1.15600 16.47200 33.26500
H  -1.36500 15.67200 34.54600
N  -2.12300 19.38800 26.50400
C  -2.30700 20.12300 27.55200
C  -2.47400 21.53800 27.28300
C  -2.14900 21.61300 25.90800
C  -2.06700 20.25800 25.44100
C  -2.67300 22.59800 28.40000
C  -2.01100 22.91200 25.04600
O  -1.55200 22.96100 23.89300
C  -2.41800 24.18400 25.75200
N  -2.34100 17.39400 24.40300
C  -2.20300 18.48700 23.59000
C  -2.33300 18.10700 22.06700
C  -2.36600 16.59100 22.09300
C  -2.35000 16.20800 23.59100
C  -3.45200 18.88900 21.45000
C  -1.21100 15.91100 21.32200
C  -1.42000 15.65400 19.82500
N  -2.02500 15.14100 26.35700
C  -2.29600 14.33700 25.32000
C  -2.47500 12.97900 25.76100
C  -2.46300 13.08600 27.13900
C  -2.13100 14.40900 27.47100
C  -2.63600 11.69300 25.02900
C  -2.61200 12.31100 28.34000
O  -2.92100 11.09800 28.39900
C  -2.40700 13.32600 29.49800
C  -1.33600 12.85200 30.41400
O  -0.19000 13.17400 30.36500
O  -1.87800 11.87000 31.17500
C  -1.03400 11.39500 32.26600
H  -2.53300 20.29500 29.65100
H  -2.06600 20.70000 23.38500
H  -2.41500 14.07400 23.21200
H  -3.44000 16.19000 31.19900
H  -1.32600 18.20900 31.20100
H  -3.03200 19.51600 32.23100
H  -3.84800 17.97100 32.32200
H  -4.19100 18.97500 30.97600
H  -0.34300 15.73100 31.41800
H  -1.73400 14.80600 32.12200
H  -1.77600 17.36000 33.38800
H  -0.15200 16.88900 33.34600
H  -1.77000 23.20800 28.42700
H  -2.88900 22.20200 29.39300
H  -3.54300 23.24500 28.29400
H  -2.39600 25.01200 25.04400
H  -1.75100 24.31700 26.60500
H  -3.38000 24.00600 26.23200
H  -1.40700 18.34200 21.54200
H  -3.29000 16.23400 21.63700
H  -3.87300 19.48500 22.26000
H  -4.30100 18.33500 21.04900
H  -3.09000 19.38500 20.54900
H  -1.10000 14.86900 21.62100
H  -0.27700 16.44500 21.49500
H  -2.22800 16.22900 19.37300
H  -1.60800 14.60300 19.60300
H  -0.49300 15.93900 19.32700
H  -3.45000 11.07100 25.40200
H  -1.63500 11.28900 25.17600
H  -2.95300 11.87200 24.00200
H  -3.33400 13.30800 30.07200
H  -1.22400 12.19000 32.98800
H  0.03000 11.37000 32.03100
H  -1.34900 10.43700 32.68000
Mg 2.15700 -2.49600 44.60300
C  5.14600 -0.95900 43.74500
C  0.44600 -0.11100 42.86800
C  -0.57900 -4.43500 45.02700
C  4.05100 -5.32200 45.71600
N  2.72100 -0.94800 43.17600
C  4.01600 -0.42400 43.09400
C  4.05900 0.80000 42.23700
C  2.50200 1.07500 41.98000
C  1.83600 -0.09100 42.68000
C  2.09400 2.40100 42.44700
C  4.81700 0.81900 40.85600
C  6.01200 1.84500 40.67400
H  6.76600 1.34400 39.50500
N  0.22000 -2.24600 44.11500
C  -0.34800 -1.18300 43.38300
C  -1.78600 -1.35400 43.23000
C  -2.08900 -2.63100 43.84000
C  -0.81700 -3.16700 44.40100
C  -2.60600 -0.45100 42.27600
C  -3.48200 -3.40100 43.79700
O  -4.48700 -2.84700 43.35000
C  -3.62700 -4.75100 44.32900
N  1.73700 -4.55800 45.47100
C  0.50400 -5.09600 45.42800
C  0.50100 -6.50000 46.03800
C  1.99400 -6.81400 46.02600
C  2.65200 -5.50700 45.81000
C  -0.27200 -6.78300 47.35000
C  2.52900 -7.91500 45.00600
C  3.49800 -8.94400 45.64300
N  4.22100 -3.03200 44.89300
C  4.79300 -4.18500 45.33500
C  6.26100 -4.05200 45.19800
C  6.48300 -2.74100 44.62500
C  5.20600 -2.19400 44.46200
C  7.21900 -5.21200 45.53800
C  7.45700 -1.81400 44.20500
O  8.66900 -1.87500 44.26300
C  6.61500 -0.56600 43.71700
C  7.10200 0.37700 44.77300
O  7.02800 0.15000 45.97400
O  7.25300 1.60600 44.18700
C  7.59400 2.62300 45.23400
H  -0.06900 0.76800 42.47600
H  -1.44500 -5.07400 45.21300
H  4.59400 -6.24100 45.95000
H  4.43100 1.56600 42.91700
H  2.30600 0.91800 40.91900
H  2.89800 3.13700 42.44800
H  1.72600 2.38600 43.47300
H  1.23100 2.81000 41.92300
H  4.10300 1.13800 40.09700
H  5.16100 -0.17900 40.58400
H  6.65400 1.82800 41.55500
H  5.66100 2.85300 40.45400
H  -2.80400 -1.04900 41.38600
H  -2.13600 0.51100 42.07200
H  -3.61100 -0.28200 42.66200
H  -4.63100 -5.09200 44.07700
H  -3.57300 -4.70600 45.41600
H  -2.92200 -5.47200 43.91400
H  0.06500 -7.10900 45.24500
H  2.22100 -7.05500 47.06400
H  0.41300 -7.02700 48.16200
H  -1.02800 -7.56600 47.29200
H  -0.70600 -5.82500 47.63500
H  3.02400 -7.41100 44.17600
H  1.70700 -8.41900 44.49900
H  3.39200 -9.99600 45.37500
H  3.51200 -8.96800 46.73300
H  4.48200 -8.63900 45.28800
H  8.21600 -5.02700 45.13800
H  6.92200 -6.14100 45.05200
H  7.15600 -5.22100 46.62600
H  6.99300 -0.23600 42.74900
H  6.96200 3.50400 45.35100
H  8.53300 3.08400 44.93000
H  7.85500 2.21100 46.20900

