158

Mg 1.58500 7.94900 27.58800
C  2.10800 10.02100 30.32900
C  2.01600 5.24200 29.91500
C  1.25300 5.84400 25.07200
C  1.62700 10.58700 25.41900
N  1.94700 7.68700 29.83000
C  1.88000 8.76100 30.70900
C  1.67500 8.25000 32.11900
C  2.19600 6.77900 32.01600
C  1.96400 6.50800 30.48900
C  3.47500 6.19900 32.63000
C  0.26800 8.36300 32.54100
C  -0.12100 8.43100 34.11400
H  1.14400 8.20500 35.09200
N  1.49000 5.83800 27.50000
C  1.77200 4.89500 28.53300
C  1.73800 3.57400 27.87900
C  1.37900 3.67800 26.50500
C  1.33200 5.14200 26.28500
C  2.00000 2.26000 28.61000
C  1.23700 2.57900 25.43900
O  0.95800 2.90100 24.26600
C  1.32500 1.05100 25.75400
N  1.37100 8.17400 25.62400
C  1.29600 7.20200 24.72900
C  1.01400 7.64100 23.29200
C  0.86800 9.21100 23.54400
C  1.24800 9.35200 24.93700
C  2.21400 7.46900 22.27300
C  -0.45600 9.86300 23.00600
C  -0.44400 11.13900 22.24000
N  1.96300 9.93300 27.77000
C  1.96200 10.90000 26.76500
C  2.14600 12.16000 27.39100
C  2.24200 11.90100 28.75900
C  2.05200 10.54000 28.92800
C  2.12800 13.54500 26.68000
C  2.48700 12.48000 30.10600
O  2.78100 13.60300 30.46600
C  2.33600 11.34300 31.16000
C  3.54300 11.26300 32.02200
O  4.65700 11.13700 31.54800
O  3.35500 11.48900 33.42300
C  4.57200 11.68500 34.21400
H  1.94600 4.44700 30.66000
H  1.12500 5.24000 24.17100
H  1.46400 11.45800 24.78000
H  2.31500 8.79800 32.81100
H  1.51400 6.08500 32.50800
H  4.03100 6.98800 33.13500
H  4.20700 5.90000 31.87900
H  3.33700 5.27200 33.18800
H  -0.34200 7.57300 32.10200
H  -0.16300 9.20800 32.00400
H  -0.88500 7.65900 34.20300
H  -0.66400 9.36100 34.27800
H  1.18700 1.61900 28.27000
H  1.90300 2.31200 29.69400
H  2.89600 1.74400 28.26600
H  1.38000 0.43300 24.85900
H  0.43800 0.70500 26.28600
H  2.16900 0.81900 26.40300
H  0.11400 7.13700 22.94000
H  1.59900 9.78900 22.97700
H  1.82100 7.04800 21.34700
H  2.86500 6.72100 22.72600
H  2.81600 8.37000 22.15300
H  -1.10700 10.17000 23.82500
H  -1.05600 9.12900 22.46800
H  -0.83400 10.80300 21.27900
H  0.57400 11.41900 21.97000
H  -1.01700 11.99700 22.59200
H  3.02300 13.82900 26.12800
H  1.88200 14.26500 27.46100
H  1.22100 13.41000 26.09000
H  1.52300 11.56500 31.85200
H  4.53300 12.51700 34.91800
H  5.40800 12.02700 33.60500
H  4.77400 10.73500 34.70800
Mg 36.64300 2.04300 29.58700
C  34.32600 2.96900 32.19300
C  38.98700 1.94600 32.00900
C  38.73900 1.23100 27.14800
C  34.04100 2.59900 27.26700
N  36.63200 2.29700 31.82500
C  35.54400 2.53800 32.71700
C  35.88500 2.67100 34.12400
C  37.47300 2.71100 34.00300
C  37.74000 2.32600 32.46600
C  38.28700 4.02800 34.21700
C  35.25600 1.55800 35.02300
C  34.75200 1.99000 36.40300
H  35.16700 3.32000 37.01000
N  38.67300 1.61100 29.54500
C  39.48500 1.61300 30.66000
C  40.87600 1.19100 30.25000
C  40.74700 0.97000 28.83300
C  39.34200 1.20200 28.41700
C  42.07500 1.04300 31.19300
C  41.80200 0.61700 27.76600
O  41.58400 0.54400 26.52600
C  43.18700 0.33200 28.24000
N  36.41200 2.02300 27.48200
C  37.40300 1.56800 26.62000
C  37.05500 1.63900 25.15100
C  35.46900 1.75000 25.35100
C  35.30300 2.14600 26.79100
C  37.76500 2.87900 24.41400
C  34.64200 0.47400 24.89100
C  33.27000 0.66200 24.09700
N  34.60600 2.57100 29.66000
C  33.70700 2.76100 28.61200
C  32.47600 3.25700 29.17400
C  32.67500 3.36100 30.52300
C  34.00400 2.97600 30.84000
C  31.22600 3.49200 28.37300
C  32.07600 3.68700 31.82300
O  30.97000 4.16100 32.02200
C  33.10200 3.46200 32.97300
C  33.27600 4.76000 33.74700
O  34.05300 5.62100 33.37900
O  32.29800 4.85700 34.73600
C  32.36300 6.08600 35.51500
H  39.66000 2.01500 32.86600
H  39.47700 1.05100 26.36300
H  33.29200 2.83700 26.50900
H  35.49500 3.66000 34.36500
H  38.02000 1.97000 34.58500
H  38.83700 3.88100 35.14600
H  37.60800 4.88000 34.25700
H  39.00700 4.08200 33.40000
H  35.96000 0.76800 35.28400
H  34.40200 1.03400 34.59400
H  35.09400 1.17800 37.04500
H  33.66500 1.94700 36.34000
H  42.84000 1.76000 30.89400
H  42.48300 0.03700 31.08900
H  41.80900 1.10400 32.24900
H  43.83900 -0.10600 27.48400
H  43.03700 -0.40900 29.02600
H  43.45100 1.35700 28.50100
H  37.40600 0.68000 24.77000
H  35.10500 2.63300 24.82600
H  38.28700 2.54300 23.51800
H  38.40400 3.38800 25.13500
H  36.99600 3.57600 24.08200
H  34.39400 0.05800 25.86800
H  35.26900 -0.28700 24.42700
H  33.06700 1.71800 23.91600
H  32.44000 0.15700 24.59100
H  33.41700 0.15600 23.14400
H  31.45600 4.04700 27.46300
H  30.38000 3.88100 28.93800
H  30.84900 2.49100 28.16500
H  32.59200 2.67600 33.53000
H  32.59000 5.71500 36.51400
H  31.37400 6.53000 35.40300
H  33.15200 6.78000 35.22700

