158

Mg 1.53800 -0.78400 42.69000
C  4.98500 -0.63700 42.05700
C  1.06800 2.11700 41.06200
C  -1.74300 -1.46500 42.74100
C  2.13000 -4.15300 43.72300
N  2.94400 0.64600 41.70500
C  4.27300 0.43300 41.51700
C  4.77300 1.64100 40.70500
C  3.58500 2.63100 40.67300
C  2.41400 1.80700 41.17500
C  3.69800 3.93400 41.51200
C  5.44000 1.22400 39.33100
C  6.58700 2.18400 38.90300
H  6.54100 2.86100 37.60600
N  -0.12800 0.25100 42.12600
C  -0.12000 1.48600 41.50100
C  -1.48500 1.86500 41.25400
C  -2.30400 0.89400 41.87200
C  -1.42300 -0.19100 42.25700
C  -1.87600 3.21000 40.70100
C  -3.75300 1.05900 42.03100
O  -4.31800 2.10500 41.70600
C  -4.58700 0.10200 42.75400
N  0.34700 -2.59500 43.06400
C  -0.95300 -2.52900 43.10000
C  -1.54700 -3.85200 43.64400
C  -0.25900 -4.74000 44.00100
C  0.79800 -3.84400 43.45500
C  -2.71500 -4.03000 44.70400
C  -0.18500 -6.12300 43.28400
C  0.17300 -7.29400 44.22100
N  3.18600 -2.00900 43.20900
C  3.27600 -3.32100 43.55700
C  4.61400 -3.66200 43.88200
C  5.43000 -2.67200 43.24600
C  4.45800 -1.66300 42.84200
C  5.19600 -4.88100 44.53600
C  6.75000 -2.24700 42.88900
O  7.85800 -2.68400 43.09700
C  6.47900 -0.95200 42.02500
C  7.30000 0.20800 42.54800
O  7.45600 0.52600 43.73600
O  7.90500 0.79700 41.50100
C  8.65200 2.01300 41.77700
H  1.03500 3.07500 40.53900
H  -2.77400 -1.81900 42.79800
H  2.41600 -5.06100 44.25700
H  5.48600 2.16700 41.34000
H  3.47200 2.83100 39.60800
H  4.55000 3.94000 42.19200
H  2.83200 3.88700 42.17200
H  3.60200 4.84100 40.91400
H  4.70000 1.09000 38.54200
H  5.90400 0.26000 39.53900
H  7.53100 1.64000 38.89700
H  6.70000 2.94000 39.68000
H  -2.80200 3.30600 40.13400
H  -1.07600 3.63600 40.09700
H  -1.90900 3.78000 41.63000
H  -5.62200 0.43300 42.66600
H  -4.34800 -0.03600 43.80800
H  -4.32600 -0.77300 42.15900
H  -1.86900 -4.29500 42.70200
H  -0.24800 -4.84400 45.08500
H  -3.52100 -4.48400 44.12700
H  -3.10600 -3.05900 45.00800
H  -2.50300 -4.78000 45.46600
H  0.50500 -6.15100 42.44100
H  -1.16000 -6.40200 42.88400
H  0.29100 -6.99800 45.26400
H  1.05800 -7.81200 43.85400
H  -0.63700 -8.01900 44.14000
H  6.21500 -4.66800 44.86000
H  5.11400 -5.67000 43.78900
H  4.54200 -5.05500 45.39100
H  6.84000 -1.29400 41.05500
H  8.27300 2.65900 42.56900
H  8.77100 2.50700 40.81300
H  9.67400 1.72700 42.02200
Mg 0.04100 44.20000 26.17300
C  1.78900 43.32200 29.05800
C  -2.86400 43.21000 27.87800
C  -1.67000 44.33900 23.27400
C  3.02600 44.86700 24.69900
N  -0.43900 43.17300 28.23300
C  0.40300 43.07600 29.27600
C  -0.30800 42.93000 30.66100
C  -1.78900 42.74400 30.13500
C  -1.73700 43.09300 28.64300
C  -2.43800 41.39300 30.43000
C  -0.11800 44.11400 31.53200
C  0.14600 43.91800 32.99700
H  -0.27800 42.55500 33.68500
N  -2.03900 44.05200 25.67700
C  -3.02700 43.64000 26.46100
C  -4.25300 43.63900 25.75600
C  -3.93100 43.98200 24.40400
C  -2.47900 44.13500 24.40000
C  -5.56000 43.30500 26.35500
C  -4.85700 44.28700 23.20000
O  -4.40800 44.73800 22.16900
C  -6.35400 43.98100 23.25300
N  0.56800 44.44100 24.27900
C  -0.31000 44.66300 23.21500
C  0.32900 45.21900 21.97800
C  1.76200 45.58300 22.58800
C  1.80300 44.95400 23.96800
C  0.39400 44.06500 20.87200
C  2.14100 47.06800 22.56300
C  3.47800 47.39200 21.90900
N  1.99700 44.11000 26.72000
C  3.11400 44.39800 26.03600
C  4.35200 44.21700 26.79900
C  3.87100 43.85000 28.08800
C  2.48000 43.79100 27.93300
C  5.84800 44.35500 26.37500
C  4.26100 43.49500 29.43300
O  5.31400 43.37100 29.96000
C  2.94800 43.09200 30.15600
C  3.06900 41.71200 30.73200
O  2.60500 40.64600 30.24600
O  3.98500 41.75700 31.70100
C  4.47700 40.52900 32.40100
H  -3.81600 42.93600 28.33800
H  -2.13600 44.31800 22.28700
H  3.90600 45.26400 24.18900
H  -0.02800 42.01500 31.18400
H  -2.42100 43.51300 30.57800
H  -3.38700 41.55100 30.94100
H  -1.85800 40.78100 31.12100
H  -2.74300 41.01300 29.45500
H  -0.85500 44.91500 31.48200
H  0.73600 44.66500 31.13900
H  -0.16700 44.77100 33.59900
H  1.22900 43.86400 33.10300
H  -6.30500 42.97700 25.63000
H  -5.97200 44.20600 26.80800
H  -5.46500 42.41700 26.97900
H  -6.38900 42.89600 23.35700
H  -6.87100 44.25500 22.33400
H  -6.93300 44.51600 24.00600
H  -0.27800 46.08100 21.70300
H  2.56500 45.09200 22.03900
H  1.38000 44.04900 20.40700
H  -0.30200 44.24800 20.05400
H  0.32100 43.02200 21.17900
H  2.33000 47.52300 23.53600
H  1.36400 47.71400 22.15400
H  3.74600 46.65500 21.15200
H  4.30300 47.56800 22.60000
H  3.38700 48.31400 21.33500
H  6.41900 43.76300 27.09000
H  6.32900 45.33200 26.31800
H  5.83800 43.90100 25.38400
H  2.87200 43.84000 30.94400
H  5.46300 40.74400 32.81400
H  4.42100 39.53000 31.96900
H  3.79100 40.51900 33.24800

