158

Mg 54.61900 23.94300 45.03400
C  52.11100 26.26500 44.20900
C  52.67700 21.45000 43.80600
C  57.48800 22.01800 45.08800
C  56.64400 26.80000 46.09400
N  52.72300 23.95500 43.96500
C  51.82700 24.91800 43.75400
C  50.58900 24.46400 42.94500
C  50.71500 22.94100 43.37500
C  52.13800 22.74700 43.74700
C  49.83700 22.60900 44.61800
C  50.64200 24.81100 41.44400
C  49.27300 25.26800 40.88900
H  48.94500 24.70500 39.48100
N  55.00100 22.00100 44.55800
C  54.02100 21.13300 44.10400
C  54.71100 19.79400 43.91600
C  56.08200 19.94400 44.31700
C  56.29600 21.37300 44.69800
C  54.05500 18.53800 43.36900
C  57.12600 18.87200 44.11100
O  56.82800 17.75100 43.65100
C  58.58100 19.02100 44.58700
N  56.77400 24.32200 45.68700
C  57.70700 23.34500 45.54200
C  59.09100 23.94500 45.75800
C  58.86400 25.36100 46.33700
C  57.36300 25.57800 45.98400
C  60.02000 23.14700 46.69600
C  59.94500 26.40600 45.98300
C  60.90500 26.97400 47.01900
N  54.35800 26.09900 45.24400
C  55.24500 27.09200 45.71000
C  54.59500 28.35900 45.71000
C  53.36100 28.08700 45.10300
C  53.28900 26.70000 44.83000
C  55.08100 29.62100 46.27100
C  52.10200 28.67900 44.71600
O  51.71900 29.85100 44.83100
C  51.35300 27.56300 43.97600
C  51.49100 27.90400 42.49900
O  52.60900 27.91200 41.95500
O  50.31100 28.38000 41.98700
C  50.36300 29.17500 40.81400
H  52.03400 20.60900 43.53600
H  58.38000 21.41900 44.89100
H  57.20900 27.64300 46.49500
H  49.75400 25.02900 43.35800
H  50.43700 22.22600 42.59900
H  49.14500 23.39200 44.92900
H  50.58500 22.49600 45.40300
H  49.39500 21.62800 44.44500
H  51.03100 23.92200 40.94900
H  51.40500 25.58700 41.38700
H  49.20900 26.35500 40.84100
H  48.49400 24.98500 41.59700
H  54.20800 17.80600 44.16200
H  54.52400 17.94800 42.58200
H  52.98200 18.64400 43.21100
H  59.18700 19.65300 43.93800
H  59.02800 18.02700 44.61100
H  58.75100 19.42700 45.58400
H  59.46400 23.94400 44.73400
H  58.72800 25.37300 47.41800
H  60.54200 23.85300 47.34200
H  60.69000 22.44200 46.20400
H  59.40600 22.54400 47.36600
H  59.54800 27.26900 45.44700
H  60.66300 25.95300 45.29900
H  61.83000 26.48500 47.32400
H  60.23500 27.06300 47.87500
H  61.24700 27.96800 46.73100
H  54.19300 30.24800 46.34900
H  55.81800 30.14300 45.66100
H  55.64800 29.66400 47.20100
H  50.35400 27.56200 44.41300
H  51.36500 29.58400 40.68800
H  49.78700 30.06700 41.05800
H  49.89800 28.62500 39.99600
Mg -2.08100 35.18900 26.59800
C  -3.99000 33.44400 28.95000
C  -1.48000 37.53200 29.07300
C  -0.23500 36.84600 24.33700
C  -3.21200 33.04000 24.23700
N  -2.71600 35.41800 28.79600
C  -3.26800 34.43500 29.54900
C  -2.99700 34.76100 31.04800
C  -2.53300 36.21700 31.08400
C  -2.21500 36.40700 29.56100
C  -3.66400 37.12100 31.71700
C  -2.11100 33.64100 31.69500
C  -2.74300 32.80500 32.79200
H  -2.02300 32.79200 34.15200
N  -1.04300 36.98000 26.64600
C  -0.85300 37.77300 27.80600
C  0.17700 38.78700 27.46000
C  0.37300 38.75400 26.08400
C  -0.28000 37.49300 25.60100
C  0.85800 39.62900 28.53300
C  1.24600 39.67000 25.22500
O  1.54200 39.48500 24.06000
C  1.67200 40.91900 25.71100
N  -1.85300 35.08300 24.49700
C  -0.92800 35.77000 23.82700
C  -0.74000 35.22000 22.39000
C  -1.70400 33.94600 22.39500
C  -2.35200 34.00400 23.79400
C  -1.01800 36.21400 21.27200
C  -1.04500 32.56800 22.13200
C  -0.33800 31.88200 23.33000
N  -3.54700 33.66600 26.48500
C  -3.88300 32.87200 25.44300
C  -4.88900 31.82500 25.87600
C  -4.95700 32.04700 27.26400
C  -4.09400 33.15600 27.57700
C  -5.59300 30.82600 25.07400
C  -5.49100 31.63000 28.49800
O  -6.19900 30.66800 28.73300
C  -4.90700 32.45900 29.68500
C  -5.96900 33.15700 30.43300
O  -6.72100 33.93500 29.92500
O  -6.13400 32.56600 31.68200
C  -7.25200 32.99600 32.48400
H  -1.24000 38.26400 29.84800
H  0.38900 37.37600 23.61500
H  -3.43100 32.30300 23.46100
H  -3.95200 34.64300 31.55900
H  -1.59700 36.34100 31.62900
H  -3.31800 37.70100 32.57300
H  -4.43000 36.45600 32.11500
H  -4.07100 37.74100 30.91800
H  -1.29800 34.09100 32.26500
H  -1.70600 32.95600 30.95000
H  -2.70100 31.79900 32.37400
H  -3.78900 33.06700 32.94800
H  1.94500 39.61100 28.45800
H  0.57200 39.32500 29.54000
H  0.49700 40.65700 28.53500
H  0.92900 41.51100 26.24500
H  2.11400 41.52200 24.91800
H  2.51700 40.74700 26.37700
H  0.29400 34.88000 22.33000
H  -2.50100 34.06000 21.66000
H  -1.84300 35.77700 20.71000
H  -0.02500 36.35300 20.84500
H  -1.31300 37.22000 21.57100
H  -0.23400 32.70400 21.41500
H  -1.72800 31.87700 21.63800
H  -0.92000 30.97600 23.49900
H  -0.34500 32.42900 24.27200
H  0.73500 31.73200 23.20600
H  -5.28500 30.77300 24.03000
H  -6.64200 31.11500 25.14400
H  -5.42600 29.81800 25.45400
H  -4.30200 31.83600 30.34300
H  -7.89100 33.74500 32.01500
H  -6.85000 33.38100 33.42100
H  -7.84400 32.11900 32.74400

