158

Mg -0.10700 7.99300 25.72000
C  1.21000 9.40700 28.63700
C  -0.66600 5.11300 27.28700
C  -0.84500 6.66700 22.68300
C  0.45600 11.08600 24.11000
N  0.36000 7.32800 27.69900
C  0.74500 8.09800 28.82100
C  0.43200 7.36100 30.12500
C  0.07600 5.92800 29.64000
C  -0.12600 6.09500 28.10000
C  1.15700 4.85900 29.98600
C  -0.68900 8.06100 31.01700
C  -0.43500 8.23600 32.52200
H  -0.00700 6.95800 33.29500
N  -0.80900 6.15400 25.06700
C  -1.00500 5.08200 25.87500
C  -1.36500 3.95600 25.00000
C  -1.35400 4.35400 23.65100
C  -1.00900 5.80400 23.74700
C  -1.63200 2.64700 25.59400
C  -1.73400 3.64300 22.41700
O  -1.86100 4.11700 21.30500
C  -2.17500 2.17700 22.58800
N  -0.10700 8.79800 23.67400
C  -0.57300 8.08600 22.64800
C  -0.43500 8.94900 21.37900
C  -0.53000 10.41400 21.92300
C  0.00400 10.09800 23.33700
C  0.88700 8.60100 20.66800
C  -1.93400 11.06400 21.83300
C  -2.37900 11.75200 20.51000
N  0.83700 9.76500 26.12200
C  0.91000 10.97100 25.39000
C  1.28800 12.03000 26.22400
C  1.47200 11.49800 27.47900
C  1.17400 10.11700 27.39800
C  1.33800 13.56500 25.94500
C  1.82900 11.75500 28.93600
O  2.14400 12.82500 29.45900
C  1.47400 10.43100 29.71600
C  2.54900 10.05700 30.63500
O  3.50300 9.30800 30.34300
O  2.42900 10.83800 31.69100
C  3.40400 10.43700 32.69300
H  -0.96900 4.26800 27.90800
H  -1.18200 6.18500 21.76300
H  0.61600 12.07900 23.68700
H  1.37400 7.25600 30.66400
H  -0.87500 5.58300 30.04300
H  1.44800 4.43400 29.02500
H  0.63300 4.07100 30.52600
H  1.97700 5.22800 30.60200
H  -1.64000 7.53100 30.95600
H  -0.90200 9.07700 30.68600
H  -1.44900 8.35700 32.90100
H  0.12100 9.14200 32.76200
H  -1.56000 2.65000 26.68200
H  -0.98600 1.90000 25.13200
H  -2.64600 2.31600 25.37100
H  -2.71300 1.73700 21.74900
H  -2.89200 2.08000 23.40300
H  -1.24400 1.63000 22.73900
H  -1.21800 8.79000 20.63800
H  0.19900 11.03900 21.40600
H  0.72200 8.15700 19.68600
H  1.45900 7.89100 21.26600
H  1.55000 9.46600 20.65200
H  -1.94700 11.88000 22.55500
H  -2.57400 10.22300 22.09900
H  -1.62700 11.57800 19.74000
H  -2.55000 12.80500 20.73400
H  -3.32300 11.34300 20.14900
H  0.45300 13.94200 25.43200
H  2.24200 13.96900 25.48700
H  1.27800 14.04200 26.92300
H  0.51600 10.53600 30.22500
H  3.57100 11.26100 33.38700
H  4.33800 10.07200 32.26600
H  3.01300 9.58000 33.24200
Mg -11.21300 38.16800 42.60800
C  -8.95000 35.46400 42.21100
C  -9.00400 40.32200 41.08500
C  -13.67500 40.44900 42.29700
C  -13.58500 35.74200 43.68100
N  -9.22300 37.82200 41.57700
C  -8.52900 36.65600 41.56700
C  -7.29000 36.84400 40.69600
C  -7.16500 38.46500 40.58400
C  -8.50400 38.96900 41.15000
C  -5.84600 39.03900 41.08300
C  -7.34100 36.14100 39.28400
C  -6.20000 35.05700 39.10100
H  -5.12200 35.58800 38.16600
N  -11.24900 40.10500 42.06500
C  -10.24900 40.83000 41.46800
C  -10.67800 42.17700 41.25000
C  -12.05100 42.29400 41.55100
C  -12.41100 40.91300 42.00000
C  -9.70000 43.14700 40.71900
C  -12.91300 43.54200 41.34800
O  -12.36500 44.53900 40.91200
C  -14.38200 43.62900 41.68800
N  -13.33500 38.09500 42.86300
C  -14.13000 39.13300 42.67800
C  -15.65600 38.76900 43.00000
C  -15.50100 37.25000 43.35300
C  -14.01300 37.02000 43.41300
C  -16.35800 39.69500 44.11000
C  -16.14000 36.23700 42.41900
C  -16.79800 34.96600 42.97200
N  -11.28200 36.00100 42.92200
C  -12.29500 35.19300 43.43900
C  -11.81900 33.77100 43.48400
C  -10.45300 33.93800 43.15400
C  -10.20100 35.27000 42.77800
C  -12.59700 32.56000 43.99100
C  -9.15400 33.23000 43.00200
O  -8.84300 32.09800 43.28000
C  -8.19600 34.13500 42.29000
C  -6.89100 34.22100 43.00800
O  -6.04300 33.35500 42.91200
O  -6.63700 35.49200 43.56600
C  -5.29400 35.66000 44.21600
H  -8.22500 40.98900 40.71000
H  -14.46800 41.19900 42.25900
H  -14.33200 34.99700 43.96300
H  -6.40400 36.56900 41.26800
H  -7.11700 38.71600 39.52400
H  -5.10100 39.18300 40.30000
H  -5.33100 38.41200 41.81000
H  -6.02600 39.95500 41.64600
H  -7.43500 36.79000 38.41300
H  -8.22000 35.50300 39.19000
H  -6.51100 34.08600 38.71500
H  -5.79400 34.82800 40.08600
H  -9.62400 42.82000 39.68200
H  -8.73500 43.01200 41.20700
H  -10.07100 44.16100 40.86800
H  -14.51800 43.61500 42.76900
H  -15.04700 42.88300 41.25300
H  -14.73000 44.58900 41.30700
H  -16.22500 38.76400 42.07100
H  -15.94600 37.02000 44.32100
H  -17.24700 40.24900 43.80900
H  -15.74300 40.55300 44.38100
H  -16.44900 38.97400 44.92200
H  -15.39500 35.78100 41.76600
H  -16.96800 36.67400 41.86200
H  -17.86200 35.04800 42.74800
H  -16.68600 34.87600 44.05200
H  -16.34400 34.10600 42.48000
H  -12.70400 31.82600 43.19300
H  -13.61400 32.93100 44.11900
H  -12.09900 32.13800 44.86400
H  -8.00700 33.69800 41.31000
H  -4.50900 35.65500 43.45900
H  -5.15100 34.84900 44.92900
H  -5.33700 36.60800 44.75300

