158

Mg 46.38700 44.79900 43.80600
C  43.09100 43.69400 43.38600
C  47.51400 41.50300 43.27800
C  49.66200 45.85100 43.72400
C  45.26800 48.01900 43.93900
N  45.43000 42.81400 43.23100
C  44.10200 42.61400 43.19700
C  43.73000 41.08900 42.96400
C  45.12000 40.41000 43.23700
C  46.09200 41.64400 43.13200
C  45.16600 39.80900 44.61700
C  43.08800 40.77300 41.56400
C  43.64100 41.52500 40.34200
H  43.25400 40.97900 38.94100
N  48.37200 43.81600 43.53000
C  48.57800 42.42300 43.44000
C  49.98400 42.16600 43.48300
C  50.65700 43.43400 43.63900
C  49.53100 44.43700 43.66500
C  50.61200 40.82200 43.30800
C  52.16500 43.53800 43.78600
O  52.88100 42.57100 43.76600
C  52.84900 44.88300 43.84200
N  47.35600 46.74700 43.58500
C  48.64500 46.86100 43.89800
C  49.01100 48.31000 44.23800
C  47.58300 49.04000 44.03000
C  46.63900 47.86300 43.80800
C  49.63600 48.37500 45.73500
C  47.48500 50.13100 42.85400
C  47.58400 51.57000 43.28300
N  44.63800 45.70700 43.65900
C  44.28700 47.02300 43.75100
C  42.81300 47.18900 43.67200
C  42.32400 45.88800 43.52600
C  43.47600 45.02700 43.53600
C  42.02600 48.42600 43.67200
C  41.14900 45.05800 43.43200
O  39.98200 45.40000 43.42900
C  41.58400 43.59200 43.33300
C  40.98600 42.87800 44.50100
O  40.08700 42.02900 44.42100
O  41.54400 43.40300 45.67700
C  40.83900 42.86100 46.89900
H  47.74800 40.45200 43.45500
H  50.67800 46.24600 43.80000
H  44.90500 49.00300 44.24400
H  42.98700 40.68200 43.65100
H  45.41500 39.62100 42.54500
H  44.25900 39.24300 44.82500
H  45.44200 40.52700 45.39000
H  45.97500 39.07800 44.59700
H  42.05100 41.00700 41.80300
H  43.23400 39.72400 41.30600
H  44.72800 41.55500 40.41800
H  43.18700 42.50600 40.48100
H  51.16700 40.74200 42.37300
H  49.90500 39.99400 43.36300
H  51.11700 40.65900 44.26000
H  52.32900 45.26600 44.72000
H  52.82300 45.47100 42.92500
H  53.91600 44.78500 44.04600
H  49.66800 48.64900 43.43700
H  47.23000 49.48500 44.96100
H  49.14300 49.20500 46.24000
H  50.68900 48.65400 45.69800
H  49.47900 47.42700 46.25000
H  46.49000 50.12100 42.40900
H  48.18900 50.00300 42.03200
H  47.55600 51.70400 44.36400
H  46.70900 52.13100 42.95500
H  48.46600 52.13800 42.98900
H  41.49200 48.58100 44.61000
H  41.26100 48.27300 42.91000
H  42.48700 49.40100 43.51400
H  41.27800 43.13800 42.39100
H  40.90400 41.77300 46.90100
H  39.78000 43.11500 46.84000
H  41.26200 43.25000 47.82600
Mg 25.22100 50.40700 26.21400
C  23.40900 51.52400 29.02500
C  27.40900 48.87700 28.49500
C  27.38700 50.03000 23.69600
C  22.92800 51.90300 24.18200
N  25.36700 50.33700 28.48600
C  24.50500 50.80400 29.39200
C  24.93200 50.45700 30.80200
C  26.30700 49.73200 30.58000
C  26.32000 49.50900 29.10800
C  27.58500 50.58900 31.01000
C  23.89200 49.52800 31.54400
C  23.33000 50.06200 32.86300
H  24.23000 50.87000 33.79800
N  27.13900 49.63000 26.11400
C  27.83400 48.97900 27.11500
C  28.95300 48.34100 26.54800
C  29.04800 48.72100 25.18600
C  27.83800 49.54200 24.95000
C  29.94500 47.54300 27.41800
C  30.06500 48.26800 24.23100
O  30.00400 48.56000 23.02800
C  31.34400 47.60900 24.73300
N  25.20000 50.89200 24.30300
C  26.20300 50.65000 23.39900
C  25.83700 50.89800 21.85400
C  24.32400 51.29100 22.06800
C  24.04700 51.27200 23.55700
C  26.69500 52.06400 21.19200
C  23.24600 50.35600 21.44300
C  23.18100 50.47800 19.95100
N  23.46700 51.33900 26.48000
C  22.67500 51.98500 25.59500
C  21.47000 52.46500 26.19300
C  21.76500 52.32200 27.59300
C  23.02100 51.69600 27.67200
C  20.32300 53.10900 25.51500
C  21.33900 52.67100 28.93500
O  20.42000 53.36600 29.33400
C  22.36200 52.12200 29.83800
C  22.89500 53.30200 30.67800
O  23.70500 54.16600 30.36600
O  22.23500 53.27800 31.88500
C  22.32600 54.53600 32.71600
H  28.00300 48.31100 29.21600
H  28.02500 49.75300 22.85400
H  22.20000 52.40500 23.54100
H  24.98400 51.44400 31.26200
H  26.37100 48.83200 31.19100
H  27.93500 51.28200 30.24400
H  28.33700 49.95400 31.47900
H  27.23000 51.18400 31.85100
H  24.26500 48.53000 31.77200
H  23.08300 49.47700 30.81500
H  22.95300 49.23600 33.46600
H  22.38100 50.59800 32.88100
H  30.92700 48.01200 27.47000
H  29.98900 46.54200 26.98800
H  29.67500 47.43600 28.46900
H  31.89700 48.30300 25.36500
H  31.91600 47.31500 23.85300
H  31.21600 46.63400 25.20400
H  25.91000 50.08300 21.13300
H  24.05800 52.22900 21.58100
H  27.03400 52.79700 21.92500
H  26.04200 52.46500 20.41600
H  27.61400 51.69500 20.73800
H  22.30200 50.59900 21.93000
H  23.56700 49.36600 21.76500
H  23.37800 49.50600 19.49900
H  23.65600 51.30600 19.42500
H  22.10300 50.54900 19.80100
H  20.14300 52.48000 24.64300
H  20.49300 54.18000 25.41000
H  19.38600 53.05900 26.07000
H  21.81300 51.51000 30.55300
H  23.29500 54.54400 33.21500
H  21.43700 54.54000 33.34600
H  22.17700 55.36100 32.01900

