158

Mg 25.11000 -4.93500 46.10300
C  27.17900 -3.03200 44.37200
C  22.63300 -4.49200 43.59500
C  23.22100 -7.73200 47.17000
C  27.75300 -6.09300 47.99200
N  24.94200 -3.90200 44.14000
C  25.96700 -3.12900 43.69600
C  25.71000 -2.46300 42.36300
C  24.12000 -2.57700 42.30400
C  23.83400 -3.80300 43.38000
C  23.25300 -1.28100 42.77000
C  26.51600 -3.14100 41.26400
C  27.31100 -2.25200 40.28800
H  26.74400 -2.27500 38.83900
N  23.12400 -5.73500 45.70300
C  22.28300 -5.40800 44.62400
C  21.02300 -5.96900 44.79800
C  21.08500 -7.00000 45.79800
C  22.52700 -6.82200 46.30100
C  19.83200 -5.53000 43.88800
C  20.02300 -8.02100 46.24300
O  18.89600 -8.10400 45.68300
C  20.29600 -9.07300 47.37100
N  25.41600 -6.60900 47.39200
C  24.49800 -7.64000 47.64600
C  25.24200 -8.71300 48.45100
C  26.52600 -8.11700 48.92700
C  26.58900 -6.82100 48.08500
C  24.48500 -9.45000 49.52900
C  27.80400 -9.05100 48.76100
C  28.43100 -9.33300 50.10400
N  27.06600 -4.65300 46.23700
C  27.99900 -5.02000 47.13900
C  29.23900 -4.33100 46.97800
C  28.90800 -3.40400 45.99100
C  27.63400 -3.74800 45.49600
C  30.58200 -4.38500 47.75500
C  29.42400 -2.26500 45.18500
O  30.51500 -1.74500 45.15900
C  28.32900 -2.00400 44.12500
C  27.97900 -0.56600 44.32100
O  27.18700 -0.08700 45.10500
O  28.62100 0.20600 43.40200
C  28.57800 1.64200 43.48600
H  21.91400 -4.29700 42.79700
H  22.78700 -8.71800 47.35200
H  28.62800 -6.33000 48.60100
H  25.90600 -1.39100 42.32200
H  23.77400 -2.82300 41.30000
H  22.81300 -1.45600 43.75100
H  22.52200 -1.05000 41.99500
H  23.93200 -0.45500 42.98100
H  25.84000 -3.73100 40.64400
H  27.24000 -3.81300 41.72500
H  28.32600 -2.64200 40.36700
H  27.39400 -1.20200 40.56900
H  20.03800 -4.65100 43.27800
H  18.93100 -5.42800 44.49300
H  19.63200 -6.34000 43.18600
H  19.41700 -9.63000 47.69600
H  20.74200 -8.62000 48.25700
H  21.01300 -9.81900 47.02800
H  25.41400 -9.51300 47.73100
H  26.42600 -7.92400 49.99500
H  24.03300 -10.35100 49.11500
H  23.58300 -8.93700 49.86400
H  25.11200 -9.75200 50.36800
H  28.53400 -8.60500 48.08600
H  27.38100 -9.87800 48.18900
H  28.48200 -10.42200 50.11600
H  27.89400 -9.06500 51.01400
H  29.46900 -9.01900 50.20700
H  30.92200 -5.42000 47.73500
H  30.26500 -4.07900 48.75200
H  31.33000 -3.63600 47.49500
H  28.85400 -2.12000 43.17700
H  29.53300 2.16500 43.52100
H  27.95400 2.03700 44.28800
H  28.13400 2.04700 42.57700
Mg 45.28300 4.05300 47.18500
C  43.41100 6.96800 46.26300
C  42.24900 2.30700 46.41300
C  46.94100 1.34400 47.87800
C  48.15400 6.03000 47.17700
N  43.06500 4.61500 46.47700
C  42.63800 5.79900 46.02600
C  41.19300 5.75400 45.50200
C  40.74700 4.28100 45.76200
C  42.08900 3.69100 46.28900
C  39.63900 4.22000 46.80700
C  41.14900 6.14500 44.00600
C  40.22300 7.24300 43.61500
H  40.38500 7.61500 42.09400
N  44.66500 2.11100 47.15400
C  43.40300 1.57500 46.79200
C  43.56700 0.15700 46.82700
C  44.82900 -0.20400 47.38700
C  45.53700 1.09300 47.56300
C  42.48400 -0.72500 46.40600
C  45.33300 -1.60400 47.62100
O  44.49400 -2.49000 47.53900
C  46.74700 -1.90600 48.05400
N  47.34800 3.71100 47.36800
C  47.76300 2.51800 47.83100
C  49.25600 2.65900 48.19300
C  49.62000 4.11800 47.92900
C  48.28900 4.65500 47.45400
C  49.65900 2.16700 49.57700
C  50.78600 4.36200 47.00700
C  50.67300 3.84700 45.49400
N  45.76600 6.07800 46.88100
C  46.91100 6.70300 46.96700
C  46.77400 8.13000 46.71700
C  45.38200 8.30600 46.49300
C  44.81200 7.05400 46.56600
C  47.94400 9.09200 46.60400
C  44.31100 9.25500 46.16700
O  44.28600 10.45900 46.01800
C  43.03800 8.42600 45.97600
C  41.99900 8.94100 47.02700
O  41.52100 8.29200 47.98100
O  41.49900 10.17500 46.61700
C  40.35000 10.58400 47.53200
H  41.29600 1.85200 46.13200
H  47.53000 0.45400 48.10900
H  49.01700 6.67700 47.34500
H  40.57100 6.43700 46.08000
H  40.39900 3.74800 44.87700
H  38.70700 4.17000 46.24500
H  39.59700 5.07200 47.48600
H  39.78500 3.30000 47.37300
H  40.86900 5.21600 43.51000
H  42.11300 6.40800 43.57000
H  40.45100 8.18700 44.11000
H  39.15500 7.02400 43.59100
H  42.96100 -1.26300 45.58700
H  41.56700 -0.26000 46.04300
H  42.19400 -1.33000 47.26500
H  46.82900 -2.99100 48.11600
H  47.12100 -1.49700 48.99300
H  47.42400 -1.66100 47.23600
H  49.67500 2.00000 47.43300
H  49.86600 4.68500 48.82700
H  50.44500 2.83200 49.93500
H  50.05900 1.15400 49.53100
H  48.77000 2.26800 50.20000
H  51.70800 3.96400 47.43100
H  51.02100 5.42600 47.02500
H  51.34000 3.07700 45.10600
H  50.76900 4.73900 44.87400
H  49.67900 3.44300 45.30400
H  48.56700 8.79200 45.76100
H  48.53300 9.28300 47.50100
H  47.57900 10.07300 46.30200
H  42.59900 8.56100 44.98800
H  39.91700 9.80600 48.16200
H  39.59000 10.92800 46.83000
H  40.61100 11.42000 48.18000

