158

Mg 35.10700 2.59300 29.81100
C  32.73900 3.69600 32.29100
C  37.56300 2.95300 32.14200
C  37.42400 2.16500 27.30300
C  32.56400 3.05800 27.42800
N  35.11100 3.40900 31.87400
C  34.09000 3.65600 32.74300
C  34.45900 3.66900 34.24300
C  36.03400 3.64200 34.09800
C  36.29800 3.35900 32.60200
C  36.68400 4.96400 34.57500
C  33.94100 2.36600 34.92900
C  33.83100 2.34900 36.50600
H  34.41800 3.55800 37.25300
N  37.15300 2.38200 29.71700
C  38.00700 2.54200 30.84400
C  39.36200 2.18400 30.34300
C  39.34200 1.95600 28.93400
C  37.92200 2.21700 28.60200
C  40.51300 2.29100 31.26800
C  40.50800 1.71600 27.98200
O  40.40300 1.67700 26.74700
C  41.93600 1.57000 28.50400
N  34.94500 2.52100 27.65100
C  36.05700 2.31700 26.86300
C  35.67700 2.40400 25.34100
C  34.14200 2.57500 25.42700
C  33.81400 2.77700 26.92900
C  36.30800 3.59300 24.49000
C  33.34400 1.39700 24.90700
C  33.69000 -0.01800 25.31700
N  33.02800 3.21600 29.81300
C  32.16000 3.30000 28.75900
C  30.82800 3.70900 29.29300
C  31.07800 3.83200 30.70600
C  32.37600 3.46900 30.97400
C  29.70200 3.97700 28.35500
C  30.35400 4.09700 31.92100
O  29.25900 4.59100 32.14700
C  31.40500 3.93100 33.04100
C  31.53700 5.10200 33.90100
O  31.84300 6.24700 33.61400
O  31.02600 4.80800 35.19800
C  30.96300 5.79400 36.24900
H  38.32600 3.08700 32.91100
H  38.11500 1.93800 26.48800
H  31.74000 3.09600 26.71400
H  34.07000 4.56000 34.73500
H  36.51200 2.88500 34.71900
H  36.94500 5.51500 33.67100
H  37.53300 4.94800 35.25900
H  35.96100 5.67500 34.97500
H  34.58800 1.56800 34.56500
H  32.94200 2.09500 34.58600
H  34.26500 1.38300 36.76100
H  32.80100 2.21600 36.83800
H  41.26500 2.94900 30.83300
H  40.87000 1.27300 31.42200
H  40.24600 2.73500 32.22700
H  42.06800 1.39500 29.57100
H  42.48600 2.43800 28.13700
H  42.23600 0.71900 27.89200
H  35.88300 1.42300 24.91300
H  33.88400 3.43900 24.81500
H  36.66400 3.18900 23.54200
H  37.12500 3.98000 25.10000
H  35.60600 4.38800 24.24200
H  33.46100 1.50000 23.82800
H  32.26200 1.51500 24.96900
H  34.05000 -0.59200 24.46300
H  32.76400 -0.46300 25.68200
H  34.46900 0.05100 26.07600
H  29.07800 3.08400 28.32600
H  29.89400 4.23000 27.31300
H  29.13800 4.84900 28.68600
H  31.01500 3.05600 33.56100
H  30.02900 6.35100 36.17200
H  31.84300 6.43700 36.25500
H  30.99100 5.19700 37.16100
Mg 26.44200 50.39600 27.80600
C  24.20200 51.71000 30.18700
C  28.57300 49.52900 30.41700
C  28.58100 49.29300 25.52300
C  24.33400 51.65800 25.26400
N  26.41200 50.70300 30.06800
C  25.36900 51.17200 30.86200
C  25.71600 51.02700 32.40800
C  27.15800 50.40400 32.33500
C  27.40600 50.16200 30.82100
C  28.35500 51.19400 33.00000
C  24.67500 50.16000 33.17200
C  24.31700 50.59700 34.52200
H  25.40600 50.88000 35.51600
N  28.33400 49.52400 27.98400
C  29.04600 49.24300 29.10100
C  30.35600 48.70800 28.79400
C  30.34500 48.55800 27.36500
C  29.00200 49.09600 26.91400
C  31.27300 48.16200 29.88300
C  31.35900 47.95900 26.47600
O  31.05400 47.78700 25.31600
C  32.75400 47.54200 26.97800
N  26.52700 50.61400 25.73700
C  27.50300 49.99000 25.00200
C  27.13500 50.05300 23.41900
C  25.73000 50.60100 23.36800
C  25.49500 50.97000 24.85000
C  28.17400 50.89000 22.62100
C  24.72000 49.46400 22.89600
C  23.55300 49.99300 21.98500
N  24.59300 51.34800 27.68000
C  23.94500 51.85200 26.58600
C  22.73200 52.47200 27.01200
C  22.78400 52.42200 28.40300
C  23.99400 51.74700 28.79300
C  21.67400 53.00000 26.06300
C  22.09200 52.82100 29.67600
O  21.06900 53.49600 29.88100
C  22.98400 52.38900 30.81000
C  23.29100 53.51200 31.66900
O  23.92100 54.49200 31.29300
O  22.90500 53.19000 33.00100
C  23.11700 54.25700 33.96500
H  29.31900 49.23000 31.15700
H  29.32000 49.11100 24.74000
H  23.65000 52.07200 24.52000
H  25.89000 52.03800 32.77600
H  27.12000 49.45000 32.86100
H  28.81500 50.52600 33.72800
H  27.82900 52.05400 33.41500
H  28.97300 51.56800 32.18300
H  24.93400 49.11300 33.32600
H  23.78300 50.19700 32.54700
H  23.56800 49.92400 34.93800
H  23.81400 51.56400 34.54800
H  32.30200 48.44000 29.65900
H  31.18300 47.07700 29.81900
H  31.14600 48.64100 30.85400
H  32.68200 46.58500 27.49400
H  33.30300 48.30900 27.52500
H  33.38100 47.36800 26.10400
H  27.17500 49.03800 23.02300
H  25.72600 51.41200 22.64000
H  29.22000 50.87000 22.92800
H  28.02500 51.96600 22.70700
H  28.19400 50.52800 21.59300
H  24.20400 48.93000 23.69400
H  25.23600 48.69200 22.32400
H  23.82200 50.83400 21.34600
H  22.68200 50.12800 22.62600
H  23.21000 49.15300 21.38100
H  20.94300 53.56000 26.64600
H  21.22800 52.11200 25.61600
H  22.09500 53.49400 25.18700
H  22.44100 51.66800 31.42100
H  24.11000 54.21700 34.41200
H  22.34900 54.13400 34.72700
H  22.89100 55.19600 33.45800

