158

Mg 42.77100 42.24900 26.09400
C  41.60400 44.28400 28.63400
C  44.24000 40.14200 28.33700
C  43.84000 40.26500 23.58700
C  41.83400 44.67600 23.72200
N  43.01100 42.31300 28.32700
C  42.26700 43.12700 29.12900
C  42.44700 42.62000 30.52200
C  43.53600 41.47600 30.51500
C  43.59400 41.22500 28.98300
C  44.90000 41.89800 31.17400
C  41.03000 42.30100 31.17000
C  40.70900 43.15000 32.48400
H  41.57000 42.82900 33.65300
N  43.90600 40.55500 25.95800
C  44.35800 39.82800 26.99200
C  44.95500 38.58600 26.58400
C  44.69000 38.49100 25.24000
C  44.11500 39.84500 24.86200
C  45.79400 37.67200 27.44500
C  44.90500 37.29500 24.32100
O  44.56800 37.32500 23.15400
C  45.31200 35.91700 24.91700
N  42.89200 42.52300 24.02000
C  43.35100 41.55400 23.19400
C  43.33000 41.95600 21.71400
C  42.37300 43.27300 21.78700
C  42.44400 43.55700 23.23900
C  44.77200 42.21700 21.15900
C  40.87100 43.10700 21.22500
C  40.01200 42.04400 21.86400
N  41.99700 44.12000 26.07400
C  41.62000 45.07200 25.08300
C  40.98800 46.25900 25.66700
C  41.00300 45.92400 27.06800
C  41.58700 44.62800 27.25600
C  40.58900 47.52500 25.08000
C  40.61600 46.39000 28.37100
O  40.07200 47.44200 28.64500
C  40.91800 45.35400 29.41700
C  41.84800 46.04000 30.41500
O  43.02100 46.32600 30.19200
O  41.20400 46.42000 31.53900
C  42.12500 46.71900 32.65900
H  44.72900 39.41000 28.98300
H  44.22800 39.61100 22.80400
H  41.41900 45.41200 23.03000
H  42.75700 43.48700 31.10500
H  43.32000 40.55900 31.06400
H  45.54500 42.36800 30.43300
H  45.43300 41.00500 31.50300
H  44.65500 42.45300 32.07900
H  40.92600 41.26800 31.50000
H  40.23400 42.54600 30.46600
H  39.71400 42.90100 32.85200
H  40.70200 44.22400 32.29600
H  46.45500 38.10500 28.19600
H  46.52300 37.08500 26.88700
H  45.15600 36.95600 27.96400
H  44.64000 35.82100 25.76900
H  46.35400 35.88900 25.23600
H  45.10100 35.15500 24.16700
H  42.75700 41.24800 21.11500
H  42.73200 44.17300 21.28700
H  45.09200 41.52500 20.38100
H  45.44300 41.97000 21.98200
H  44.94500 43.26300 20.90700
H  41.07200 42.97000 20.16200
H  40.29700 44.03200 21.27200
H  40.33700 41.47000 22.73200
H  39.82700 41.22000 21.17500
H  39.06200 42.50400 22.13400
H  39.52900 47.48100 25.33100
H  40.79300 47.53700 24.00900
H  40.96900 48.43700 25.54000
H  40.02000 44.96700 29.89900
H  42.41700 47.75800 32.50900
H  43.00300 46.07500 32.66200
H  41.52100 46.69400 33.56600
Mg 9.88200 47.70200 25.50200
C  8.03600 48.09500 28.27900
C  12.68300 48.87100 27.34700
C  11.86300 47.10600 22.76900
C  7.10500 47.01600 23.63300
N  10.29100 48.25800 27.59500
C  9.34900 48.23100 28.58100
C  9.87900 48.71500 29.90000
C  11.23900 49.44500 29.43900
C  11.44900 48.86500 28.00700
C  11.02900 51.05200 29.35800
C  10.12400 47.57300 30.89600
C  9.67300 47.86300 32.33800
H  9.33500 46.69800 33.36900
N  11.95700 47.88700 25.13000
C  12.93600 48.31300 26.01000
C  14.28500 48.07600 25.44900
C  14.04000 47.55700 24.12900
C  12.57300 47.48700 23.93700
C  15.57200 48.39200 26.26100
C  15.07000 47.09500 23.16800
O  14.71400 46.54200 22.13000
C  16.53400 47.25500 23.48100
N  9.49900 47.10900 23.46600
C  10.48200 46.77100 22.58200
C  9.84700 46.26400 21.25000
C  8.34600 46.23600 21.55800
C  8.31200 46.91400 22.92700
C  10.23600 47.23700 20.14500
C  7.82400 44.84300 21.53500
C  8.05400 43.84600 22.69600
N  7.93900 47.48400 25.86900
C  6.89700 47.29300 24.99000
C  5.66400 47.32400 25.74200
C  6.09300 47.60400 27.04200
C  7.44100 47.76800 27.04300
C  4.19100 47.28200 25.21800
C  5.57200 47.85600 28.39100
O  4.43100 47.87100 28.83300
C  6.83500 48.07000 29.25100
C  6.86200 46.89300 30.17500
O  7.28800 45.77900 29.79200
O  6.23200 47.14100 31.30800
C  6.04800 46.07000 32.26300
H  13.49200 49.24700 27.97600
H  12.42500 46.87500 21.86200
H  6.20100 46.83300 23.04800
H  9.30800 49.52500 30.35200
H  12.17300 49.12700 29.90200
H  10.13700 51.52400 29.77000
H  11.23200 51.40200 28.34600
H  11.88100 51.29900 29.99300
H  11.16200 47.24700 30.82400
H  9.56000 46.68200 30.62200
H  8.73800 48.42300 32.31300
H  10.50600 48.45200 32.72300
H  15.27900 48.44100 27.31000
H  16.23500 49.19800 25.94800
H  16.13200 47.48600 26.02800
H  16.85200 48.14800 24.01900
H  17.11600 47.16400 22.56400
H  16.65300 46.41200 24.16200
H  10.24600 45.28100 20.99900
H  7.87600 46.93500 20.86700
H  9.51500 47.09800 19.33900
H  11.22800 46.97400 19.77700
H  10.30900 48.27300 20.47500
H  8.31700 44.35700 20.69300
H  6.75400 44.94200 21.35400
H  8.54800 44.29300 23.55900
H  8.86200 43.13700 22.51400
H  7.12400 43.45400 23.10600
H  4.08000 46.50400 24.46300
H  4.02100 48.27800 24.80900
H  3.49800 47.06000 26.02900
H  6.66900 48.95900 29.85900
H  5.69100 46.39500 33.24000
H  6.63900 45.15900 32.16200
H  5.13700 45.59700 31.89700

