158

Mg 43.65900 2.90900 47.59400
C  41.51200 5.57700 47.25800
C  40.97900 0.72100 47.71000
C  45.88300 0.31000 47.56400
C  46.36800 5.06600 46.79200
N  41.46800 3.11100 47.22800
C  40.84000 4.34700 47.14200
C  39.37100 4.13000 47.03600
C  39.19400 2.57100 47.45000
C  40.62800 2.05900 47.48000
C  38.46900 2.46400 48.84100
C  38.95200 4.43800 45.55900
C  37.94200 5.65000 45.24300
H  38.24300 6.53100 43.95800
N  43.41600 0.72400 47.66200
C  42.28300 0.04200 47.80700
C  42.54100 -1.25500 47.97900
C  43.93900 -1.42300 47.79300
C  44.49400 -0.08600 47.66800
C  41.43700 -2.24600 48.20000
C  44.64400 -2.79300 47.78800
O  43.92500 -3.80000 47.71100
C  46.17200 -2.86800 47.91800
N  45.74400 2.69200 47.05100
C  46.47600 1.52900 47.10300
C  47.99400 1.82300 47.08800
C  48.10100 3.30900 46.61500
C  46.62500 3.68500 46.74000
C  48.76300 1.57400 48.43600
C  48.64000 3.45500 45.17300
C  50.10300 3.77700 45.14000
N  43.94600 4.92100 47.28000
C  45.09700 5.63700 47.04300
C  44.70700 7.11500 46.92200
C  43.29200 7.12400 47.18200
C  42.92000 5.75500 47.26800
C  45.55900 8.22400 46.64000
C  42.11600 7.93600 47.32900
O  41.97800 9.19300 47.17400
C  40.95200 6.97100 47.45800
C  40.41400 7.05800 48.85000
O  40.99000 6.62600 49.86700
O  39.19700 7.68600 48.85300
C  38.62000 8.11000 50.14800
H  40.04800 0.19900 47.94100
H  46.70400 -0.41000 47.56100
H  47.24100 5.72100 46.74900
H  38.82900 4.71800 47.77600
H  38.73600 1.86000 46.76200
H  38.21700 3.43200 49.27300
H  38.98800 1.87400 49.59700
H  37.53700 1.91500 48.70700
H  38.42700 3.57800 45.14200
H  39.85600 4.40100 44.95200
H  38.04100 6.39700 46.03100
H  36.88200 5.39300 45.25200
H  40.43500 -1.82300 48.13500
H  41.52900 -2.65700 49.20500
H  41.51300 -3.15800 47.60800
H  46.37500 -2.61100 48.95700
H  46.65800 -2.27000 47.14700
H  46.56600 -3.88400 47.93000
H  48.49800 1.11900 46.42600
H  48.67100 3.89500 47.33600
H  49.20000 0.57900 48.35900
H  48.07600 1.73900 49.26700
H  49.54500 2.32800 48.52400
H  48.15100 4.28600 44.66300
H  48.60800 2.50700 44.63700
H  50.67400 2.86000 44.99500
H  50.43000 4.28400 46.04800
H  50.38000 4.50800 44.38100
H  46.18800 8.02300 45.77300
H  46.29900 8.35400 47.43000
H  45.01300 9.16300 46.55500
H  40.20600 7.06900 46.67000
H  39.08500 7.67600 51.03400
H  37.56700 7.83200 50.10300
H  38.69700 9.19700 50.14300
Mg -8.56500 40.38400 43.43300
C  -7.39700 37.26300 42.26000
C  -5.96400 41.91300 41.85300
C  -10.05600 43.36100 43.92300
C  -11.38600 38.64600 44.69400
N  -6.86200 39.61400 42.26600
C  -6.48400 38.33800 41.93600
C  -5.22700 38.31800 41.05100
C  -4.79400 39.75800 41.16000
C  -5.93300 40.49000 41.86000
C  -3.45500 39.89300 41.86900
C  -5.43400 37.64600 39.62800
C  -4.63800 36.47300 39.23900
H  -3.69000 36.59400 38.03300
N  -8.03900 42.40100 43.01600
C  -6.94800 42.81700 42.33000
C  -6.99700 44.29700 42.19600
C  -8.20700 44.70700 42.83700
C  -8.79500 43.46100 43.29500
C  -5.95300 45.06100 41.41200
C  -8.71800 46.20900 42.88700
O  -8.26200 47.11800 42.18900
C  -9.79300 46.55800 43.86100
N  -10.55100 40.95600 43.99900
C  -10.84200 42.27200 44.25500
C  -12.25800 42.36500 44.85400
C  -12.62300 40.84000 45.25500
C  -11.55000 40.04200 44.44300
C  -12.40600 43.28100 46.09600
C  -14.08500 40.43800 44.88200
C  -14.72200 39.48500 45.98800
N  -9.25100 38.36900 43.59700
C  -10.39400 37.81900 44.15400
C  -10.31900 36.40200 44.21300
C  -9.19300 36.11100 43.42900
C  -8.54800 37.37600 43.07900
C  -11.36900 35.46100 44.79100
C  -8.51800 35.07500 42.76800
O  -8.67400 33.83800 42.72800
C  -7.28800 35.73600 41.93900
C  -6.08000 35.06000 42.33000
O  -5.45100 35.28700 43.33900
O  -5.68100 34.15200 41.36900
C  -4.46500 33.40500 41.60400
H  -5.11600 42.43200 41.39900
H  -10.64800 44.25600 44.12900
H  -12.24300 38.28500 45.26600
H  -4.50400 37.74600 41.63100
H  -4.77900 40.17600 40.15400
H  -2.66900 39.46200 41.24800
H  -3.50500 39.29700 42.78000
H  -3.02300 40.87100 42.08300
H  -5.14300 38.32600 38.82700
H  -6.48800 37.43200 39.45200
H  -5.29500 35.63200 39.01300
H  -4.04100 36.11000 40.07500
H  -6.40300 45.89100 40.86700
H  -5.43600 44.40300 40.71300
H  -5.18600 45.49800 42.05100
H  -9.82400 47.63100 44.04600
H  -9.69000 46.06400 44.82700
H  -10.75500 46.28400 43.42800
H  -12.91400 42.78900 44.09400
H  -12.39000 40.59200 46.29100
H  -13.10300 44.11400 46.00400
H  -11.43900 43.75300 46.27000
H  -12.82800 42.75500 46.95200
H  -13.99500 39.84400 43.97300
H  -14.78700 41.24200 44.66000
H  -14.21300 39.58400 46.94700
H  -14.55500 38.45000 45.68800
H  -15.81000 39.55200 45.96900
H  -11.94300 35.10300 43.93700
H  -11.96700 35.79800 45.63800
H  -10.67600 34.72900 45.20600
H  -7.51900 35.62000 40.88000
H  -4.78200 32.42900 41.97200
H  -3.89600 33.73600 42.47300
H  -3.90400 33.05800 40.73600

