158

Mg 8.97300 3.08900 28.09100
C  10.04300 1.43300 30.98800
C  7.17700 5.24400 30.01200
C  7.23200 4.05900 25.27500
C  10.14900 0.36400 26.20200
N  8.54400 3.36200 30.24000
C  9.26300 2.59400 31.19400
C  8.90700 3.07000 32.57000
C  7.99400 4.31800 32.27600
C  7.82100 4.33500 30.76700
C  6.60100 4.15600 33.00300
C  10.17900 3.40800 33.32600
C  10.30400 2.99100 34.76400
H  10.80300 4.00100 35.85400
N  7.65900 4.60400 27.62700
C  7.11600 5.41600 28.55600
C  6.24600 6.40200 27.97100
C  6.33300 6.09400 26.59200
C  7.10700 4.86000 26.39800
C  5.55600 7.49600 28.70200
C  5.57900 6.84500 25.44900
O  5.79000 6.59200 24.29800
C  4.73100 7.95700 25.72000
N  8.93100 2.45400 25.93500
C  8.07700 2.93500 25.04900
C  8.16500 2.12700 23.69500
C  9.41400 1.20900 24.04000
C  9.44100 1.32400 25.48400
C  6.87500 1.43500 23.34700
C  10.74700 1.60200 23.33500
C  11.68400 0.45100 22.87200
N  10.01200 1.35500 28.47500
C  10.45400 0.37600 27.58800
C  11.28500 -0.58300 28.31000
C  11.16600 -0.24000 29.65100
C  10.36400 0.89000 29.67700
C  12.03400 -1.67200 27.68700
C  11.51500 -0.58000 31.04200
O  12.16000 -1.50600 31.49900
C  10.78600 0.49700 31.92100
C  9.88400 -0.10200 32.95500
O  8.73000 -0.37700 32.64400
O  10.59800 -0.36100 34.07600
C  9.72600 -0.91800 35.15700
H  6.61100 5.93900 30.63600
H  6.53300 4.41000 24.51400
H  10.50200 -0.48800 25.61700
H  8.36600 2.24100 33.02500
H  8.37600 5.28800 32.59300
H  6.35800 5.09000 33.51100
H  6.47800 3.31500 33.68600
H  5.82500 4.09800 32.24000
H  10.45100 4.46300 33.35100
H  11.06500 2.95500 32.88100
H  10.99100 2.16000 34.92500
H  9.31500 2.64700 35.06400
H  5.86200 7.60600 29.74200
H  4.49300 7.25800 28.65600
H  5.52800 8.41600 28.11900
H  4.11200 7.79000 26.60200
H  4.14000 8.09000 24.81300
H  5.40200 8.76200 26.01700
H  8.27900 2.86800 22.90400
H  9.13700 0.19700 23.74500
H  7.10200 0.37900 23.19800
H  6.36400 1.61800 22.40200
H  6.16300 1.47700 24.17100
H  11.33100 2.18200 24.05000
H  10.51700 2.34600 22.57300
H  12.61600 0.48800 23.43700
H  11.99000 0.46600 21.82600
H  11.24200 -0.53600 23.01100
H  11.41000 -2.54200 27.48500
H  12.88800 -1.95100 28.30500
H  12.46900 -1.34900 26.74100
H  11.50400 0.95300 32.60200
H  9.13200 -1.74700 34.77100
H  9.03000 -0.21800 35.62000
H  10.39300 -1.37700 35.88700
Mg -10.01000 17.73000 42.25000
C  -6.54700 17.26100 42.29400
C  -9.47200 21.01800 41.72400
C  -13.21100 17.94300 41.47500
C  -10.21000 14.18900 42.28500
N  -8.12900 18.99100 42.08600
C  -6.86500 18.61400 42.10900
C  -5.90800 19.77300 41.99200
C  -6.89400 21.04200 41.94100
C  -8.23400 20.33700 41.94800
C  -6.78900 22.10800 43.14800
C  -4.92200 19.62300 40.79900
C  -5.37100 18.85500 39.53200
H  -4.73000 19.26800 38.16500
N  -11.21700 19.34200 41.80400
C  -10.76800 20.57200 41.70600
C  -11.91200 21.45200 41.38400
C  -13.03400 20.58600 41.33300
C  -12.51400 19.21700 41.47400
C  -11.87400 22.88500 40.89600
C  -14.61000 21.05300 41.10700
O  -14.83600 22.19300 40.86400
C  -15.75400 20.15200 41.30400
N  -11.53300 16.25700 41.66600
C  -12.77400 16.63000 41.67100
C  -13.76000 15.46400 41.68900
C  -12.78200 14.28400 41.94300
C  -11.40000 14.90400 42.02000
C  -15.00000 15.58900 42.64500
C  -12.82000 13.12600 40.80700
C  -13.68900 11.96100 41.13900
N  -8.73200 16.02300 42.38900
C  -8.96400 14.73700 42.56900
C  -7.79700 13.97300 42.87600
C  -6.81900 14.95200 42.77300
C  -7.40000 16.17000 42.46300
C  -7.57700 12.51900 43.10800
C  -5.37400 15.12600 42.73900
O  -4.46700 14.34000 42.91700
C  -5.18000 16.63400 42.56900
C  -4.44800 17.03300 43.76200
O  -3.23700 17.05100 43.80300
O  -5.19200 17.40300 44.82300
C  -4.45900 18.04900 45.88500
H  -9.32200 22.07300 41.48600
H  -14.29000 18.11500 41.46800
H  -10.46500 13.15600 42.52800
H  -5.37800 19.89700 42.93700
H  -6.84000 21.60600 41.01000
H  -5.76700 22.44500 43.32100
H  -7.31000 21.72600 44.02600
H  -7.35700 22.95000 42.75100
H  -4.01100 19.13100 41.14100
H  -4.58200 20.61100 40.48800
H  -6.39100 18.47900 39.45600
H  -4.78800 17.94600 39.67600
H  -12.81000 23.36600 41.18000
H  -11.86900 23.03700 39.81600
H  -10.99200 23.33300 41.35200
H  -15.86000 19.54000 40.40800
H  -16.55400 20.88400 41.41000
H  -15.51800 19.62600 42.22900
H  -14.19200 15.24300 40.71300
H  -12.95300 13.67000 42.82700
H  -15.12500 16.58800 43.06400
H  -15.06800 14.73700 43.32100
H  -15.84900 15.60900 41.96200
H  -11.84000 12.66500 40.68800
H  -13.18000 13.41300 39.81900
H  -14.54300 11.92700 40.46300
H  -14.14500 12.12600 42.11600
H  -13.10800 11.04700 41.26000
H  -8.30000 11.98000 42.49600
H  -7.78600 12.22200 44.13600
H  -6.57500 12.25000 42.77200
H  -4.46200 16.73800 41.75500
H  -5.21900 18.32900 46.61300
H  -3.97800 18.93300 45.46600
H  -3.81300 17.28800 46.32300

