158

Mg 0.86800 7.20600 25.41500
C  1.55400 8.90100 28.38000
C  1.15500 4.27000 27.20800
C  0.40300 5.47100 22.63500
C  1.11100 10.24000 23.68000
N  1.07100 6.67200 27.60500
C  1.29700 7.56700 28.55000
C  1.36100 6.82800 29.87500
C  1.55000 5.28900 29.47000
C  1.26000 5.38400 27.97100
C  2.78900 4.59200 29.97800
C  0.10300 7.07200 30.72100
C  0.44400 7.49800 32.20600
H  1.73700 6.97700 32.85900
N  0.78100 5.12800 24.96700
C  0.95200 4.06900 25.81000
C  0.86400 2.84800 25.07200
C  0.68500 3.25700 23.71600
C  0.67000 4.68600 23.69400
C  1.12800 1.53600 25.73400
C  0.56500 2.33600 22.46200
O  0.49000 2.79800 21.30900
C  0.47800 0.89900 22.63100
N  0.86400 7.75600 23.44000
C  0.39900 6.89000 22.51400
C  0.10700 7.60600 21.21100
C  0.34900 9.09700 21.49700
C  0.78000 9.08500 22.98600
C  0.97400 6.95300 20.09900
C  -0.87700 10.04000 21.38700
C  -0.79200 11.24700 20.37600
N  1.39200 9.19100 25.90400
C  1.40000 10.31600 25.12800
C  1.57900 11.49900 25.93900
C  1.66300 10.98900 27.24500
C  1.63100 9.52600 27.15900
C  1.53000 12.91600 25.27200
C  1.84100 11.35200 28.67600
O  2.01900 12.43600 29.21700
C  1.83700 9.95500 29.42900
C  3.15300 9.82100 30.12900
O  4.20200 9.43100 29.60400
O  3.12800 10.49000 31.40200
C  4.43500 10.67800 32.14000
H  1.37400 3.39300 27.82100
H  0.07000 4.96100 21.72900
H  1.11400 11.20100 23.16100
H  2.23600 7.29500 30.32900
H  0.74100 4.69000 29.88900
H  3.43600 5.30100 30.49400
H  3.38600 4.19200 29.15800
H  2.51000 3.80100 30.67400
H  -0.49000 6.15900 30.78200
H  -0.60000 7.75300 30.24100
H  -0.44600 7.24300 32.78200
H  0.48900 8.58200 32.31100
H  2.05500 1.15800 25.30300
H  0.34200 0.84900 25.42100
H  1.02600 1.54900 26.81900
H  1.48800 0.52500 22.79600
H  0.05000 0.33500 21.80200
H  -0.25200 0.81600 23.43600
H  -0.97200 7.54100 21.07500
H  1.18600 9.39100 20.86300
H  1.14100 7.64800 19.27600
H  0.45500 6.06400 19.74000
H  1.97000 6.70100 20.46200
H  -1.07200 10.50000 22.35700
H  -1.77600 9.48000 21.13000
H  -0.92000 12.16800 20.94400
H  -1.45700 11.14600 19.51900
H  0.21000 11.34200 19.95700
H  1.33400 13.54800 26.13800
H  0.71400 13.07500 24.56600
H  2.41400 13.28700 24.75300
H  1.03000 10.06300 30.15300
H  5.22000 10.77900 31.39100
H  4.82900 9.87900 32.76900
H  4.29700 11.59500 32.71300
Mg 9.54700 48.20500 26.69100
C  7.18300 48.13200 29.31800
C  11.96300 48.68100 28.98900
C  11.71200 48.28500 24.19000
C  6.90500 47.90700 24.45200
N  9.52200 48.31900 28.89300
C  8.54700 48.27900 29.80100
C  9.04200 48.33300 31.24600
C  10.61600 48.47000 31.02500
C  10.71800 48.55500 29.55400
C  11.14000 49.79100 31.74700
C  8.51800 47.19600 32.22200
C  9.33600 46.62100 33.40300
H  8.66800 46.56300 34.83300
N  11.53200 48.67500 26.62700
C  12.37600 48.80100 27.62600
C  13.67700 49.09000 27.13600
C  13.65000 48.86800 25.77000
C  12.25500 48.55900 25.46700
C  14.83200 49.38800 28.10100
C  14.70000 48.95700 24.77600
O  14.47100 48.80100 23.56500
C  16.06500 49.29900 25.15200
N  9.34800 48.08000 24.55200
C  10.41800 48.10400 23.70400
C  10.03500 47.74700 22.28100
C  8.46300 47.55800 22.41500
C  8.15900 47.88900 23.91000
C  10.48400 48.80300 21.24700
C  8.01100 46.16500 21.92300
C  7.25100 46.20500 20.60400
N  7.46500 48.19600 26.82100
C  6.53100 47.99300 25.86200
C  5.18500 47.97000 26.40700
C  5.44200 47.97600 27.78900
C  6.80800 48.14700 27.97600
C  3.83500 47.79900 25.76400
C  4.76300 47.88200 29.00300
O  3.56800 47.85700 29.29900
C  5.92000 47.85800 30.09300
C  5.87500 46.48500 30.63400
O  6.24500 45.46900 30.10700
O  5.12800 46.51600 31.74300
C  4.91400 45.21500 32.42400
H  12.86200 48.88100 29.57600
H  12.37900 48.29400 23.32600
H  6.18800 47.73000 23.64700
H  8.74100 49.25800 31.73800
H  11.02700 47.53300 31.40200
H  11.70100 49.37700 32.58600
H  10.38800 50.47100 32.14800
H  11.79600 50.42700 31.15300
H  8.32500 46.34300 31.57100
H  7.55200 47.56500 32.56700
H  10.31100 47.10700 33.43800
H  9.66400 45.62900 33.09200
H  15.76400 49.03800 27.65800
H  14.80600 48.79000 29.01100
H  14.85600 50.45100 28.34100
H  16.65400 49.61000 24.29000
H  16.58900 48.48700 25.65600
H  15.94600 50.19100 25.76800
H  10.62000 46.86000 22.03600
H  7.94500 48.30000 21.80700
H  11.43600 48.50000 20.81100
H  10.62100 49.77900 21.71200
H  9.72600 48.92600 20.47400
H  7.30200 45.85100 22.68900
H  8.81600 45.43000 21.90600
H  6.19500 45.99500 20.77300
H  7.65800 45.55500 19.83000
H  7.32200 47.23000 20.24100
H  3.46900 46.77200 25.76000
H  3.95800 48.15700 24.74200
H  3.11800 48.40900 26.31500
H  5.71200 48.60400 30.86000
H  3.93500 44.80400 32.17800
H  4.97300 45.31100 33.50800
H  5.80300 44.60800 32.24900

