158

Mg -3.20400 16.99900 26.45400
C  -3.72400 14.80300 29.18800
C  -4.06400 19.54100 28.54600
C  -3.19800 18.99300 23.83300
C  -3.61200 14.19100 24.40700
N  -3.72100 17.12900 28.66500
C  -3.63100 16.09700 29.57800
C  -3.82600 16.65300 31.04400
C  -4.14400 18.16500 30.82900
C  -3.97400 18.31400 29.20600
C  -5.62700 18.53500 31.22800
C  -2.52700 16.21700 31.87700
C  -1.79600 17.26300 32.81500
H  -1.30100 16.85200 34.25200
N  -3.28400 18.96900 26.29400
C  -3.54000 19.89900 27.29700
C  -3.33400 21.23200 26.77000
C  -2.99200 21.01400 25.36300
C  -3.15500 19.59200 25.12600
C  -3.52200 22.50700 27.57900
C  -2.62100 22.14400 24.37200
O  -2.56300 21.90900 23.16500
C  -2.41700 23.51500 24.73400
N  -3.37400 16.57300 24.45400
C  -3.17800 17.61700 23.48800
C  -3.28200 16.97300 22.03900
C  -3.42500 15.48500 22.33500
C  -3.35500 15.38700 23.81700
C  -4.37700 17.60600 21.07200
C  -2.35400 14.57000 21.65000
C  -2.84600 14.11200 20.23500
N  -3.52200 14.94100 26.69400
C  -3.60000 13.97800 25.81400
C  -3.83100 12.71500 26.44500
C  -3.94400 13.01400 27.79800
C  -3.72300 14.36000 27.89900
C  -4.02400 11.42900 25.73900
C  -4.27900 12.40500 29.05000
O  -4.62700 11.24300 29.27300
C  -4.08200 13.54900 30.00500
C  -3.14300 13.14500 31.07800
O  -1.91300 13.05100 30.93100
O  -3.82500 12.98000 32.29400
C  -3.01900 12.54800 33.43500
H  -4.17000 20.45100 29.14100
H  -3.30300 19.64100 22.96000
H  -3.76900 13.31800 23.76900
H  -4.73900 16.23800 31.47100
H  -3.57200 18.87500 31.42700
H  -5.58300 19.00000 32.21300
H  -6.16400 17.61000 31.43900
H  -6.30500 19.14900 30.63600
H  -1.72200 15.82500 31.25600
H  -2.88300 15.44400 32.55800
H  -2.51400 18.06900 32.96700
H  -0.93500 17.78900 32.40400
H  -2.50400 22.77900 27.85700
H  -4.03600 22.26900 28.51100
H  -4.13300 23.23800 27.04900
H  -1.88100 24.07800 23.97000
H  -1.71000 23.45700 25.56200
H  -3.33200 24.04700 24.99200
H  -2.32100 17.29400 21.63700
H  -4.42800 15.14700 22.07200
H  -4.81200 18.58200 21.28500
H  -5.31000 17.06400 21.22500
H  -4.14500 17.46300 20.01700
H  -2.11100 13.75900 22.33600
H  -1.50300 15.24900 21.57900
H  -3.86800 14.39700 19.98500
H  -2.82600 13.02800 20.35300
H  -2.19400 14.37200 19.40100
H  -4.77200 10.85400 26.28500
H  -3.13900 10.80000 25.64800
H  -4.47700 11.70100 24.78600
H  -5.01500 13.82400 30.49700
H  -3.24500 11.48300 33.49800
H  -3.32900 13.14600 34.29200
H  -1.93400 12.64400 33.38300
Mg 1.26700 42.09100 24.52800
C  3.03300 42.12100 27.62400
C  -1.40800 40.87200 26.33900
C  -0.11700 41.46200 21.71100
C  4.49600 42.23100 22.89200
N  0.80500 41.63600 26.75600
C  1.67000 41.92000 27.81700
C  0.94900 41.77600 29.19900
C  -0.49100 41.40500 28.71500
C  -0.38000 41.25500 27.18200
C  -1.11500 40.24400 29.53900
C  1.06500 43.02700 30.03600
C  1.47300 42.79000 31.45900
H  1.18900 41.36200 32.19200
N  -0.59500 41.52400 24.06400
C  -1.52200 40.91200 24.96600
C  -2.64600 40.41000 24.19400
C  -2.37700 40.68800 22.83500
C  -1.00700 41.26100 22.80400
C  -3.91900 39.81600 24.80200
C  -3.21400 40.41800 21.59100
O  -2.78400 40.59600 20.45400
C  -4.58100 39.75300 21.64600
N  2.11100 41.82200 22.59000
C  1.19600 41.78100 21.61200
C  1.83300 41.97100 20.24000
C  3.30800 42.29200 20.60000
C  3.30900 42.10500 22.07700
C  1.64400 40.75100 19.33900
C  3.83500 43.58200 20.16000
C  3.14900 44.82700 20.69300
N  3.35500 42.29000 25.10100
C  4.52000 42.39400 24.33200
C  5.67900 42.47700 25.26600
C  5.14600 42.35700 26.51800
C  3.75000 42.29000 26.38000
C  7.08300 42.79200 24.85800
C  5.41800 42.35300 27.97000
O  6.51500 42.31000 28.50000
C  4.06400 42.23100 28.71400
C  4.32200 40.98500 29.55800
O  4.65400 39.88200 29.15300
O  4.39900 41.26300 30.87300
C  4.96500 40.28200 31.85400
H  -2.24200 40.43600 26.89300
H  -0.59200 41.31400 20.73900
H  5.40500 42.18100 22.28800
H  1.53400 41.01000 29.71000
H  -0.98500 42.37300 28.79600
H  -1.94300 40.56500 30.17100
H  -0.47400 39.83900 30.32300
H  -1.34700 39.42500 28.85900
H  0.15200 43.61600 30.11800
H  1.75700 43.70200 29.53300
H  1.12700 43.62900 32.06300
H  2.55100 42.92100 31.55200
H  -4.16300 38.82100 24.42900
H  -4.74700 40.43800 24.46200
H  -3.93700 39.69800 25.88500
H  -4.64800 38.80500 22.18000
H  -4.87200 39.51400 20.62300
H  -5.36500 40.38200 22.06700
H  1.24900 42.80300 19.84700
H  4.03100 41.57400 20.21100
H  0.71700 40.74900 18.76400
H  1.83200 39.91100 20.00800
H  2.44600 41.06300 18.67100
H  3.70000 43.58800 19.07800
H  4.88700 43.65000 20.43800
H  3.96200 45.50800 20.94400
H  2.30500 44.78100 21.38200
H  2.74000 45.30400 19.80300
H  7.18100 43.64900 24.19100
H  7.52400 41.89100 24.43300
H  7.61800 42.93200 25.79800
H  3.83800 43.10300 29.32800
H  5.04700 40.86900 32.76900
H  6.02200 40.08500 31.67300
H  4.43100 39.34300 32.00300

