158

Mg 1.83400 -1.31600 43.70400
C  5.31600 -0.70900 43.14200
C  1.15800 1.66100 42.11200
C  -1.31600 -2.40300 43.42700
C  2.73400 -4.41100 45.22100
N  3.07400 0.23800 42.53300
C  4.42700 0.32300 42.57400
C  4.89800 1.48000 41.73500
C  3.65000 2.35200 41.59500
C  2.51600 1.36500 42.08700
C  3.66500 3.54600 42.52800
C  5.54600 1.00100 40.45900
C  6.81800 1.75300 39.98000
H  6.67600 2.28800 38.52600
N  0.11700 -0.51000 42.92000
C  0.08100 0.74600 42.39700
C  -1.30000 1.02900 42.18200
C  -2.05400 -0.11900 42.42000
C  -1.10400 -1.09400 42.90900
C  -1.74400 2.37100 41.73200
C  -3.56500 -0.27500 42.32100
O  -4.21000 0.66900 41.80900
C  -4.49400 -1.50200 42.54200
N  0.86100 -3.20700 44.27100
C  -0.46400 -3.35500 44.05600
C  -0.97800 -4.69600 44.46100
C  0.31000 -5.24400 45.19000
C  1.40600 -4.29300 44.81200
C  -2.20800 -4.66200 45.28200
C  0.56200 -6.70300 44.80300
C  0.54800 -7.61700 46.07500
N  3.60000 -2.37900 44.15700
C  3.78700 -3.60500 44.79700
C  5.27400 -3.78300 45.03900
C  5.90900 -2.71200 44.34600
C  4.81900 -1.87900 43.77900
C  5.94500 -4.90800 45.67000
C  7.17700 -2.11000 43.96700
O  8.30000 -2.58100 44.17500
C  6.87000 -0.68000 43.31400
C  7.21500 0.38900 44.16500
O  6.50500 0.91300 45.01600
O  8.49900 0.73000 43.86800
C  8.77200 2.13800 44.16600
H  0.98400 2.60200 41.58500
H  -2.38200 -2.64000 43.43000
H  3.05900 -5.29000 45.78200
H  5.64600 1.94100 42.37900
H  3.54100 2.71100 40.57100
H  3.05900 3.48300 43.43200
H  3.47700 4.42000 41.90400
H  4.64800 3.65200 42.98800
H  4.73900 0.99000 39.72700
H  5.95800 0.00100 40.59000
H  7.61300 1.00700 39.95400
H  7.10600 2.67200 40.49200
H  -2.77800 2.59400 41.46800
H  -1.09500 2.71500 40.92700
H  -1.50700 2.96100 42.61600
H  -5.52700 -1.43300 42.20200
H  -4.63500 -1.82700 43.57400
H  -4.20000 -2.33500 41.90400
H  -1.18400 -5.23000 43.53400
H  0.29600 -4.98500 46.24900
H  -2.28100 -5.42700 46.05500
H  -3.11700 -4.66000 44.67900
H  -2.16400 -3.67000 45.73200
H  1.49500 -6.76600 44.24300
H  -0.21800 -7.08700 44.14500
H  1.55500 -8.03000 46.13800
H  -0.05400 -8.44800 45.70800
H  0.16800 -7.12600 46.97100
H  6.73900 -4.60800 46.35400
H  6.43700 -5.28400 44.77300
H  5.21200 -5.53500 46.17900
H  7.36800 -0.61600 42.34700
H  9.29600 2.57300 43.31500
H  9.55700 2.21800 44.91800
H  7.89100 2.74000 44.38700
Mg 6.96400 54.62000 40.70300
C  7.09200 51.10200 40.59000
C  10.18700 54.80900 39.74700
C  6.73900 58.01700 40.44200
C  3.44500 54.35700 41.16200
N  8.38500 53.16800 40.15800
C  8.32700 51.74300 40.25500
C  9.71500 51.04200 40.04800
C  10.71100 52.28600 40.22300
C  9.72900 53.54100 39.99000
C  11.27700 52.46400 41.66900
C  9.72400 50.33400 38.65400
C  9.20000 51.16800 37.53500
H  7.77600 51.09200 37.00800
N  8.28500 56.24300 40.13700
C  9.59800 56.08000 39.79200
C  10.18300 57.32800 39.39100
C  9.21700 58.29300 39.62400
C  8.02100 57.55500 40.11900
C  11.57000 57.58300 38.69800
C  9.38200 59.76900 39.40400
O  10.48800 60.12300 39.09600
C  8.26700 60.79900 39.56000
N  5.30700 55.97600 40.80000
C  5.51800 57.29800 40.64100
C  4.17300 58.06100 40.73800
C  3.10000 56.90800 40.88000
C  3.96400 55.64300 40.90900
C  4.16500 59.17100 41.86700
C  2.00200 56.93300 39.74300
C  0.55500 57.29800 40.21500
N  5.52600 53.03500 40.89200
C  4.14500 53.07200 41.13100
C  3.69800 51.70500 41.26500
C  4.85100 50.92900 41.12600
C  5.85100 51.75700 40.83200
C  2.26200 51.33800 41.81600
C  5.22300 49.60600 41.33600
O  4.61400 48.64500 41.87000
C  6.74200 49.60400 40.76000
C  6.58100 48.81300 39.50300
O  5.81200 49.04800 38.63200
O  7.13800 47.51700 39.54400
C  6.80900 46.60200 38.46700
H  11.26000 54.72300 39.56100
H  6.49300 59.08100 40.42500
H  2.36100 54.30400 41.28200
H  9.81600 50.32000 40.85800
H  11.51100 52.18800 39.49000
H  12.34000 52.24700 41.56300
H  10.91600 51.80100 42.45500
H  11.10800 53.46200 42.07300
H  9.25900 49.36400 38.82500
H  10.72600 49.98100 38.41200
H  9.78100 50.87500 36.66100
H  9.56000 52.16100 37.80100
H  11.40600 58.15600 37.78500
H  12.06700 56.63600 38.48300
H  12.25800 58.08700 39.37800
H  7.43100 60.40500 38.98200
H  8.65400 61.76800 39.24400
H  8.00900 60.75200 40.61800
H  4.02300 58.45200 39.73200
H  2.70300 57.05300 41.88400
H  4.99700 58.96300 42.54000
H  3.25000 59.21300 42.45700
H  4.47700 60.11500 41.42000
H  2.00900 55.91400 39.35800
H  2.22800 57.62700 38.93200
H  -0.08600 56.43500 40.03500
H  0.25800 58.18400 39.65400
H  0.59700 57.56600 41.27100
H  1.62100 51.37800 40.93500
H  1.89900 52.10200 42.50400
H  2.29900 50.33400 42.23800
H  7.38100 49.05600 41.45300
H  7.47700 45.74100 38.50700
H  7.00800 47.01000 37.47600
H  5.79300 46.28200 38.69600

