158

Mg 47.96500 34.41000 27.18500
C  46.14500 33.04300 29.80000
C  48.45300 37.30100 29.04700
C  49.44700 35.82100 24.50000
C  47.30700 31.56100 25.21200
N  47.36200 35.14400 29.21000
C  46.74700 34.29300 30.11900
C  46.86900 34.98600 31.52400
C  47.12600 36.51000 31.13300
C  47.78900 36.31100 29.76100
C  45.89500 37.43700 31.24900
C  48.00000 34.40200 32.41100
C  47.70000 34.15500 33.91200
H  48.43100 35.01900 35.02900
N  48.87200 36.26900 26.82100
C  48.90600 37.31400 27.70900
C  49.56800 38.42300 27.11600
C  49.99700 38.02100 25.79500
C  49.36600 36.64500 25.63600
C  49.63300 39.70900 27.85800
C  50.75900 38.73600 24.71100
O  50.91500 38.27400 23.57900
C  51.40800 40.02900 24.96400
N  48.07600 33.89300 25.02500
C  48.86700 34.59200 24.22300
C  49.04500 33.92900 22.87200
C  48.54200 32.47600 23.18500
C  47.92600 32.61400 24.56600
C  48.34600 34.67600 21.70700
C  49.59900 31.35100 22.94200
C  50.63900 31.03600 24.09700
N  46.88900 32.62900 27.37100
C  46.73100 31.59500 26.48500
C  45.93900 30.51800 27.23400
C  45.60300 31.09300 28.49900
C  46.24300 32.36500 28.50300
C  45.76700 29.12700 26.78800
C  44.91200 30.87500 29.80100
O  44.25900 29.89700 30.26600
C  45.12300 32.22400 30.62400
C  45.49800 31.90600 32.02300
O  46.49000 31.29500 32.38400
O  44.41200 32.35200 32.82400
C  44.45600 32.09900 34.23000
H  48.67400 38.18500 29.65000
H  49.89100 36.23100 23.59000
H  47.24700 30.69300 24.55200
H  45.91700 34.83500 32.03300
H  47.96500 36.92000 31.69400
H  45.75300 38.01600 30.33700
H  46.03600 38.13600 32.07300
H  45.08300 36.76500 31.52900
H  48.78200 35.16000 32.45600
H  48.38500 33.47300 31.99000
H  47.82300 33.07700 34.01200
H  46.62600 34.26600 34.06100
H  48.75100 39.89800 28.47000
H  49.77900 40.52100 27.14500
H  50.59200 39.64500 28.37100
H  50.75100 40.83400 24.63600
H  52.23800 40.19800 24.27800
H  51.76600 40.14000 25.98700
H  50.11900 33.99300 22.69900
H  47.65800 32.22000 22.60000
H  48.97500 35.51800 21.41500
H  47.40400 35.19000 21.89800
H  48.09500 33.99100 20.89700
H  50.20200 31.62100 22.07400
H  49.07200 30.41600 22.75400
H  51.67900 31.20000 23.81700
H  50.53000 30.01200 24.45500
H  50.51200 31.70300 24.94900
H  45.64800 28.44100 27.62600
H  46.54200 28.90700 26.05300
H  44.82100 29.01700 26.25900
H  44.14800 32.70600 30.69700
H  44.93900 31.12500 34.31800
H  43.49500 31.91800 34.71200
H  45.09600 32.74700 34.82900
Mg 0.72800 42.97100 26.44400
C  3.13000 42.45600 28.85600
C  -1.58000 41.78600 28.59000
C  -1.37800 42.71500 23.84700
C  3.38900 43.20200 23.97800
N  0.74800 42.51000 28.55300
C  1.83200 42.37900 29.39400
C  1.40900 42.20000 30.91100
C  -0.16100 41.81200 30.77600
C  -0.34100 41.97600 29.21500
C  -0.48500 40.29600 31.23700
C  1.66200 43.52600 31.64600
C  1.86700 43.52000 33.20200
H  1.45000 42.33000 34.07300
N  -1.32600 42.61900 26.32500
C  -2.09900 42.05900 27.29800
C  -3.42100 41.84900 26.75900
C  -3.40400 42.17700 25.38000
C  -1.97700 42.55500 25.12500
C  -4.58900 41.37300 27.56600
C  -4.50900 42.24500 24.33800
O  -4.31400 42.59700 23.17000
C  -5.90700 41.84200 24.72700
N  0.97800 42.80200 24.16900
C  -0.09600 42.90800 23.39300
C  0.28400 43.07700 21.87900
C  1.78300 43.52700 22.04200
C  2.06500 43.13500 23.50400
C  0.03000 41.85000 21.04100
C  2.16500 45.04200 21.68500
C  2.47400 46.01800 22.77600
N  2.78600 42.93700 26.35800
C  3.74000 43.06200 25.35700
C  5.04300 43.16100 25.89400
C  4.87200 42.85900 27.26700
C  3.48000 42.81600 27.49700
C  6.31000 43.45500 25.13500
C  5.55600 42.65700 28.52600
O  6.75900 42.68300 28.76600
C  4.39600 42.56300 29.62200
C  4.73200 41.41400 30.54700
O  4.78800 40.22500 30.31400
O  5.02300 42.00900 31.79000
C  5.19600 41.09300 32.94200
H  -2.43300 41.41700 29.16400
H  -2.06200 42.80800 23.00000
H  4.25300 43.33900 23.32400
H  2.04000 41.49200 31.44800
H  -0.85300 42.46700 31.30500
H  0.34900 39.83900 31.76900
H  -0.81100 39.74700 30.35300
H  -1.30400 40.50400 31.92600
H  0.79200 44.15800 31.46700
H  2.44600 44.07300 31.12300
H  1.45400 44.42400 33.64900
H  2.94900 43.54600 33.32700
H  -5.27400 42.20300 27.73400
H  -4.28200 41.03500 28.55600
H  -5.13000 40.56700 27.06900
H  -5.98600 40.78600 24.98700
H  -6.46900 42.09400 23.82800
H  -6.19800 42.50600 25.54100
H  -0.39100 43.85000 21.51100
H  2.40200 42.88900 21.41200
H  0.36000 41.09700 21.75600
H  0.65400 41.87400 20.14800
H  -0.99800 41.55600 20.83400
H  1.38100 45.53300 21.10800
H  3.01900 44.98900 21.01000
H  3.46100 46.47000 22.69100
H  2.47800 45.67300 23.81000
H  1.72500 46.80500 22.69300
H  6.58700 44.50900 25.09700
H  6.07500 43.10900 24.12800
H  7.13400 42.90300 25.58700
H  4.32400 43.54200 30.09700
H  6.24500 40.93700 33.19600
H  4.69900 40.13200 32.80300
H  4.86600 41.55900 33.87000

