158

Mg -0.78700 34.17200 27.62600
C  -2.91500 32.77300 29.96000
C  0.66800 36.00600 30.29800
C  0.63600 36.39600 25.36600
C  -2.41300 32.56400 25.04800
N  -1.22400 34.48800 29.79000
C  -2.07700 33.72800 30.54700
C  -1.86600 33.98900 32.02000
C  -0.95200 35.30300 32.06400
C  -0.38500 35.19100 30.66600
C  -1.56600 36.73500 32.35000
C  -1.25100 32.76400 32.78900
C  -1.91500 32.38300 34.13200
H  -0.99800 32.35700 35.37300
N  0.59700 35.76700 27.77000
C  1.03800 36.34300 28.93200
C  1.93700 37.45200 28.62200
C  1.89300 37.62200 27.24500
C  0.97500 36.59200 26.73400
C  2.71200 38.26400 29.68700
C  2.66100 38.62900 26.33500
O  2.71300 38.70900 25.11900
C  3.48500 39.69200 27.07800
N  -0.93200 34.48400 25.56700
C  -0.21100 35.43200 24.81800
C  -0.46800 35.25100 23.29000
C  -1.31400 33.96300 23.17100
C  -1.62900 33.68000 24.68900
C  -1.17900 36.53600 22.72800
C  -0.70500 32.74200 22.32600
C  -1.68100 31.97800 21.43500
N  -2.37100 32.95500 27.47800
C  -2.89800 32.34400 26.38800
C  -3.85600 31.35900 26.87800
C  -3.84900 31.51900 28.29600
C  -3.03100 32.53200 28.59800
C  -4.62200 30.30700 26.05300
C  -4.37000 30.97100 29.41200
O  -5.12500 30.01000 29.49800
C  -3.83800 31.74700 30.72100
C  -4.94800 32.43400 31.48100
O  -5.70600 33.29500 31.04900
O  -5.05100 31.86000 32.69900
C  -5.88500 32.53100 33.70400
H  1.21800 36.48400 31.11200
H  1.10600 37.10900 24.68500
H  -2.87600 32.05500 24.20100
H  -2.83100 34.31200 32.40900
H  -0.13300 35.10700 32.75600
H  -0.73900 37.33800 32.72300
H  -2.28900 36.73400 33.16600
H  -2.13600 37.17800 31.53300
H  -0.20900 33.04200 32.94900
H  -1.28000 31.91700 32.10400
H  -2.50300 31.47900 33.97200
H  -2.68800 33.11300 34.37000
H  3.76400 38.18900 29.41200
H  2.50000 37.86500 30.67900
H  2.32000 39.28100 29.69400
H  2.91000 40.36300 27.71600
H  3.84200 40.38300 26.31500
H  4.29200 39.11300 27.52500
H  0.46700 35.22500 22.73000
H  -2.32700 34.16400 22.82300
H  -1.26700 37.37900 23.41300
H  -2.17400 36.26700 22.37400
H  -0.61700 36.90600 21.87000
H  -0.58300 31.98300 23.09800
H  0.24300 32.98200 21.84300
H  -1.31100 32.04800 20.41200
H  -2.65900 32.43500 21.28700
H  -1.74400 30.94000 21.76000
H  -4.24400 30.20400 25.03600
H  -5.68200 30.56000 26.05500
H  -4.62600 29.34000 26.55700
H  -3.25600 30.99400 31.25200
H  -6.34500 31.73300 34.28600
H  -6.73000 33.05700 33.26000
H  -5.24000 33.11900 34.35700
Mg -4.80300 25.73000 26.42100
C  -3.19500 26.85000 29.30700
C  -6.64400 23.58000 28.28300
C  -5.82000 24.29200 23.57600
C  -2.33600 27.68100 24.58300
N  -4.81600 25.18400 28.53000
C  -4.22700 25.92600 29.54700
C  -4.86600 25.58300 30.93000
C  -5.76600 24.28400 30.66300
C  -5.75100 24.30000 29.09900
C  -5.17500 22.91300 31.03500
C  -5.63300 26.69400 31.77200
C  -5.67400 26.57300 33.28400
H  -5.41900 25.24100 34.03100
N  -6.18900 24.23300 26.02200
C  -6.90400 23.48700 26.92000
C  -7.87200 22.65700 26.23700
C  -7.65400 22.86300 24.85000
C  -6.50000 23.79300 24.73800
C  -8.86300 21.88400 27.02800
C  -8.32700 22.23000 23.65400
O  -7.96100 22.34800 22.49800
C  -9.53400 21.37000 23.86100
N  -3.89400 25.72700 24.41700
C  -4.63000 25.04000 23.40100
C  -4.18200 25.60700 21.96500
C  -3.00400 26.60900 22.37900
C  -3.06200 26.67700 23.88300
C  -3.64100 24.59000 20.89000
C  -3.25400 28.04700 21.71100
C  -2.71100 28.16600 20.28200
N  -3.11500 27.07600 26.75800
C  -2.25300 27.77100 25.96100
C  -1.39300 28.55400 26.81700
C  -1.77700 28.26900 28.09800
C  -2.78400 27.33200 27.98100
C  -0.23000 29.53100 26.45500
C  -1.43900 28.53700 29.45100
O  -0.53000 29.23600 29.92100
C  -2.37200 27.64600 30.26200
C  -1.55000 26.79700 31.09500
O  -0.88900 25.77600 30.70600
O  -1.57800 27.34600 32.36500
C  -1.00200 26.46100 33.39100
H  -7.25600 23.00000 28.97700
H  -6.27900 23.99800 22.63000
H  -1.78500 28.42800 24.00800
H  -4.07800 25.23800 31.59900
H  -6.72900 24.50600 31.12300
H  -4.41800 23.03700 31.81000
H  -4.80200 22.27300 30.23600
H  -6.02600 22.44600 31.53100
H  -6.66800 26.66500 31.43300
H  -5.12500 27.61400 31.48300
H  -6.69600 26.81200 33.57600
H  -4.97300 27.33800 33.61700
H  -9.63900 22.59500 27.31400
H  -8.38000 21.52600 27.93700
H  -9.21400 20.98100 26.53000
H  -9.17100 20.61600 24.55900
H  -9.76700 21.00100 22.86200
H  -10.38900 21.97500 24.16500
H  -5.12800 25.94300 21.53900
H  -2.08000 26.22500 21.94700
H  -4.12800 24.68900 19.92000
H  -3.89900 23.56600 21.16000
H  -2.60300 24.82800 20.65900
H  -2.81500 28.91200 22.20900
H  -4.31500 28.08900 21.46100
H  -2.12100 27.28900 20.01900
H  -1.96300 28.95400 20.19400
H  -3.43100 28.52200 19.54500
H  -0.53400 30.24600 25.69100
H  0.62100 28.94000 26.11700
H  0.18500 30.09100 27.29400
H  -3.02300 28.20700 30.93300
H  0.08800 26.47200 33.37200
H  -1.41900 25.46100 33.27900
H  -1.28200 26.74100 34.40600

