158

Mg -1.63200 17.33600 26.51900
C  -1.72300 14.88300 28.98000
C  -2.29400 19.72400 28.86100
C  -1.72500 19.72200 24.00800
C  -1.55400 14.84300 23.98000
N  -1.90100 17.25000 28.65600
C  -1.80100 16.16700 29.52400
C  -1.91200 16.55700 31.00700
C  -2.26700 18.07900 30.89600
C  -2.16900 18.36000 29.41300
C  -3.74600 18.37900 31.34100
C  -0.47400 16.30300 31.66400
C  -0.19500 17.15200 32.88200
H  0.24900 16.36400 34.16600
N  -1.97500 19.43700 26.49700
C  -2.17800 20.24500 27.56600
C  -2.24200 21.64900 27.22100
C  -2.15200 21.62800 25.77300
C  -1.96000 20.22000 25.35800
C  -2.50000 22.78000 28.19100
C  -2.21400 22.72900 24.83500
O  -2.22300 22.61200 23.59600
C  -2.35300 24.15900 25.30300
N  -1.69700 17.32300 24.28400
C  -1.58400 18.44800 23.50600
C  -1.62700 18.12800 21.99100
C  -1.54800 16.49600 22.06500
C  -1.56500 16.20300 23.47900
C  -2.90100 18.56500 21.24100
C  -0.33400 15.80700 21.31200
C  -0.76400 14.96000 20.07700
N  -1.71600 15.33500 26.44000
C  -1.57800 14.44200 25.33600
C  -1.62400 13.09100 25.87300
C  -1.62200 13.22000 27.26400
C  -1.70100 14.57400 27.52900
C  -1.71000 11.83700 25.07600
C  -1.53700 12.47600 28.52900
O  -1.26200 11.27600 28.62500
C  -1.46500 13.55300 29.67700
C  -0.10400 13.35900 30.16100
O  0.87100 14.07600 29.87700
O  -0.09800 12.45600 31.19800
C  1.17900 12.49400 31.97400
H  -2.39500 20.45600 29.66500
H  -1.56300 20.41300 23.17800
H  -1.43700 14.02000 23.27200
H  -2.68200 15.95600 31.49100
H  -1.60700 18.72300 31.47700
H  -4.25300 18.95000 30.56300
H  -3.72200 19.05900 32.19300
H  -4.30500 17.49500 31.64600
H  0.32300 16.29500 30.92100
H  -0.59800 15.27200 31.99500
H  -1.02200 17.75200 33.26100
H  0.65000 17.82600 32.74200
H  -1.65000 23.44100 28.36100
H  -2.71700 22.54700 29.23400
H  -3.33900 23.30200 27.73400
H  -1.68200 24.43600 26.11600
H  -3.36700 24.30100 25.67800
H  -2.31500 24.83100 24.44500
H  -0.75400 18.63800 21.58400
H  -2.47500 16.03500 21.72200
H  -2.66900 19.52400 20.77800
H  -3.79600 18.76900 21.82900
H  -3.23600 17.85300 20.48700
H  0.26200 15.13700 21.93100
H  0.28900 16.60700 20.91100
H  -0.16600 15.24200 19.20900
H  -1.81300 15.10100 19.81600
H  -0.62800 13.95100 20.46400
H  -1.54600 11.93000 24.00200
H  -2.69100 11.44100 25.33800
H  -0.85900 11.24200 25.40800
H  -2.32400 13.19200 30.24200
H  1.02200 12.84100 32.99600
H  1.94400 13.14700 31.55400
H  1.58400 11.48700 32.07900
Mg 9.19900 48.75200 26.08700
C  7.64100 48.94200 29.10700
C  12.21600 49.51700 27.66800
C  10.85400 48.13800 23.15500
C  6.25800 48.09300 24.41400
N  9.83900 49.21500 28.11800
C  9.00600 49.25100 29.23200
C  9.66900 49.68400 30.46600
C  10.99500 50.34900 29.88900
C  11.07700 49.66000 28.48400
C  10.97800 51.89700 29.73500
C  9.93200 48.48700 31.44200
C  9.45400 48.60300 32.86500
H  9.43000 47.23600 33.68600
N  11.23800 48.74300 25.50800
C  12.31700 49.03500 26.31500
C  13.52600 48.86500 25.63900
C  13.19500 48.54300 24.29600
C  11.72300 48.45500 24.26900
C  14.86100 49.03100 26.35200
C  14.14100 48.40700 23.12600
O  13.64600 48.21100 22.05000
C  15.63900 48.44500 23.28200
N  8.62600 48.11400 24.03200
C  9.48200 48.08200 23.02100
C  8.78300 47.68500 21.63300
C  7.27600 47.40900 22.08900
C  7.36800 48.01500 23.56200
C  8.91300 48.75100 20.56100
C  6.72300 45.94800 22.07200
C  5.49400 45.62800 21.19400
N  7.25000 48.71600 26.57300
C  6.12700 48.36100 25.80300
C  4.98500 48.32400 26.72300
C  5.55800 48.45700 27.98200
C  6.92400 48.75000 27.84600
C  3.65200 47.93000 26.26700
C  5.24600 48.36000 29.43400
O  4.17900 48.11900 29.99400
C  6.56100 48.60900 30.20900
C  6.81700 47.36900 30.95400
O  7.34000 46.34200 30.45000
O  6.26200 47.41200 32.25400
C  6.23100 46.16300 33.01700
H  13.06800 49.95400 28.19300
H  11.24200 47.94500 22.15200
H  5.28400 47.81000 24.00900
H  8.97100 50.35400 30.96800
H  11.82000 50.14800 30.57200
H  11.95800 52.23900 30.06800
H  10.21900 52.23200 30.44200
H  10.90400 52.19700 28.69000
H  10.98400 48.37500 31.70600
H  9.72700 47.59700 30.84600
H  8.43200 48.97100 32.77500
H  9.99100 49.33200 33.47100
H  15.51700 49.80600 25.95500
H  15.40000 48.08400 26.36800
H  14.69300 49.32100 27.39000
H  16.14300 47.81400 22.55000
H  16.02500 47.89400 24.14000
H  16.02800 49.46200 23.31700
H  9.24200 46.77700 21.24100
H  6.65000 48.04100 21.45900
H  8.36300 48.47100 19.66300
H  9.95900 48.85600 20.27400
H  8.48300 49.68500 20.92300
H  6.54700 45.53800 23.06600
H  7.53300 45.32800 21.68700
H  4.94600 46.54300 20.96900
H  4.86300 44.92000 21.72900
H  5.89500 45.13300 20.30900
H  3.50800 46.85400 26.37200
H  3.57900 48.15300 25.20300
H  3.00400 48.58400 26.85100
H  6.45300 49.47700 30.86000
H  6.62600 46.42600 33.99900
H  7.01100 45.43400 32.79600
H  5.26100 45.66800 33.05100

