158

Mg 7.85100 2.92200 28.23000
C  9.52900 1.36300 31.05200
C  6.33800 5.08900 30.36100
C  6.42500 4.24400 25.58100
C  9.25600 0.27700 26.19200
N  7.92600 3.15900 30.45200
C  8.71400 2.51700 31.35900
C  8.69500 3.32100 32.66500
C  7.60500 4.45800 32.45400
C  7.20400 4.15300 31.02100
C  6.37900 4.21900 33.44500
C  10.12400 3.76700 33.11300
C  10.61000 3.37900 34.52500
H  10.68600 4.50000 35.61500
N  6.56400 4.41200 27.99400
C  5.97200 5.17600 28.98900
C  5.03700 6.10900 28.42100
C  5.16400 5.99500 27.00400
C  6.07400 4.87300 26.77900
C  4.26800 7.23100 29.25400
C  4.47000 6.79500 25.89700
O  4.72300 6.76200 24.70100
C  3.38600 7.71100 26.27000
N  7.83800 2.36500 26.18500
C  7.26700 3.12100 25.27600
C  7.65200 2.67800 23.85400
C  8.53200 1.41200 24.01800
C  8.53500 1.35300 25.60500
C  6.48900 2.46700 22.85700
C  9.89600 1.64400 23.33400
C  11.09600 2.11200 24.09900
N  9.05200 1.01800 28.56000
C  9.54500 0.10200 27.60500
C  10.39700 -0.89400 28.29800
C  10.45600 -0.44300 29.68800
C  9.68200 0.72600 29.73400
C  10.88900 -2.17900 27.65000
C  11.04300 -0.64600 30.96000
O  11.89200 -1.42000 31.41800
C  10.37300 0.48700 31.94600
C  9.63800 -0.19000 32.94600
O  8.63500 -0.83800 32.80500
O  10.26200 0.00000 34.15100
C  9.59700 -0.49400 35.36700
H  5.95300 5.89100 30.99300
H  6.09500 4.79000 24.69400
H  9.64900 -0.43200 25.46100
H  8.51200 2.46500 33.31500
H  8.05000 5.45100 32.40300
H  5.61600 4.98000 33.27700
H  6.67700 4.22400 34.49300
H  5.94800 3.23500 33.26300
H  10.16600 4.85600 33.09300
H  10.80100 3.45100 32.31900
H  11.68800 3.22500 34.48000
H  10.06100 2.50900 34.88700
H  4.43900 8.21400 28.81700
H  4.38300 7.17300 30.33700
H  3.22700 6.96400 29.07000
H  2.70500 8.03200 25.48100
H  3.88700 8.56400 26.72700
H  2.64300 7.22000 26.89900
H  8.20400 3.57500 23.57300
H  7.98500 0.53300 23.67800
H  5.59800 2.90300 23.30700
H  6.28800 1.40200 22.73500
H  6.76100 2.85100 21.87400
H  9.75000 2.34300 22.51100
H  10.21100 0.78700 22.73800
H  11.63500 2.82800 23.47800
H  11.83300 1.36500 24.39300
H  10.83300 2.60300 25.03600
H  10.08600 -2.52700 27.00100
H  10.82200 -3.01300 28.34800
H  11.91400 -2.06500 27.29900
H  11.15400 1.13800 32.33800
H  9.38300 0.31800 36.06100
H  10.23300 -1.25900 35.81200
H  8.72600 -1.09400 35.10400
Mg 25.42300 1.28300 29.83500
C  27.56100 1.39900 32.66800
C  22.81600 1.36000 32.07700
C  23.30900 1.08900 27.28800
C  28.14900 1.01700 27.76800
N  25.18000 1.26900 32.16600
C  26.20100 1.46600 33.10800
C  25.71400 1.67500 34.53500
C  24.18700 1.54600 34.35000
C  24.01900 1.44400 32.75500
C  23.61300 0.36700 35.19400
C  26.14000 3.08600 35.03500
C  26.85800 3.22000 36.38100
H  26.27400 4.20400 37.36300
N  23.29300 1.13600 29.73200
C  22.42500 1.23300 30.74600
C  21.15900 1.23200 30.22700
C  21.19700 0.99600 28.86100
C  22.65400 1.02500 28.57000
C  19.94700 1.42100 30.98000
C  20.08500 0.85700 27.77100
O  20.39000 0.61200 26.59900
C  18.66800 0.98100 28.07800
N  25.62800 1.02000 27.81700
C  24.67300 1.12900 26.86700
C  25.17500 1.24400 25.42200
C  26.69700 1.29500 25.69500
C  26.83100 1.14000 27.20700
C  24.69900 0.28900 24.33600
C  27.30600 2.50000 25.01100
C  26.90700 3.85000 25.67400
N  27.44200 1.09000 30.12700
C  28.40600 0.92200 29.14300
C  29.67600 0.83300 29.78400
C  29.41000 1.02000 31.20200
C  28.05100 1.16800 31.34200
C  30.93400 0.61900 29.03500
C  30.03200 1.12200 32.45000
O  31.23600 1.21200 32.67200
C  28.85000 1.57600 33.49400
C  28.96200 0.51000 34.65100
O  28.74500 -0.69500 34.55700
O  29.32700 1.16500 35.79300
C  29.90800 0.45200 36.95800
H  21.95900 1.52100 32.73400
H  22.70000 1.21100 26.39000
H  29.03400 0.98500 27.12900
H  26.10100 0.90700 35.20500
H  23.57200 2.42800 34.53200
H  22.84200 -0.14500 34.61800
H  23.04900 0.81900 36.01000
H  24.34900 -0.31700 35.61700
H  25.25000 3.71400 34.99700
H  26.87700 3.46800 34.32700
H  27.79600 3.66100 36.04300
H  27.01600 2.23700 36.82500
H  19.47000 2.31600 30.58100
H  20.10100 1.57800 32.04800
H  19.30300 0.54200 30.99200
H  18.37500 0.20000 28.78000
H  18.13200 0.84500 27.13900
H  18.36400 1.93800 28.50300
H  24.94400 2.26800 25.12900
H  27.20800 0.46300 25.20900
H  24.12300 0.77500 23.54800
H  24.02300 -0.46600 24.73900
H  25.60500 -0.13700 23.90500
H  26.89900 2.50500 24.00000
H  28.39200 2.41800 25.07000
H  26.39900 3.58000 26.60000
H  26.13000 4.33800 25.08500
H  27.73800 4.54500 25.79800
H  31.07400 1.39100 28.27900
H  30.89900 -0.33100 28.50100
H  31.83200 0.64100 29.65100
H  29.16400 2.51300 33.95500
H  30.39700 -0.51900 36.88700
H  29.16100 0.41200 37.75100
H  30.69400 1.08400 37.37100

