158

Mg 43.00400 41.74400 26.09100
C  41.66200 43.97700 28.48500
C  44.35000 39.77300 28.64200
C  44.41000 39.77100 23.75000
C  42.01100 43.95300 23.54500
N  42.88000 41.93000 28.28800
C  42.20400 42.79900 29.09400
C  42.36500 42.49300 30.58800
C  43.53900 41.43600 30.51200
C  43.63800 40.98500 29.06000
C  44.89800 41.85300 31.04100
C  41.03200 42.07000 31.27100
C  41.13800 41.61000 32.76900
H  40.62600 42.59800 33.83700
N  44.22000 39.98700 26.18100
C  44.55300 39.29300 27.29300
C  45.30300 38.13400 26.91200
C  45.32900 38.06300 25.47500
C  44.58500 39.27100 25.07400
C  46.04900 37.24900 27.89800
C  45.87600 37.04900 24.60100
O  45.75900 37.10500 23.35000
C  46.29000 35.75600 25.20300
N  43.25100 41.93800 24.00400
C  43.80900 40.99600 23.27400
C  43.79500 41.32000 21.72200
C  43.01100 42.61900 21.67100
C  42.74100 42.88000 23.12400
C  45.22200 41.48100 21.30100
C  41.76000 42.52900 20.79100
C  40.37500 42.31000 21.41300
N  42.10000 43.58800 25.97500
C  41.68800 44.30000 24.89900
C  41.08700 45.54900 25.36400
C  41.01200 45.46000 26.71700
C  41.58400 44.21600 27.05600
C  40.70400 46.69600 24.52100
C  40.55100 46.07700 27.94300
O  40.00200 47.11800 28.15400
C  40.91300 45.13600 29.08900
C  41.69200 45.88200 30.08500
O  42.75000 46.43800 29.91700
O  41.01400 45.87900 31.24600
C  41.76400 46.35500 32.42000
H  44.63600 39.17200 29.50800
H  44.80400 39.09100 22.99300
H  41.56300 44.55700 22.75300
H  42.66200 43.38500 31.14000
H  43.33000 40.49600 31.02300
H  45.60400 41.79800 30.21300
H  45.16000 41.12200 31.80600
H  44.89900 42.88400 31.39600
H  40.62800 41.23500 30.69900
H  40.43000 42.95900 31.08500
H  42.09700 41.19100 33.07300
H  40.46300 40.75800 32.85200
H  46.96300 36.94800 27.38700
H  45.42600 36.41800 28.23000
H  46.29600 37.80700 28.80100
H  45.48600 35.28000 25.76200
H  47.22400 35.93200 25.73700
H  46.72000 35.15000 24.40600
H  43.38600 40.44000 21.22800
H  43.51400 43.53200 21.35100
H  45.81100 41.88600 22.12400
H  45.25200 42.26000 20.53800
H  45.68000 40.58300 20.88700
H  41.82600 41.61900 20.19400
H  41.68400 43.33700 20.06300
H  39.67800 43.11100 21.16600
H  40.29800 42.08500 22.47700
H  39.92400 41.44100 20.93500
H  41.33600 47.54500 24.78000
H  39.64900 46.94000 24.64200
H  40.95800 46.51900 23.47600
H  39.99400 44.76400 29.54100
H  42.74500 45.88200 32.39100
H  41.22400 46.11700 33.33600
H  41.80400 47.43600 32.55200
Mg 35.88400 48.93900 24.54500
C  36.32700 47.08200 27.56400
C  34.47500 51.46700 26.38300
C  35.31100 50.58000 21.64200
C  37.09000 46.08600 22.68100
N  35.31700 49.18500 26.69400
C  35.72200 48.38900 27.74800
C  35.35300 49.06000 29.12800
C  34.62500 50.38500 28.63000
C  34.85700 50.40600 27.14900
C  33.12100 50.50100 29.07800
C  36.61700 49.37400 30.06000
C  36.20700 49.05900 31.52200
H  35.01500 49.85800 32.20000
N  35.10500 50.71400 24.07300
C  34.49200 51.57900 24.98900
C  34.15700 52.82000 24.30400
C  34.40900 52.64500 22.92200
C  34.95200 51.31600 22.83600
C  33.74500 54.10900 25.00000
C  34.22700 53.66500 21.72200
O  34.50500 53.35300 20.53100
C  33.96200 55.13300 22.00800
N  36.13300 48.41300 22.47500
C  35.85100 49.30200 21.46600
C  35.83900 48.56700 20.11300
C  36.78600 47.31900 20.47600
C  36.64000 47.21000 21.99800
C  34.37700 48.26300 19.61100
C  38.24800 47.51000 20.26900
C  38.92500 46.59200 19.24300
N  36.41200 46.94700 24.94600
C  37.03900 45.94400 24.13000
C  37.48900 44.79300 24.94500
C  37.21200 45.25300 26.25200
C  36.63400 46.58200 26.23400
C  38.18600 43.48100 24.56600
C  37.32100 44.78000 27.58800
O  37.83200 43.72200 28.05700
C  36.78200 45.98800 28.47400
C  35.65100 45.52400 29.31200
O  34.62700 45.13600 28.86800
O  35.99100 45.46800 30.61700
C  35.03000 44.84300 31.56100
H  34.08900 52.27100 27.01300
H  35.14900 51.13300 20.71400
H  37.51700 45.19900 22.20800
H  34.67200 48.38500 29.64800
H  35.18400 51.26100 28.95900
H  32.99200 50.18700 30.11300
H  32.57800 49.94000 28.31800
H  32.87600 51.56300 29.05500
H  36.98100 50.38900 29.90000
H  37.44500 48.72000 29.78500
H  37.17100 49.09100 32.03100
H  35.78800 48.05400 31.48100
H  33.36000 53.82300 25.97900
H  32.97900 54.74900 24.56400
H  34.64800 54.69300 25.17900
H  32.92300 55.29000 22.29800
H  34.22100 55.71900 21.12600
H  34.57500 55.31700 22.89100
H  36.30200 49.21600 19.37000
H  36.28400 46.40600 20.15500
H  33.63700 48.54300 20.36000
H  34.32700 47.23000 19.26600
H  34.26400 48.79900 18.66900
H  38.84000 47.37200 21.17400
H  38.36100 48.52300 19.88200
H  38.18500 46.03300 18.66900
H  39.58100 45.85800 19.71000
H  39.41700 47.27300 18.54800
H  39.20100 43.60900 24.18800
H  37.59400 43.04100 23.76400
H  38.16900 42.83000 25.43900
H  37.56100 46.40300 29.11300
H  35.72400 44.32900 32.22500
H  34.46100 44.09600 31.00600
H  34.36500 45.59300 31.98800

