158

Mg 25.78100 1.69000 29.73700
C  27.88300 1.19400 32.59600
C  23.16700 2.29900 31.79700
C  23.68400 1.29900 27.12900
C  28.43400 0.57700 27.72900
N  25.60200 1.68000 31.93500
C  26.56600 1.50200 32.91700
C  26.07300 2.09500 34.24200
C  24.51900 2.33700 33.96400
C  24.41300 2.04000 32.47000
C  23.51500 1.47400 34.75200
C  26.86800 3.26700 34.81300
C  27.67900 3.01400 36.05300
H  27.18700 3.75300 37.38800
N  23.73500 1.88100 29.47300
C  22.86100 2.08900 30.45300
C  21.59300 2.29300 29.91400
C  21.62600 1.94900 28.53200
C  23.04800 1.67600 28.33300
C  20.38900 2.60100 30.72800
C  20.54800 1.81300 27.57200
O  20.72700 1.36000 26.50100
C  19.11500 2.14800 27.95000
N  26.05300 1.06500 27.72400
C  25.06000 1.03700 26.79700
C  25.61900 0.83600 25.34900
C  27.08800 0.52400 25.52800
C  27.18000 0.77600 27.06100
C  24.83500 -0.15900 24.47600
C  28.05000 1.42600 24.67400
C  28.85700 0.68100 23.58400
N  27.74600 1.02600 30.10000
C  28.67700 0.57700 29.13000
C  29.93500 0.24900 29.80500
C  29.66600 0.52000 31.15000
C  28.32300 0.91000 31.30900
C  31.24800 -0.15200 29.10400
C  30.24700 0.51800 32.46100
O  31.42100 0.31400 32.78500
C  29.15200 1.00600 33.47300
C  29.00900 -0.01200 34.53800
O  28.40000 -1.05000 34.39500
O  29.71700 0.29700 35.65500
C  29.44800 -0.56500 36.80800
H  22.34500 2.56500 32.46500
H  23.05000 1.17100 26.24900
H  29.26100 0.30000 27.07200
H  26.16200 1.23200 34.90200
H  24.33400 3.38900 34.17900
H  24.11600 0.68500 35.20400
H  22.77500 0.95800 34.14000
H  23.16700 2.12300 35.55500
H  26.18600 4.09400 35.00600
H  27.61500 3.52400 34.06200
H  28.71500 3.32700 35.92300
H  27.64000 1.93600 36.20800
H  19.90400 3.40300 30.17200
H  20.59200 3.05000 31.70000
H  19.74400 1.72500 30.79000
H  18.67100 1.53600 28.73500
H  18.52300 2.02000 27.04400
H  18.90600 3.16100 28.29500
H  25.53700 1.86000 24.98500
H  27.29300 -0.53200 25.35000
H  23.88800 -0.40100 24.95900
H  25.40800 -1.07100 24.31100
H  24.57800 0.28600 23.51500
H  28.81700 1.71700 25.39200
H  27.51400 2.29800 24.30000
H  28.23600 0.69900 22.68800
H  29.30600 -0.28200 23.82900
H  29.69800 1.34600 23.38800
H  31.60000 0.67700 28.49000
H  31.13000 -1.05200 28.50100
H  31.98200 -0.38200 29.87600
H  29.43600 1.90400 34.02100
H  30.38300 -0.58400 37.36900
H  29.39800 -1.61700 36.52700
H  28.61300 -0.25400 37.43600
Mg 6.76000 53.38000 41.24600
C  5.81100 49.98500 41.19700
C  9.94700 52.40300 40.32700
C  7.56000 56.59200 40.62700
C  3.34900 54.25100 41.58800
N  7.65900 51.43600 40.63500
C  7.16800 50.17100 40.82400
C  8.13600 49.07300 40.31300
C  9.51500 49.86000 40.61900
C  9.03300 51.34200 40.43100
C  10.18100 49.51500 41.99100
C  8.07200 48.64700 38.79400
C  7.30400 49.67300 37.85500
H  6.64300 49.06500 36.59200
N  8.54400 54.36700 40.60500
C  9.78400 53.78000 40.39400
C  10.76600 54.80400 40.22700
C  10.09400 56.05900 40.40300
C  8.66400 55.72000 40.55700
C  12.21400 54.53900 39.84400
C  10.70200 57.38400 40.38000
O  11.93600 57.45000 40.22000
C  9.96500 58.66000 40.66100
N  5.61600 55.12200 41.16200
C  6.18500 56.36000 40.87600
C  5.16900 57.44900 40.97300
C  3.85900 56.69500 41.17700
C  4.27800 55.26300 41.33400
C  5.56800 58.42600 42.08500
C  2.92200 56.85600 39.94100
C  1.46000 56.98600 40.24900
N  4.91200 52.37500 41.65100
C  3.65800 52.84200 41.78200
C  2.76800 51.74300 41.98800
C  3.59200 50.58900 41.98700
C  4.89300 51.02900 41.59000
C  1.22800 51.78400 42.01200
C  3.63900 49.13700 42.04700
O  2.79700 48.29100 42.27200
C  5.03700 48.67300 41.44200
C  4.78700 47.89200 40.14800
O  4.44100 48.49100 39.12100
O  4.94200 46.52100 40.22600
C  4.61800 45.70900 38.95400
H  10.98100 52.06300 40.23900
H  7.85200 57.64200 40.69400
H  2.28400 54.46700 41.69300
H  8.06700 48.13600 40.86500
H  10.32900 49.48300 40.00000
H  9.56400 48.81400 42.55400
H  10.28000 50.43800 42.56300
H  11.21300 49.17300 41.91900
H  7.63200 47.65000 38.76300
H  9.06000 48.47500 38.36800
H  8.02900 50.39700 37.48200
H  6.66000 50.37900 38.38000
H  12.90600 55.37900 39.77200
H  12.23100 54.12100 38.83800
H  12.54000 53.75100 40.52300
H  9.50100 59.04500 39.75200
H  10.67400 59.41000 41.01200
H  9.25800 58.69800 41.49000
H  5.26100 57.95400 40.01200
H  3.26600 56.90900 42.06600
H  6.55100 58.21700 42.50700
H  4.86700 58.31200 42.91200
H  5.61700 59.47300 41.78600
H  2.99400 55.97200 39.30600
H  3.23700 57.80500 39.50900
H  1.11500 58.00000 40.04600
H  1.21800 56.70300 41.27300
H  1.02300 56.30800 39.51400
H  0.74500 52.73500 42.23600
H  0.86800 51.01700 42.69700
H  0.85600 51.51700 41.02200
H  5.59000 48.06900 42.16100
H  5.43500 45.73100 38.23300
H  3.74200 46.08900 38.42900
H  4.56900 44.68500 39.32500

