158

Mg 0.96600 8.07600 26.32400
C  1.71700 10.28400 29.05000
C  1.24500 5.40000 28.68900
C  0.69400 5.99500 23.80600
C  1.02600 10.76200 24.26100
N  1.45100 7.88200 28.60300
C  1.62600 8.95800 29.48700
C  1.76700 8.47500 30.92100
C  1.87200 6.91100 30.75500
C  1.47900 6.70400 29.27100
C  3.30300 6.35900 30.98400
C  0.53400 8.91700 31.74900
C  0.85000 9.27900 33.24100
H  1.96100 8.60900 34.11900
N  0.90300 5.99600 26.24300
C  0.99400 5.07100 27.28800
C  0.82700 3.78400 26.77600
C  0.70700 3.88400 25.38000
C  0.82100 5.34600 25.06500
C  0.73500 2.53000 27.68500
C  0.67900 2.81700 24.31600
O  0.64500 2.99700 23.07000
C  0.74900 1.43300 24.74100
N  0.95700 8.36300 24.31100
C  0.77900 7.32800 23.47200
C  0.82300 7.81700 22.04400
C  0.53200 9.32000 22.22100
C  0.86200 9.51700 23.70400
C  2.22400 7.51400 21.38400
C  -0.91000 9.75200 22.05700
C  -1.21800 10.38600 20.75000
N  1.34400 10.17800 26.53500
C  1.33300 11.13500 25.64000
C  1.65100 12.51800 26.21800
C  1.80100 12.18200 27.58000
C  1.57200 10.77700 27.73700
C  1.64600 13.77000 25.45300
C  2.07500 12.72600 28.83600
O  2.40400 13.87500 29.10000
C  2.00000 11.53300 29.86400
C  3.30900 11.50500 30.61400
O  4.41100 11.29700 30.14400
O  3.00900 11.72500 31.90200
C  4.10800 11.99900 32.83200
H  1.39100 4.60400 29.42100
H  0.67600 5.38900 22.89800
H  0.91000 11.56700 23.53100
H  2.66100 8.97200 31.29800
H  1.05800 6.52200 31.36700
H  3.99300 7.12200 31.34700
H  3.65000 5.83100 30.09600
H  3.15500 5.61600 31.76800
H  -0.24800 8.16200 31.67400
H  0.07700 9.72400 31.17600
H  -0.03600 9.41200 33.86100
H  1.20800 10.30400 33.13800
H  -0.04100 1.79100 27.49000
H  0.59100 2.75900 28.74100
H  1.68000 1.99500 27.78200
H  1.63200 1.31500 25.36900
H  0.91100 0.81200 23.85900
H  -0.15600 1.04600 25.21000
H  -0.08500 7.38900 21.61800
H  1.16100 9.90100 21.54700
H  2.99100 7.59900 22.15400
H  2.41000 8.12600 20.50200
H  2.03000 6.47700 21.10800
H  -1.24500 10.47700 22.79800
H  -1.62300 8.93200 22.14000
H  -0.36200 10.15600 20.11600
H  -1.44600 11.43900 20.91200
H  -2.02600 9.96400 20.15300
H  0.59800 13.90200 25.18300
H  2.32900 13.75200 24.60400
H  1.97400 14.60400 26.07400
H  1.20000 11.82300 30.54400
H  4.86900 12.50100 32.23400
H  4.70000 11.18900 33.25800
H  3.81600 12.70800 33.60700
Mg 25.85800 0.83600 29.15700
C  27.92500 0.01100 31.85900
C  23.36600 1.20600 31.46000
C  23.84600 1.67000 26.63900
C  28.41300 0.13700 26.91300
N  25.67500 0.63600 31.54800
C  26.69000 0.43300 32.39300
C  26.13300 0.53200 33.81200
C  24.63300 0.94000 33.69700
C  24.50900 0.85500 32.18900
C  23.67000 0.09200 34.47000
C  26.99800 1.49300 34.67600
C  26.41000 2.39000 35.80700
H  27.18600 2.41600 37.11300
N  23.86500 1.28800 29.04300
C  23.00300 1.38600 30.10100
C  21.71500 1.72100 29.54800
C  21.77900 1.96700 28.11800
C  23.20200 1.64500 27.87800
C  20.45600 1.73500 30.46200
C  20.66800 2.32300 27.06800
O  20.87300 2.21300 25.88300
C  19.27900 2.78400 27.45600
N  26.15000 1.08200 26.98200
C  25.10900 1.35800 26.20600
C  25.54000 1.31500 24.71500
C  27.00500 0.85900 24.85900
C  27.20900 0.65900 26.32500
C  24.63300 0.53800 23.76300
C  28.06700 1.80800 24.23300
C  28.14000 3.19200 24.86100
N  27.74400 0.19700 29.30500
C  28.61900 -0.10400 28.29300
C  29.85300 -0.43800 28.95200
C  29.67700 -0.44700 30.29700
C  28.30300 -0.02300 30.49700
C  31.15400 -0.85600 28.20900
C  30.27300 -0.62300 31.62500
O  31.40500 -0.72600 31.97300
C  29.13900 -0.38900 32.62600
C  28.92000 -1.63100 33.35000
O  28.45400 -2.62300 32.88700
O  29.14400 -1.36400 34.71900
C  28.55500 -2.37400 35.61500
H  22.51100 1.41400 32.10800
H  23.12400 1.94900 25.86900
H  29.23900 -0.05300 26.22500
H  26.21900 -0.45300 34.26900
H  24.42700 1.99200 33.89800
H  23.52800 -0.82300 33.89500
H  22.71800 0.53000 34.77000
H  24.13300 -0.21200 35.40900
H  27.31000 2.31400 34.03100
H  27.71800 0.94000 35.27900
H  25.38200 2.06300 35.96500
H  26.33300 3.42500 35.47200
H  20.60900 1.18600 31.39100
H  19.64000 1.22600 29.95000
H  20.17500 2.76800 30.67000
H  19.32900 3.24800 28.44100
H  18.64700 1.90000 27.54100
H  18.97800 3.50800 26.69900
H  25.65600 2.36900 24.46500
H  27.06000 -0.14300 24.43400
H  25.01700 -0.43400 23.45500
H  24.61800 1.16400 22.87100
H  23.68700 0.20000 24.18500
H  27.75000 1.86900 23.19200
H  28.99600 1.27500 24.03500
H  27.51700 3.76500 24.17500
H  29.16200 3.56900 24.89500
H  27.71600 3.28800 25.86100
H  31.42900 -0.12500 27.44900
H  30.93500 -1.78800 27.68700
H  31.89600 -1.15700 28.94900
H  29.40400 0.45500 33.26200
H  29.21000 -2.68200 36.43000
H  28.39800 -3.33600 35.12600
H  27.55000 -2.03900 35.86900

