158

Mg 24.45900 -4.94700 44.88800
C  26.65100 -2.74000 43.36200
C  21.98000 -3.80200 42.83800
C  22.76000 -7.75800 45.59000
C  27.24200 -6.32200 46.61100
N  24.38500 -3.55200 43.34800
C  25.39900 -2.69800 42.87700
C  24.94900 -1.95800 41.57900
C  23.42700 -1.87800 41.78000
C  23.24300 -3.20000 42.68200
C  22.97000 -0.50500 42.26000
C  25.46600 -2.72500 40.29600
C  26.28200 -2.03500 39.16400
H  25.93000 -2.42300 37.69000
N  22.58900 -5.61000 44.33300
C  21.70400 -4.93800 43.56000
C  20.50300 -5.68900 43.57100
C  20.64500 -6.88600 44.34900
C  22.05800 -6.79800 44.76500
C  19.29000 -5.21800 42.71400
C  19.60700 -7.95200 44.67900
O  18.45000 -7.92500 44.28300
C  19.87800 -9.13500 45.61600
N  25.02000 -6.85800 45.84000
C  24.06100 -7.77400 46.07500
C  24.68500 -8.94500 46.98600
C  26.06500 -8.35300 47.30700
C  26.09900 -7.07600 46.53800
C  23.78400 -9.27300 48.20800
C  27.23800 -9.33400 46.89400
C  27.72000 -10.21700 48.12100
N  26.46200 -4.52000 45.10900
C  27.41300 -5.12400 45.89200
C  28.73400 -4.43500 45.75500
C  28.47700 -3.45200 44.75400
C  27.13100 -3.53400 44.39600
C  29.86700 -4.86300 46.45200
C  29.12800 -2.42900 43.93100
O  30.24600 -2.02500 43.84000
C  27.89600 -1.92600 42.97800
C  27.75100 -0.52200 43.04800
O  27.01600 0.05800 43.78400
O  28.58300 0.13300 42.24900
C  28.49200 1.65400 42.18800
H  21.11200 -3.38900 42.32100
H  22.27500 -8.72700 45.72200
H  28.09600 -6.68000 47.18900
H  25.49400 -1.01500 41.53300
H  22.92500 -2.10900 40.84000
H  22.76500 -0.62800 43.32300
H  22.04800 -0.29800 41.71600
H  23.72700 0.24000 42.01600
H  24.71500 -3.33900 39.79900
H  26.07000 -3.53200 40.71200
H  27.33000 -2.30100 39.30200
H  26.26400 -0.94800 39.24400
H  18.61900 -6.02700 42.42700
H  19.51500 -4.70000 41.78100
H  18.62300 -4.57000 43.28200
H  20.34600 -8.77700 46.53300
H  20.52100 -9.86200 45.11800
H  18.94900 -9.63700 45.88600
H  24.71900 -9.77100 46.27600
H  26.19300 -8.17400 48.37500
H  22.94900 -8.57300 48.22800
H  24.34600 -9.15700 49.13500
H  23.38900 -10.26900 48.01000
H  28.05400 -8.80800 46.39800
H  26.90400 -10.10000 46.19500
H  27.56800 -11.25600 47.82700
H  27.07100 -10.05300 48.98100
H  28.72800 -10.04100 48.49800
H  30.29400 -5.78900 46.06800
H  29.59800 -5.15500 47.46700
H  30.65300 -4.11000 46.38400
H  28.16000 -2.04200 41.92700
H  29.44500 2.05100 41.83700
H  28.23200 2.21700 43.08400
H  27.81700 1.82400 41.34900
Mg 0.44300 43.23200 26.40200
C  2.71800 43.50700 29.10800
C  -2.12500 42.75000 28.68800
C  -1.52500 42.96900 23.79800
C  3.16900 43.67000 24.24200
N  0.34000 43.25600 28.62200
C  1.39200 43.36800 29.48500
C  0.83300 43.44000 30.95100
C  -0.64700 42.95400 30.76800
C  -0.86000 43.00100 29.26000
C  -1.07600 41.57600 31.36600
C  0.98000 44.88200 31.56400
C  1.04300 44.97300 33.09200
H  0.75700 43.67100 33.86200
N  -1.43600 42.80800 26.26600
C  -2.36200 42.72600 27.31600
C  -3.72300 42.58600 26.70800
C  -3.57000 42.56700 25.24200
C  -2.15100 42.76200 25.03100
C  -4.95400 42.36000 27.66500
C  -4.66500 42.50900 24.25600
O  -4.48600 42.46700 23.04300
C  -6.09600 42.61800 24.67000
N  0.86200 42.93900 24.19800
C  -0.18500 43.09500 23.37600
C  0.24000 43.14000 21.88800
C  1.73600 43.67000 22.02600
C  1.97400 43.41000 23.53100
C  -0.05100 41.79900 21.17100
C  1.97900 45.17100 21.71900
C  3.24000 45.58700 20.97200
N  2.46500 43.45400 26.64100
C  3.44200 43.56600 25.61900
C  4.76300 43.67100 26.27300
C  4.53600 43.61100 27.63900
C  3.09200 43.56900 27.79700
C  6.03800 44.02600 25.59300
C  5.11100 43.57300 28.89500
O  6.27500 43.52900 29.17900
C  3.96600 43.42700 29.94100
C  4.22100 42.10900 30.73100
O  4.32400 40.95800 30.26100
O  4.24000 42.41100 32.08200
C  4.23500 41.32500 33.02600
H  -2.98600 42.50000 29.31000
H  -2.24400 42.81700 22.99000
H  4.08000 43.84100 23.66500
H  1.39000 42.76000 31.59500
H  -1.36000 43.61300 31.26400
H  -1.94800 41.63700 32.01700
H  -0.22100 41.21300 31.93700
H  -1.32900 41.00900 30.47000
H  0.19300 45.39700 31.01300
H  1.93800 45.20200 31.15600
H  0.37700 45.74200 33.48400
H  2.00400 45.38700 33.39800
H  -5.89500 42.42800 27.11900
H  -4.99200 43.14600 28.42000
H  -4.91000 41.40300 28.18500
H  -6.77700 42.75500 23.83100
H  -6.18100 43.46100 25.35600
H  -6.29300 41.77300 25.33000
H  -0.51700 43.77900 21.43300
H  2.44900 43.01400 21.52700
H  -0.44900 41.95000 20.16800
H  -0.74800 41.18900 21.74600
H  0.86900 41.24700 20.97700
H  1.96600 45.77300 22.62800
H  1.08400 45.53700 21.21500
H  3.14000 45.56700 19.88600
H  4.07200 45.02000 21.38800
H  3.52000 46.59400 21.27900
H  6.64100 44.75400 26.13500
H  5.96700 44.53500 24.63200
H  6.71100 43.20300 25.35500
H  4.06900 44.22800 30.67300
H  5.19500 40.84300 32.83900
H  3.45700 40.60400 32.77500
H  4.36000 41.67500 34.05100

