158

Mg 35.54500 48.47500 25.31300
C  36.02300 46.48700 28.20100
C  34.43800 50.95100 27.28600
C  34.62000 49.94700 22.52100
C  36.90900 45.78100 23.35000
N  35.27100 48.68100 27.52600
C  35.57200 47.80000 28.51200
C  35.23900 48.39900 29.94700
C  34.77100 49.80200 29.57500
C  34.80600 49.81100 27.99300
C  33.41800 50.20400 30.20500
C  36.50500 48.48000 30.90700
C  36.26000 48.37200 32.41600
H  34.85300 48.64800 32.87500
N  34.80700 50.29600 24.91600
C  34.34400 51.17800 25.86600
C  33.85000 52.37400 25.15200
C  33.90600 52.11800 23.74700
C  34.43900 50.74200 23.65300
C  33.62500 53.66700 25.84800
C  33.70600 52.97200 22.51400
O  33.95900 52.63700 21.34000
C  33.21700 54.42800 22.61400
N  35.76100 47.95000 23.19600
C  35.22400 48.76200 22.24100
C  35.61700 48.18100 20.82700
C  36.62100 46.98300 21.11000
C  36.45500 46.86700 22.65500
C  34.34400 47.95000 19.99200
C  38.10800 47.13700 20.66900
C  38.93300 48.23800 21.35700
N  36.30900 46.53400 25.64500
C  36.75300 45.51000 24.77500
C  36.93000 44.29700 25.47000
C  36.61800 44.62200 26.83600
C  36.32300 46.02200 26.86400
C  37.34900 43.01500 24.79900
C  36.52600 44.00900 28.18700
O  36.57000 42.87700 28.57400
C  36.21300 45.28200 29.14700
C  35.07200 44.83000 29.95700
O  33.93200 44.82100 29.55900
O  35.36600 44.53300 31.20600
C  34.33300 44.42500 32.18500
H  34.21600 51.76700 27.97700
H  34.29600 50.29200 21.53600
H  37.42500 45.05300 22.72200
H  34.37700 47.89100 30.38000
H  35.50700 50.49900 29.97900
H  33.47000 51.18000 30.69000
H  33.01300 49.41700 30.84100
H  32.67300 50.32500 29.41900
H  37.08300 49.34300 30.57600
H  37.09000 47.58100 30.71300
H  36.97100 49.09600 32.81200
H  36.65900 47.40200 32.71400
H  34.16800 54.46700 25.34500
H  34.22100 53.52100 26.74900
H  32.58300 53.94700 25.99800
H  34.11300 55.04800 22.62000
H  32.56100 54.55300 23.47600
H  32.48400 54.57500 21.82100
H  36.05100 49.04200 20.31800
H  36.17400 46.09100 20.67100
H  33.85200 48.90400 19.80300
H  33.70400 47.25400 20.53400
H  34.79100 47.62100 19.05400
H  37.91100 47.51600 19.66600
H  38.65300 46.20400 20.53000
H  39.92200 47.88600 21.65300
H  38.43600 48.54000 22.27900
H  39.17000 49.08100 20.70900
H  36.60300 42.57600 24.13600
H  37.61300 42.45300 25.69500
H  38.30500 43.16400 24.29800
H  37.07800 45.50700 29.77100
H  33.45700 43.90300 31.80100
H  34.06000 45.43400 32.49500
H  34.74100 43.84800 33.01500
Mg 26.07000 49.51000 26.79000
C  24.23600 50.73600 29.45000
C  28.55400 48.62900 29.08800
C  28.24900 49.02900 24.25400
C  23.73600 50.75000 24.54000
N  26.24100 49.53000 29.08400
C  25.36600 50.03200 29.92800
C  25.79100 49.66300 31.38700
C  27.20000 49.11400 31.17100
C  27.39200 49.11700 29.67300
C  28.37400 49.75000 31.89500
C  24.68000 48.63800 31.97400
C  24.35800 48.94800 33.42900
H  25.30900 49.47400 34.48300
N  28.06700 48.86800 26.69600
C  28.92300 48.58100 27.72000
C  30.20000 48.12800 27.23000
C  30.13600 48.20300 25.81400
C  28.80500 48.71100 25.51700
C  31.30800 47.62000 28.13600
C  31.24800 47.95200 24.79900
O  30.99100 48.01500 23.60800
C  32.63900 47.64300 25.10600
N  25.96700 49.85900 24.60500
C  26.94400 49.48800 23.79800
C  26.46800 49.45900 22.39200
C  25.05700 50.06800 22.47200
C  24.86200 50.14700 23.91300
C  27.42500 49.93800 21.30500
C  23.99000 49.24500 21.71200
C  23.11300 49.88300 20.59600
N  24.39600 50.50600 26.91500
C  23.53800 50.93000 25.88700
C  22.46500 51.65000 26.47600
C  22.70200 51.62800 27.89200
C  23.92500 50.94500 28.11100
C  21.42100 52.26700 25.76100
C  22.12500 52.02400 29.18600
O  21.14900 52.66400 29.52800
C  23.05500 51.35800 30.35000
C  23.46400 52.47200 31.26800
O  24.30200 53.32900 31.13700
O  22.92700 52.13300 32.47700
C  23.36200 53.06100 33.55600
H  29.22800 48.17900 29.82000
H  28.93800 48.80400 23.43800
H  22.93000 51.06200 23.87300
H  25.83600 50.49700 32.08700
H  27.29800 48.05000 31.38600
H  27.82800 50.37100 32.60500
H  28.97600 50.39800 31.25900
H  28.91900 48.91700 32.33900
H  25.13600 47.65400 31.87200
H  23.80600 48.69900 31.32500
H  24.08300 47.92500 33.68400
H  23.45200 49.55000 33.50700
H  31.97800 47.11900 27.43700
H  31.09100 46.78300 28.80000
H  31.90100 48.37000 28.65900
H  33.07700 48.32600 25.83300
H  33.22300 47.71300 24.18800
H  32.72000 46.57500 25.30900
H  26.36600 48.38200 22.26100
H  25.15700 51.05800 22.02600
H  28.08100 50.72800 21.67100
H  26.88000 50.32700 20.44400
H  27.92100 49.06900 20.87300
H  23.36200 48.76800 22.46500
H  24.52100 48.37900 21.31700
H  23.62300 50.76500 20.20700
H  22.07400 50.07400 20.86600
H  23.14900 49.19300 19.75300
H  21.03000 51.67200 24.93600
H  21.78400 53.19000 25.30900
H  20.67400 52.45600 26.53100
H  22.59000 50.52400 30.87600
H  23.92600 52.52400 34.31800
H  22.46300 53.40600 34.06500
H  23.78700 54.01200 33.23600

