158

Mg -0.14500 7.90000 26.58600
C  0.62300 9.81900 29.30500
C  -0.60200 5.23500 28.71000
C  -0.84800 6.07800 23.80900
C  0.48200 10.72900 24.56200
N  -0.19900 7.66100 28.82400
C  0.18200 8.57500 29.79800
C  -0.05400 8.05500 31.19800
C  -0.35100 6.50300 31.02200
C  -0.37500 6.41200 29.43000
C  0.62500 5.48000 31.59800
C  -1.19900 8.78900 31.99500
C  -0.86400 8.93200 33.40100
H  -1.00100 7.67500 34.24200
N  -0.62200 5.90400 26.32300
C  -0.80100 4.99000 27.27900
C  -1.15400 3.76700 26.67400
C  -1.14000 3.87300 25.25400
C  -0.92300 5.35600 25.06800
C  -1.58300 2.47300 27.45600
C  -1.20500 2.88100 24.12400
O  -1.10300 3.20800 22.96300
C  -1.26800 1.37300 24.38100
N  -0.40300 8.39800 24.52700
C  -0.41000 7.41400 23.58200
C  -0.04500 7.95300 22.18900
C  -0.07700 9.46700 22.43800
C  0.01100 9.56700 23.98200
C  1.26800 7.41700 21.65500
C  -1.37300 10.14800 21.92000
C  -1.31600 11.64300 21.44900
N  0.44900 9.89000 26.82000
C  0.70600 10.90500 25.89900
C  1.20000 12.09200 26.55000
C  1.26000 11.68700 27.95100
C  0.70800 10.35100 28.04100
C  1.56100 13.39300 25.95900
C  1.60900 12.16100 29.24300
O  2.04100 13.22300 29.67900
C  1.08100 11.03300 30.18400
C  2.18800 10.72700 31.12500
O  3.05300 9.93200 30.95400
O  1.98200 11.49900 32.28500
C  2.97700 11.45200 33.31800
H  -0.78800 4.42300 29.41600
H  -0.76700 5.39900 22.95800
H  0.81500 11.46800 23.83000
H  0.91300 8.14800 31.69400
H  -1.38300 6.31400 31.32000
H  1.51400 5.89400 32.07300
H  0.95500 4.82200 30.79500
H  0.12800 4.90900 32.38300
H  -2.09800 8.21200 31.77700
H  -1.39500 9.71800 31.46100
H  -1.47600 9.70900 33.85800
H  0.15800 9.30900 33.36200
H  -2.58600 2.13300 27.19700
H  -1.63500 2.69200 28.52200
H  -0.78100 1.73700 27.39600
H  -0.55400 1.09500 25.15600
H  -1.05300 0.94200 23.40400
H  -2.29900 1.18800 24.68300
H  -0.80600 7.58200 21.50300
H  0.73800 10.06900 22.03600
H  1.77000 8.24900 21.16100
H  1.24200 6.55200 20.99200
H  1.86200 7.09000 22.50800
H  -2.09800 10.16500 22.73400
H  -1.77400 9.51800 21.12600
H  -1.55500 11.78500 20.39500
H  -0.34300 12.09400 21.64300
H  -2.04700 12.27500 21.95200
H  2.34300 13.93500 26.49200
H  0.65900 13.99300 26.08200
H  1.85700 13.25300 24.92000
H  0.20900 11.40100 30.72500
H  3.46200 12.42800 33.35300
H  3.70600 10.66700 33.11800
H  2.54500 11.18800 34.28300
Mg 16.20100 -1.83600 27.96200
C  15.01700 0.22700 30.44600
C  18.11100 -3.52400 30.31800
C  17.54600 -3.70200 25.44400
C  14.54700 0.15200 25.60400
N  16.66200 -1.50000 30.04400
C  15.91700 -0.69100 30.90800
C  16.32500 -0.95700 32.38000
C  17.46200 -1.98500 32.26800
C  17.38100 -2.39700 30.79500
C  18.89200 -1.41200 32.56300
C  15.17000 -1.44000 33.25100
C  15.31800 -1.21300 34.75400
H  16.47100 -0.39000 35.31900
N  17.60900 -3.47200 27.88400
C  18.24500 -4.08400 28.97300
C  19.16700 -5.16100 28.45500
C  18.92100 -5.25400 27.07300
C  18.04000 -4.14400 26.70300
C  20.20200 -5.76700 29.30300
C  19.41300 -6.26500 26.01800
O  19.02900 -6.19000 24.86200
C  20.34700 -7.34600 26.36600
N  16.14100 -1.76800 25.95200
C  16.80300 -2.61400 25.07900
C  16.55100 -2.25400 23.60300
C  15.38100 -1.28300 23.69300
C  15.33400 -0.92100 25.20100
C  17.84200 -1.82700 22.82700
C  14.01900 -1.74300 23.10100
C  13.65100 -1.15000 21.72600
N  14.98100 -0.11900 27.98000
C  14.32000 0.52700 26.95900
C  13.42000 1.55600 27.57400
C  13.72900 1.54300 28.92000
C  14.70200 0.47200 29.11500
C  12.41600 2.44400 26.83500
C  13.35100 2.08900 30.18100
O  12.53300 2.99300 30.47400
C  14.17600 1.26700 31.17800
C  14.93400 2.13800 32.06800
O  16.06600 2.59100 31.99500
O  14.14200 2.52100 33.11000
C  14.74400 3.34800 34.12300
H  18.68400 -4.15900 30.99700
H  17.97700 -4.23600 24.59500
H  13.99000 0.63700 24.80000
H  16.68300 -0.06800 32.90000
H  17.23200 -2.80300 32.95100
H  19.19800 -2.00100 33.42800
H  18.84600 -0.36200 32.85300
H  19.47700 -1.45300 31.64400
H  15.13700 -2.52900 33.20600
H  14.21500 -1.04800 32.90400
H  15.45200 -2.16500 35.26600
H  14.41800 -0.70000 35.09400
H  21.14000 -6.04800 28.82300
H  19.86800 -6.60600 29.91300
H  20.54700 -5.02600 30.02400
H  20.07300 -7.96700 27.21800
H  21.35500 -6.94200 26.46500
H  20.24300 -7.98400 25.48800
H  16.19400 -3.19200 23.17900
H  15.71100 -0.39000 23.16100
H  18.03100 -2.24400 21.83800
H  18.63500 -2.18100 23.48600
H  17.89700 -0.74200 22.74200
H  13.12800 -1.57900 23.70600
H  14.05400 -2.82000 22.93200
H  14.48600 -1.28300 21.03800
H  13.51700 -0.07600 21.86000
H  12.73200 -1.57000 21.31800
H  12.22000 2.03500 25.84400
H  12.95100 3.33600 26.51000
H  11.53300 2.69600 27.42300
H  13.48300 0.69600 31.79500
H  14.01500 3.41700 34.93000
H  14.89900 4.38400 33.82200
H  15.60600 2.94300 34.65300

