158

Mg 46.61800 24.70400 29.53700
C  47.26700 26.95900 32.14900
C  46.12600 22.26200 31.89000
C  46.69100 22.44000 27.10900
C  47.71400 27.27900 27.33100
N  46.60100 24.62700 31.77100
C  46.88300 25.69500 32.63600
C  46.67700 25.19500 34.05100
C  46.55200 23.65900 33.93700
C  46.37500 23.51000 32.42900
C  47.61500 22.83900 34.72300
C  45.40900 25.99300 34.61900
C  45.58900 26.44600 36.13600
H  44.42400 26.13500 37.11000
N  46.34700 22.63200 29.51300
C  46.02400 21.81800 30.56600
C  45.83700 20.47500 30.12100
C  46.05600 20.47600 28.73000
C  46.35100 21.91500 28.39000
C  45.50600 19.34000 31.10300
C  46.10500 19.27200 27.79800
O  46.57800 19.36800 26.66700
C  45.56600 17.96800 28.29700
N  47.14200 24.86500 27.56400
C  47.06200 23.71200 26.75200
C  47.47100 24.16500 25.32200
C  47.40100 25.68700 25.33700
C  47.41700 25.97200 26.83300
C  48.86500 23.51500 24.91600
C  46.20300 26.28900 24.59100
C  44.75300 26.11200 25.20400
N  47.21100 26.84900 29.62900
C  47.67100 27.73400 28.67300
C  48.18200 28.95400 29.30500
C  47.94600 28.71900 30.67300
C  47.43500 27.41100 30.79300
C  48.78100 30.17900 28.59400
C  48.13500 29.30700 31.94900
O  48.52700 30.40200 32.31500
C  47.74000 28.14400 33.01800
C  48.96200 27.59300 33.77100
O  50.06800 27.34300 33.32300
O  48.71100 27.56500 35.06900
C  49.71700 27.86000 36.08900
H  45.86900 21.51700 32.64600
H  46.67600 21.81000 26.21700
H  47.85600 28.02900 26.55000
H  47.54600 25.41400 34.67100
H  45.61000 23.37400 34.40500
H  48.35800 23.45400 35.23100
H  48.11300 22.25600 33.94800
H  47.03200 22.22900 35.41200
H  44.55400 25.34700 34.42000
H  45.11400 26.86700 34.04000
H  45.67600 27.52900 36.21800
H  46.48100 26.07200 36.63800
H  45.60700 19.57800 32.16200
H  46.23300 18.58900 30.79300
H  44.50300 18.94200 30.95400
H  45.35600 17.48400 27.34300
H  44.68700 18.11500 28.92500
H  46.38600 17.50400 28.84600
H  46.62900 23.83100 24.71700
H  48.29000 26.24100 25.03400
H  48.61800 22.64800 24.30400
H  49.46400 23.28100 25.79600
H  49.37300 24.23700 24.27500
H  46.22400 26.13600 23.51200
H  46.43600 27.35000 24.50900
H  44.74300 25.70700 26.21600
H  44.11200 25.40500 24.67700
H  44.33000 27.11000 25.32200
H  48.21200 31.08300 28.81000
H  48.83200 30.11200 27.50700
H  49.78000 30.16000 29.02900
H  46.96100 28.48900 33.69800
H  50.72400 27.55000 35.80800
H  49.49900 27.23100 36.95200
H  49.55900 28.90800 36.34500
Mg 16.35400 51.65400 25.64000
C  18.07800 50.65200 28.50100
C  13.64300 52.30400 27.59300
C  14.60100 51.81600 22.89400
C  19.08000 50.47100 23.67400
N  15.95300 51.52100 27.86900
C  16.84600 51.17800 28.83800
C  16.21500 51.30000 30.17900
C  14.69800 51.65100 29.91700
C  14.71800 51.83700 28.35100
C  13.65200 50.59200 30.43100
C  17.01100 52.26400 31.04200
C  16.94500 52.11900 32.56500
H  15.92900 51.28100 33.27700
N  14.49100 52.11900 25.33000
C  13.52000 52.39600 26.22400
C  12.28200 52.81000 25.60400
C  12.47900 52.52500 24.23300
C  13.91800 52.12500 24.12300
C  11.07600 53.33200 26.38800
C  11.47000 52.52700 23.09400
O  11.74200 52.19600 21.94700
C  10.09800 52.88300 23.42100
N  16.76000 51.08800 23.54900
C  15.85200 51.40800 22.59200
C  16.42700 51.19700 21.18300
C  17.91900 50.96400 21.48100
C  17.99800 50.89300 22.99100
C  15.72000 50.05300 20.40900
C  18.85200 52.08900 20.80200
C  20.18000 51.56300 20.14800
N  18.24500 50.82900 25.92800
C  19.20700 50.39700 25.09500
C  20.30900 49.71300 25.83500
C  19.87000 49.74900 27.13300
C  18.65400 50.48900 27.14300
C  21.46300 48.93500 25.26900
C  20.27500 49.43400 28.49500
O  21.33000 48.91900 28.93000
C  19.10500 49.93700 29.45400
C  18.61800 48.81300 30.32400
O  17.96000 47.88500 29.93300
O  19.03300 48.97200 31.61900
C  18.41300 48.05000 32.58000
H  12.79700 52.45500 28.26700
H  14.05400 52.01000 21.96900
H  19.95100 50.16200 23.09100
H  16.30100 50.34300 30.69400
H  14.45800 52.61400 30.36800
H  12.82800 51.15200 30.87300
H  14.07700 49.90400 31.16200
H  13.35700 50.02500 29.54900
H  16.65500 53.27000 30.81700
H  18.03400 52.32000 30.67100
H  16.62400 53.04900 33.03500
H  17.94100 51.86800 32.92900
H  10.75000 54.27800 25.95500
H  11.36500 53.50300 27.42500
H  10.21600 52.67800 26.52600
H  9.93300 53.82600 23.94200
H  9.60700 52.07300 23.96000
H  9.46800 53.03400 22.54500
H  16.36500 52.13800 20.63600
H  18.19500 49.98300 21.09400
H  16.46100 49.59600 19.75300
H  14.88300 50.47600 19.85300
H  15.14800 49.37900 21.04600
H  19.11700 52.94300 21.42500
H  18.33500 52.45300 19.91300
H  20.68400 50.70800 20.59700
H  20.93900 52.31700 20.35900
H  19.99600 51.31000 19.10400
H  22.36900 49.51800 25.10500
H  21.18200 48.40700 24.35800
H  21.78100 48.12700 25.92800
H  19.63500 50.65900 30.07500
H  17.32400 48.01700 32.58700
H  18.76400 48.31800 33.57600
H  18.84500 47.05800 32.44600

