158

Mg 1.59400 8.36000 26.17300
C  1.74500 10.54400 28.86500
C  2.34300 5.77800 28.31900
C  1.50000 6.43300 23.47400
C  1.72500 11.16900 24.05200
N  2.02900 8.17900 28.32400
C  1.91400 9.20800 29.26900
C  1.84300 8.68400 30.74000
C  2.12100 7.14900 30.54500
C  2.17200 6.97700 28.97600
C  3.44400 6.65200 31.16300
C  0.51500 9.02500 31.37500
C  0.35500 8.94900 32.86700
H  1.51600 8.30300 33.67500
N  1.96100 6.39800 25.94900
C  2.32300 5.52800 26.91900
C  2.56900 4.22700 26.20800
C  2.45000 4.43300 24.79100
C  1.90500 5.76400 24.67100
C  2.79200 2.99300 26.98200
C  2.64700 3.51100 23.67100
O  2.54100 3.75400 22.46100
C  3.08700 2.10800 24.01900
N  1.43400 8.76100 24.08100
C  1.37000 7.76500 23.16900
C  1.25700 8.23200 21.72500
C  1.25600 9.84500 21.94800
C  1.46600 9.95300 23.47900
C  2.38500 7.77100 20.73900
C  -0.08400 10.59200 21.54800
C  0.00100 12.04200 20.91400
N  1.64500 10.46500 26.40600
C  1.79400 11.47700 25.46000
C  1.87600 12.72500 26.11500
C  1.83400 12.44700 27.49000
C  1.75700 11.03000 27.58300
C  2.03700 14.08100 25.50400
C  1.90300 13.01800 28.79600
O  2.03000 14.21600 29.05500
C  1.70900 11.81100 29.77400
C  2.88900 11.96100 30.64000
O  4.05200 12.21900 30.38600
O  2.49600 11.75100 31.97700
C  3.49400 12.01500 33.06400
H  2.60700 4.97900 29.01600
H  1.48600 5.87000 22.53800
H  1.91000 11.97000 23.33300
H  2.69000 9.15400 31.24000
H  1.37800 6.52600 31.04300
H  3.99400 7.46600 31.63500
H  4.06900 6.13700 30.43300
H  3.25300 5.84100 31.86500
H  -0.25000 8.40900 30.90300
H  0.19600 10.04500 31.16000
H  -0.64800 8.55600 33.03800
H  0.20600 9.90500 33.36800
H  2.62500 3.28800 28.01800
H  3.81300 2.61100 26.99100
H  2.07400 2.22300 26.69900
H  3.21800 1.53900 23.09900
H  2.27000 1.66300 24.58800
H  3.99800 2.12600 24.61700
H  0.26200 7.94600 21.38500
H  2.06900 10.41900 21.50200
H  3.23700 7.30200 21.23000
H  2.69900 8.56600 20.06300
H  1.82300 7.06300 20.12900
H  -0.84300 10.48500 22.32300
H  -0.50200 10.02900 20.71300
H  0.83800 12.12800 20.22100
H  0.25600 12.69000 21.75300
H  -0.93300 12.37600 20.46200
H  2.73500 14.70200 26.06600
H  1.08500 14.60600 25.57700
H  2.41000 13.99900 24.48300
H  0.72200 11.77300 30.23700
H  3.08500 12.51800 33.94000
H  4.42900 12.53700 32.86000
H  3.80300 11.03400 33.42300
Mg 7.08800 56.84700 41.81700
C  5.91400 53.63500 41.43200
C  10.18500 55.63800 40.73300
C  8.11900 60.04600 41.20600
C  3.82300 57.96700 42.39100
N  7.88000 54.89900 41.14500
C  7.20700 53.71300 40.99700
C  8.04500 52.59000 40.50400
C  9.48100 53.19700 40.72200
C  9.20000 54.69800 40.94400
C  10.30000 52.44900 41.82800
C  7.79100 52.22200 39.04800
C  8.28800 50.85100 38.59500
H  7.53000 50.07600 37.48600
N  8.83500 57.76800 41.03600
C  10.01000 57.07400 40.63900
C  10.90000 58.01100 39.93100
C  10.33300 59.32200 39.98700
C  9.02800 59.11100 40.76000
C  12.10300 57.52800 39.26300
C  10.86100 60.55300 39.33700
O  11.92500 60.56200 38.77300
C  10.08000 61.82600 39.22500
N  6.06900 58.69700 41.72200
C  6.76800 59.84700 41.64400
C  5.91300 61.08600 42.00700
C  4.50900 60.42200 42.42700
C  4.79000 58.95800 42.07100
C  6.51300 61.98800 43.17000
C  3.27700 61.00400 41.68300
C  2.01600 61.04500 42.59400
N  5.21400 55.97500 42.07600
C  3.96600 56.57500 42.33700
C  3.01100 55.43200 42.50900
C  3.75600 54.32100 42.15500
C  5.11400 54.66700 41.91900
C  1.56400 55.57300 42.68100
C  3.61300 52.92400 42.03700
O  2.61400 52.26800 42.30200
C  4.98900 52.33400 41.57000
C  4.82200 51.51000 40.38100
O  4.30300 51.90800 39.36500
O  5.17400 50.19100 40.62300
C  4.66200 49.33900 39.51400
H  11.13500 55.16300 40.48000
H  8.30800 61.11800 41.11100
H  2.78600 58.22700 42.61200
H  7.87900 51.70200 41.11500
H  10.11300 53.14400 39.83500
H  10.68900 53.25000 42.45800
H  11.16000 51.87600 41.48200
H  9.56300 51.79800 42.29800
H  8.40500 52.91100 38.46800
H  6.77800 52.44100 38.71000
H  8.46400 50.22700 39.47200
H  9.26800 50.98000 38.13600
H  12.00600 57.75500 38.20200
H  12.27700 56.45400 39.33000
H  13.06900 57.76500 39.70800
H  9.71900 62.14300 40.20300
H  9.34600 61.84000 38.42000
H  10.87500 62.53300 38.98600
H  5.90800 61.44300 40.97600
H  4.32300 60.46900 43.50000
H  5.66100 62.33400 43.75600
H  7.12200 62.83400 42.85200
H  7.18600 61.37000 43.76400
H  3.09800 60.28800 40.88200
H  3.51100 61.99600 41.29600
H  1.61500 60.04500 42.42900
H  1.25500 61.72700 42.21400
H  2.14900 61.18400 43.66700
H  1.17600 55.75100 41.67800
H  1.13700 56.39400 43.25700
H  1.11800 54.63300 43.00500
H  5.48000 51.69000 42.29900
H  3.57700 49.35800 39.61200
H  5.07600 48.33900 39.63900
H  5.02800 49.71500 38.55900

