158

Mg 47.34800 25.31800 27.72400
C  48.11700 27.50600 30.34300
C  47.07200 22.78600 29.97200
C  46.77200 23.20400 25.13900
C  48.14200 27.89800 25.50900
N  47.66100 25.23900 29.89800
C  47.82700 26.21700 30.81400
C  47.65600 25.83700 32.27500
C  47.46400 24.29700 32.05800
C  47.43000 24.04100 30.58200
C  48.60000 23.47600 32.79500
C  46.57300 26.59500 33.01800
C  46.31000 25.99200 34.49500
H  45.85500 26.94300 35.57300
N  46.95900 23.28500 27.59700
C  46.92600 22.39100 28.59600
C  46.56800 21.10300 28.15300
C  46.37900 21.17400 26.68900
C  46.76900 22.62100 26.39100
C  46.22200 19.97300 29.11200
C  45.92900 20.03100 25.66400
O  45.72100 20.36500 24.51700
C  45.62200 18.54800 26.10100
N  47.61000 25.47300 25.65700
C  47.06400 24.51900 24.80600
C  47.20400 24.87100 23.35300
C  47.53600 26.42500 23.41200
C  47.73400 26.63400 24.95900
C  48.17900 24.07700 22.46800
C  46.43900 27.31900 22.71500
C  46.93800 28.54400 21.96700
N  48.10200 27.32400 27.83700
C  48.34200 28.25300 26.83500
C  48.77800 29.46900 27.42300
C  48.62300 29.25100 28.82900
C  48.28500 27.88900 29.01500
C  49.11700 30.79300 26.74400
C  48.69600 29.88700 30.16400
O  49.05700 31.02100 30.45600
C  48.39800 28.76300 31.14200
C  49.50100 28.67700 32.16800
O  50.60400 28.19700 32.13000
O  49.00000 29.15400 33.32200
C  49.86200 29.10100 34.51300
H  46.85500 22.15200 30.83500
H  46.54900 22.47600 24.35600
H  48.36700 28.76300 24.88100
H  48.66100 25.94400 32.68300
H  46.51600 23.98400 32.49500
H  49.08500 22.64900 32.27600
H  48.12700 23.12000 33.71000
H  49.45400 24.10500 33.04600
H  45.61200 26.51700 32.51000
H  46.84400 27.64300 33.14700
H  47.13800 25.39700 34.88100
H  45.48700 25.28100 34.41600
H  45.15700 19.84800 28.91600
H  46.41800 20.33200 30.12200
H  46.90700 19.15900 28.87400
H  44.66900 18.45100 26.62300
H  46.46000 18.23700 26.72500
H  45.60700 17.87000 25.24800
H  46.24600 24.66200 22.87600
H  48.46400 26.66600 22.89300
H  49.07400 24.52800 22.04100
H  47.64900 23.64000 21.62200
H  48.59500 23.24800 23.04200
H  45.68600 27.62100 23.44300
H  45.94700 26.70300 21.96100
H  46.53700 28.59300 20.95400
H  48.01700 28.67400 22.05200
H  46.57100 29.46600 22.41700
H  48.33800 31.51200 27.00000
H  49.37200 30.72000 25.68700
H  50.04500 31.05700 27.25200
H  47.51300 29.10400 31.67800
H  49.51200 29.75000 35.31600
H  50.87100 29.45300 34.29500
H  49.93300 28.06400 34.83900
Mg 47.33200 35.68600 27.08600
C  45.65300 33.76400 29.61100
C  47.25400 38.28800 29.38000
C  48.27300 37.66400 24.69700
C  46.77100 32.89400 24.86700
N  46.72200 35.87100 29.21000
C  46.14800 34.97000 29.99200
C  46.32000 35.51500 31.44500
C  46.43600 37.02900 31.39700
C  46.89700 37.10200 29.90000
C  45.16000 37.82700 31.73000
C  47.61000 34.78400 32.05700
C  47.53900 34.61000 33.56800
H  46.90700 35.67300 34.41600
N  47.96100 37.68200 27.10500
C  47.80700 38.64600 28.11200
C  48.33600 39.87500 27.67400
C  48.59400 39.73100 26.30200
C  48.29800 38.32000 25.96100
C  48.45200 41.12000 28.54900
C  49.18000 40.71800 25.29500
O  49.50200 40.43500 24.13000
C  49.55200 42.17100 25.65700
N  47.55100 35.30500 25.05400
C  47.99400 36.31800 24.29000
C  48.13900 35.77500 22.85100
C  47.96300 34.19900 22.94400
C  47.41400 34.15000 24.34500
C  47.20600 36.47400 21.78000
C  49.22100 33.35500 22.77400
C  49.11600 31.95800 22.11700
N  46.38700 33.71700 27.16800
C  46.25600 32.73900 26.20000
C  45.49400 31.63400 26.77100
C  45.24300 32.00400 28.06500
C  45.73900 33.29700 28.30100
C  45.26800 30.34900 26.09100
C  44.69200 31.54800 29.28700
O  44.23800 30.45500 29.61900
C  44.76900 32.73400 30.25700
C  45.14800 32.22300 31.60500
O  46.13200 31.48300 31.89400
O  44.22800 32.62700 32.55600
C  44.39800 32.06300 33.94800
H  47.08300 39.14800 30.03000
H  48.49000 38.29200 23.83000
H  46.59300 32.08400 24.15700
H  45.56200 35.19900 32.16200
H  47.18700 37.40900 32.08900
H  44.38200 37.06300 31.71300
H  45.05500 38.58200 30.95100
H  45.22700 38.33900 32.68900
H  48.54000 35.29800 31.81300
H  47.67700 33.78500 31.62700
H  48.60100 34.52600 33.79900
H  47.02500 33.65800 33.69700
H  49.47900 41.47900 28.49900
H  48.16400 40.87500 29.57200
H  47.73800 41.90700 28.30900
H  48.69700 42.44900 26.27300
H  49.61100 42.76700 24.74600
H  50.45700 42.16300 26.26400
H  49.11800 36.06800 22.47200
H  47.21400 33.84000 22.23900
H  46.37600 35.83200 21.48500
H  47.77300 36.78200 20.90200
H  46.77600 37.35800 22.25100
H  49.73000 33.17700 23.72100
H  50.01700 33.86500 22.23100
H  48.04600 31.90300 21.91600
H  49.36800 31.22400 22.88200
H  49.71500 31.86400 21.21100
H  46.09000 29.95100 25.49500
H  44.62800 30.55700 25.23300
H  44.87600 29.55200 26.72200
H  43.80100 33.22300 30.36200
H  44.96400 31.14800 34.12500
H  43.35900 31.94500 34.25500
H  44.76600 32.94000 34.48000

