158

Mg 41.41500 8.81100 30.33800
C  43.25600 10.01700 32.92500
C  39.01300 7.69400 32.54800
C  39.82800 7.27700 27.79900
C  44.21300 9.43600 28.22300
N  41.32100 8.61000 32.50200
C  42.05600 9.41500 33.31900
C  41.34200 9.72900 34.62200
C  40.11900 8.70800 34.59900
C  40.16200 8.30000 33.10000
C  40.24300 7.50200 35.54200
C  40.98900 11.20800 34.72200
C  40.31100 11.59300 35.98700
H  41.02600 12.03000 37.31500
N  39.57900 7.85500 30.14600
C  38.78800 7.44900 31.18800
C  37.64500 6.76500 30.61600
C  37.71400 6.85700 29.22900
C  39.05600 7.32200 28.99500
C  36.53700 6.28000 31.57000
C  36.70700 6.37500 28.18100
O  36.92500 6.29900 26.97000
C  35.32500 5.96900 28.70600
N  41.97200 8.37300 28.30200
C  41.10200 7.68600 27.50000
C  41.85600 7.60400 26.08700
C  43.08600 8.47800 26.25700
C  43.09600 8.79200 27.67300
C  42.19900 6.11500 25.79700
C  43.20900 9.58700 25.20200
C  42.50500 10.95500 25.41700
N  43.41500 9.57700 30.48500
C  44.44400 9.87800 29.58200
C  45.47300 10.58500 30.25100
C  45.11500 10.64000 31.62300
C  43.85200 9.97400 31.70200
C  46.75300 11.09200 29.56700
C  45.49300 11.07400 32.89100
O  46.45400 11.66200 33.38900
C  44.32500 10.67000 33.82700
C  44.76300 9.52900 34.76400
O  44.49900 8.30800 34.68900
O  45.57700 10.14600 35.66900
C  45.78700 9.19400 36.74000
H  38.30900 7.55800 33.37200
H  39.32600 6.79900 26.95500
H  45.10600 9.82300 27.72900
H  42.08200 9.52900 35.39700
H  39.11600 9.08200 34.80500
H  39.60800 7.57700 36.42500
H  41.29100 7.38200 35.81700
H  39.82100 6.61700 35.06600
H  40.43700 11.47500 33.82100
H  41.86700 11.85200 34.66700
H  39.76600 10.69500 36.27700
H  39.46300 12.24500 35.77400
H  36.07100 7.22300 31.85700
H  36.95100 5.84200 32.47800
H  35.87000 5.55600 31.10100
H  34.63600 5.95800 27.86200
H  35.00500 6.76000 29.38400
H  35.40000 4.98800 29.17400
H  41.29500 7.99100 25.23700
H  44.00200 7.88700 26.27500
H  41.89800 6.06300 24.75100
H  41.84700 5.44900 26.58500
H  43.26900 5.92600 25.70700
H  42.93100 9.33900 24.17800
H  44.26700 9.84400 25.15400
H  43.22700 11.76600 25.32200
H  42.03400 10.96100 26.40000
H  41.74200 11.12300 24.65600
H  46.56800 11.22000 28.50100
H  47.58400 10.39000 29.63200
H  47.06300 12.08900 29.88300
H  43.93200 11.56000 34.31700
H  44.92300 8.91100 37.34000
H  46.50700 9.68900 37.39300
H  46.25300 8.30700 36.31100
Mg -12.74500 14.56300 42.50100
C  -9.43900 13.70100 41.65400
C  -12.22800 17.58500 40.89700
C  -15.99600 15.26200 43.00600
C  -13.42700 11.23700 43.32100
N  -11.04600 15.40700 41.30900
C  -9.71100 14.93500 41.24200
C  -8.76100 15.93000 40.54100
C  -9.67000 17.14300 40.35100
C  -11.09800 16.73900 40.84500
C  -9.05300 18.45700 40.86900
C  -8.02900 15.38800 39.25000
C  -6.52900 15.27600 39.27400
H  -5.72600 15.90300 38.21500
N  -14.00400 16.18500 41.95800
C  -13.56600 17.37600 41.33400
C  -14.79100 18.19000 41.34800
C  -15.83700 17.51000 41.92700
C  -15.31500 16.23900 42.27500
C  -14.67800 19.55100 40.74900
C  -17.29100 18.10200 42.10500
O  -17.52200 19.28200 41.82400
C  -18.48900 17.19300 42.57700
N  -14.53100 13.35600 43.05300
C  -15.68900 13.93800 43.41100
C  -16.57700 12.98600 44.17800
C  -15.88400 11.62000 44.06000
C  -14.54900 12.05300 43.44800
C  -16.82700 13.34600 45.61900
C  -16.66000 10.45300 43.32500
C  -16.84400 9.21900 44.23600
N  -11.71400 12.89900 42.62800
C  -12.14700 11.61500 42.84500
C  -10.94900 10.76200 42.77900
C  -9.93200 11.51800 42.22800
C  -10.40200 12.85700 42.22000
C  -10.92000 9.31100 43.27300
C  -8.58100 11.46700 41.70100
O  -7.80500 10.54800 41.63100
C  -8.17300 12.93800 41.45000
C  -7.07500 13.45400 42.32500
O  -7.29200 14.13100 43.31400
O  -5.87400 13.23300 41.76000
C  -4.64200 13.77100 42.41700
H  -12.03400 18.59400 40.52700
H  -17.00500 15.40500 43.40000
H  -13.61500 10.17100 43.46200
H  -7.97800 16.27100 41.21900
H  -9.85200 17.25000 39.28200
H  -9.50100 19.27700 40.30700
H  -7.99400 18.43500 40.61500
H  -9.16500 18.45500 41.95300
H  -8.28800 16.10800 38.47300
H  -8.49100 14.40700 39.14100
H  -6.14400 14.27100 39.44100
H  -6.25100 15.76000 40.21000
H  -14.93500 19.57500 39.69000
H  -13.64800 19.90700 40.76700
H  -15.27400 20.28400 41.29300
H  -18.54500 16.28900 41.97000
H  -19.38000 17.77200 42.33200
H  -18.46900 17.05000 43.65700
H  -17.50600 13.09300 43.61800
H  -15.63300 11.36100 45.08900
H  -17.09500 12.46700 46.20400
H  -17.64700 14.05200 45.74700
H  -15.97100 13.82500 46.09400
H  -16.20800 10.13500 42.38500
H  -17.65100 10.87900 43.16000
H  -17.35700 8.45700 43.64800
H  -17.59300 9.58300 44.94000
H  -15.97900 8.71400 44.66500
H  -11.05900 9.30200 44.35400
H  -9.91400 8.92800 43.10500
H  -11.56900 8.71200 42.63400
H  -7.88600 12.95600 40.39800
H  -3.78400 13.28800 41.94900
H  -4.75100 13.35400 43.41800
H  -4.73700 14.85500 42.35600

