158

Mg 54.71000 22.88900 44.67900
C  52.84900 25.63800 43.75700
C  52.09900 20.97100 43.54900
C  56.78200 20.27500 44.86300
C  57.48500 25.03700 45.40400
N  52.72900 23.26900 43.57900
C  52.16500 24.48400 43.46300
C  50.66700 24.34000 42.98600
C  50.32400 22.86200 43.41600
C  51.79800 22.36800 43.55900
C  49.43700 22.80500 44.62000
C  50.55200 24.49300 41.45800
C  49.17400 24.77800 41.01800
H  48.73400 24.03100 39.70300
N  54.49500 20.88400 44.26800
C  53.36600 20.34100 43.75800
C  53.66900 18.88300 43.60900
C  55.03400 18.61100 43.79500
C  55.49900 19.93200 44.35800
C  52.67100 17.84900 43.11600
C  55.77900 17.40300 43.67700
O  55.29800 16.41900 43.16000
C  57.33300 17.23900 43.96200
N  56.87100 22.75900 44.94600
C  57.45800 21.49600 45.09200
C  58.93400 21.59000 45.54700
C  59.11200 23.16700 45.81400
C  57.72100 23.67700 45.39800
C  59.46900 20.64000 46.62500
C  60.31400 23.78100 44.97800
C  61.48400 22.92900 44.60300
N  55.16300 24.91700 44.61500
C  56.26500 25.62700 44.96700
C  55.90900 27.03700 44.92500
C  54.58800 27.12100 44.43800
C  54.18700 25.81200 44.24100
C  56.80800 28.13800 45.06900
C  53.46000 27.98200 44.21000
O  53.32100 29.20300 44.22900
C  52.31900 27.07600 43.63600
C  52.16300 27.39100 42.21100
O  52.96500 27.13000 41.35800
O  51.03700 28.12400 42.03800
C  50.62700 28.41000 40.69700
H  51.20400 20.37300 43.36500
H  57.51700 19.48100 45.00500
H  58.35500 25.67800 45.56300
H  50.09500 25.12800 43.47500
H  49.79500 22.20200 42.72900
H  48.58500 22.14900 44.44200
H  48.95000 23.75500 44.83700
H  50.08500 22.53500 45.45300
H  50.92100 23.59600 40.95900
H  51.24600 25.28000 41.16300
H  48.95600 25.83600 40.87100
H  48.52700 24.45000 41.83100
H  52.78400 17.64000 42.05200
H  51.65600 18.16300 43.35500
H  52.88100 16.93600 43.67400
H  57.63500 17.34800 45.00400
H  57.72300 18.06200 43.36400
H  57.62800 16.26100 43.58200
H  59.46800 21.19800 44.68200
H  59.35900 23.47600 46.83000
H  60.15600 21.13600 47.31100
H  60.09300 19.92900 46.08300
H  58.66600 20.20600 47.22000
H  60.66700 24.61900 45.57900
H  59.87600 24.17900 44.06300
H  61.36100 22.52800 43.59700
H  61.57700 22.19500 45.40400
H  62.40900 23.49900 44.67800
H  56.78500 28.62500 44.09500
H  57.83100 27.93000 45.38400
H  56.33300 28.78000 45.81100
H  51.37300 27.34900 44.10400
H  49.56000 28.60900 40.59400
H  50.85400 27.57300 40.03700
H  51.12500 29.34600 40.44500
Mg 47.10600 24.77000 28.02600
C  48.03400 27.02000 30.63000
C  46.52700 22.46800 30.50500
C  46.82900 22.41200 25.69000
C  48.24300 27.09300 25.73200
N  47.16600 24.89300 30.31100
C  47.51600 25.86100 31.19400
C  47.33300 25.44400 32.66900
C  46.84600 23.99100 32.53900
C  46.91000 23.74700 31.01200
C  47.62400 22.93900 33.44800
C  46.33600 26.37900 33.37800
C  45.56500 25.85800 34.60600
H  45.53800 26.92900 35.78500
N  46.65800 22.70700 28.11100
C  46.51900 21.99200 29.24600
C  46.33100 20.64900 28.94900
C  46.25600 20.54300 27.46400
C  46.58000 21.91500 26.96300
C  46.21200 19.58000 30.00200
C  46.09300 19.33500 26.51100
O  46.21600 19.44400 25.30700
C  45.75800 17.95200 27.08000
N  47.50400 24.74000 26.03900
C  47.28700 23.67900 25.23600
C  47.43700 24.01500 23.74500
C  47.72200 25.59400 23.82400
C  47.81800 25.80400 25.29900
C  48.49300 23.26800 22.85700
C  46.61500 26.43800 23.07900
C  46.14100 25.85800 21.67900
N  47.87600 26.72400 28.05500
C  48.33500 27.49600 27.04000
C  48.91400 28.70300 27.59500
C  48.76700 28.55500 29.02100
C  48.15100 27.28200 29.22100
C  49.74500 29.79900 26.84500
C  49.03900 29.23500 30.29400
O  49.60600 30.27300 30.56500
C  48.47500 28.22200 31.36400
C  49.31900 28.02500 32.60100
O  50.40000 27.35100 32.71800
O  48.83500 28.78900 33.66600
C  49.47000 28.56400 34.97300
H  46.29800 21.84400 31.37100
H  46.84500 21.68600 24.87400
H  48.53700 27.84400 24.99600
H  48.29400 25.55100 33.17200
H  45.79100 23.85200 32.77500
H  47.82500 23.33100 34.44500
H  48.51400 22.57000 32.93800
H  47.04000 22.03000 33.58800
H  45.63800 26.84000 32.67900
H  46.93300 27.21100 33.75100
H  46.04700 24.95800 34.98800
H  44.51400 25.78800 34.32600
H  45.30400 18.99500 29.85600
H  46.38500 19.89100 31.03200
H  46.99800 18.84500 29.83200
H  45.68000 17.20400 26.29100
H  44.74100 18.16000 27.41300
H  46.47000 17.64100 27.84400
H  46.43100 23.97500 23.32800
H  48.62300 25.91500 23.30200
H  49.28500 23.91800 22.48400
H  48.08400 22.80600 21.95800
H  48.84200 22.44700 23.48300
H  46.98200 27.45600 22.95500
H  45.81300 26.47100 23.81600
H  45.16000 25.38600 21.73000
H  46.81000 25.12700 21.22500
H  46.10900 26.64200 20.92300
H  49.94200 29.49100 25.81800
H  50.71100 29.96700 27.32100
H  49.25600 30.76500 26.72300
H  47.63000 28.87800 31.57300
H  50.27400 29.27200 35.17700
H  49.89700 27.56200 35.00000
H  48.75300 28.77200 35.76700

