158

Mg 47.12700 25.18100 28.12300
C  48.27000 27.47900 30.85100
C  46.29000 23.01800 30.51500
C  46.74000 23.01600 25.61500
C  48.55800 27.55000 25.96000
N  47.29500 25.23100 30.42500
C  47.73900 26.24100 31.30500
C  47.41400 25.88200 32.78000
C  47.11200 24.34300 32.63400
C  46.81200 24.21300 31.15300
C  48.15700 23.24200 33.08600
C  46.24000 26.70600 33.35400
C  46.51000 27.41000 34.64800
H  45.35600 27.58600 35.60600
N  46.56100 23.32200 28.05800
C  46.24900 22.54500 29.15300
C  45.83600 21.23200 28.68400
C  45.92400 21.23000 27.30400
C  46.41200 22.55000 26.90200
C  45.35600 20.15300 29.58300
C  45.60300 20.04900 26.27300
O  45.79700 20.17400 25.08100
C  45.20000 18.65800 26.81600
N  47.66200 25.24900 26.07600
C  47.24500 24.27600 25.22900
C  47.33600 24.74400 23.80100
C  47.79900 26.22900 23.91800
C  48.01600 26.38500 25.39800
C  48.42500 23.92300 23.03700
C  46.72400 27.26800 23.51200
C  46.67800 27.70000 22.06700
N  48.16600 27.09800 28.26000
C  48.69900 27.85400 27.32200
C  49.36000 28.93100 27.94600
C  49.17300 28.95300 29.29200
C  48.39500 27.77500 29.48000
C  50.15400 29.99900 27.13500
C  49.50200 29.59900 30.54100
O  50.14100 30.62500 30.79200
C  48.77000 28.73100 31.67800
C  49.76600 28.44800 32.71200
O  50.52300 27.51700 32.72800
O  49.74100 29.44500 33.70800
C  50.58100 29.21000 34.88400
H  45.98200 22.36100 31.33000
H  46.43200 22.53500 24.68400
H  48.94000 28.15800 25.13800
H  48.33300 25.99800 33.35500
H  46.22000 24.07400 33.20000
H  48.92300 23.60600 33.77100
H  48.69300 22.81300 32.24000
H  47.60200 22.42000 33.53900
H  45.33500 26.11200 33.47400
H  46.10300 27.46300 32.58100
H  46.75100 28.47000 34.55800
H  47.23900 26.80700 35.18900
H  44.29700 19.98000 29.39100
H  45.50300 20.47200 30.61500
H  45.79200 19.18200 29.34800
H  44.33400 18.65800 27.47700
H  46.15000 18.43000 27.30000
H  45.02400 18.02200 25.94800
H  46.40500 24.61500 23.24900
H  48.71500 26.59400 23.45400
H  48.04900 22.99600 22.60400
H  49.05600 23.48600 23.81100
H  49.12600 24.42800 22.37200
H  46.66000 28.09300 24.22200
H  45.77700 26.73200 23.58200
H  47.44700 27.13700 21.53900
H  46.76200 28.78400 21.99500
H  45.72000 27.52200 21.57900
H  49.91300 30.07300 26.07400
H  51.19800 29.68800 27.16700
H  49.93600 30.94100 27.63900
H  47.92100 29.24900 32.12300
H  50.39500 30.12600 35.44600
H  51.64600 29.04200 34.72800
H  50.16500 28.42900 35.52000
Mg 48.61800 35.17200 27.44500
C  46.65600 33.87200 30.06900
C  49.30100 37.92100 29.34600
C  50.37800 36.28500 24.84700
C  47.55200 32.34600 25.49600
N  48.14900 35.70700 29.48900
C  47.40100 35.01100 30.42400
C  47.74500 35.58800 31.80600
C  47.94400 37.09400 31.46800
C  48.49500 36.95000 29.99100
C  46.80400 38.19100 31.64900
C  48.94500 34.78600 32.54900
C  48.98500 34.64900 34.09700
H  48.11800 35.56700 34.87300
N  49.56200 36.92100 27.10000
C  49.77600 37.88800 28.03000
C  50.64300 38.88600 27.40600
C  51.08600 38.39000 26.12300
C  50.36600 37.13300 25.97900
C  50.98100 40.25800 28.02600
C  52.16500 38.92300 25.22000
O  52.43900 38.40300 24.17700
C  52.97800 40.15500 25.63800
N  48.80100 34.45100 25.47600
C  49.63400 35.10700 24.62400
C  49.84200 34.37300 23.32500
C  48.92000 33.01900 23.51200
C  48.38400 33.29200 24.93700
C  49.34000 35.33100 22.24100
C  49.84200 31.65600 23.31900
C  49.50800 30.80600 22.06400
N  47.38300 33.50400 27.64700
C  47.05700 32.41900 26.84000
C  46.21100 31.52700 27.48900
C  46.04800 32.11100 28.75000
C  46.77700 33.27200 28.78100
C  45.60800 30.24600 26.98700
C  45.33000 31.89300 29.99500
O  44.49100 31.07500 30.27200
C  45.79400 33.01200 30.96700
C  46.56100 32.33200 32.06200
O  47.57000 31.66100 31.99900
O  45.72300 32.40600 33.16000
C  46.07400 31.48300 34.19500
H  49.57600 38.80700 29.92300
H  50.98000 36.60600 23.99400
H  47.23900 31.41500 25.01800
H  46.88100 35.53700 32.47000
H  48.75400 37.47600 32.08900
H  46.30000 38.42600 30.71100
H  47.07800 39.10200 32.18100
H  45.98500 37.75900 32.22400
H  49.89600 35.22200 32.24500
H  48.89000 33.77900 32.13500
H  49.99600 34.65100 34.50500
H  48.65800 33.63900 34.34300
H  50.18000 40.51900 28.71800
H  50.87900 40.92700 27.17100
H  51.89500 40.43500 28.59300
H  53.83100 40.21900 24.96200
H  53.20100 40.06500 26.70100
H  52.27800 40.96800 25.44800
H  50.90300 34.12900 23.29600
H  48.07100 33.17300 22.84600
H  48.64600 36.08600 22.61100
H  48.87000 34.84900 21.38400
H  50.15200 35.92300 21.82000
H  49.87700 30.93400 24.13400
H  50.84900 31.99900 23.08400
H  49.26400 29.82500 22.47200
H  50.37900 30.70100 21.41800
H  48.65100 31.22800 21.53900
H  45.39900 30.23700 25.91800
H  44.72000 30.02100 27.57700
H  46.37100 29.51100 27.24600
H  45.09900 33.71100 31.43100
H  45.51400 31.61800 35.12000
H  47.08500 31.55800 34.59500
H  46.01200 30.44200 33.87700

