158

Mg -1.42200 17.17100 26.59800
C  -1.82400 15.11800 29.44600
C  -1.99600 19.87900 28.54700
C  -1.78900 18.83300 23.74600
C  -1.46300 14.17200 24.66100
N  -1.69300 17.38900 28.74100
C  -1.67900 16.46200 29.71700
C  -1.69500 17.14600 31.07700
C  -2.09500 18.61900 30.75200
C  -1.94800 18.64600 29.26100
C  -3.59900 18.99500 31.12900
C  -0.25500 16.98900 31.61600
C  0.06700 17.81500 32.91100
H  -0.05900 17.15600 34.30800
N  -1.65000 19.15600 26.20500
C  -1.85700 20.13400 27.17200
C  -2.01800 21.43500 26.42900
C  -2.21700 21.09500 25.05400
C  -1.87600 19.61600 24.94000
C  -2.19500 22.73300 27.21700
C  -2.58100 21.91400 23.95300
O  -2.62100 21.53600 22.77800
C  -3.00600 23.24200 24.23100
N  -1.37400 16.65600 24.51000
C  -1.50000 17.51100 23.54200
C  -1.48400 16.93100 22.07100
C  -1.33000 15.39700 22.42300
C  -1.40600 15.38200 23.94700
C  -2.68100 17.33500 21.12300
C  -0.08700 14.71800 21.87100
C  0.39200 15.09700 20.40100
N  -1.52600 15.08600 26.92800
C  -1.51800 14.02500 26.07900
C  -1.68800 12.73100 26.83700
C  -1.84100 13.18600 28.16300
C  -1.70900 14.63000 28.13600
C  -1.70000 11.41200 26.23700
C  -2.10700 12.69300 29.48300
O  -2.35900 11.55100 29.89800
C  -2.12200 13.93200 30.41900
C  -1.12500 13.67000 31.43000
O  0.05300 13.51400 31.19000
O  -1.72400 13.51100 32.65700
C  -0.86500 12.95000 33.68500
H  -2.15600 20.78500 29.13400
H  -1.86700 19.29200 22.75800
H  -1.42400 13.23800 24.09600
H  -2.42000 16.74000 31.78200
H  -1.33800 19.33900 31.06200
H  -3.97500 18.28000 31.86100
H  -4.24900 19.19900 30.27800
H  -3.45200 19.92400 31.67900
H  0.48200 17.09100 30.81900
H  -0.29500 15.92600 31.85100
H  -0.73200 18.55300 32.97800
H  1.01500 18.35100 32.86400
H  -3.26500 22.92500 27.30500
H  -1.90400 23.64100 26.69000
H  -1.90200 22.74400 28.26700
H  -3.29800 23.81500 23.35100
H  -2.16000 23.82500 24.59200
H  -3.83300 23.20200 24.94100
H  -0.56000 17.21200 21.56600
H  -2.18900 14.90700 21.96500
H  -3.28500 16.47400 20.83700
H  -2.32300 17.84800 20.23000
H  -3.27000 18.16800 21.50700
H  -0.31300 13.65500 21.78700
H  0.79000 14.82300 22.51000
H  1.26300 15.74700 20.48300
H  -0.42100 15.52600 19.81500
H  0.60700 14.13500 19.93700
H  -0.98100 10.94600 26.91000
H  -1.33600 11.41300 25.21000
H  -2.72300 11.04600 26.32300
H  -3.07900 14.01900 30.93300
H  -0.70400 13.75400 34.40400
H  0.08100 12.52000 33.35500
H  -1.20500 12.09200 34.26500
Mg 35.24900 1.53600 30.19600
C  32.97100 2.88800 32.46200
C  37.67500 1.87000 32.36700
C  37.40800 0.94300 27.65800
C  32.69500 1.84600 27.70900
N  35.36200 2.47600 32.10200
C  34.28500 2.70400 32.96100
C  34.58300 2.63000 34.42500
C  36.14600 2.66100 34.36000
C  36.43100 2.29900 32.82300
C  36.95000 3.91600 34.79000
C  33.91000 1.49500 35.31500
C  33.39500 1.74900 36.73600
H  34.06000 2.81500 37.58000
N  37.24300 1.28700 30.06200
C  38.07600 1.37100 31.06400
C  39.43900 0.99000 30.70800
C  39.38200 0.75700 29.28300
C  37.98300 0.97600 28.89800
C  40.58900 0.94300 31.65600
C  40.43500 0.31800 28.33700
O  40.22500 0.34900 27.14200
C  41.81500 0.08700 28.78500
N  35.12300 1.52300 27.97500
C  36.13900 1.21700 27.22400
C  35.74500 1.16600 25.76800
C  34.22800 1.20800 25.83700
C  33.93900 1.50900 27.25100
C  36.36400 2.34200 24.97200
C  33.54000 -0.08100 25.34200
C  33.33700 -0.22000 23.90100
N  33.24900 2.24700 30.06200
C  32.33400 2.22800 29.01900
C  31.05500 2.59000 29.48000
C  31.18200 2.93000 30.80000
C  32.54700 2.68400 31.11800
C  29.75800 2.62000 28.66100
C  30.63500 3.39100 32.06600
O  29.51900 3.77000 32.37600
C  31.78400 3.34000 33.17800
C  31.92500 4.69700 33.75500
O  32.45600 5.68600 33.22200
O  31.25700 4.71300 34.94900
C  31.21700 5.98500 35.70500
H  38.42600 1.80700 33.15700
H  37.91400 0.62600 26.74300
H  31.84700 1.84500 27.02000
H  34.31700 3.54400 34.95600
H  36.63500 1.85500 34.90800
H  37.69300 3.57600 35.51200
H  36.26900 4.64200 35.23300
H  37.57100 4.39200 34.03100
H  34.50700 0.58400 35.28000
H  33.01100 1.18300 34.78300
H  33.77100 0.92200 37.33800
H  32.31700 1.91100 36.69900
H  41.36700 0.21200 31.43700
H  40.07900 0.63600 32.56900
H  41.02300 1.91600 31.88700
H  42.21900 0.98100 29.25900
H  42.44300 -0.18100 27.93600
H  41.80000 -0.82300 29.38600
H  36.06400 0.28000 25.21900
H  33.80200 1.99000 25.20900
H  36.89300 3.03000 25.63200
H  35.55900 2.92200 24.52100
H  36.90900 1.98000 24.10100
H  32.57800 -0.25900 25.82300
H  34.29000 -0.79000 25.69200
H  34.12000 -0.90000 23.56600
H  33.51600 0.73800 23.41400
H  32.37800 -0.72100 23.77100
H  29.70000 3.67800 28.40400
H  28.92100 2.42800 29.33100
H  29.78900 1.95800 27.79500
H  31.47900 2.62900 33.94600
H  30.31100 6.49600 35.37900
H  32.06500 6.63800 35.50000
H  31.14500 5.78900 36.77500

