158

Mg 46.64200 24.92900 28.71600
C  47.15700 27.26900 31.51900
C  45.38600 22.77100 30.77600
C  46.76900 22.93900 26.16000
C  48.00400 27.53100 26.61400
N  46.49600 24.99800 30.92600
C  46.59900 26.00800 31.81700
C  46.01300 25.60600 33.18000
C  45.45500 24.14400 32.91300
C  45.73300 24.00500 31.41600
C  46.21100 23.11400 33.82000
C  44.96000 26.55100 33.78700
C  45.23500 26.89600 35.19400
H  44.12200 27.00600 36.24700
N  46.25400 23.01500 28.55900
C  45.75200 22.23100 29.55400
C  45.37200 20.95800 28.93800
C  45.82100 20.93800 27.53000
C  46.30700 22.32300 27.34800
C  44.58800 19.93500 29.73500
C  45.70600 19.85400 26.52700
O  46.05700 20.06400 25.42700
C  44.97600 18.53900 26.84400
N  47.35500 25.23900 26.66000
C  47.19400 24.23200 25.80400
C  47.47000 24.62100 24.36200
C  47.68100 26.14300 24.45900
C  47.66300 26.34900 25.97700
C  48.65000 23.87900 23.71300
C  46.70400 27.11500 23.76900
C  45.29100 26.97400 24.39900
N  47.47600 26.94500 28.92800
C  47.98300 27.85300 28.04700
C  48.39700 29.09700 28.73500
C  48.00000 28.91600 30.09100
C  47.56600 27.56200 30.18200
C  48.95000 30.35900 28.06100
C  47.81800 29.56700 31.37800
O  47.97900 30.72000 31.74700
C  47.42900 28.45100 32.40100
C  48.58500 28.13800 33.23100
O  49.71400 28.33700 32.95000
O  48.11900 27.75200 34.44900
C  49.20600 27.44400 35.45700
H  44.82100 22.06700 31.39200
H  46.66900 22.23900 25.32800
H  48.41100 28.27200 25.92400
H  46.85300 25.48500 33.86300
H  44.42500 24.10500 33.26800
H  46.12500 23.54600 34.81800
H  47.29200 23.10000 33.67900
H  45.86600 22.08200 33.75800
H  43.99700 26.05200 33.89500
H  44.86400 27.44300 33.16700
H  45.62400 27.91300 35.24900
H  46.06600 26.32000 35.60100
H  43.76700 19.44300 29.21200
H  44.23000 20.30500 30.69600
H  45.32400 19.18900 30.03200
H  45.41900 17.98700 27.67300
H  44.96200 17.84500 26.00300
H  43.90800 18.69300 27.00100
H  46.55800 24.44000 23.79400
H  48.66600 26.42200 24.08600
H  49.34900 23.63500 24.51300
H  48.96300 24.49900 22.87300
H  48.27600 22.89900 23.41300
H  46.56800 26.95000 22.70000
H  47.04700 28.14000 23.90600
H  44.55500 27.17000 23.62000
H  45.18200 27.83100 25.06500
H  45.06600 26.03300 24.90100
H  48.33200 31.19500 28.38800
H  48.88500 30.11400 27.00000
H  49.98700 30.51900 28.35600
H  46.65600 28.86000 33.05100
H  48.74900 27.19900 36.41500
H  49.97600 28.21100 35.53800
H  49.83000 26.63900 35.06900
Mg 30.29600 58.96800 40.59400
C  27.31600 57.53700 39.29800
C  32.03700 56.38400 39.38100
C  33.06600 60.92500 40.91000
C  28.28900 61.94000 41.06300
N  29.73900 57.16400 39.57000
C  28.53900 56.80600 39.07900
C  28.62800 55.49300 38.27900
C  30.06200 55.03700 38.54600
C  30.68200 56.23900 39.24700
C  30.32400 53.72700 39.32900
C  28.15300 55.67200 36.77500
C  27.01800 54.75400 36.23300
H  26.13600 55.43300 35.30400
N  32.31900 58.54200 40.35900
C  32.86600 57.41700 39.92700
C  34.24500 57.43300 40.17600
C  34.62400 58.80800 40.63000
C  33.32200 59.53600 40.63300
C  35.10300 56.26200 40.07500
C  35.94300 59.27800 41.15000
O  36.94600 58.59700 41.14800
C  36.10700 60.67500 41.68300
N  30.64400 61.18400 40.73800
C  31.90600 61.65500 40.92500
C  31.89900 63.17000 41.13900
C  30.36200 63.51500 41.27100
C  29.70500 62.12900 41.07200
C  32.80000 63.86300 42.23100
C  29.92900 64.52000 40.20600
C  29.50100 65.94000 40.74600
N  28.17000 59.60900 40.45000
C  27.58000 60.78100 40.70000
C  26.11800 60.63700 40.48700
C  25.98400 59.31500 40.01700
C  27.26300 58.77700 39.97800
C  25.11400 61.73400 40.63900
C  25.05500 58.40900 39.42100
O  23.87100 58.59700 39.09900
C  25.86800 57.16100 38.95200
C  25.39500 56.02700 39.77200
O  25.55800 55.81500 40.93500
O  24.80600 55.13200 38.84900
C  24.15200 53.97400 39.39800
H  32.58200 55.48100 39.09800
H  33.82800 61.63900 41.23000
H  27.74700 62.88700 41.10500
H  27.99000 54.84500 38.88100
H  30.61400 54.81600 37.63300
H  30.92000 53.94200 40.21600
H  30.90300 53.02200 38.73200
H  29.31500 53.36300 39.52400
H  29.04700 55.32100 36.25900
H  27.88900 56.70500 36.54700
H  26.50500 54.28200 37.07100
H  27.54100 53.92800 35.75100
H  35.08700 55.87700 39.05500
H  34.87900 55.44400 40.75900
H  36.13000 56.56600 40.27700
H  37.02700 60.66400 42.26800
H  35.34600 60.62600 42.46200
H  36.07700 61.49000 40.96100
H  32.22200 63.55500 40.17200
H  30.20700 63.89400 42.28200
H  32.15500 64.33200 42.97500
H  33.36400 64.68700 41.79500
H  33.52000 63.15500 42.64100
H  29.00400 64.16100 39.75400
H  30.62700 64.60900 39.37400
H  29.58500 65.92000 41.83300
H  28.48900 66.18200 40.42200
H  30.10300 66.71500 40.27100
H  24.62800 62.06300 39.72000
H  25.51200 62.61300 41.14600
H  24.30800 61.30500 41.23400
H  25.68000 56.95000 37.89900
H  23.60000 54.31100 40.27500
H  25.00900 53.36400 39.68400
H  23.63500 53.56100 38.53300

