158

Mg 2.22800 -1.09900 43.26300
C  5.63800 -0.33200 42.82800
C  1.54100 2.03800 41.77500
C  -0.88100 -2.16400 42.95400
C  3.21000 -4.37200 44.24700
N  3.44800 0.63700 42.24600
C  4.78300 0.68600 42.29500
C  5.35100 1.96500 41.67100
C  4.05300 2.81500 41.41800
C  2.97100 1.80700 41.92300
C  3.96900 4.20800 42.14300
C  6.07400 1.81400 40.33900
C  5.34700 0.98600 39.25300
H  5.21300 1.55400 37.85200
N  0.58800 -0.12900 42.68100
C  0.47200 1.13600 42.00700
C  -0.86800 1.42600 41.81200
C  -1.64600 0.29300 42.21000
C  -0.67100 -0.75800 42.58100
C  -1.41700 2.69000 41.19100
C  -3.19300 0.05600 42.22500
O  -3.93200 0.98000 41.92100
C  -3.94400 -1.20600 42.62900
N  1.32200 -3.00800 43.46200
C  0.01300 -3.11700 43.35900
C  -0.42000 -4.57100 43.54800
C  0.88900 -5.27400 44.18800
C  1.86600 -4.14400 44.09300
C  -1.76200 -4.79000 44.32100
C  1.36400 -6.46500 43.31300
C  0.37400 -7.57700 43.21900
N  4.03700 -2.23300 43.54100
C  4.34000 -3.52900 43.91600
C  5.76200 -3.73700 44.09600
C  6.29800 -2.47100 43.68100
C  5.23600 -1.62000 43.31700
C  6.43600 -4.93500 44.72400
C  7.50600 -1.68600 43.55600
O  8.70100 -1.96200 43.79300
C  7.14800 -0.41900 42.78200
C  7.70200 0.76700 43.38900
O  8.55300 1.49200 42.83800
O  7.21800 0.90400 44.64100
C  7.89900 1.88500 45.44000
H  1.26700 3.01800 41.37900
H  -1.92200 -2.46400 43.09400
H  3.42800 -5.35300 44.67200
H  6.09200 2.37000 42.36100
H  3.70700 3.00200 40.40100
H  4.60600 4.30300 43.02200
H  2.93100 4.32500 42.45700
H  4.25400 4.93300 41.38100
H  7.03900 1.33100 40.49100
H  6.25700 2.80600 39.92500
H  4.34200 0.70800 39.57100
H  5.83800 0.01400 39.19300
H  -2.15100 2.38300 40.44700
H  -0.76900 3.43400 40.72800
H  -1.95100 3.28200 41.93500
H  -3.58700 -1.50700 43.61400
H  -3.64900 -1.91000 41.85100
H  -5.01300 -1.01300 42.72800
H  -0.53200 -4.98600 42.54600
H  0.79300 -5.70400 45.18500
H  -2.15100 -3.89500 44.80800
H  -1.73000 -5.64900 44.99100
H  -2.45400 -4.94500 43.49300
H  2.30000 -6.83800 43.72800
H  1.58300 -6.06900 42.32100
H  -0.01800 -7.63100 42.20400
H  -0.38500 -7.51900 43.99900
H  1.02400 -8.45100 43.26200
H  6.50900 -5.73800 43.99000
H  5.87100 -5.30800 45.57900
H  7.41400 -4.74000 45.16300
H  7.60100 -0.44500 41.79100
H  8.90900 1.54100 45.66200
H  7.50200 1.92300 46.45500
H  7.75700 2.82900 44.91500
Mg 25.77300 -7.33300 47.38800
C  28.08300 -4.94900 46.34300
C  23.47500 -6.03400 45.04300
C  23.82000 -10.16100 47.79800
C  28.27900 -8.78100 49.38900
N  25.85700 -5.74200 45.90700
C  26.91200 -4.88000 45.66100
C  26.51600 -3.75300 44.60700
C  24.99900 -4.10200 44.38700
C  24.69400 -5.33600 45.25500
C  24.02800 -2.89500 44.57000
C  27.35700 -3.90400 43.30400
C  27.86900 -2.51600 42.70700
H  27.66400 -2.23600 41.19700
N  23.90400 -8.00800 46.60600
C  23.13900 -7.30100 45.66200
C  21.98400 -8.06400 45.33600
C  22.02100 -9.31500 46.06600
C  23.28400 -9.19900 46.92400
C  20.99200 -7.68000 44.24000
C  21.01900 -10.41300 45.94700
O  20.15600 -10.41100 45.08300
C  21.10300 -11.48400 46.87400
N  26.03800 -9.16000 48.46400
C  25.01900 -10.09400 48.55100
C  25.49100 -11.28900 49.56800
C  26.65400 -10.50900 50.31200
C  27.11100 -9.47900 49.29900
C  24.35400 -11.79600 50.51100
C  27.74600 -11.55900 50.61300
C  28.55600 -12.20000 49.56600
N  27.84600 -6.97200 47.78700
C  28.74300 -7.62000 48.63200
C  30.01100 -6.84800 48.59800
C  29.78900 -5.72400 47.74400
C  28.42900 -5.92500 47.26200
C  31.24300 -7.10700 49.39500
C  30.31600 -4.52900 47.16300
O  31.36600 -3.94800 47.23500
C  29.27000 -4.03200 46.18300
C  28.84700 -2.70400 46.58900
O  28.18000 -2.38200 47.54100
O  29.51200 -1.84300 45.84700
C  29.06000 -0.46100 45.69500
H  22.83300 -5.52100 44.32500
H  23.28500 -11.10500 47.92100
H  28.97000 -9.18600 50.13100
H  26.68000 -2.74700 44.99400
H  24.75900 -4.44300 43.38000
H  24.57900 -1.95600 44.51200
H  23.61100 -3.00800 45.57100
H  23.25300 -2.89100 43.80400
H  26.74800 -4.44500 42.58000
H  28.23400 -4.54800 43.37700
H  28.92900 -2.57300 42.95500
H  27.53400 -1.69200 43.33700
H  21.30300 -7.95800 43.23400
H  20.94800 -6.59200 44.29000
H  19.97500 -8.03800 44.40000
H  21.25900 -11.18900 47.91100
H  21.85400 -12.16700 46.47700
H  20.17100 -12.04300 46.78700
H  25.88900 -12.04200 48.88700
H  26.25700 -9.93600 51.15100
H  24.38900 -11.34300 51.50200
H  24.34500 -12.88300 50.58500
H  23.37000 -11.57100 50.09900
H  27.39000 -12.37100 51.24800
H  28.33400 -11.00000 51.34100
H  28.49200 -11.60500 48.65500
H  28.36600 -13.24200 49.30900
H  29.58100 -12.25800 49.93400
H  31.72800 -6.14300 49.55100
H  31.84900 -7.71600 48.72400
H  31.06900 -7.46300 50.41000
H  29.63600 -3.98300 45.15800
H  27.98200 -0.42600 45.85700
H  29.37000 -0.06600 44.72700
H  29.57300 0.12500 46.45800

