158

Mg 35.69200 48.28500 25.38600
C  36.38900 46.52100 28.20000
C  34.49400 50.82200 27.33100
C  34.67700 49.94300 22.56900
C  36.83000 45.64300 23.41600
N  35.38500 48.52400 27.53300
C  35.87800 47.73000 28.51000
C  35.67200 48.35700 29.93100
C  34.90500 49.59600 29.60500
C  34.93100 49.69800 28.03000
C  33.39400 49.56300 30.09500
C  37.04900 48.58600 30.63600
C  37.12500 48.23500 32.14000
H  36.01300 48.56100 33.12500
N  34.84600 50.18200 25.02000
C  34.47300 51.07900 25.95100
C  33.96100 52.25600 25.39500
C  33.82400 51.99200 23.99500
C  34.48400 50.67200 23.80100
C  33.51700 53.49300 26.18800
C  33.09600 52.81300 22.91800
O  33.07000 52.39800 21.78500
C  32.28800 54.03500 23.19700
N  35.71500 47.83000 23.32900
C  35.24400 48.66100 22.34900
C  35.68600 48.13200 20.93500
C  36.33400 46.78300 21.22700
C  36.31900 46.76900 22.75400
C  34.51100 47.89300 19.91100
C  37.77300 46.53900 20.58900
C  39.05900 47.16100 21.24100
N  36.42600 46.40700 25.68700
C  36.86600 45.41700 24.80500
C  37.37800 44.31000 25.52100
C  37.17300 44.65400 26.91900
C  36.64500 46.01400 26.93100
C  37.99300 43.00200 24.92300
C  37.39600 44.22300 28.28800
O  37.71100 43.12200 28.72800
C  36.93700 45.44500 29.16600
C  35.79500 44.95200 29.99800
O  34.66700 44.61100 29.62100
O  36.24400 44.92800 31.28200
C  35.30000 44.48000 32.34100
H  34.15200 51.60100 28.01500
H  34.40800 50.58800 21.73000
H  37.39500 44.97600 22.76100
H  35.09100 47.81300 30.67600
H  35.36500 50.42200 30.14700
H  33.20800 50.37500 30.79800
H  33.25500 48.62500 30.63300
H  32.63300 49.73500 29.33400
H  37.40500 49.61400 30.69500
H  37.74200 48.10400 29.94700
H  37.98700 48.82600 32.45000
H  37.34800 47.17500 32.26200
H  33.88400 54.37300 25.66100
H  34.06200 53.60700 27.12500
H  32.44100 53.52800 26.35900
H  31.86800 54.42000 22.26700
H  32.72000 54.85700 23.76800
H  31.43100 53.71900 23.79100
H  36.29500 48.88200 20.42800
H  35.77400 45.91100 20.88800
H  33.65000 47.80600 20.57400
H  34.59100 46.92100 19.42500
H  34.37300 48.72600 19.22200
H  37.75200 46.86100 19.54800
H  37.93600 45.50300 20.29200
H  39.68200 47.69700 20.52600
H  39.69600 46.36600 21.62700
H  38.69700 47.78800 22.05600
H  38.95400 42.78700 25.39100
H  38.09900 43.09600 23.84300
H  37.37100 42.12100 25.08100
H  37.85200 45.66600 29.71600
H  36.01100 44.23700 33.13100
H  34.68000 43.62400 32.07500
H  34.61400 45.24200 32.71100
Mg -10.53500 39.15200 39.25400
C  -9.99800 35.73800 38.64700
C  -7.06700 39.68400 38.43400
C  -11.13900 42.41800 39.09900
C  -13.92500 38.37400 39.65000
N  -8.81700 37.87900 38.51100
C  -8.90500 36.50700 38.44400
C  -7.48300 35.95900 38.01000
C  -6.50700 37.23500 38.31100
C  -7.54300 38.28700 38.42900
C  -5.80700 37.07900 39.72000
C  -7.40500 35.39400 36.50600
C  -7.68200 36.44500 35.33600
H  -8.70400 36.14400 34.27500
N  -9.27600 40.84400 38.90500
C  -7.92400 40.82600 38.53500
C  -7.48700 42.14300 38.39700
C  -8.62000 42.97100 38.51600
C  -9.74400 42.12200 38.88800
C  -6.12000 42.62500 37.91600
C  -8.65300 44.49800 38.31600
O  -7.61400 45.19500 38.08300
C  -9.96200 45.32400 38.51300
N  -12.31200 40.17700 39.49300
C  -12.22800 41.56800 39.37000
C  -13.63500 42.13000 39.36800
C  -14.56400 40.88600 39.72600
C  -13.52300 39.75000 39.69600
C  -13.86300 43.35100 40.21400
C  -15.78400 40.80100 38.70400
C  -17.09200 40.04700 38.96600
N  -11.75900 37.42900 39.18100
C  -13.10200 37.23100 39.32800
C  -13.59800 35.88100 39.22700
C  -12.36800 35.21400 39.05600
C  -11.30100 36.20800 38.94500
C  -14.99700 35.37100 39.47300
C  -11.71100 33.85300 38.92200
O  -12.09300 32.68300 39.13200
C  -10.27200 34.23800 38.45400
C  -9.25800 33.51100 39.29500
O  -9.07400 33.60500 40.49700
O  -8.43400 32.73700 38.43000
C  -7.27800 32.03700 39.13300
H  -5.99500 39.78300 38.61600
H  -11.42000 43.47100 39.02500
H  -14.96200 38.16800 39.92500
H  -7.17600 35.12200 38.63800
H  -5.84400 37.49700 37.48600
H  -6.03500 37.87800 40.42500
H  -4.72100 37.00200 39.65900
H  -6.20700 36.20800 40.23900
H  -8.03700 34.50700 36.48300
H  -6.39800 34.98000 36.56700
H  -6.66100 36.71800 35.07100
H  -8.00600 37.38100 35.79000
H  -5.45200 41.78600 38.11000
H  -5.85900 43.49300 38.52200
H  -6.02100 42.93100 36.87400
H  -10.26900 45.44000 39.55300
H  -10.67300 44.84000 37.84300
H  -9.69200 46.31400 38.14900
H  -13.88800 42.43800 38.35400
H  -14.91500 40.94200 40.75600
H  -14.73700 43.25100 40.85800
H  -14.04800 44.18200 39.53400
H  -13.02500 43.60700 40.86200
H  -15.31900 40.53000 37.75700
H  -16.17900 41.81700 38.71800
H  -17.38600 39.39100 38.14600
H  -17.92500 40.72800 39.13900
H  -17.00700 39.46900 39.88600
H  -15.23100 34.75800 38.60200
H  -15.77200 36.13000 39.58400
H  -15.04800 34.78700 40.39200
H  -10.28500 33.98600 37.39400
H  -7.48700 30.98000 39.29800
H  -6.95600 32.52100 40.05500
H  -6.33100 32.21900 38.62400

