158

Mg 29.95800 58.48900 41.68700
C  27.14800 56.80700 40.19800
C  31.96800 56.46700 39.82800
C  32.45100 60.60800 42.20500
C  27.70700 60.88800 42.91000
N  29.49900 56.81100 40.17300
C  28.38000 56.33700 39.62300
C  28.62700 55.12500 38.70200
C  30.19700 54.99700 38.69700
C  30.58100 56.19400 39.61900
C  30.73400 53.67400 39.23500
C  27.96800 55.30600 37.32000
C  28.64300 54.54900 36.12800
H  27.74400 54.35200 34.94700
N  31.93600 58.46300 41.27200
C  32.58000 57.48100 40.53200
C  34.00300 57.74400 40.45300
C  34.20600 58.91400 41.26600
C  32.84000 59.36900 41.61900
C  35.04400 56.98800 39.63800
C  35.52700 59.53100 41.69800
O  36.55100 59.02400 41.22700
C  35.63000 60.65200 42.71900
N  30.07000 60.55200 42.46400
C  31.22500 61.13500 42.63500
C  31.02500 62.54700 43.21800
C  29.47000 62.73800 43.24800
C  29.03700 61.30600 42.88100
C  31.73100 62.75500 44.55200
C  28.92800 63.76200 42.20700
C  27.43600 64.08700 42.41300
N  27.91600 58.75700 41.72200
C  27.10400 59.73000 42.27000
C  25.71300 59.39500 42.11700
C  25.73300 58.24200 41.27500
C  27.06700 57.90800 41.05500
C  24.43400 60.08000 42.58800
C  24.82400 57.25600 40.65500
O  23.59400 57.24600 40.67700
C  25.65000 56.35900 39.86600
C  25.51800 54.94900 40.40400
O  25.75700 54.45800 41.50700
O  25.03100 54.17400 39.33800
C  24.71800 52.78200 39.65900
H  32.57700 55.69500 39.35400
H  33.29900 61.27300 42.38200
H  27.01900 61.63700 43.30800
H  28.22400 54.20800 39.13200
H  30.67700 55.11900 37.72600
H  29.90900 52.97100 39.35100
H  31.12300 53.81100 40.24400
H  31.52400 53.37400 38.54700
H  27.94100 56.35700 37.03400
H  26.91700 55.02500 37.39600
H  28.96400 53.57600 36.49900
H  29.53900 55.10700 35.85600
H  35.28500 57.67700 38.82800
H  34.62700 56.13800 39.09900
H  35.87400 56.73400 40.29800
H  36.69200 60.65700 42.96400
H  34.94200 60.44200 43.53800
H  35.27300 61.57600 42.26400
H  31.52500 63.17700 42.48200
H  29.16000 62.96400 44.26900
H  32.45800 63.56400 44.48100
H  32.22400 61.81400 44.79200
H  31.05900 62.94500 45.38900
H  29.01900 63.13900 41.31700
H  29.48200 64.69300 42.08400
H  26.80100 63.39900 41.85500
H  27.11900 65.07700 42.08600
H  27.18200 63.91600 43.45900
H  24.63200 61.14300 42.45300
H  24.55600 59.82200 43.64000
H  23.50700 59.73200 42.13300
H  25.41100 56.51700 38.81500
H  25.58000 52.11500 39.67900
H  24.20500 52.36400 38.79300
H  24.17100 52.62600 40.58900
Mg -11.06200 38.76200 41.36100
C  -9.19800 36.10000 40.07800
C  -8.93800 40.87400 39.65900
C  -13.28600 41.32000 41.72700
C  -13.46300 36.50700 42.36300
N  -9.23300 38.49900 39.98300
C  -8.66000 37.33700 39.64500
C  -7.40700 37.52600 38.84700
C  -7.20500 39.12100 38.91700
C  -8.50700 39.53300 39.58500
C  -5.92300 39.62700 39.52100
C  -7.42700 36.88400 37.37800
C  -6.19400 35.98600 37.05200
H  -5.42100 36.21600 35.69700
N  -11.16900 40.74200 40.75300
C  -10.12000 41.45000 40.15800
C  -10.44600 42.81100 40.09300
C  -11.75100 42.96400 40.58500
C  -12.10700 41.66200 41.05300
C  -9.54100 43.95100 39.56500
C  -12.50900 44.30100 40.53500
O  -12.03300 45.33700 40.07500
C  -13.95700 44.32500 40.88100
N  -13.22500 38.86600 41.84900
C  -13.71200 40.09200 42.16800
C  -15.03000 39.93100 42.87900
C  -15.03400 38.41300 43.28500
C  -13.83100 37.87100 42.46900
C  -15.11700 41.07800 43.98100
C  -16.38800 37.68000 42.92900
C  -17.49300 37.63200 43.95900
N  -11.30400 36.62700 41.34600
C  -12.35800 35.88800 41.83900
C  -11.96500 34.55600 41.71300
C  -10.74700 34.58400 40.99600
C  -10.41500 35.88000 40.79100
C  -12.68100 33.35400 42.33300
C  -9.69200 33.68900 40.43600
O  -9.58100 32.48900 40.49300
C  -8.61800 34.65200 39.70900
C  -7.28700 34.46800 40.36800
O  -6.37700 33.87400 39.83700
O  -7.15900 35.02500 41.59800
C  -5.90700 34.80400 42.27400
H  -8.13600 41.46700 39.21600
H  -13.97400 42.10100 42.05800
H  -14.28200 35.92900 42.79700
H  -6.63200 37.09300 39.47900
H  -7.13500 39.35600 37.85500
H  -6.26100 39.85300 40.53200
H  -5.55400 40.53300 39.04000
H  -5.11800 38.90200 39.63800
H  -7.37700 37.58100 36.54100
H  -8.28000 36.21200 37.28900
H  -6.47300 34.93400 36.99500
H  -5.47200 36.03000 37.86800
H  -9.82900 44.30700 38.57500
H  -8.50400 43.62100 39.51200
H  -9.61800 44.77300 40.27600
H  -13.98000 44.31000 41.97100
H  -14.54800 43.54500 40.40300
H  -14.38500 45.27000 40.54500
H  -15.70400 40.17400 42.05800
H  -14.88100 38.36300 44.36300
H  -14.08100 41.19700 44.29900
H  -15.69900 40.81500 44.86400
H  -15.47100 42.03500 43.59900
H  -16.27100 36.64800 42.59900
H  -16.78300 38.14400 42.02500
H  -17.62400 36.58500 44.23000
H  -18.35500 38.07500 43.46000
H  -17.25900 38.14900 44.89000
H  -12.47800 32.50700 41.67700
H  -13.75700 33.50700 42.41800
H  -12.37700 33.11100 43.35200
H  -8.58700 34.54500 38.62500
H  -5.00400 34.69300 41.67400
H  -6.08900 33.88300 42.82900
H  -5.78900 35.55400 43.05600

