158

Mg -2.30900 35.37100 27.29500
C  -3.57700 33.43900 29.82500
C  -1.11000 37.59100 29.53900
C  -1.24600 37.05200 24.68700
C  -3.48400 32.87300 25.01200
N  -2.48300 35.54200 29.38200
C  -2.98900 34.64300 30.26800
C  -2.61500 34.94900 31.75600
C  -2.04200 36.42000 31.58200
C  -1.88100 36.55800 30.07600
C  -2.92800 37.54600 32.16600
C  -1.63100 33.97400 32.34400
C  -2.09200 33.11800 33.56000
H  -1.23100 32.97900 34.70500
N  -1.34200 37.12900 27.05500
C  -0.85800 37.85000 28.14200
C  -0.14900 38.99300 27.58700
C  -0.30100 38.91900 26.13100
C  -1.01800 37.68100 25.90500
C  0.61600 40.07500 28.43100
C  0.16600 39.90400 25.08500
O  -0.05500 39.79200 23.82200
C  0.93500 41.20000 25.60000
N  -2.52400 35.06900 25.16100
C  -1.84100 35.84800 24.29300
C  -1.97100 35.42800 22.82400
C  -2.45900 33.93400 22.96200
C  -2.92000 33.94000 24.41300
C  -2.82300 36.29700 21.86200
C  -1.44300 32.85800 22.61200
C  -0.36700 32.62100 23.71200
N  -3.38500 33.53000 27.37100
C  -3.86000 32.71500 26.32600
C  -4.58800 31.60800 26.96800
C  -4.39700 31.81100 28.38000
C  -3.79800 33.05600 28.55000
C  -5.26400 30.61400 26.15500
C  -4.69000 31.29200 29.69100
O  -5.28600 30.25900 29.97000
C  -4.09600 32.28200 30.68600
C  -5.17800 32.75100 31.59200
O  -6.11100 33.51800 31.39500
O  -5.06200 32.01200 32.69800
C  -5.89100 32.33600 33.90200
H  -0.70800 38.24400 30.31700
H  -0.91400 37.65000 23.83600
H  -3.70900 32.04100 24.34000
H  -3.42900 35.11000 32.46300
H  -1.08100 36.56500 32.07400
H  -3.93800 37.21000 32.40300
H  -3.00300 38.43500 31.54000
H  -2.51700 37.72900 33.15900
H  -0.71200 34.48100 32.63600
H  -1.44700 33.18600 31.61400
H  -2.17800 32.10800 33.16000
H  -3.08300 33.35800 33.94600
H  1.68200 39.91800 28.26000
H  0.36300 39.97800 29.48700
H  0.33000 41.09300 28.16800
H  1.83600 41.01500 26.18500
H  0.30700 41.87600 26.18100
H  1.16600 41.76900 24.69900
H  -0.92100 35.37500 22.53600
H  -3.39400 33.68300 22.46200
H  -3.28500 35.64400 21.12100
H  -2.06800 36.91300 21.37300
H  -3.55000 36.99200 22.28400
H  -0.97100 33.23000 21.70200
H  -1.97900 31.97200 22.27000
H  -0.66700 32.71000 24.75600
H  0.60400 33.07900 23.52500
H  -0.00600 31.59900 23.59600
H  -6.21800 30.98200 25.77800
H  -5.62700 29.79500 26.77700
H  -4.70400 30.04500 25.41300
H  -3.22500 31.79600 31.12500
H  -6.81000 32.87900 33.68300
H  -5.31200 32.91200 34.62300
H  -6.09700 31.33900 34.29200
Mg -11.07400 17.45200 42.84300
C  -7.72200 17.72200 43.26400
C  -11.37900 20.98400 42.72100
C  -14.28100 17.26600 41.55700
C  -10.56700 14.03000 42.18700
N  -9.69600 19.13500 43.04300
C  -8.34200 18.99100 43.21800
C  -7.74000 20.40700 43.20100
C  -8.96900 21.33000 43.39400
C  -10.12300 20.51700 43.05300
C  -9.16400 21.89800 44.87500
C  -7.04600 20.66800 41.83700
C  -5.64200 21.24600 41.76600
H  -4.60100 20.32800 40.96100
N  -12.66000 18.93400 42.37800
C  -12.50500 20.26100 42.33200
C  -13.79900 20.87100 42.05300
C  -14.73500 19.79200 41.82900
C  -13.88800 18.60600 41.85500
C  -14.07900 22.35500 41.99100
C  -16.22200 19.91900 41.51500
O  -16.71400 21.01300 41.34900
C  -17.14800 18.76800 41.35700
N  -12.19200 15.95200 41.72200
C  -13.57700 16.04000 41.49700
C  -14.20600 14.64800 41.35700
C  -13.02000 13.69200 41.69600
C  -11.86000 14.55300 41.85000
C  -15.42400 14.51400 42.27000
C  -12.73200 12.52900 40.64600
C  -12.07200 13.09100 39.35700
N  -9.52700 16.07300 42.80500
C  -9.42100 14.72800 42.54700
C  -8.11900 14.24600 42.87000
C  -7.35600 15.38800 43.17800
C  -8.29500 16.46500 43.05900
C  -7.61400 12.85500 42.73700
C  -6.06500 15.87900 43.51400
O  -4.94500 15.38900 43.50500
C  -6.23400 17.43900 43.51300
C  -5.64100 18.06900 44.71500
O  -6.20300 18.26500 45.82100
O  -4.40900 18.63900 44.39800
C  -3.73700 19.33600 45.58500
H  -11.48200 22.05700 42.89700
H  -15.31900 17.02600 41.31800
H  -10.48900 12.94200 42.13300
H  -6.90500 20.59000 43.87800
H  -9.00000 22.17000 42.70000
H  -8.94000 22.96200 44.94700
H  -8.41000 21.42400 45.50200
H  -10.16400 21.79900 45.29700
H  -7.69800 21.20400 41.14700
H  -7.01500 19.69900 41.33900
H  -5.27900 21.52600 42.75500
H  -5.59600 22.10500 41.09800
H  -14.48500 22.72700 41.05000
H  -13.27100 23.00100 42.33600
H  -14.79200 22.56000 42.79000
H  -18.15500 19.18300 41.37200
H  -17.04400 18.10100 42.21300
H  -16.92200 18.38400 40.36200
H  -14.53300 14.63000 40.31700
H  -13.15200 13.24700 42.68200
H  -15.32300 14.93500 43.27000
H  -15.43900 13.42700 42.35000
H  -16.30200 14.91600 41.76400
H  -13.71000 12.14800 40.35400
H  -12.20800 11.67800 41.08000
H  -12.75900 13.15700 38.51400
H  -11.26000 12.48500 38.95400
H  -11.73800 14.12500 39.44900
H  -6.66600 12.69400 43.25000
H  -7.45400 12.59100 41.69100
H  -8.41400 12.28400 43.20800
H  -5.64600 17.76100 42.65400
H  -2.87000 19.93600 45.30900
H  -3.55200 18.67200 46.42900
H  -4.46600 20.01100 46.03200

