158

Mg 0.61000 7.74800 27.53800
C  1.33900 9.86900 30.10300
C  0.34000 5.20500 29.56000
C  -0.00800 5.97300 24.72400
C  1.04900 10.61300 25.29900
N  0.92300 7.62100 29.56100
C  1.18600 8.57900 30.51600
C  1.01700 8.05500 31.88700
C  1.17200 6.51000 31.63100
C  0.76500 6.40700 30.15500
C  2.61700 5.93000 31.83700
C  -0.42500 8.41400 32.37200
C  -0.42900 9.00500 33.76700
H  0.64100 8.66900 34.90000
N  0.34500 5.80000 27.21300
C  0.26900 4.85200 28.18300
C  0.13700 3.58100 27.62300
C  0.21700 3.72200 26.20900
C  0.16500 5.22000 25.99500
C  0.01500 2.36700 28.44400
C  0.34900 2.64100 25.05500
O  0.30400 3.00100 23.89300
C  0.32400 1.17400 25.42500
N  0.45600 8.27200 25.31300
C  0.06700 7.35400 24.43000
C  -0.13800 7.85200 23.01300
C  0.08100 9.43300 23.25800
C  0.55300 9.47100 24.70500
C  0.76300 7.40700 21.75000
C  -1.12300 10.42400 22.90600
C  -1.24400 10.90200 21.51700
N  1.05400 9.87600 27.56200
C  1.21300 10.87100 26.64700
C  1.52400 12.10700 27.32800
C  1.54300 11.77700 28.67800
C  1.24500 10.39200 28.84000
C  1.68400 13.47300 26.77600
C  1.73500 12.33500 29.96500
O  2.13800 13.46900 30.26800
C  1.64400 11.07400 30.99900
C  2.96700 10.90600 31.71900
O  4.01700 10.39100 31.32400
O  2.82100 11.60700 32.85700
C  3.77500 11.47400 33.93500
H  0.30200 4.38300 30.27800
H  -0.22200 5.37500 23.83600
H  1.15200 11.45300 24.60900
H  1.74000 8.49800 32.57100
H  0.46900 5.97500 32.26900
H  3.05700 5.75400 30.85500
H  2.48500 4.95200 32.29900
H  3.26400 6.60100 32.40100
H  -1.13800 7.59400 32.46300
H  -0.93800 8.99100 31.60300
H  -1.41800 8.89300 34.21100
H  -0.38000 10.06100 33.49900
H  -0.79300 1.67800 28.20000
H  -0.37400 2.60100 29.43500
H  0.92400 1.76800 28.49500
H  -0.56800 0.88500 25.98100
H  1.18800 0.98400 26.06300
H  0.47900 0.49500 24.58700
H  -1.19800 7.62600 22.89500
H  0.85100 9.86300 22.61700
H  1.15500 8.15900 21.06400
H  0.23200 6.68000 21.13600
H  1.72200 6.95700 22.00700
H  -0.95600 11.29900 23.53400
H  -2.04700 9.93200 23.20900
H  -2.14800 10.58400 20.99900
H  -0.44200 10.62100 20.83400
H  -1.29200 11.98400 21.64400
H  1.66700 13.51100 25.68700
H  2.61100 13.92200 27.13400
H  0.80600 14.00100 27.14800
H  0.79800 11.23800 31.66700
H  4.17100 12.47000 34.13400
H  4.59700 10.81700 33.65100
H  3.40300 10.93800 34.80800
Mg 0.22100 43.34700 24.89800
C  2.13900 43.28000 28.00500
C  -2.60700 42.74900 26.92100
C  -1.46600 42.80200 22.14400
C  3.20000 43.61200 23.23700
N  -0.08600 43.03000 27.28100
C  0.77600 43.15400 28.34400
C  0.07400 43.10400 29.70200
C  -1.47800 42.82500 29.22500
C  -1.44500 42.87100 27.75400
C  -1.99500 41.37100 29.56000
C  0.13200 44.33800 30.53300
C  0.57200 44.14700 32.02900
H  0.45500 42.77200 32.78800
N  -1.76900 42.98900 24.50100
C  -2.76500 42.76000 25.47000
C  -4.00500 42.44500 24.80500
C  -3.80100 42.65100 23.37500
C  -2.30000 42.81400 23.25600
C  -5.23300 42.04000 25.56100
C  -4.74900 42.72300 22.26000
O  -4.40200 42.88700 21.08800
C  -6.29200 42.65000 22.52100
N  0.81300 43.05200 22.99700
C  -0.08300 42.97600 21.99900
C  0.56800 43.14100 20.64900
C  1.93700 43.78700 21.08200
C  2.03600 43.35000 22.51200
C  0.71800 41.64000 20.02900
C  1.82900 45.34200 20.88500
C  3.13500 46.14000 20.76100
N  2.33900 43.43600 25.46000
C  3.43000 43.62900 24.63600
C  4.65300 43.75300 25.41400
C  4.18100 43.60700 26.73500
C  2.77100 43.41500 26.73400
C  6.06100 44.01900 24.90400
C  4.58900 43.53600 28.12800
O  5.76200 43.60300 28.54600
C  3.25100 43.42700 29.05200
C  3.41200 42.30700 29.89700
O  3.23800 41.14900 29.58700
O  4.02100 42.79800 31.03700
C  4.41700 41.75900 32.01700
H  -3.53700 42.74700 27.49300
H  -1.86300 42.68900 21.13300
H  4.09300 43.91400 22.68600
H  0.49700 42.25000 30.23100
H  -2.20300 43.57700 29.53500
H  -1.34900 40.90400 30.30400
H  -1.94400 40.78000 28.64500
H  -3.02400 41.49700 29.89400
H  -0.81500 44.87500 30.58600
H  0.75300 45.09400 30.05300
H  -0.19900 44.74700 32.51400
H  1.52200 44.67500 32.11600
H  -5.69600 41.33600 24.87000
H  -6.04200 42.76900 25.58100
H  -5.09500 41.64500 26.56800
H  -6.76600 42.91500 21.57600
H  -6.52200 43.54800 23.09300
H  -6.67300 41.77000 23.03800
H  -0.01000 43.80100 20.00400
H  2.76300 43.39200 20.49000
H  0.62700 41.80800 18.95600
H  -0.07200 40.93500 20.28900
H  1.64600 41.11300 20.24900
H  1.16500 45.82100 21.60500
H  1.43400 45.52800 19.88600
H  3.18400 46.54800 19.75100
H  3.94100 45.43100 20.95300
H  3.25200 46.95500 21.47500
H  6.27700 45.05700 25.15900
H  6.03600 43.86700 23.82500
H  6.69900 43.27500 25.38000
H  3.14000 44.37000 29.58700
H  3.95000 40.79900 31.79600
H  4.00700 42.09200 32.97100
H  5.48900 41.60200 32.13700

