158

Mg 29.59300 57.37800 41.02400
C  26.62000 55.90100 39.93100
C  31.30500 55.14000 39.43700
C  32.22700 59.37100 41.43400
C  27.49200 59.99300 42.46000
N  28.97900 55.71300 39.83800
C  27.75300 55.22400 39.49500
C  27.85500 53.92800 38.65500
C  29.33300 53.58600 38.99700
C  29.97900 54.89500 39.35800
C  29.53000 52.62200 40.23500
C  27.45300 54.18900 37.12700
C  26.62500 52.99000 36.47100
H  26.71900 52.93900 34.94000
N  31.54600 57.23400 40.62900
C  32.07300 56.24900 39.93100
C  33.48600 56.36200 39.74100
C  33.83600 57.59500 40.36500
C  32.51000 58.12800 40.85500
C  34.33400 55.41600 39.00700
C  35.17600 58.06500 40.51400
O  36.09900 57.58200 39.86400
C  35.53400 59.37200 41.24700
N  29.76400 59.44600 41.69800
C  31.06600 59.97100 41.88500
C  30.98300 61.41600 42.38800
C  29.52300 61.48800 42.97300
C  28.88300 60.24500 42.31700
C  32.13000 61.78900 43.39900
C  28.74200 62.71200 42.45100
C  28.10500 63.61900 43.52900
N  27.50800 57.91300 41.15100
C  26.80300 58.96300 41.76800
C  25.36500 58.73100 41.68900
C  25.23200 57.50800 41.02600
C  26.60100 57.10700 40.65900
C  24.25400 59.59200 42.23700
C  24.27300 56.51700 40.52600
O  23.05400 56.49400 40.56900
C  25.15100 55.55000 39.75200
C  24.84700 54.18700 40.36400
O  25.32500 53.82300 41.43100
O  24.04900 53.45900 39.55500
C  23.48000 52.19000 39.89700
H  31.91800 54.25300 39.26200
H  33.10100 60.02600 41.44400
H  26.90300 60.77500 42.94400
H  27.21600 53.20000 39.15400
H  29.70500 53.18100 38.05600
H  28.68800 52.96800 40.83500
H  30.44400 52.74000 40.81600
H  29.37500 51.57400 39.98000
H  28.25700 54.44700 36.43800
H  26.74600 55.01800 37.08900
H  25.61900 53.06700 36.88300
H  27.07500 52.07100 36.84600
H  35.07800 55.86300 38.34800
H  33.70600 54.79500 38.36800
H  34.75100 54.65300 39.66400
H  36.59400 59.50800 41.46500
H  34.95700 59.25700 42.16400
H  35.16300 60.14200 40.57100
H  31.18100 62.09900 41.56200
H  29.33600 61.35900 44.03900
H  32.73600 62.54700 42.90200
H  32.84600 60.97900 43.53700
H  31.70300 62.03900 44.37000
H  28.08500 62.42100 41.63200
H  29.45600 63.36900 41.95500
H  28.90900 64.32800 43.72600
H  28.11900 62.94500 44.38600
H  27.12300 63.99000 43.23400
H  24.61700 60.18600 43.07600
H  23.45300 58.94200 42.58900
H  23.88200 60.21500 41.42300
H  24.80500 55.55800 38.71900
H  24.29600 51.51300 39.64600
H  22.65000 52.02500 39.21000
H  23.20600 52.00500 40.93600
Mg 16.21200 52.37600 25.13700
C  17.48300 50.84500 27.87600
C  13.57700 53.45400 27.02500
C  14.61700 53.24600 22.31400
C  18.66800 50.79000 23.16300
N  15.75900 52.43700 27.24000
C  16.42700 51.72200 28.22000
C  15.86500 52.07600 29.63900
C  14.58600 52.95400 29.29100
C  14.59400 52.90400 27.76200
C  13.21100 52.45900 29.93100
C  16.95200 52.72000 30.52400
C  17.11200 52.16900 31.96000
H  15.96300 51.40600 32.59500
N  14.49800 53.43100 24.77300
C  13.46300 53.69400 25.64300
C  12.49200 54.46500 24.96700
C  12.68100 54.32400 23.58200
C  13.94200 53.62100 23.49100
C  11.21700 55.14500 25.69300
C  11.85100 54.67500 22.35900
O  12.17800 54.40900 21.19400
C  10.50900 55.36100 22.55100
N  16.63200 52.12500 23.02600
C  15.80500 52.57800 22.11600
C  16.39300 52.19600 20.76500
C  17.91800 51.86400 20.98800
C  17.75200 51.53200 22.46700
C  15.65100 51.08200 19.88900
C  18.91400 53.09500 20.94700
C  20.14200 52.83000 20.16000
N  17.75600 51.10500 25.44300
C  18.73100 50.62100 24.56000
C  19.65900 49.78400 25.28400
C  19.20100 49.94300 26.61100
C  18.02200 50.68400 26.60900
C  20.81900 48.99300 24.74300
C  19.47600 49.48500 27.92200
O  20.35200 48.74900 28.31600
C  18.42700 50.16200 28.83600
C  17.81600 49.11800 29.80100
O  16.64900 48.77500 29.87600
O  18.75000 48.73600 30.70500
C  18.28300 47.93600 31.84400
H  12.84400 53.86100 27.72500
H  14.27000 53.47800 21.30500
H  19.49200 50.46000 22.52600
H  15.50200 51.17000 30.12400
H  14.77400 54.01300 29.47200
H  12.63100 52.16600 29.05600
H  12.68600 53.26600 30.44300
H  13.31900 51.60500 30.59800
H  16.67700 53.73500 30.81000
H  17.97000 52.79300 30.14400
H  17.36400 53.00900 32.60800
H  17.94600 51.46600 31.96900
H  10.24200 55.06100 25.21300
H  11.51400 56.16900 25.92000
H  11.24600 54.74100 26.70500
H  9.63300 54.78400 22.84800
H  10.34100 55.61300 21.50400
H  10.65600 56.21600 23.21000
H  16.19900 53.11100 20.20500
H  18.28600 50.93800 20.54600
H  14.81900 50.84200 20.55000
H  16.37000 50.26400 19.84100
H  15.33900 51.37600 18.88600
H  19.26700 53.46400 21.90900
H  18.39700 53.96500 20.54300
H  19.98100 52.84600 19.08200
H  20.50600 51.85900 20.49400
H  20.98600 53.48100 20.38900
H  20.63700 48.64300 23.72700
H  21.11000 48.13800 25.35400
H  21.65500 49.67200 24.57400
H  18.94300 50.79900 29.55400
H  17.90900 48.48200 32.71000
H  19.02600 47.22800 32.21200
H  17.51200 47.23400 31.52800

