158

Mg 17.25300 -1.35400 27.54600
C  16.24700 0.79900 30.18500
C  19.25400 -3.04200 29.78200
C  18.73000 -2.77800 24.95600
C  15.80800 0.96700 25.38000
N  17.76200 -1.12900 29.70400
C  17.12100 -0.26200 30.54300
C  17.69900 -0.47100 32.06200
C  18.64700 -1.71900 31.88000
C  18.59100 -1.95300 30.35600
C  20.04200 -1.63200 32.50500
C  16.58000 -0.64100 33.24100
C  16.97100 0.13400 34.57500
H  18.43700 0.36500 34.87800
N  18.74200 -2.81200 27.35800
C  19.31800 -3.47500 28.38900
C  20.19500 -4.51400 27.84800
C  20.05100 -4.45600 26.43100
C  19.12700 -3.37500 26.18500
C  20.89500 -5.47900 28.78900
C  20.73200 -5.29200 25.37400
O  20.49200 -5.21800 24.16600
C  21.90300 -6.11200 25.76300
N  17.27000 -0.97100 25.40900
C  17.99300 -1.67700 24.57200
C  17.79800 -1.22900 23.10300
C  16.67700 -0.17700 23.27800
C  16.56800 -0.04700 24.76500
C  19.00900 -0.67800 22.26600
C  15.31500 -0.41700 22.58100
C  15.20100 0.09700 21.09100
N  16.04000 0.41100 27.70700
C  15.56900 1.26800 26.76700
C  14.79500 2.36100 27.28400
C  15.00100 2.19300 28.65700
C  15.86600 1.02900 28.87000
C  14.02100 3.51100 26.49600
C  14.67900 2.72800 29.93000
O  13.93400 3.62800 30.34900
C  15.53600 1.81800 30.96200
C  16.52900 2.80900 31.69300
O  17.68100 3.06800 31.29700
O  15.95600 3.22200 32.91000
C  16.80700 4.09200 33.79500
H  19.79600 -3.60600 30.54400
H  19.11100 -3.30900 24.08200
H  15.26900 1.75600 24.85000
H  18.24900 0.45500 32.23100
H  18.16900 -2.51900 32.44400
H  20.11800 -0.89400 33.30400
H  20.61600 -1.39400 31.60900
H  20.34400 -2.60800 32.88500
H  16.54600 -1.71300 33.43600
H  15.59300 -0.32000 32.91000
H  16.39800 -0.35500 35.36200
H  16.56500 1.14200 34.66300
H  21.94900 -5.65000 28.57200
H  20.32100 -6.39400 28.64300
H  20.74300 -5.30800 29.85400
H  22.31800 -6.62400 24.89500
H  21.65200 -6.88600 26.48800
H  22.74700 -5.50900 26.09900
H  17.31400 -1.98600 22.48600
H  16.98400 0.79100 22.88100
H  19.84500 -1.12200 22.80700
H  19.06800 0.41000 22.28900
H  19.06500 -0.98000 21.22000
H  14.52200 0.05600 23.15900
H  15.10800 -1.48400 22.66000
H  14.33900 0.76100 21.03300
H  15.01500 -0.76600 20.45300
H  16.07100 0.66900 20.76800
H  14.01600 3.22700 25.44400
H  14.52000 4.47700 26.58000
H  13.03300 3.67400 26.92600
H  14.86900 1.55700 31.78400
H  17.77100 4.45300 33.43600
H  17.07500 3.47000 34.64800
H  16.21400 4.89100 34.24200
Mg 26.13800 0.29100 28.37900
C  27.75300 0.08300 31.43300
C  23.17500 0.71700 30.11900
C  24.48900 0.24000 25.41300
C  29.05700 -0.70200 26.77700
N  25.57700 0.30200 30.60000
C  26.39400 0.22300 31.64800
C  25.65600 0.50600 33.03200
C  24.18000 0.63400 32.48500
C  24.30300 0.49600 30.95500
C  23.15700 -0.41200 33.10500
C  26.15100 1.68500 33.90200
C  26.56600 1.25200 35.32900
H  26.04200 2.23000 36.43200
N  24.14500 0.51200 27.80500
C  23.06700 0.68600 28.65200
C  21.87600 0.87600 27.90800
C  22.22200 0.88100 26.54400
C  23.68600 0.45600 26.51800
C  20.53400 0.91500 28.56100
C  21.32200 1.20500 25.31100
O  21.84400 1.18100 24.17200
C  19.94700 1.70100 25.52700
N  26.67300 -0.21800 26.38000
C  25.83600 -0.09900 25.29500
C  26.56800 -0.18300 23.91300
C  28.04700 -0.40900 24.39100
C  27.97400 -0.37300 25.98900
C  26.16900 -1.33800 22.92500
C  29.16100 0.55900 23.77700
C  29.33500 1.94000 24.38600
N  28.03300 -0.18300 28.96200
C  29.10600 -0.49000 28.16300
C  30.25900 -0.65600 28.99500
C  29.73100 -0.38400 30.30300
C  28.40300 -0.15000 30.20600
C  31.64700 -1.00100 28.55800
C  30.14600 -0.30000 31.71000
O  31.17600 -0.49600 32.31100
C  28.82800 0.07100 32.47400
C  28.50000 -0.93200 33.58800
O  27.73100 -1.87100 33.50600
O  29.22000 -0.67500 34.74400
C  28.85300 -1.37400 35.98300
H  22.37200 0.85300 30.84600
H  24.07600 0.49300 24.43400
H  29.98400 -0.92300 26.24500
H  25.67300 -0.38400 33.66100
H  23.88400 1.65000 32.74800
H  22.30000 0.17000 33.44400
H  23.50900 -0.83500 34.04500
H  22.92000 -1.14800 32.33700
H  25.49700 2.54000 34.08000
H  27.08900 1.99200 33.44000
H  27.63400 1.06000 35.42800
H  26.15600 0.25000 35.45600
H  20.30000 1.96900 28.71200
H  20.58500 0.29900 29.45900
H  19.70100 0.43200 28.05000
H  19.36100 0.81900 25.78400
H  19.64500 2.20200 24.60700
H  19.95700 2.36500 26.39100
H  26.34800 0.76800 23.42800
H  28.39800 -1.43100 24.25300
H  25.09900 -1.53200 22.99800
H  26.66900 -2.29400 23.08200
H  26.32200 -1.04600 21.88600
H  29.06300 0.76900 22.71200
H  30.12000 0.04500 23.83700
H  28.69300 2.58100 23.78300
H  30.36500 2.23000 24.17600
H  29.25100 1.85700 25.47000
H  32.06800 -1.67600 29.30200
H  32.27500 -0.11500 28.66200
H  31.54000 -1.58200 27.64100
H  28.97100 1.06200 32.90400
H  29.11600 -2.43100 35.93600
H  27.77800 -1.27800 36.13500
H  29.25800 -0.91700 36.88600

