158

Mg 24.76300 -6.67400 45.86800
C  26.83600 -4.12500 44.32500
C  22.25800 -5.58300 43.82400
C  23.26200 -9.49100 46.41200
C  27.63000 -7.71600 47.59100
N  24.64200 -5.05900 44.22200
C  25.56700 -4.13300 43.75200
C  24.84400 -3.06200 42.86000
C  23.35100 -3.49800 42.90700
C  23.40700 -4.77900 43.72400
C  22.29900 -2.46700 43.50900
C  25.44500 -3.02500 41.47200
C  25.69800 -1.63800 40.76600
H  25.06700 -1.33000 39.38300
N  22.95800 -7.42700 45.35300
C  22.06500 -6.80900 44.50200
C  20.94700 -7.64100 44.27200
C  21.19200 -8.78100 45.05100
C  22.48600 -8.59300 45.64100
C  19.73500 -7.29200 43.51900
C  20.25800 -9.99300 45.13400
O  19.08200 -9.94300 44.70600
C  20.72700 -11.18300 45.74400
N  25.41700 -8.42900 46.75800
C  24.54500 -9.44500 46.97100
C  25.31100 -10.62500 47.66200
C  26.57800 -9.95700 48.22600
C  26.58800 -8.65200 47.47100
C  24.52000 -11.47800 48.68000
C  27.92000 -10.84500 48.09300
C  29.11800 -10.69900 49.10300
N  26.85100 -6.01200 46.09200
C  27.79200 -6.54800 46.78300
C  29.02400 -5.70600 46.61600
C  28.65000 -4.70800 45.64100
C  27.31500 -5.00100 45.31800
C  30.31700 -5.78100 47.38700
C  29.16300 -3.62600 44.87600
O  30.33000 -3.25200 44.72300
C  27.99300 -3.20300 43.92900
C  27.61600 -1.79000 44.25100
O  27.22400 -1.29500 45.34700
O  27.87300 -0.99300 43.14400
C  27.57600 0.47900 43.11100
H  21.42300 -5.18200 43.24600
H  22.87500 -10.47600 46.68400
H  28.49500 -8.10500 48.13200
H  24.96800 -2.05700 43.26400
H  22.96600 -3.74100 41.91700
H  22.66200 -1.46100 43.71500
H  21.84000 -2.73100 44.46200
H  21.50700 -2.47100 42.76000
H  24.82000 -3.48600 40.70800
H  26.33200 -3.65000 41.57600
H  26.76700 -1.62600 40.55400
H  25.39900 -0.77200 41.35700
H  19.01900 -8.09300 43.33600
H  20.03300 -6.79300 42.59700
H  19.14300 -6.56000 44.06900
H  19.90600 -11.88500 45.88800
H  21.05100 -10.82200 46.72000
H  21.53800 -11.63300 45.17100
H  25.54500 -11.23200 46.78700
H  26.46000 -9.76100 49.29100
H  23.46300 -11.21200 48.66600
H  24.85600 -11.19200 49.67700
H  24.57100 -12.55300 48.50800
H  28.36100 -10.64900 47.11600
H  27.57800 -11.88000 48.06400
H  29.46900 -11.60000 49.60600
H  28.93400 -9.98000 49.90200
H  29.98100 -10.26900 48.59500
H  30.90300 -4.92200 47.06000
H  30.81900 -6.70000 47.08300
H  30.11300 -5.73600 48.45600
H  28.17000 -3.39100 42.87000
H  26.96900 0.62900 42.21800
H  28.49200 1.03200 42.90600
H  27.03400 0.74400 44.02000
Mg -4.89400 26.31900 26.32000
C  -3.70000 27.75100 29.37800
C  -6.80700 24.23200 28.31500
C  -5.65600 24.65300 23.54500
C  -2.52900 28.19900 24.54700
N  -5.07000 25.93600 28.64500
C  -4.60900 26.75800 29.66400
C  -5.03700 26.22400 31.05600
C  -5.89700 24.97400 30.67400
C  -5.98700 25.04700 29.13000
C  -5.28400 23.62300 31.19500
C  -5.85900 27.35200 31.77000
C  -5.88400 27.33600 33.29300
H  -5.50400 26.13100 34.06700
N  -6.08300 24.64500 26.01300
C  -6.90100 24.04500 26.89500
C  -7.68200 23.12000 26.17000
C  -7.40200 23.17100 24.73600
C  -6.35300 24.20700 24.72900
C  -8.77500 22.40900 26.78200
C  -7.98400 22.45800 23.48600
O  -7.41200 22.51700 22.39500
C  -9.21000 21.58700 23.66700
N  -4.29000 26.48400 24.34700
C  -4.82500 25.74300 23.35900
C  -4.35200 26.24600 21.95200
C  -3.36700 27.40300 22.30000
C  -3.45000 27.41100 23.85700
C  -3.63100 25.18300 21.06400
C  -3.69600 28.80600 21.70100
C  -2.87000 29.31800 20.50000
N  -3.40700 27.72800 26.80100
C  -2.49500 28.33300 25.96500
C  -1.58100 29.20700 26.79500
C  -2.09200 29.04100 28.15000
C  -3.15200 28.12000 28.08000
C  -0.40200 29.98100 26.29200
C  -1.81100 29.40200 29.55200
O  -1.03200 30.15800 30.04600
C  -2.85700 28.53900 30.42200
C  -2.00300 27.73200 31.25400
O  -1.39900 26.72500 30.78600
O  -2.02000 28.11000 32.55800
C  -0.96000 27.53300 33.39900
H  -7.55300 23.64600 28.85500
H  -5.88500 24.14500 22.60600
H  -1.82900 28.74700 23.91300
H  -4.21000 25.83800 31.65200
H  -6.94900 25.02900 30.95300
H  -4.82500 23.12800 30.33900
H  -6.08700 22.98400 31.56000
H  -4.57900 23.69900 32.02300
H  -6.92000 27.39000 31.52100
H  -5.42000 28.30100 31.46200
H  -6.94500 27.53000 33.45000
H  -5.31100 28.16400 33.71100
H  -8.79700 22.32400 27.86800
H  -8.78600 21.37100 26.44900
H  -9.67300 22.88300 26.38700
H  -9.89600 22.01400 24.39800
H  -8.79600 20.63200 23.98900
H  -9.82600 21.53400 22.77000
H  -5.17700 26.65400 21.36700
H  -2.39300 27.08300 21.92800
H  -4.19700 25.07000 20.13900
H  -3.64200 24.23800 21.60700
H  -2.58700 25.38300 20.82600
H  -3.70000 29.56800 22.48000
H  -4.72300 28.89700 21.34900
H  -3.47500 29.35800 19.59400
H  -1.89400 28.84200 20.40500
H  -2.71300 30.35500 20.79600
H  -0.74300 30.92800 25.87300
H  0.13500 29.37900 25.55900
H  0.16300 30.20900 27.19600
H  -3.38000 29.27400 31.03500
H  -0.06800 27.48400 32.77400
H  -1.18400 26.48800 33.61400
H  -0.75000 28.18200 34.24800

