158

Mg 7.88200 2.73900 27.57100
C  9.44700 1.37500 30.33400
C  5.97800 4.53400 29.90400
C  5.86100 3.60100 25.13700
C  9.41400 0.36800 25.53200
N  7.81500 3.01500 29.82700
C  8.63100 2.41200 30.72500
C  8.38800 2.90000 32.14700
C  7.14300 3.79800 32.00100
C  6.91800 3.75700 30.48100
C  5.89800 3.36900 32.83000
C  9.62900 3.54600 32.88900
C  9.32600 4.62500 33.92200
H  10.17200 4.63800 35.14900
N  6.21500 3.98100 27.54200
C  5.58400 4.61400 28.52800
C  4.50800 5.37800 28.04200
C  4.46700 5.26300 26.58500
C  5.53400 4.23000 26.35200
C  3.54400 6.16800 28.99400
C  3.66300 5.90900 25.54200
O  3.76800 5.62100 24.34400
C  2.59300 6.94200 25.88200
N  7.75800 2.14000 25.58400
C  6.85300 2.73700 24.73200
C  7.12000 2.22000 23.28300
C  8.34800 1.26700 23.42400
C  8.48100 1.22400 24.95300
C  5.76400 1.63200 22.73300
C  9.65300 1.41900 22.55900
C  10.08200 0.14500 21.89900
N  9.17100 1.19800 27.78300
C  9.65000 0.29300 26.91100
C  10.50500 -0.68100 27.53300
C  10.39100 -0.26900 28.94900
C  9.57000 0.86700 29.03400
C  11.38400 -1.78400 26.91400
C  10.87800 -0.63200 30.29500
O  11.66600 -1.47000 30.70200
C  10.32300 0.50100 31.26200
C  9.60200 -0.11900 32.40100
O  8.57800 -0.82900 32.35500
O  10.24900 0.18300 33.56100
C  9.63400 -0.34000 34.78400
H  5.48600 5.15200 30.65800
H  5.20800 3.76100 24.27700
H  9.83800 -0.27000 24.75400
H  8.28300 2.05500 32.82900
H  7.35200 4.83700 32.25700
H  5.23300 2.86100 32.13100
H  5.43600 4.27300 33.22900
H  6.29500 2.65300 33.54900
H  10.30100 3.91900 32.11700
H  10.21600 2.89200 33.53500
H  8.31300 4.44600 34.28400
H  9.35800 5.64800 33.54700
H  3.48800 7.18400 28.60100
H  4.07200 6.31800 29.93500
H  2.55500 5.72400 29.11200
H  2.14000 6.85500 24.89500
H  2.87000 7.99500 25.94100
H  1.88500 6.58100 26.62800
H  7.52000 3.06700 22.72600
H  7.96000 0.25900 23.27500
H  5.01900 1.52100 23.52100
H  5.86200 0.62600 22.32500
H  5.32400 2.23100 21.93500
H  10.47300 1.71300 23.21400
H  9.47400 2.23300 21.85600
H  10.82000 -0.21100 22.61700
H  10.48100 0.34100 20.90400
H  9.27800 -0.55900 21.68300
H  11.27000 -1.71800 25.83200
H  11.02900 -2.74300 27.29200
H  12.43900 -1.56400 27.07500
H  11.17900 1.12100 31.52900
H  9.69500 -1.42800 34.80400
H  8.63700 -0.04300 35.11000
H  10.29300 -0.18400 35.63800
Mg 0.41800 43.39600 25.54000
C  1.75200 43.20600 28.87900
C  -2.58500 42.46200 26.87100
C  -0.69800 43.04500 22.50200
C  3.71800 43.51900 24.36300
N  -0.37000 43.03900 27.64500
C  0.34200 43.01400 28.80200
C  -0.53500 42.88700 30.04600
C  -1.91900 42.37300 29.42300
C  -1.59200 42.49500 27.87600
C  -2.33800 40.95200 29.79000
C  -0.61200 44.23900 30.83400
C  0.02800 44.29700 32.27200
H  -0.85500 44.34000 33.49500
N  -1.45500 42.96700 24.80900
C  -2.59300 42.62300 25.46100
C  -3.73200 42.72000 24.45800
C  -3.18900 42.94700 23.15400
C  -1.70400 42.99500 23.43000
C  -5.19500 42.62400 24.87100
C  -3.84100 42.90300 21.77400
O  -3.24700 43.05100 20.73000
C  -5.22400 42.45200 21.67000
N  1.34400 43.24100 23.74100
C  0.64300 43.20700 22.55600
C  1.60800 43.22700 21.36800
C  2.92200 43.61300 21.94800
C  2.67200 43.43000 23.46600
C  1.51200 41.91500 20.55100
C  3.29400 45.01900 21.60200
C  3.70300 45.39500 20.14000
N  2.41300 43.47200 26.41700
C  3.68500 43.48900 25.78400
C  4.73500 43.69500 26.82200
C  3.96300 43.60000 28.06800
C  2.58000 43.42200 27.74800
C  6.24500 43.75900 26.74400
C  4.16200 43.30500 29.44600
O  5.20400 43.20000 30.12300
C  2.70400 43.20100 30.06700
C  2.66300 41.92200 30.76500
O  2.42000 40.83300 30.26700
O  3.13600 42.24200 32.03600
C  3.21100 41.01800 32.97500
H  -3.59500 42.30600 27.25600
H  -1.04700 42.96900 21.47000
H  4.72400 43.68800 23.97300
H  -0.13200 42.06300 30.63500
H  -2.73200 42.97600 29.82800
H  -1.88000 40.64700 30.73000
H  -1.93600 40.25700 29.05300
H  -3.42700 40.89300 29.80800
H  -1.63800 44.60500 30.86500
H  -0.08400 44.95400 30.20500
H  0.56100 45.24800 32.27800
H  0.87100 43.62500 32.43300
H  -5.88600 43.19100 24.24700
H  -5.21500 43.02600 25.88400
H  -5.48600 41.57700 24.95700
H  -5.46300 42.20400 20.63500
H  -5.81900 43.27700 22.06100
H  -5.26100 41.50100 22.20100
H  1.23500 44.05400 20.76400
H  3.73700 42.98800 21.58200
H  1.42500 41.11700 21.28900
H  2.46100 41.68200 20.06700
H  0.84200 41.98100 19.69300
H  4.15500 45.25000 22.22900
H  2.52200 45.69700 21.96600
H  3.23800 44.66100 19.48200
H  4.77200 45.54700 19.99300
H  3.24400 46.35800 19.91500
H  6.65300 43.35000 25.82000
H  6.64400 43.18400 27.58000
H  6.53500 44.81000 26.75600
H  2.53000 43.97800 30.81100
H  3.39900 40.06200 32.48700
H  2.22400 40.94400 33.42900
H  3.90300 40.95800 33.81500

