158

Mg 47.32400 15.87000 28.06200
C  45.27900 15.26400 30.95100
C  49.34500 17.66600 29.95100
C  48.92300 16.92200 25.26600
C  44.72900 14.62100 26.09900
N  47.27100 16.46600 30.18800
C  46.46600 16.06000 31.15400
C  46.81900 16.65900 32.51400
C  48.13100 17.42400 32.27000
C  48.21400 17.25000 30.68200
C  48.27700 18.84400 32.77000
C  47.09600 15.49100 33.58700
C  47.68100 15.99900 34.91400
H  47.08400 17.34000 35.49600
N  49.07700 16.86600 27.69200
C  49.73300 17.54200 28.62900
C  50.96100 17.99300 28.10700
C  50.96400 17.66800 26.74300
C  49.60300 17.11900 26.47200
C  52.02000 18.55400 29.00800
C  52.09600 17.77300 25.76400
O  51.86400 17.81100 24.54400
C  53.49800 18.00000 26.35100
N  47.07800 15.54200 25.87900
C  47.74600 16.22800 24.96200
C  46.97300 16.32200 23.59200
C  45.72500 15.43000 23.95600
C  45.82500 15.18600 25.43800
C  46.51600 17.83000 23.22400
C  45.60900 14.12600 23.02200
C  44.51500 14.05600 21.93600
N  45.42400 14.97500 28.41500
C  44.48300 14.57300 27.49000
C  43.32600 14.06600 28.12200
C  43.55500 14.25000 29.49100
C  44.83600 14.85600 29.63800
C  42.03600 13.57700 27.47400
C  43.03600 14.09200 30.79800
O  41.91300 13.72200 31.18200
C  44.14200 14.72100 31.83900
C  43.41500 15.73100 32.58600
O  42.94300 16.81100 32.08800
O  43.24800 15.28100 33.84500
C  42.21300 15.95700 34.64800
H  50.01500 18.27500 30.56100
H  49.40300 17.29400 24.35800
H  43.79000 14.55000 25.54700
H  46.03200 17.34200 32.83300
H  48.95700 16.82000 32.64500
H  48.04100 19.54400 31.96900
H  49.31200 18.93300 33.10100
H  47.63200 19.12800 33.60200
H  47.89000 14.87300 33.16700
H  46.14900 14.95300 33.60400
H  48.76000 16.14900 34.88000
H  47.43400 15.25600 35.67200
H  52.36100 19.43800 28.46900
H  52.78300 17.79400 29.17900
H  51.70100 19.00800 29.94600
H  54.15900 18.07600 25.48700
H  53.81800 17.20400 27.02400
H  53.42900 18.92600 26.92200
H  47.57500 15.95000 22.76300
H  44.76300 15.89700 23.74100
H  45.44300 17.96600 23.35600
H  46.73000 18.04100 22.17600
H  47.00900 18.52600 23.90300
H  45.58600 13.24300 23.66100
H  46.55300 14.18600 22.47900
H  43.72500 14.80600 21.95900
H  43.85100 13.20700 22.09700
H  45.05700 13.89800 21.00300
H  41.96800 12.53000 27.17900
H  41.95200 14.27600 26.64100
H  41.14300 13.71400 28.08400
H  44.41400 13.94400 32.55300
H  42.85100 16.67600 35.16200
H  41.96600 15.05400 35.20700
H  41.39500 16.31100 34.02100
Mg -11.96600 16.65700 42.06200
C  -8.83100 15.06900 41.50000
C  -10.70600 19.44700 40.66000
C  -15.05400 17.84000 42.04000
C  -13.17600 13.41600 43.04800
N  -9.99000 17.15900 41.01100
C  -8.86400 16.38400 41.05300
C  -7.68100 17.23300 40.51800
C  -8.23600 18.71400 40.62400
C  -9.72500 18.40700 40.78400
C  -7.55700 19.66300 41.72000
C  -7.18100 16.82700 39.12300
C  -5.69000 17.34700 38.88900
H  -5.63000 18.16600 37.64100
N  -12.75200 18.39300 41.52200
C  -12.05200 19.44900 40.99200
C  -12.80200 20.60400 40.88800
C  -14.11100 20.20900 41.38500
C  -14.00300 18.78600 41.66100
C  -12.19900 22.03500 40.55400
C  -15.31500 21.06300 41.50800
O  -15.23800 22.22000 41.18900
C  -16.63400 20.73300 42.03900
N  -13.85700 15.68800 42.49000
C  -14.96200 16.44700 42.39500
C  -16.26000 15.67200 42.73400
C  -15.60100 14.29900 43.32500
C  -14.14000 14.42400 42.93200
C  -17.33200 16.27700 43.69400
C  -16.16100 13.01400 42.68900
C  -16.29800 11.83600 43.67800
N  -11.28700 14.65500 42.25400
C  -11.82000 13.42900 42.68300
C  -10.79400 12.42800 42.73800
C  -9.64200 13.06200 42.26000
C  -9.98700 14.35500 42.00400
C  -10.87900 11.03900 43.30200
C  -8.24300 12.87600 42.07000
O  -7.54400 11.85700 42.08800
C  -7.66300 14.16700 41.48500
C  -6.48600 14.55200 42.40900
O  -6.55600 14.62700 43.64500
O  -5.32100 14.74400 41.64300
C  -4.07800 15.02500 42.36500
H  -10.21600 20.39700 40.43300
H  -16.07500 18.19100 41.87900
H  -13.53300 12.48600 43.49600
H  -6.90100 17.05900 41.26000
H  -8.22700 19.18600 39.64200
H  -8.36600 19.91700 42.40400
H  -7.28300 20.60100 41.23600
H  -6.63700 19.25400 42.13900
H  -7.73700 17.44300 38.41600
H  -7.27900 15.75300 38.97000
H  -5.05300 16.46700 38.80100
H  -5.29800 17.91300 39.73400
H  -12.21400 22.41100 39.53000
H  -11.19300 22.07300 40.97300
H  -12.79500 22.72400 41.15100
H  -17.21600 21.59900 42.35400
H  -16.60100 20.10200 42.92700
H  -17.22700 20.22200 41.28100
H  -16.68400 15.47900 41.74800
H  -15.69400 14.32400 44.41000
H  -17.17200 17.33800 43.88600
H  -17.52400 15.74200 44.62400
H  -18.23700 16.15600 43.09900
H  -15.54300 12.77100 41.82500
H  -17.14800 13.22700 42.27800
H  -16.33900 12.08400 44.73800
H  -15.60300 11.00200 43.58000
H  -17.30800 11.45700 43.51800
H  -11.44800 10.35500 42.67300
H  -11.39400 11.16000 44.25500
H  -9.87000 10.69400 43.52800
H  -7.30500 14.06400 40.46100
H  -3.85200 14.06900 42.83800
H  -4.22000 15.78900 43.12900
H  -3.17000 15.31600 41.83700

