158

Mg 25.81200 0.83100 29.29900
C  27.84800 0.31500 32.18400
C  23.10800 0.91800 31.38600
C  23.98400 1.28000 26.61400
C  28.71100 0.19100 27.22200
N  25.56000 0.61600 31.48300
C  26.50700 0.57000 32.46100
C  25.83600 0.74100 33.89200
C  24.25300 0.58900 33.55100
C  24.34200 0.73200 32.03200
C  23.57100 -0.71800 34.10300
C  26.34600 2.03500 34.67000
C  26.50900 1.80100 36.21800
H  25.78200 2.82400 37.16300
N  23.78400 1.18300 29.11200
C  22.80900 1.21700 30.02000
C  21.54500 1.48700 29.42700
C  21.76800 1.46800 28.02200
C  23.24600 1.23000 27.83400
C  20.20600 1.47600 30.14800
C  20.71300 1.58900 26.91800
O  20.99000 1.47900 25.70400
C  19.22500 1.81600 27.19200
N  26.31400 0.70200 27.20000
C  25.30700 1.07300 26.31000
C  25.82300 1.29900 24.87500
C  27.25800 0.73900 25.05400
C  27.48000 0.48000 26.56300
C  24.99000 0.73500 23.69200
C  28.36700 1.61100 24.43800
C  28.42400 3.04900 24.96700
N  27.84000 0.20500 29.59000
C  28.86900 0.06200 28.66900
C  30.12600 -0.22800 29.42100
C  29.75900 0.01600 30.82200
C  28.42100 0.24400 30.84300
C  31.38000 -0.54800 28.79800
C  30.31500 0.04900 32.20500
O  31.44600 -0.08000 32.61700
C  29.04800 0.38400 33.07800
C  29.07000 -0.49700 34.27100
O  28.58000 -1.61400 34.28900
O  29.77700 0.03200 35.27300
C  29.87600 -0.83300 36.46300
H  22.20100 0.96400 31.99200
H  23.31600 1.61200 25.81600
H  29.67300 0.15100 26.70800
H  26.09700 -0.15300 34.45800
H  23.66000 1.45200 33.85300
H  24.33600 -1.39100 34.49200
H  22.80800 -1.22600 33.51400
H  22.98900 -0.45500 34.98600
H  25.61800 2.84600 34.70700
H  27.27400 2.38800 34.22000
H  27.59600 1.85100 36.28100
H  26.17200 0.80200 36.49500
H  19.55400 2.33800 30.01200
H  20.30200 1.42300 31.23300
H  19.65300 0.65300 29.69500
H  18.76000 1.04800 27.81000
H  18.53000 1.96600 26.36600
H  19.03400 2.75100 27.71900
H  25.84600 2.38700 24.81700
H  27.28300 -0.17200 24.45700
H  24.36900 -0.08500 24.05200
H  25.62700 0.32500 22.90800
H  24.36100 1.49900 23.23600
H  28.00400 1.64100 23.41000
H  29.31900 1.08300 24.37400
H  29.49700 3.24200 24.98000
H  27.96600 3.07000 25.95600
H  27.79700 3.67800 24.33600
H  31.56400 -0.19400 27.78400
H  31.46700 -1.63300 28.74600
H  32.15200 -0.06400 29.39700
H  29.09100 1.38700 33.50200
H  30.63000 -0.36200 37.09400
H  30.12400 -1.87700 36.27400
H  28.97600 -0.94500 37.06800
Mg 47.94700 15.83900 28.67200
C  45.77800 15.63800 31.39700
C  50.25600 17.61700 30.68300
C  49.71900 16.46800 25.94000
C  45.24200 14.63500 26.63900
N  47.95500 16.60600 30.79200
C  47.00500 16.32500 31.71000
C  47.44400 16.78900 33.13000
C  48.80400 17.52200 32.88400
C  49.06100 17.18800 31.36700
C  48.92900 19.06800 33.32400
C  47.57900 15.63300 34.10700
C  46.69800 15.56500 35.37000
H  46.50500 16.91100 36.10700
N  49.91200 16.74200 28.41100
C  50.61500 17.45000 29.35600
C  51.74700 17.94200 28.69300
C  51.64300 17.66000 27.27300
C  50.37200 16.92100 27.15000
C  52.84600 18.75900 29.38400
C  52.58700 17.87000 26.06400
O  52.31300 17.50100 24.92600
C  53.86000 18.60400 26.25400
N  47.57400 15.60300 26.57900
C  48.47500 15.87500 25.65500
C  48.01100 15.46000 24.25400
C  46.69000 14.73500 24.59500
C  46.45300 15.01500 26.07000
C  47.95600 16.58700 23.14800
C  46.57500 13.29100 24.07700
C  46.95400 12.23900 25.10400
N  45.92300 15.18900 28.85900
C  44.98700 14.72200 27.99600
C  43.75800 14.30700 28.74900
C  44.03800 14.61800 30.10500
C  45.32300 15.16300 30.11900
C  42.45900 13.86700 28.20300
C  43.56300 14.56100 31.47300
O  42.49400 14.12900 31.81700
C  44.70800 15.21700 32.33600
C  44.01300 16.36900 33.12300
O  43.80100 17.51300 32.85600
O  43.51400 15.83600 34.29800
C  42.79800 16.56500 35.18500
H  50.98900 18.07400 31.35100
H  50.27200 16.73000 25.03500
H  44.54500 14.16700 25.94200
H  46.78400 17.57200 33.50400
H  49.61600 16.94900 33.33200
H  48.01400 19.52700 33.69800
H  49.19200 19.59800 32.40800
H  49.70500 19.25600 34.06500
H  48.60900 15.64000 34.46300
H  47.46700 14.70800 33.54200
H  47.32400 15.04000 36.09100
H  45.78700 15.00000 35.17400
H  53.83600 18.36200 29.16100
H  52.78700 18.65400 30.46700
H  52.83700 19.79500 29.04300
H  53.56900 19.63800 26.43800
H  54.57500 18.56200 25.43200
H  54.43000 18.37400 27.15500
H  48.76000 14.77200 23.86100
H  45.94400 15.26500 24.00300
H  48.58800 16.23100 22.33500
H  48.33500 17.57100 23.42700
H  46.94300 16.60900 22.74800
H  47.17700 13.22400 23.17100
H  45.54200 13.10200 23.78300
H  46.14600 11.54300 25.32600
H  47.28900 12.55500 26.09200
H  47.84700 11.79300 24.66600
H  42.24600 14.46200 27.31400
H  41.63900 14.01700 28.90500
H  42.36900 12.84200 27.84400
H  45.05500 14.54600 33.12300
H  42.91800 17.64700 35.24500
H  43.16400 16.28500 36.17300
H  41.74200 16.38200 34.98600

