158

Mg 29.39200 57.48100 41.29500
C  26.74500 55.49700 40.29700
C  31.38100 55.51400 39.32500
C  31.74900 59.77100 41.42200
C  26.99700 59.80800 42.29200
N  29.12200 55.57600 40.11800
C  27.95700 54.94800 39.88800
C  28.16900 53.60800 39.05600
C  29.73200 53.52800 39.08600
C  30.10300 54.97600 39.47900
C  30.38200 52.37900 40.04200
C  27.49600 53.72300 37.64500
C  27.33200 55.06400 36.94400
H  27.59800 55.10100 35.46000
N  31.39600 57.47700 40.74300
C  32.03400 56.58400 39.99400
C  33.40000 56.96400 39.81800
C  33.51400 58.20100 40.39600
C  32.21900 58.57600 40.92800
C  34.43000 56.12300 39.12600
C  34.83200 58.94500 40.50100
O  35.87800 58.56700 39.94000
C  34.91200 60.26700 41.21900
N  29.37300 59.57000 41.70000
C  30.49100 60.32100 41.70300
C  30.28500 61.79100 42.07300
C  28.70500 61.69900 42.45700
C  28.29800 60.22400 42.16600
C  31.33600 62.46000 43.12100
C  27.86000 62.73400 41.62800
C  26.66600 63.44100 42.39600
N  27.25700 57.59700 41.51500
C  26.39800 58.62200 41.82100
C  25.04400 58.28200 41.70700
C  25.10000 57.00200 41.07900
C  26.50000 56.69600 40.95200
C  23.79400 59.04100 41.94800
C  24.33500 55.91900 40.58200
O  23.12300 55.68200 40.53200
C  25.35800 54.80200 40.14700
C  25.24400 53.37200 40.70500
O  25.48500 52.97800 41.80600
O  24.73900 52.57300 39.67700
C  24.47900 51.14300 40.05600
H  32.12700 54.94700 38.76400
H  32.51700 60.53800 41.54700
H  26.32700 60.63000 42.55200
H  27.81800 52.69900 39.54400
H  30.04800 53.33300 38.06100
H  29.63800 51.65900 40.38400
H  30.85600 52.74400 40.95300
H  31.15900 51.97900 39.39200
H  26.52000 53.23700 37.65700
H  28.02500 53.05900 36.96200
H  28.01000 55.77500 37.41700
H  26.26300 55.20400 37.10200
H  35.46300 56.21500 39.46100
H  34.38300 56.28900 38.05000
H  34.15100 55.08300 39.29800
H  34.24200 60.83300 40.57100
H  35.93800 60.61200 41.34300
H  34.35500 60.23800 42.15500
H  30.33400 62.36800 41.15100
H  28.66400 61.85600 43.53500
H  32.28600 61.94200 43.25200
H  30.87300 62.84200 44.03000
H  31.78300 63.30700 42.60100
H  27.35300 62.22400 40.80900
H  28.56800 63.45500 41.22000
H  25.80900 63.75100 41.79800
H  26.97000 64.34300 42.92800
H  26.21100 62.77200 43.12600
H  24.03300 60.02000 42.36300
H  23.28400 58.58000 42.79400
H  23.19100 59.24300 41.06300
H  25.13900 54.62700 39.09400
H  25.39300 50.59300 40.28300
H  24.11300 50.60300 39.18300
H  23.80800 51.08400 40.91300
Mg 9.89700 48.28400 26.01200
C  7.92100 48.33600 28.91700
C  12.51700 49.65400 27.94300
C  11.79700 48.25800 23.32600
C  6.94300 47.87200 24.03900
N  10.19200 48.93400 28.15900
C  9.21500 48.83500 29.13300
C  9.75300 49.21500 30.48500
C  11.05800 49.98800 30.01900
C  11.31700 49.48500 28.60100
C  11.21900 51.55800 30.06400
C  10.05300 48.04500 31.45300
C  10.19200 48.65500 32.95100
H  9.58700 47.75700 34.06000
N  11.97100 48.61700 25.67900
C  12.87200 49.14500 26.62300
C  14.21500 49.12200 26.09400
C  14.02400 48.77900 24.73100
C  12.52700 48.57600 24.48500
C  15.47500 49.43200 26.93400
C  15.09000 48.75600 23.57600
O  14.77500 48.57300 22.42100
C  16.59100 48.78500 23.85800
N  9.45100 48.08600 24.05200
C  10.44300 48.08000 23.09700
C  9.78200 47.93600 21.64400
C  8.32200 47.57800 21.92500
C  8.17900 47.84400 23.44300
C  9.82000 49.10200 20.71700
C  8.01500 46.06300 21.73700
C  8.67600 45.00500 22.68800
N  7.82900 48.13000 26.40100
C  6.79100 47.90400 25.51100
C  5.59700 47.74100 26.27000
C  5.97500 47.82400 27.59400
C  7.36900 48.04700 27.62500
C  4.27600 47.42700 25.64100
C  5.47900 47.69500 28.92800
O  4.34900 47.42100 29.31400
C  6.75100 47.90900 29.89500
C  7.02200 46.59400 30.56800
O  7.80300 45.75000 30.11400
O  6.35600 46.44800 31.68900
C  6.64900 45.24800 32.45300
H  13.33100 50.11100 28.50900
H  12.31000 48.39400 22.37200
H  6.02500 47.58800 23.52100
H  9.22800 50.02400 30.99400
H  11.93800 49.67500 30.58100
H  12.28900 51.76600 30.08700
H  10.73800 51.89300 30.98300
H  10.69100 52.04700 29.24500
H  11.05000 47.69500 31.18200
H  9.30700 47.25100 31.43500
H  9.77600 49.65100 33.10600
H  11.27500 48.64600 33.06900
H  15.60200 50.50700 27.06400
H  16.28400 48.82300 26.53100
H  15.39400 49.03200 27.94400
H  17.01300 47.80900 24.09700
H  16.76700 49.55800 24.60600
H  17.02200 49.05700 22.89500
H  10.23800 47.12800 21.07200
H  7.59500 48.22400 21.43300
H  9.47800 48.77800 19.73400
H  10.84400 49.46900 20.65400
H  9.24100 49.94800 21.08900
H  8.46700 45.66900 20.82700
H  6.95500 45.83700 21.62400
H  8.26900 45.20300 23.68000
H  9.75200 45.17900 22.69600
H  8.31000 44.01200 22.42700
H  4.17800 48.00400 24.72100
H  3.56000 47.50400 26.45900
H  4.18000 46.38000 25.35300
H  6.49000 48.63900 30.66100
H  7.72300 45.07700 32.37900
H  6.07800 44.38200 32.11800
H  6.44900 45.37700 33.51700

