158

Mg -2.60900 16.74800 27.29800
C  -3.13800 14.49400 30.10100
C  -3.18300 19.35800 29.58800
C  -2.27000 18.81600 24.78800
C  -2.55500 13.96300 25.22800
N  -3.20700 16.78900 29.62400
C  -3.35500 15.81000 30.54700
C  -3.38800 16.44100 31.97100
C  -3.64100 17.97500 31.70800
C  -3.35200 18.06100 30.18900
C  -5.00000 18.50100 32.08100
C  -2.32200 16.13300 33.09700
C  -2.90800 15.83100 34.47100
H  -2.00200 16.06200 35.68800
N  -2.66100 18.87400 27.12600
C  -2.91000 19.70000 28.22100
C  -2.76200 21.09700 27.69600
C  -2.49200 21.01600 26.28600
C  -2.52900 19.51600 26.00700
C  -2.86400 22.34100 28.56100
C  -2.22300 22.13300 25.31500
O  -2.09700 21.98900 24.10100
C  -1.93900 23.46500 25.86300
N  -2.64300 16.37700 25.30600
C  -2.25000 17.41200 24.48800
C  -2.16800 16.96100 23.05600
C  -2.04000 15.41400 23.23700
C  -2.33900 15.19600 24.68100
C  -3.37500 17.41800 22.19900
C  -0.65000 14.84800 22.81100
C  0.63000 15.35000 23.53800
N  -2.78300 14.69900 27.59400
C  -2.81700 13.73200 26.55800
C  -2.91500 12.40000 27.23100
C  -3.02600 12.64300 28.54300
C  -2.99300 14.06600 28.73500
C  -3.01900 11.06000 26.49800
C  -3.30400 12.04200 29.76800
O  -3.49800 10.87600 30.05400
C  -3.26200 13.22400 30.89300
C  -1.99600 12.95900 31.67300
O  -0.85700 13.13300 31.25900
O  -2.34200 12.53800 32.91000
C  -1.27000 12.54500 33.85400
H  -3.38800 20.10600 30.35600
H  -1.95700 19.59000 24.08400
H  -2.46300 13.05800 24.62400
H  -4.35100 16.01300 32.25200
H  -2.91500 18.43300 32.37900
H  -4.95700 19.23600 32.88400
H  -5.72500 17.69600 32.19500
H  -5.20800 19.16700 31.24400
H  -1.69300 16.99600 33.31800
H  -1.57600 15.39400 32.80600
H  -3.25300 14.81000 34.63700
H  -3.84800 16.37500 34.56800
H  -2.84100 22.19800 29.64100
H  -3.65700 23.04100 28.30000
H  -1.92800 22.89600 28.60300
H  -2.86600 23.93300 26.19500
H  -1.56500 24.08700 25.05000
H  -1.17000 23.55300 26.63000
H  -1.21100 17.36400 22.72300
H  -2.79800 14.94800 22.60700
H  -4.12900 17.69300 22.93600
H  -3.84200 16.70500 21.51900
H  -3.21000 18.35900 21.67400
H  -0.57400 14.84600 21.72300
H  -0.55400 13.76600 22.89800
H  0.40900 16.14000 24.25600
H  1.38700 15.83900 22.92500
H  1.06700 14.49900 24.06100
H  -2.49700 11.05100 25.54100
H  -4.01500 10.61800 26.47000
H  -2.46100 10.31300 27.06300
H  -4.16100 13.14300 31.50400
H  -0.53300 13.34700 33.81200
H  -0.71900 11.60400 33.83900
H  -1.70300 12.44800 34.85000
Mg 54.09600 24.76900 44.61200
C  51.45600 27.08100 43.81400
C  51.88000 22.41200 43.55200
C  56.71800 22.79400 44.44600
C  56.18000 27.51200 45.37300
N  51.90300 24.82400 43.53900
C  50.96900 25.85700 43.48000
C  49.60100 25.33700 42.89200
C  49.72100 23.81800 43.30500
C  51.27200 23.62100 43.48400
C  48.86900 23.42100 44.49600
C  49.41400 25.50700 41.31900
C  47.96200 25.39500 40.91300
H  47.65600 25.31200 39.48200
N  54.24400 22.80600 44.07900
C  53.20600 21.97000 43.78900
C  53.75200 20.68100 43.53400
C  55.16400 20.78200 43.78700
C  55.45100 22.20700 44.05600
C  52.89000 19.31700 43.35000
C  56.07300 19.60200 43.82200
O  55.76100 18.45500 43.58600
C  57.52700 19.76300 44.08500
N  56.23300 25.11700 44.90900
C  57.06100 24.09900 44.85700
C  58.44100 24.59400 45.32300
C  58.21800 26.09000 45.80000
C  56.79800 26.24500 45.27000
C  59.08100 23.71600 46.41100
C  59.35300 26.97900 45.38500
C  59.15700 27.83900 44.11300
N  53.93600 26.85900 44.59100
C  54.79600 27.79200 45.12100
C  54.06100 29.03200 45.32400
C  52.78200 28.76400 44.76900
C  52.74600 27.45700 44.34200
C  54.55500 30.34500 45.88200
C  51.46500 29.36800 44.62700
O  51.08800 30.52200 44.91500
C  50.62700 28.32500 43.83900
C  50.36200 28.92400 42.52300
O  51.22400 29.49600 41.85500
O  49.02600 28.96800 42.25700
C  48.68900 29.58300 40.96200
H  51.26300 21.52400 43.40200
H  57.57600 22.11900 44.46100
H  56.72600 28.40700 45.67800
H  48.89100 25.94600 43.45200
H  49.51500 23.07500 42.53500
H  48.25900 22.53000 44.34500
H  48.17700 24.18100 44.85900
H  49.49100 22.99700 45.28400
H  50.02900 24.75900 40.81800
H  49.85500 26.45700 41.01500
H  47.48400 26.26600 41.36100
H  47.59500 24.55800 41.50800
H  53.36600 18.48700 43.87100
H  52.82900 19.02900 42.30100
H  51.95700 19.53700 43.86800
H  57.81600 20.51100 43.34600
H  58.08300 18.85600 43.85000
H  57.72600 20.02400 45.12400
H  59.24300 24.56800 44.58500
H  58.23000 25.97200 46.88400
H  58.50000 22.79500 46.44000
H  59.12500 24.22200 47.37500
H  60.11700 23.48100 46.16600
H  60.26600 26.38700 45.32000
H  59.51300 27.69100 46.19500
H  58.38400 27.40600 43.47700
H  60.08700 28.11300 43.61600
H  58.94200 28.78700 44.60600
H  55.59200 30.38600 46.21200
H  53.93800 30.54500 46.75800
H  54.44000 31.15100 45.15700
H  49.67000 28.12100 44.31900
H  47.99200 28.89600 40.48200
H  49.57000 29.81600 40.36300
H  48.08200 30.48800 40.95200

