158

Mg 26.63700 0.67800 29.39600
C  28.56100 0.33800 32.17400
C  23.78300 1.17800 31.38800
C  24.66600 0.63300 26.59100
C  29.48100 -0.09500 27.31000
N  26.25700 0.68100 31.55000
C  27.22200 0.69300 32.52900
C  26.61500 0.89400 33.92000
C  25.08800 1.01000 33.60200
C  25.00900 1.02300 32.09300
C  24.25100 -0.02700 34.27600
C  27.19600 2.25200 34.53500
C  28.08700 2.01400 35.74900
H  27.81600 2.87900 37.03000
N  24.58000 0.88900 28.99400
C  23.61900 1.10900 29.96800
C  22.30600 1.30900 29.28300
C  22.53600 1.04100 27.88200
C  23.96200 0.86800 27.79900
C  20.99100 1.54500 30.00200
C  21.52900 1.07800 26.70100
O  21.89300 0.93900 25.52200
C  20.07400 1.29200 26.94500
N  27.03700 0.23700 27.31900
C  25.99800 0.33900 26.40700
C  26.55200 0.35900 24.92800
C  28.17000 0.23100 25.13400
C  28.23100 0.10400 26.70600
C  25.99700 -0.68500 24.10500
C  28.97800 1.56500 24.72500
C  30.03600 1.28600 23.68600
N  28.54800 0.13500 29.64500
C  29.59100 -0.09100 28.70400
C  30.79200 -0.33800 29.50900
C  30.43200 -0.18200 30.85400
C  29.07300 0.10800 30.87000
C  32.14800 -0.69000 28.93900
C  30.91400 -0.34700 32.19500
O  31.91600 -0.86000 32.70800
C  29.71000 0.10400 33.11200
C  29.40000 -0.99600 34.11400
O  28.63500 -1.97600 33.91800
O  30.07400 -0.74700 35.27800
C  30.09000 -1.81700 36.25800
H  22.81700 1.32800 31.87600
H  24.23100 0.69500 25.59200
H  30.42000 -0.34200 26.81100
H  26.82600 0.06100 34.59000
H  24.74000 1.94400 34.04300
H  23.55900 0.42600 34.98500
H  24.94200 -0.73500 34.73400
H  23.64500 -0.53900 33.52800
H  26.47500 2.97100 34.92500
H  27.81400 2.78100 33.80900
H  29.10600 2.31200 35.49900
H  28.05400 0.96400 36.03800
H  20.39900 0.65300 29.79800
H  20.50800 2.39200 29.51600
H  21.02000 1.68600 31.08200
H  19.48700 1.11600 26.04300
H  20.02100 2.36700 27.12200
H  19.73900 0.62200 27.73700
H  26.34400 1.25800 24.34900
H  28.49400 -0.64700 24.57600
H  26.66800 -1.14900 23.38300
H  25.37400 -0.19900 23.35300
H  25.39600 -1.45200 24.59300
H  29.56200 2.03700 25.51600
H  28.32200 2.34800 24.34500
H  31.05000 1.32600 24.08200
H  30.05800 2.05900 22.91700
H  29.86700 0.32100 23.20700
H  32.93700 -0.46700 29.65900
H  32.36400 -0.15900 28.01200
H  32.12400 -1.77200 28.80900
H  29.91200 1.06200 33.58900
H  30.12500 -2.85200 35.91700
H  29.25100 -1.63800 36.93000
H  31.02000 -1.76100 36.82300
Mg 47.00600 17.21500 29.08400
C  44.76300 16.44300 31.74900
C  48.93300 18.90300 31.40700
C  48.92500 18.06600 26.59200
C  44.72100 15.61800 26.91800
N  46.80100 17.62200 31.31000
C  45.90100 17.08300 32.21000
C  46.37900 17.24800 33.64100
C  47.46300 18.35100 33.54100
C  47.79600 18.31300 32.02000
C  46.90100 19.77200 33.81200
C  46.68900 15.83200 34.29800
C  47.07900 15.89300 35.75300
H  46.82100 17.21700 36.44100
N  48.67400 18.42100 28.98900
C  49.43800 18.91600 30.06800
C  50.65200 19.51400 29.61500
C  50.65700 19.26100 28.15600
C  49.39000 18.50800 27.84300
C  51.68700 20.13800 30.47600
C  51.71900 19.59600 27.18400
O  51.61000 19.30600 25.99800
C  52.93000 20.34300 27.68900
N  46.96100 16.65100 27.09500
C  47.90200 17.20000 26.23500
C  47.53800 16.84000 24.72300
C  46.25100 15.84600 24.96800
C  45.98900 15.99200 26.43800
C  47.06600 18.19600 23.96500
C  46.60100 14.34400 24.50400
C  46.42600 14.00300 22.99600
N  45.12100 16.30400 29.14500
C  44.32400 15.71100 28.23300
C  43.02400 15.21300 28.83200
C  43.22300 15.52900 30.15700
C  44.46400 16.17000 30.36200
C  41.81600 14.47100 28.19700
C  42.57500 15.29200 31.40300
O  41.54400 14.65300 31.59100
C  43.51800 15.90300 32.51300
C  42.86100 16.93500 33.31900
O  42.35200 17.97900 32.91600
O  42.88800 16.53500 34.68200
C  42.42300 17.32400 35.81900
H  49.56100 19.36500 32.17100
H  49.40000 18.39900 25.66700
H  43.96400 15.19100 26.25700
H  45.54100 17.68200 34.18500
H  48.41500 18.13900 34.02700
H  46.12100 19.72800 34.57300
H  46.47200 20.20000 32.90700
H  47.72500 20.41700 34.11700
H  47.46300 15.35100 33.70000
H  45.76800 15.25100 34.27200
H  48.12600 15.58900 35.77800
H  46.55500 15.13900 36.34000
H  52.62200 19.57800 30.45900
H  51.29600 20.21100 31.49100
H  51.80700 21.16400 30.12600
H  52.74300 21.30800 28.16000
H  53.53700 20.46700 26.79200
H  53.40500 19.67500 28.40700
H  48.40700 16.38300 24.24900
H  45.42600 16.26800 24.39400
H  46.35100 17.98500 23.16900
H  48.00400 18.55500 23.54100
H  46.68600 19.00400 24.59000
H  46.19300 13.53600 25.11100
H  47.68300 14.34000 24.63600
H  47.19100 13.24800 22.81500
H  46.81700 14.80300 22.36600
H  45.37000 13.75900 22.87900
H  41.74300 14.75300 27.14700
H  40.88100 14.90400 28.55300
H  41.69900 13.39100 28.27900
H  43.69600 15.02400 33.13200
H  43.13300 17.18800 36.63500
H  41.42800 17.06000 36.17800
H  42.49000 18.36100 35.49100

