158

Mg 16.80800 51.46800 26.99900
C  18.88100 49.85800 29.26900
C  14.76000 52.31300 29.54200
C  14.80500 52.92700 24.64800
C  18.93000 50.37300 24.25800
N  16.83600 51.12800 29.22100
C  17.91300 50.58900 29.96000
C  17.66800 50.76100 31.48800
C  16.15600 51.13300 31.48900
C  15.83600 51.55600 30.01500
C  15.17800 50.04300 32.01600
C  18.52800 51.95100 31.95500
C  18.44500 52.18000 33.40500
H  17.74700 51.20400 34.33800
N  15.00800 52.43700 27.08200
C  14.30700 52.68100 28.29100
C  13.21800 53.56900 27.96300
C  13.11200 53.78600 26.51500
C  14.33200 53.01000 26.01300
C  12.33900 54.14200 29.12200
C  12.14300 54.56600 25.63700
O  12.14900 54.52800 24.42100
C  11.05100 55.23600 26.40800
N  16.96600 51.80200 24.82200
C  16.00900 52.40300 24.15400
C  16.29000 52.42600 22.61100
C  17.69200 51.72700 22.54600
C  17.88900 51.24200 23.99600
C  15.28000 51.78300 21.65100
C  18.81400 52.61700 21.96600
C  19.74500 51.97500 20.96800
N  18.42000 50.26400 26.78100
C  19.19600 49.96600 25.60900
C  20.34500 49.24200 26.08700
C  20.27600 49.09900 27.51000
C  19.13200 49.79100 27.83400
C  21.33800 48.59500 25.19700
C  20.84400 48.39400 28.65800
O  21.81800 47.60900 28.70600
C  20.03500 49.09900 29.91400
C  19.68900 48.08700 30.85200
O  19.07300 47.05900 30.64900
O  20.28400 48.39000 32.06200
C  20.06100 47.51700 33.21600
H  14.08900 52.47100 30.38900
H  14.18800 53.37800 23.86800
H  19.55100 49.97900 23.45000
H  17.88900 49.82000 31.99300
H  16.00600 52.03500 32.08200
H  15.69100 49.11800 32.27800
H  14.48300 49.70900 31.24600
H  14.56200 50.33300 32.86700
H  18.25900 52.91300 31.51800
H  19.57800 51.75300 31.73700
H  17.99800 53.17400 33.39200
H  19.45000 52.15500 33.82800
H  11.31900 53.86000 28.86200
H  12.38500 55.22100 28.97500
H  12.53000 53.90900 30.16900
H  10.24200 55.53800 25.74200
H  11.45900 56.15400 26.83200
H  10.58700 54.68600 27.22700
H  16.34800 53.46100 22.27400
H  17.73700 50.81100 21.95800
H  15.36400 50.69600 21.64300
H  15.40800 52.22200 20.66100
H  14.28900 52.12900 21.94400
H  19.38700 52.89000 22.85300
H  18.41100 53.54900 21.57100
H  20.77100 51.87500 21.32200
H  19.72400 52.57100 20.05500
H  19.40900 50.98000 20.67700
H  20.68500 48.18700 24.42500
H  21.91000 47.85600 25.75800
H  22.04500 49.35700 24.87100
H  20.74000 49.83300 30.30200
H  19.62500 48.17700 33.96600
H  21.00000 47.08400 33.56200
H  19.33900 46.72900 33.00000
Mg 1.94400 41.64700 24.97600
C  2.57900 41.98300 28.44700
C  -1.14000 40.65500 25.83900
C  1.43700 40.90700 21.79800
C  5.31100 42.40700 24.39600
N  0.79200 41.47900 26.95100
C  1.28400 41.68500 28.23000
C  0.18700 41.58000 29.28300
C  -1.02600 40.92500 28.44000
C  -0.43200 40.97500 26.98000
C  -1.51800 39.47800 28.92600
C  -0.10800 42.98600 29.82600
C  -0.13600 43.04900 31.39500
H  -0.87500 41.91300 32.17200
N  0.31800 41.03400 23.93400
C  -0.84800 40.69300 24.44600
C  -1.75800 40.29100 23.36500
C  -1.04900 40.25500 22.15800
C  0.27700 40.69600 22.54600
C  -3.24400 40.09000 23.57700
C  -1.50600 39.89700 20.78000
O  -0.69400 39.84200 19.84100
C  -2.98000 39.68500 20.43700
N  3.18600 41.68100 23.35600
C  2.72600 41.34300 22.13300
C  3.86600 41.57800 21.04900
C  5.02300 42.21500 21.85500
C  4.47100 42.14500 23.25400
C  4.37200 40.30500 20.21400
C  5.36200 43.69200 21.45500
C  5.86000 43.81300 20.02000
N  3.66000 42.14800 26.10600
C  4.94100 42.46900 25.72700
C  5.74300 42.78300 26.93100
C  4.86400 42.53200 27.97200
C  3.63200 42.24400 27.49800
C  7.19300 43.15600 26.93700
C  4.77900 42.55700 29.44600
O  5.59200 42.59500 30.36800
C  3.30700 42.08100 29.79200
C  3.28600 40.78400 30.49400
O  3.90700 39.75900 30.15300
O  2.45600 40.85500 31.54000
C  2.26400 39.56300 32.27600
H  -2.14300 40.27900 26.05400
H  1.45700 40.70700 20.72400
H  6.35400 42.65200 24.18100
H  0.40200 40.78900 30.00100
H  -1.89600 41.57500 28.53300
H  -2.45400 39.67400 29.45000
H  -0.76700 39.01500 29.56700
H  -1.71500 38.88900 28.03000
H  -1.04100 43.43100 29.48000
H  0.78600 43.51900 29.50200
H  -0.63600 43.98000 31.65900
H  0.86900 43.11000 31.81200
H  -3.84500 40.82400 23.03900
H  -3.49000 40.00700 24.63500
H  -3.59100 39.14300 23.16400
H  -3.25100 38.68900 20.78400
H  -3.01300 39.66200 19.34800
H  -3.64100 40.46900 20.80600
H  3.56900 42.28300 20.27300
H  5.89400 41.57200 21.73400
H  4.16100 39.39600 20.77700
H  5.43700 40.39400 19.99600
H  3.99800 40.14800 19.20200
H  6.09600 44.13700 22.12700
H  4.48600 44.29900 21.68300
H  5.04100 44.37100 19.56500
H  5.99600 42.86900 19.49300
H  6.67700 44.51100 19.83700
H  7.74800 42.37900 27.46200
H  7.38100 44.02100 27.57200
H  7.58700 43.16800 25.92000
H  2.85600 42.83300 30.44100
H  2.94400 39.38600 33.10900
H  2.42300 38.67200 31.67000
H  1.29000 39.53900 32.76500

