158

Mg 25.30200 1.29300 29.89800
C  27.59900 0.91300 32.62900
C  22.90400 1.83600 32.12800
C  23.27500 1.49300 27.32400
C  28.08300 0.76900 27.75300
N  25.31200 1.29300 32.13900
C  26.34600 1.42200 32.97700
C  25.83200 1.89600 34.37600
C  24.28200 1.96500 34.20800
C  24.15400 1.71000 32.71700
C  23.58200 0.86200 35.11700
C  26.46000 3.24500 34.90900
C  26.94200 3.19600 36.39100
H  26.29800 4.18900 37.38800
N  23.30200 1.60200 29.71400
C  22.42200 1.77300 30.74700
C  21.08700 1.72900 30.29400
C  21.19200 1.73500 28.89100
C  22.65200 1.64000 28.58300
C  19.87200 1.74700 31.19300
C  20.11100 1.76800 27.83700
O  20.31700 1.69100 26.65500
C  18.68200 1.78100 28.25700
N  25.62200 1.06100 27.92600
C  24.62800 1.25400 26.99100
C  25.11900 1.23100 25.50800
C  26.60800 1.33400 25.76800
C  26.78300 1.00800 27.25200
C  24.60900 0.16200 24.54200
C  27.35700 2.59300 25.24100
C  27.32100 3.79100 26.13500
N  27.31300 0.77600 30.11400
C  28.33400 0.60500 29.11900
C  29.59200 0.39700 29.76900
C  29.31100 0.55400 31.13700
C  27.95800 0.74400 31.30900
C  30.86100 0.06800 29.07800
C  29.99700 0.64100 32.39500
O  31.14300 0.52600 32.68500
C  28.88800 0.99300 33.44000
C  29.10200 0.00900 34.50200
O  29.10500 -1.18200 34.29800
O  29.20000 0.66600 35.66200
C  29.36900 -0.04700 36.91700
H  22.14800 1.99700 32.89900
H  22.61100 1.62500 26.46700
H  28.86600 0.77700 26.99200
H  26.07700 1.14900 35.13100
H  23.94800 2.96100 34.49700
H  24.04900 -0.10800 34.94600
H  22.55600 0.76000 34.76300
H  23.57200 1.19300 36.15500
H  25.75100 4.05200 34.72500
H  27.40100 3.42900 34.38900
H  28.01300 3.39500 36.38800
H  26.73100 2.20700 36.79800
H  19.56500 2.78500 31.32100
H  20.26100 1.38200 32.14400
H  19.14600 0.98500 30.90900
H  18.51300 2.59300 28.96400
H  18.45500 0.75300 28.53800
H  18.03600 1.97900 27.40100
H  24.76200 2.13000 25.00700
H  27.11300 0.42700 25.43500
H  24.23000 -0.62700 25.19100
H  25.41200 -0.39400 24.05700
H  23.82700 0.34000 23.80400
H  26.90700 2.80000 24.27000
H  28.41000 2.35000 25.09600
H  26.85800 3.64300 27.11000
H  26.65100 4.48900 25.63200
H  28.32200 4.21700 26.20200
H  31.04100 0.13000 28.00400
H  30.99000 -0.95900 29.42000
H  31.50300 0.84700 29.48900
H  29.04100 2.01900 33.77400
H  29.43300 -1.12900 36.80300
H  28.59500 -0.01400 37.68500
H  30.30000 0.26700 37.38900
Mg 35.16800 2.81700 30.41200
C  32.73400 3.81200 32.74700
C  37.51700 3.29100 32.91400
C  37.63800 2.48400 28.12600
C  32.87900 3.10000 27.88800
N  35.13200 3.49900 32.53900
C  33.99200 3.62600 33.30600
C  34.34900 3.78100 34.77000
C  35.94800 3.98200 34.85700
C  36.22600 3.51000 33.35500
C  36.56900 5.39900 35.20500
C  33.79600 2.69000 35.66100
C  33.88600 2.79700 37.19600
H  34.19300 4.10700 37.92600
N  37.27300 2.78400 30.54800
C  38.02200 2.95000 31.68300
C  39.43600 2.77900 31.30700
C  39.49800 2.39500 29.95700
C  38.07100 2.56100 29.46000
C  40.52400 2.89900 32.38500
C  40.65000 1.91800 29.08400
O  40.46700 1.42300 28.00800
C  42.05400 2.09400 29.60500
N  35.27000 2.74200 28.26900
C  36.35500 2.62700 27.56800
C  36.08200 2.38800 26.05700
C  34.54400 2.50400 26.04400
C  34.22100 2.87500 27.46700
C  36.76600 3.39000 25.08200
C  33.93600 1.14900 25.59500
C  32.58500 1.30600 24.88600
N  33.16300 3.30100 30.34200
C  32.41000 3.40600 29.17000
C  31.07500 3.81700 29.56900
C  31.09300 4.02100 30.96100
C  32.44000 3.77100 31.36900
C  29.84700 3.91300 28.71200
C  30.33400 4.37500 32.23100
O  29.26400 4.90200 32.37700
C  31.34100 4.13000 33.43000
C  31.40700 5.38200 34.13500
O  32.13000 6.34900 33.84000
O  30.60500 5.37300 35.24600
C  30.61200 6.46600 36.13600
H  38.28000 3.44500 33.68000
H  38.37900 2.35900 27.33400
H  32.06700 3.16700 27.16100
H  33.91900 4.72800 35.09500
H  36.38400 3.30500 35.59100
H  35.89700 5.85400 35.93200
H  36.53000 6.07700 34.35200
H  37.58700 5.27600 35.57500
H  34.32300 1.74900 35.50300
H  32.77000 2.54700 35.32100
H  34.51400 2.02500 37.64000
H  32.85700 2.55400 37.46100
H  40.31900 2.50500 33.38100
H  40.55400 3.97300 32.56900
H  41.58100 2.78600 32.14200
H  42.65300 1.96700 28.70400
H  42.32000 1.30000 30.30200
H  42.18700 3.06600 30.08000
H  36.46400 1.42300 25.72300
H  34.12500 3.29800 25.42500
H  36.80100 4.42700 25.41800
H  36.46900 3.40100 24.03300
H  37.80700 3.06700 25.09800
H  33.80200 0.49000 26.45300
H  34.55200 0.65900 24.84100
H  32.36800 2.31700 24.54200
H  31.74900 0.99100 25.51100
H  32.55700 0.56200 24.08900
H  29.05300 3.52800 29.35200
H  29.98700 3.23600 27.86900
H  29.64600 4.89400 28.28300
H  30.94600 3.32700 34.05200
H  30.24000 7.35900 35.63300
H  31.59500 6.64700 36.57200
H  29.99500 6.10000 36.95600

