158

Mg 47.65700 16.71900 29.44500
C  45.40100 15.88700 31.86900
C  49.57000 18.54300 31.68400
C  49.61900 17.79200 26.92000
C  45.45900 15.32000 27.00400
N  47.53300 17.06600 31.45800
C  46.50200 16.61400 32.31300
C  46.90400 16.84500 33.79000
C  47.95300 18.02100 33.62100
C  48.37600 17.90900 32.15200
C  47.37200 19.39300 34.04200
C  47.43500 15.51800 34.40600
C  47.12500 15.28900 35.86800
H  46.98300 16.66200 36.67800
N  49.44300 17.91500 29.34700
C  50.09700 18.50800 30.37800
C  51.39700 18.89500 29.97300
C  51.44900 18.75600 28.55600
C  50.09800 18.12800 28.22200
C  52.50300 19.40300 30.91000
C  52.57400 19.07000 27.60800
O  52.43400 18.93200 26.40800
C  53.81800 19.54600 28.14000
N  47.35100 16.79300 27.22800
C  48.43900 17.18200 26.48400
C  48.20800 16.93300 24.99200
C  47.01800 15.88500 25.05400
C  46.55600 16.02700 26.52300
C  47.72000 18.30300 24.34700
C  47.37700 14.50800 24.71900
C  46.40400 13.63500 23.89900
N  45.84500 15.71500 29.47200
C  45.12400 15.12400 28.43500
C  43.99400 14.37500 28.98700
C  44.03400 14.70300 30.28000
C  45.14600 15.51300 30.55000
C  42.89700 13.56100 28.25900
C  43.39200 14.70700 31.59500
O  42.25900 14.29600 32.00900
C  44.22000 15.36800 32.63300
C  43.54700 16.36400 33.39500
O  43.20200 17.46600 32.98400
O  43.29000 15.96700 34.67800
C  42.87400 16.88200 35.73500
H  50.09400 19.15600 32.42100
H  50.22600 17.99500 26.03500
H  44.89400 14.74900 26.26500
H  46.08200 17.14400 34.44100
H  48.86400 17.81200 34.18200
H  46.46300 19.31000 34.63700
H  47.25100 20.03600 33.17000
H  48.14500 19.87200 34.64400
H  48.50900 15.61900 34.25000
H  47.06000 14.65500 33.85600
H  47.94600 14.69100 36.26400
H  46.15400 14.79400 35.87100
H  53.42500 18.83500 30.79100
H  52.27500 19.18900 31.95400
H  52.63600 20.47400 30.75800
H  53.60800 20.30200 28.89700
H  54.37700 20.00200 27.32300
H  54.44200 18.74400 28.53500
H  49.17600 16.59000 24.62600
H  46.19400 16.17200 24.40000
H  47.71700 19.11200 25.07800
H  46.67100 18.33300 24.05200
H  48.38100 18.54500 23.51500
H  47.45800 13.99900 25.67900
H  48.40200 14.46300 24.35100
H  45.60500 14.24600 23.48000
H  46.03600 12.79000 24.48200
H  47.06500 13.29400 23.10200
H  43.19300 12.53300 28.04700
H  42.75300 14.12800 27.33900
H  42.02900 13.65400 28.91000
H  44.53400 14.57800 33.31600
H  41.83100 17.17200 35.61300
H  43.57700 17.71300 35.79000
H  42.90200 16.41200 36.71800
Mg 40.88000 40.84100 27.01900
C  40.21300 43.22700 29.53700
C  42.10300 38.77600 29.43100
C  41.90100 38.85800 24.56300
C  40.12600 43.45800 24.64100
N  40.93000 40.98300 29.23600
C  40.57500 42.03200 30.05400
C  40.70900 41.73400 31.59600
C  41.43900 40.34100 31.49000
C  41.46000 39.94200 29.92900
C  42.81300 40.22100 32.21900
C  39.37700 41.70600 32.39500
C  39.37100 42.68700 33.61400
H  38.73900 42.10900 34.86400
N  41.81000 39.06300 27.03000
C  42.25900 38.31600 28.05800
C  42.91300 37.06800 27.63500
C  42.66700 36.97200 26.23700
C  42.08600 38.31900 25.88700
C  43.57000 36.02900 28.66500
C  43.02500 35.89500 25.19700
O  42.87100 36.03100 23.96600
C  43.53200 34.55300 25.63200
N  40.99000 41.08200 24.92800
C  41.35000 40.06300 24.08600
C  41.36900 40.48000 22.63200
C  40.60100 41.84500 22.68300
C  40.53800 42.20200 24.17500
C  42.75100 40.53800 21.87500
C  39.28600 41.77400 21.91900
C  38.12900 40.99800 22.59400
N  40.23500 42.87000 27.02000
C  39.95000 43.77400 25.96500
C  39.55200 45.06200 26.50700
C  39.63000 44.88500 27.95800
C  40.02700 43.54100 28.13200
C  39.08300 46.21500 25.61400
C  39.33500 45.55600 29.15800
O  38.97900 46.71500 29.33700
C  39.84200 44.53900 30.31400
C  40.91300 45.15900 31.05700
O  42.01600 45.43500 30.62900
O  40.53000 45.26600 32.35800
C  41.41500 45.91000 33.34000
H  42.61600 38.22100 30.22000
H  42.19800 38.15100 23.78600
H  39.91500 44.20300 23.87100
H  41.42200 42.46200 31.98400
H  40.83500 39.62000 32.04000
H  43.71900 40.39500 31.63800
H  42.86100 39.20500 32.61100
H  42.75200 40.95500 33.02300
H  39.28200 40.78600 32.97200
H  38.44500 41.84400 31.84500
H  38.69800 43.50800 33.36600
H  40.37000 42.97600 33.94200
H  44.26100 35.33900 28.18000
H  42.67200 35.49300 28.97000
H  44.04800 36.63900 29.43100
H  44.59100 34.76100 25.78200
H  43.48100 33.83900 24.81000
H  42.91100 34.17600 26.44400
H  40.83800 39.65100 22.16500
H  41.23200 42.57200 22.17100
H  43.60800 40.23400 22.47400
H  43.06900 41.45400 21.37700
H  42.79400 39.76800 21.10500
H  39.47000 41.21500 21.00200
H  38.87300 42.72900 21.59300
H  38.14100 40.79800 23.66500
H  38.13800 40.00900 22.13700
H  37.14200 41.39800 22.36000
H  38.01400 46.24800 25.40400
H  39.55300 46.25400 24.63200
H  39.36500 47.13100 26.13400
H  39.08100 44.20900 31.02100
H  41.71600 45.26300 34.16400
H  40.71900 46.56600 33.86200
H  42.30200 46.37400 32.91000

