158

Mg 35.38200 48.60100 25.57000
C  36.08500 46.93500 28.52100
C  34.00500 51.19000 27.35000
C  34.57100 50.28400 22.61700
C  36.58400 45.92300 23.67400
N  34.98400 48.97300 27.70900
C  35.43700 48.15600 28.75100
C  35.16000 48.87900 30.12900
C  34.27700 50.19000 29.77000
C  34.41100 50.13100 28.20900
C  32.75600 50.17100 30.14500
C  36.44900 49.19000 30.92400
C  36.54200 49.18400 32.43500
H  35.22500 49.15900 33.27600
N  34.43500 50.45400 25.07200
C  33.99800 51.41900 25.97900
C  33.58600 52.65400 25.27300
C  33.73600 52.34400 23.86600
C  34.27900 50.95300 23.82600
C  33.01700 53.81300 26.07000
C  33.38600 53.26800 22.69900
O  33.59000 52.99000 21.53100
C  32.86900 54.66000 22.87100
N  35.45200 48.06600 23.50000
C  35.11400 48.97400 22.47900
C  35.37900 48.33800 21.07200
C  36.20100 47.06000 21.37700
C  36.05600 47.00000 22.95200
C  34.06700 48.12400 20.28800
C  37.68700 47.27800 20.96800
C  38.59400 48.09900 21.88800
N  36.17200 46.75400 25.95200
C  36.62900 45.75600 25.11400
C  37.24800 44.68400 25.99400
C  36.94800 45.07700 27.32200
C  36.33400 46.34500 27.26100
C  37.91400 43.48300 25.37000
C  37.16400 44.67200 28.65700
O  37.73600 43.74800 29.10100
C  36.56300 45.93100 29.53700
C  35.51000 45.30700 30.38500
O  34.37700 44.99400 30.03800
O  36.03200 45.15500 31.68000
C  35.12000 44.78900 32.80400
H  33.53600 51.91300 28.02000
H  34.44700 50.84100 21.68600
H  36.98000 45.05000 23.15200
H  34.53600 48.21200 30.72400
H  34.78600 51.11300 30.04700
H  32.17900 50.14800 29.22100
H  32.52600 51.00200 30.81200
H  32.66700 49.26600 30.74700
H  36.76200 50.16300 30.54500
H  37.24200 48.59000 30.47600
H  37.10200 50.02900 32.83600
H  37.12300 48.27200 32.57900
H  32.74600 54.71000 25.51300
H  33.78200 54.01300 26.82100
H  32.09400 53.55000 26.58700
H  31.79600 54.53800 23.02000
H  32.83200 55.02900 21.84600
H  33.44000 55.28500 23.55900
H  35.93500 49.03700 20.44700
H  35.75900 46.18500 20.90000
H  33.79200 47.07100 20.24500
H  34.24500 48.45800 19.26600
H  33.28800 48.62200 20.86600
H  37.79100 47.74200 19.98700
H  37.93900 46.22700 20.82200
H  38.15800 49.09200 21.99600
H  39.50500 48.21500 21.30100
H  38.97300 47.63100 22.79700
H  38.48800 42.98100 26.14800
H  38.45100 43.77200 24.46700
H  37.00100 42.93800 25.13300
H  37.33300 46.43800 30.11800
H  35.22900 45.51600 33.60900
H  35.57000 43.84400 33.10800
H  34.08700 44.61300 32.50200
Mg 6.19200 53.20000 41.86000
C  5.43100 49.82600 41.28100
C  9.32800 52.60100 40.83200
C  6.44900 56.45500 41.64000
C  2.66500 53.54000 42.58900
N  7.23000 51.44600 41.12100
C  6.74900 50.22100 40.93600
C  7.87800 49.28200 40.56600
C  9.17900 50.05800 40.81700
C  8.53700 51.48500 41.02300
C  10.07500 49.44600 41.90800
C  7.80300 48.68600 39.15300
C  6.80400 49.35900 38.08700
H  6.14200 48.50200 37.03000
N  7.70300 54.38200 41.28800
C  8.97100 53.96200 40.92500
C  9.82700 55.03500 40.56800
C  9.02700 56.22100 40.93700
C  7.65500 55.72600 41.29400
C  11.28000 54.91600 40.14400
C  9.55700 57.61100 40.79900
O  10.71700 57.81100 40.45600
C  8.61100 58.76400 41.05800
N  4.73100 54.77400 42.20300
C  5.12400 56.05300 42.00200
C  3.97500 57.06600 42.16400
C  2.70900 56.06800 42.32400
C  3.42900 54.72100 42.51700
C  4.29800 58.03300 43.41800
C  1.79700 56.09700 41.08800
C  0.28900 55.94800 41.33100
N  4.39200 51.98700 42.07700
C  3.06400 52.22100 42.30200
C  2.23200 51.05200 42.36000
C  3.20300 50.00200 42.09000
C  4.44900 50.67000 41.78200
C  0.79100 50.98400 42.72300
C  3.47900 48.58800 41.92200
O  2.84700 47.55700 42.14100
C  4.94900 48.40200 41.47100
C  4.85300 47.56300 40.24000
O  4.14600 47.78000 39.29200
O  5.47500 46.38100 40.43400
C  5.31600 45.23900 39.59400
H  10.33800 52.45100 40.44600
H  6.52800 57.53100 41.47100
H  1.60400 53.75500 42.73300
H  7.86200 48.43000 41.24600
H  9.74900 50.19000 39.89700
H  9.88900 49.96300 42.85000
H  11.09900 49.53600 41.54800
H  9.81500 48.39500 42.03600
H  7.51500 47.63600 39.20900
H  8.70700 48.88700 38.57900
H  7.43800 50.00700 37.48300
H  5.98200 49.90800 38.54500
H  11.65900 53.94800 39.81700
H  11.82600 55.16400 41.05400
H  11.45000 55.66400 39.36900
H  9.20700 59.67000 40.94900
H  8.24500 58.82700 42.08300
H  7.83000 58.60000 40.31700
H  3.86700 57.67600 41.26700
H  2.15400 56.33900 43.22200
H  3.50200 57.93400 44.15500
H  4.24800 59.03000 42.98000
H  5.25500 57.85500 43.90800
H  2.00200 55.30700 40.36600
H  1.79300 57.05800 40.57300
H  -0.30800 56.50200 40.60700
H  0.12300 56.25000 42.36500
H  -0.10300 54.93300 41.26900
H  0.47500 49.99200 43.04500
H  0.26000 51.19000 41.79300
H  0.52600 51.81000 43.38200
H  5.44800 47.81100 42.23900
H  6.00900 45.38000 38.76500
H  4.32100 45.17900 39.15200
H  5.39700 44.27200 40.09100

