158

Mg 47.63700 17.10500 28.73900
C  45.47500 16.28300 31.45300
C  49.72700 18.60800 31.09800
C  49.69000 18.13100 26.33400
C  45.46400 15.65000 26.55500
N  47.57200 17.39500 31.03200
C  46.61700 16.93000 31.91000
C  46.94700 17.32200 33.34300
C  48.05900 18.45400 33.09300
C  48.56200 18.06900 31.65100
C  47.63100 19.95200 33.25100
C  47.39400 16.04000 34.08500
C  47.02700 16.01300 35.64100
H  46.99600 17.35700 36.39000
N  49.55000 18.25600 28.75300
C  50.21800 18.72600 29.81100
C  51.48200 19.30200 29.35400
C  51.50900 19.12600 27.95500
C  50.21700 18.43700 27.62900
C  52.47000 19.94400 30.25100
C  52.59000 19.39400 26.99100
O  52.56300 18.93000 25.82500
C  53.68400 20.31500 27.34300
N  47.58200 16.89600 26.76300
C  48.56400 17.44100 25.94700
C  48.11500 17.22500 24.46300
C  47.00600 16.11300 24.57500
C  46.62200 16.24100 26.01100
C  47.66100 18.49800 23.67600
C  47.42800 14.59800 24.26100
C  46.46000 13.76700 23.37800
N  45.82100 16.06800 28.89800
C  45.04100 15.56400 27.87100
C  43.87300 14.97200 28.53200
C  43.91400 15.16700 29.87800
C  45.14700 15.90700 30.10000
C  42.76500 14.07200 27.80000
C  43.34900 15.00700 31.20400
O  42.31400 14.49000 31.50400
C  44.28900 15.65100 32.29000
C  43.54900 16.73100 33.10900
O  43.11800 17.81900 32.78000
O  43.57300 16.30200 34.36700
C  43.35700 17.28800 35.42200
H  50.27000 19.11300 31.90000
H  50.21500 18.47100 25.43900
H  44.78800 15.15500 25.85500
H  46.01100 17.70400 33.75000
H  48.85300 18.36800 33.83400
H  46.71600 19.79000 33.82100
H  47.58200 20.36800 32.24500
H  48.32800 20.52400 33.86400
H  48.48200 15.98400 34.13000
H  47.11400 15.09700 33.61400
H  47.83600 15.50500 36.16600
H  46.10800 15.42700 35.64200
H  53.45000 19.52900 30.01500
H  52.27000 19.65700 31.28300
H  52.37200 21.01200 30.05600
H  54.48300 19.81700 27.89300
H  53.21400 21.14000 27.87900
H  54.16000 20.70900 26.44500
H  48.97900 16.80300 23.94900
H  46.14800 16.39500 23.96500
H  46.68100 18.33400 23.22800
H  48.33700 18.74000 22.85700
H  47.61000 19.36700 24.33200
H  47.42200 14.17800 25.26700
H  48.43100 14.63300 23.83500
H  46.89200 13.60700 22.39000
H  45.49000 14.26200 23.33500
H  46.52400 12.80400 23.88500
H  43.31400 13.48900 27.06100
H  41.90300 14.51400 27.29900
H  42.41200 13.36300 28.54900
H  44.67400 14.83600 32.90200
H  43.72600 16.95000 36.39000
H  42.28800 17.36600 35.62000
H  43.63900 18.31400 35.18600
Mg 31.01700 58.67200 38.97800
C  28.20000 56.76900 38.15700
C  33.10000 56.05400 38.44900
C  33.65300 60.72300 39.35100
C  28.90700 61.46500 39.03600
N  30.64700 56.65500 38.16400
C  29.39500 56.08500 38.07500
C  29.60500 54.54200 37.72000
C  31.19400 54.36600 37.82700
C  31.70800 55.76400 38.20500
C  31.66300 53.10100 38.70700
C  29.02900 54.04000 36.35400
C  29.45300 54.71800 35.04600
H  28.33300 55.33900 34.14900
N  33.06200 58.43300 39.00700
C  33.77100 57.29700 38.76900
C  35.21400 57.56200 38.92300
C  35.35700 58.93200 39.23000
C  33.97100 59.44600 39.15000
C  36.22500 56.48700 38.66100
C  36.68900 59.53500 39.59600
O  37.72400 58.82000 39.56000
C  36.91200 61.06200 39.90800
N  31.32000 60.84400 39.01400
C  32.45600 61.40400 39.25100
C  32.37400 62.94300 39.23100
C  30.89800 63.13600 39.60800
C  30.29200 61.73000 39.29900
C  33.32900 63.72000 40.14000
C  30.21200 64.33100 38.81700
C  29.11300 65.09500 39.45000
N  28.98300 59.12900 38.67300
C  28.26500 60.27600 38.78200
C  26.81900 60.05300 38.52500
C  26.74500 58.65200 38.30200
C  28.13500 58.15000 38.34700
C  25.69600 61.08500 38.62500
C  25.82000 57.56400 38.13700
O  24.59900 57.53600 38.09800
C  26.74500 56.24000 38.00000
C  26.35600 55.19800 39.08900
O  26.90800 55.09500 40.18600
O  25.34700 54.40200 38.60300
C  24.73800 53.33100 39.39900
H  33.75900 55.19800 38.28800
H  34.48000 61.38900 39.09400
H  28.30600 62.37100 39.13200
H  29.22900 54.02500 38.60300
H  31.55400 54.09300 36.83500
H  32.35900 52.43800 38.19300
H  30.89000 52.46300 39.13600
H  32.17200 53.44700 39.60700
H  27.98800 54.35800 36.40900
H  29.03600 52.95100 36.31500
H  29.93500 53.99800 34.38500
H  30.22200 55.45000 35.29200
H  37.11600 56.87200 38.16500
H  35.81100 55.71300 38.01500
H  36.53700 55.98800 39.57900
H  36.11100 61.36700 40.58000
H  36.90700 61.59700 38.95800
H  37.90800 61.03900 40.35100
H  32.65700 63.10100 38.19000
H  30.81000 63.24200 40.68900
H  34.37400 63.56800 39.86900
H  33.08600 63.50000 41.18000
H  33.13000 64.77900 39.97700
H  29.89900 64.00300 37.82600
H  31.00000 65.04400 38.57100
H  29.13000 65.15200 40.53900
H  28.19600 64.59700 39.13400
H  29.50300 66.07000 39.15900
H  25.05700 61.11000 37.74300
H  26.19800 62.03500 38.81000
H  25.03500 60.81800 39.44900
H  26.58600 55.73200 37.04900
H  24.90000 52.30200 39.07700
H  23.68400 53.49500 39.62100
H  25.19400 53.39200 40.38800

