158

Mg 44.66000 4.12200 49.31200
C  42.35200 6.53300 48.03200
C  42.17900 1.68000 48.94400
C  46.97800 1.77300 49.94300
C  47.14500 6.56500 49.18000
N  42.52100 4.06600 48.63000
C  41.88500 5.19000 48.07300
C  40.46800 4.84400 47.57100
C  40.38900 3.27200 47.87600
C  41.76300 2.97000 48.58800
C  39.21200 2.76300 48.67600
C  40.29800 5.16200 46.02300
C  39.05100 5.95900 45.62200
H  38.42300 5.67900 44.22600
N  44.63600 2.03600 49.33000
C  43.50700 1.30100 49.26100
C  43.96100 -0.07300 49.27500
C  45.32200 -0.17200 49.43600
C  45.72800 1.24900 49.65000
C  42.94900 -1.26200 49.11700
C  46.16400 -1.48000 49.37400
O  45.66500 -2.62400 49.25900
C  47.67000 -1.36800 49.44900
N  46.75300 4.14000 49.29800
C  47.41500 3.03300 49.81200
C  48.90600 3.40000 50.08400
C  48.97200 4.95800 49.85300
C  47.54900 5.26900 49.43200
C  49.56400 2.92500 51.42600
C  50.09100 5.39800 48.82600
C  51.34500 6.04400 49.46100
N  44.82800 6.17100 48.70100
C  45.90000 7.01400 48.74700
C  45.45200 8.34000 48.21500
C  44.07800 8.15700 47.96500
C  43.73600 6.80900 48.26900
C  46.25600 9.61800 48.12700
C  42.87100 8.87800 47.61800
O  42.74000 10.05300 47.29600
C  41.73100 7.81800 47.63200
C  40.58600 8.13600 48.50900
O  40.39600 7.55400 49.57000
O  39.76700 9.13300 48.07400
C  38.64500 9.48300 48.98900
H  41.31800 1.02600 48.78700
H  47.72500 1.08500 50.34400
H  47.98700 7.24800 49.05200
H  39.79500 5.40700 48.21800
H  40.27500 2.65500 46.98400
H  38.44000 3.52500 48.78600
H  39.45600 2.58800 49.72400
H  38.75500 1.84300 48.31100
H  40.27100 4.29400 45.36500
H  41.17100 5.71800 45.68100
H  39.37100 6.99700 45.53200
H  38.28400 5.96400 46.39700
H  41.92500 -0.90900 48.99700
H  42.98400 -1.69200 50.11800
H  43.35200 -1.90200 48.33300
H  48.04800 -0.59000 48.78600
H  48.06800 -2.31400 49.08300
H  47.86700 -1.16800 50.50200
H  49.52800 2.85100 49.37700
H  49.17300 5.45400 50.80300
H  50.02400 1.95600 51.22800
H  48.78300 2.64300 52.13100
H  50.17700 3.67100 51.93200
H  49.79100 6.06800 48.02000
H  50.50400 4.51600 48.33600
H  51.39200 7.04300 49.02800
H  52.16900 5.34400 49.32300
H  51.17600 6.23200 50.52100
H  46.42900 10.08300 49.09700
H  45.98000 10.38800 47.40600
H  47.18600 9.18500 47.75700
H  41.25200 7.74300 46.65600
H  38.93900 9.60600 50.03100
H  37.85300 8.73400 48.99600
H  38.19800 10.42500 48.67100
Mg -11.88300 16.62300 42.38500
C  -8.52800 17.68600 42.67500
C  -12.83400 19.95800 42.19700
C  -14.87200 15.67800 41.46100
C  -10.68500 13.29800 42.17500
N  -10.85000 18.53400 42.40200
C  -9.41600 18.72400 42.49700
C  -9.13500 20.14800 42.26700
C  -10.39000 20.90500 42.60400
C  -11.46800 19.72800 42.46300
C  -10.46600 21.59000 44.03600
C  -8.59300 20.36300 40.77300
C  -7.20900 21.10100 40.58000
H  -6.13600 20.35200 39.84000
N  -13.65500 17.67700 42.01700
C  -13.82000 19.00300 41.94600
C  -15.17600 19.30200 41.39500
C  -15.82900 18.05300 41.17900
C  -14.74900 17.06300 41.50600
C  -15.71900 20.73300 41.26200
C  -17.29800 17.77100 40.84600
O  -18.04100 18.65400 40.51700
C  -17.84400 16.36300 40.85300
N  -12.60800 14.72300 41.52900
C  -13.99000 14.67300 41.66100
C  -14.44200 13.23500 41.83400
C  -13.07900 12.48300 41.81500
C  -12.04300 13.55000 41.89100
C  -15.24100 12.96800 43.08800
C  -12.84500 11.72300 40.48800
C  -13.48600 10.37100 40.51200
N  -10.07100 15.64800 42.56200
C  -9.71500 14.30000 42.44000
C  -8.26400 14.15800 42.60500
C  -7.81700 15.51800 42.71900
C  -8.94800 16.30900 42.74900
C  -7.51000 12.95600 42.47100
C  -6.57600 16.34600 42.73800
O  -5.42500 16.04800 42.66400
C  -7.03500 17.76400 42.76200
C  -6.57400 18.45200 43.91800
O  -6.53600 17.94500 45.02500
O  -6.16500 19.70900 43.61900
C  -5.61300 20.52100 44.76300
H  -13.18100 20.99400 42.18500
H  -15.81500 15.18200 41.22100
H  -10.44300 12.23800 42.27000
H  -8.31300 20.45500 42.91400
H  -10.53700 21.63700 41.81000
H  -10.68900 22.64500 43.87600
H  -9.49000 21.51700 44.51700
H  -11.17900 21.08800 44.69000
H  -9.25500 20.94800 40.13400
H  -8.50600 19.36500 40.34400
H  -6.88000 21.39800 41.57500
H  -7.48900 22.00500 40.03800
H  -16.21800 21.02100 42.18700
H  -16.53100 20.80000 40.53800
H  -14.96400 21.41600 40.87000
H  -18.91500 16.52400 40.72600
H  -17.82700 15.94300 41.85800
H  -17.34600 15.75500 40.09700
H  -14.99800 12.97900 40.93200
H  -12.74000 11.78000 42.57600
H  -16.30800 12.83200 42.91100
H  -15.09300 13.70600 43.87700
H  -14.91800 12.05500 43.58700
H  -11.78000 11.57200 40.30800
H  -13.28100 12.27900 39.65900
H  -14.09800 10.05900 41.35900
H  -12.67800 9.63900 40.52300
H  -13.98700 10.10100 39.58300
H  -6.49900 13.03400 42.86800
H  -7.36900 12.85500 41.39400
H  -7.98300 12.04400 42.83500
H  -6.55700 18.19200 41.88200
H  -6.04300 20.36300 45.75200
H  -5.87400 21.52200 44.42100
H  -4.52700 20.50200 44.67600

