158

Mg 7.89800 3.27300 27.39100
C  9.42400 1.83800 30.35000
C  6.07900 5.33500 29.51600
C  6.57600 4.49200 24.71600
C  9.58500 0.70800 25.64700
N  7.83900 3.61000 29.67900
C  8.63100 2.95900 30.66900
C  8.42800 3.64400 32.04300
C  7.23200 4.69400 31.74500
C  6.98500 4.54500 30.22300
C  5.89200 4.56700 32.54300
C  9.68400 4.24800 32.79600
C  9.86700 3.79200 34.28100
H  10.52900 4.77500 35.28100
N  6.48900 4.67900 27.14900
C  5.84300 5.43100 28.10400
C  5.00200 6.43100 27.44200
C  5.23900 6.28600 26.03000
C  6.14400 5.15400 25.90200
C  4.17700 7.45300 28.15600
C  4.77200 7.09000 24.80900
O  5.12100 6.84200 23.67600
C  3.74100 8.12800 25.03900
N  8.03500 2.63200 25.45600
C  7.39800 3.41800 24.49600
C  7.67000 2.87300 23.06400
C  8.57200 1.66800 23.42800
C  8.69400 1.61100 24.89600
C  6.35300 2.59000 22.19400
C  9.90300 1.64100 22.63700
C  10.06700 0.29700 21.91600
N  9.16900 1.63800 27.87000
C  9.84500 0.77800 26.99200
C  10.64800 -0.16000 27.72900
C  10.61000 0.32000 29.06400
C  9.67200 1.34600 29.06700
C  11.52200 -1.27100 27.14400
C  11.07700 0.02100 30.38000
O  11.79000 -0.86600 30.86400
C  10.47100 1.19300 31.25500
C  9.88600 0.61100 32.45900
O  8.71000 0.28100 32.46500
O  10.71900 0.64300 33.55900
C  10.04800 0.17200 34.77100
H  5.65700 6.10900 30.16000
H  6.20100 4.79500 23.73600
H  10.08300 -0.05800 25.05000
H  8.16400 2.77000 32.63900
H  7.64200 5.68500 31.94100
H  5.08800 4.17900 31.91800
H  5.61800 5.50100 33.03200
H  6.11200 3.76000 33.24200
H  9.66500 5.33800 32.81700
H  10.61500 3.99600 32.28800
H  10.59400 2.98300 34.35100
H  8.90900 3.52200 34.72500
H  4.54200 8.45000 27.91200
H  4.07200 7.29000 29.22900
H  3.15000 7.48900 27.79500
H  4.06500 9.05700 25.50800
H  2.93600 7.58800 25.53900
H  3.35200 8.39300 24.05600
H  8.24700 3.65200 22.56500
H  7.95800 0.80000 23.18800
H  5.48400 2.81000 22.81300
H  6.24400 1.54500 21.90400
H  6.18800 3.36800 21.44900
H  10.77000 1.86000 23.25900
H  9.76100 2.45300 21.92400
H  9.08200 -0.01900 21.57300
H  10.48800 -0.53900 22.47500
H  10.58300 0.48200 20.97400
H  11.66700 -2.08000 27.85900
H  12.47900 -0.95100 26.73200
H  10.96600 -1.81700 26.38100
H  11.27900 1.86900 31.53400
H  9.43400 0.86400 35.34900
H  10.83100 -0.17500 35.44500
H  9.45000 -0.70100 34.51100
Mg 24.11700 -5.21200 45.22300
C  26.34200 -3.10700 43.53900
C  21.71800 -4.20600 43.01400
C  22.19100 -7.99000 46.01700
C  26.87200 -6.59300 46.88100
N  24.14700 -3.94400 43.41400
C  25.09700 -3.06200 43.04000
C  24.62700 -2.08500 41.90600
C  23.09300 -2.34600 41.97600
C  22.95300 -3.58400 42.82500
C  22.22100 -1.11400 42.45200
C  25.29300 -2.25200 40.49100
C  25.24100 -1.03100 39.61400
H  24.85500 -1.27600 38.09800
N  22.13300 -5.96700 44.64200
C  21.31400 -5.36100 43.74300
C  20.08800 -6.09600 43.70000
C  20.13300 -7.11300 44.69000
C  21.52500 -7.08300 45.17100
C  18.93900 -5.60000 42.78600
C  18.99500 -8.03700 45.11800
O  17.90200 -7.93700 44.52300
C  19.15700 -9.01200 46.27900
N  24.48100 -7.05600 46.13800
C  23.57200 -8.03400 46.45000
C  24.21700 -9.10000 47.28500
C  25.58700 -8.58000 47.74600
C  25.67700 -7.37400 46.78400
C  23.31900 -9.73700 48.44200
C  26.78600 -9.57700 47.61500
C  27.59100 -9.79800 48.90200
N  26.21700 -4.78000 45.39100
C  27.18400 -5.42700 46.13600
C  28.50400 -4.78500 45.96900
C  28.21400 -3.81400 44.92900
C  26.82700 -3.89500 44.62700
C  29.76000 -5.17200 46.60800
C  28.76200 -2.80600 44.04900
O  29.93400 -2.44700 43.93000
C  27.54400 -2.21500 43.21400
C  27.29000 -0.84000 43.69300
O  26.60800 -0.53600 44.65600
O  27.93900 0.13400 42.87500
C  27.87400 1.49600 43.47400
H  20.97500 -3.70400 42.39000
H  21.70700 -8.88300 46.41700
H  27.70200 -7.00300 47.45900
H  24.87100 -1.07000 42.22000
H  22.73600 -2.62900 40.98700
H  22.89100 -0.25600 42.51200
H  21.77600 -1.40300 43.40400
H  21.38200 -0.97500 41.77000
H  24.82600 -3.13000 40.04500
H  26.33400 -2.54700 40.62200
H  26.23100 -0.60600 39.78000
H  24.53300 -0.43300 40.18900
H  18.31300 -4.85000 43.27000
H  18.17900 -6.36600 42.63100
H  19.33000 -5.08300 41.90900
H  18.17000 -9.17900 46.71000
H  19.76400 -8.56800 47.06800
H  19.57400 -9.96000 45.94000
H  24.43400 -9.94700 46.63500
H  25.56800 -8.20400 48.76900
H  24.07400 -10.05200 49.16200
H  22.69100 -10.51800 48.01400
H  22.71900 -8.94200 48.88600
H  27.48000 -9.17700 46.87600
H  26.38700 -10.55200 47.33400
H  28.66800 -9.78900 48.73600
H  27.24100 -10.79100 49.18500
H  27.16400 -9.04500 49.56300
H  30.63000 -4.98400 45.98000
H  29.76000 -6.18000 47.02400
H  29.88900 -4.45500 47.41900
H  27.77500 -2.33200 42.15500
H  27.01600 1.89100 44.01900
H  27.94800 2.22200 42.66400
H  28.68900 1.52600 44.19700

