158

Mg 49.92000 45.91500 43.19900
C  46.57300 46.26300 42.31800
C  49.78200 42.60900 42.26800
C  53.32700 45.73200 43.66000
C  50.15400 49.43900 43.84400
N  48.33600 44.65700 42.26000
C  47.03000 44.96400 42.17100
C  46.21500 43.79000 41.71600
C  47.20600 42.56300 41.83800
C  48.52400 43.28700 42.16300
C  46.90200 41.45800 42.93300
C  45.77000 43.94500 40.14300
C  44.39300 43.60500 39.81400
H  43.86500 44.45000 38.63100
N  51.44500 44.40500 42.87200
C  51.12300 43.07900 42.53600
C  52.32800 42.27100 42.61000
C  53.33400 43.15000 43.07200
C  52.73200 44.51100 43.19300
C  52.40500 40.77100 42.24800
C  54.84800 42.75900 43.28700
O  55.12400 41.59100 43.02100
C  55.89500 43.70200 43.79500
N  51.51700 47.41700 43.62900
C  52.74100 47.00300 43.83500
C  53.58300 48.27500 44.14800
C  52.57700 49.51800 44.17400
C  51.32900 48.76000 43.89100
C  54.49500 48.19700 45.40900
C  52.89400 50.57100 43.00700
C  53.62200 51.89300 43.48600
N  48.62000 47.53800 43.18000
C  48.88400 48.86900 43.43900
C  47.55900 49.55600 43.31600
C  46.65300 48.58300 42.89100
C  47.37400 47.39100 42.79900
C  47.20800 50.94700 43.53700
C  45.27400 48.26800 42.47300
O  44.32700 49.02900 42.33500
C  45.14900 46.81600 42.10100
C  44.14600 46.32600 43.14900
O  44.30200 46.18000 44.36200
O  42.96300 45.94000 42.49100
C  41.92100 45.21300 43.26400
H  49.58700 41.54400 42.12500
H  54.35700 45.62700 44.00800
H  50.03800 50.49500 44.09500
H  45.30900 43.58000 42.28300
H  47.19700 42.10500 40.84900
H  46.51100 40.51300 42.55500
H  46.05800 41.85800 43.49500
H  47.71100 41.25100 43.63400
H  46.35700 43.32500 39.46600
H  46.04300 44.93700 39.78200
H  43.79500 43.68600 40.72100
H  44.51800 42.56500 39.51300
H  51.45700 40.25200 42.38700
H  53.17500 40.23600 42.80400
H  52.66900 40.76900 41.19000
H  56.07000 44.45200 43.02400
H  56.84800 43.17200 43.78600
H  55.69900 44.18400 44.75300
H  54.19700 48.39800 43.25600
H  52.67600 49.95600 45.16700
H  54.24100 47.48600 46.19600
H  54.56800 49.18100 45.87200
H  55.52200 47.99500 45.10300
H  51.93600 50.78600 42.53500
H  53.48300 50.16300 42.18600
H  54.49200 52.02300 42.84300
H  53.92900 51.72900 44.51900
H  53.02600 52.80600 43.45700
H  47.67800 51.56900 42.77500
H  47.60200 51.20900 44.51900
H  46.12300 51.04200 43.57100
H  44.73500 46.84600 41.09300
H  42.08900 44.17000 42.99500
H  40.91500 45.54600 43.00700
H  41.97800 45.18600 44.35200
Mg 47.24500 33.64300 26.58300
C  45.63900 32.76100 29.45500
C  47.64200 37.01200 27.99000
C  48.50900 34.86100 23.61300
C  46.54900 30.71900 25.10000
N  46.87800 34.76900 28.55300
C  46.17100 34.11500 29.53800
C  46.14700 34.98600 30.74600
C  46.60000 36.34700 30.20800
C  47.10400 36.07800 28.82500
C  45.46000 37.38400 30.41600
C  47.01300 34.33700 31.96200
C  46.32300 34.57900 33.36000
H  45.10600 35.56800 33.45000
N  47.95900 35.63000 25.90300
C  48.07900 36.82900 26.60400
C  48.74200 37.81600 25.79500
C  49.15700 37.22400 24.57900
C  48.54200 35.87500 24.68100
C  49.03800 39.26300 26.31900
C  49.90400 37.73900 23.34200
O  50.32300 37.00200 22.41200
C  50.22100 39.14400 23.19200
N  47.54200 32.92800 24.58500
C  48.08600 33.57400 23.57900
C  48.20700 32.68800 22.32900
C  47.51900 31.40400 22.77600
C  47.19200 31.65100 24.29000
C  47.66400 33.30200 21.04700
C  48.32100 30.08300 22.62000
C  49.69300 29.96300 23.37000
N  46.42600 31.90600 27.19700
C  46.07900 30.83500 26.43200
C  45.19400 30.00300 27.22900
C  44.93700 30.69000 28.40600
C  45.74600 31.81100 28.38000
C  44.53800 28.81200 26.72300
C  44.17700 30.71900 29.63100
O  43.38500 29.94800 30.07000
C  44.67500 32.02200 30.38000
C  45.01800 31.49800 31.80300
O  46.15200 31.11200 32.18000
O  43.97100 31.68100 32.68700
C  44.19600 31.04800 33.99600
H  47.68900 38.01700 28.41400
H  49.04200 35.08600 22.68700
H  46.33200 29.70600 24.75400
H  45.10700 34.95400 31.07100
H  47.48700 36.72600 30.71600
H  45.66700 38.15400 31.15900
H  44.49900 36.97900 30.73400
H  45.22100 37.96800 29.52800
H  47.91900 34.93200 32.08100
H  47.39300 33.32500 31.81800
H  47.11900 35.02300 33.95600
H  46.11500 33.56100 33.69000
H  48.71400 40.08300 25.67800
H  50.12200 39.36400 26.37700
H  48.59500 39.50600 27.28500
H  49.26700 39.66600 23.11200
H  50.89800 39.28300 22.35000
H  50.83000 39.46300 24.03700
H  49.24400 32.39200 22.17300
H  46.58000 31.20600 22.26000
H  46.85600 32.69200 20.64400
H  48.50300 33.42600 20.36200
H  47.25900 34.30600 21.17100
H  48.58500 30.10900 21.56300
H  47.64500 29.24500 22.78900
H  50.01500 28.94100 23.57300
H  49.60700 30.38300 24.37100
H  50.59200 30.38100 22.91600
H  44.13900 29.02900 25.73300
H  43.84000 28.44500 27.47600
H  45.26400 28.01700 26.54900
H  43.84600 32.70800 30.55600
H  44.96400 31.61000 34.52800
H  44.53800 30.01300 33.98900
H  43.32900 31.01500 34.65600

