158

Mg -0.60000 7.04200 26.52200
C  0.59700 8.97700 29.36600
C  -0.74900 4.38300 28.63300
C  -1.09500 5.29600 23.79400
C  0.06000 9.87000 24.55500
N  0.00300 6.72700 28.78900
C  0.31800 7.66300 29.74900
C  0.13900 7.02500 31.14800
C  -0.17900 5.52700 30.87300
C  -0.36200 5.52100 29.34700
C  0.80100 4.46000 31.52400
C  -1.03200 7.70800 31.91800
C  -0.76400 8.33900 33.25600
H  0.27000 7.74000 34.25100
N  -0.83100 5.05000 26.22900
C  -0.91900 4.13500 27.17000
C  -1.38400 2.84800 26.57400
C  -1.35500 3.06800 25.13500
C  -1.05400 4.54700 24.99900
C  -1.79200 1.62800 27.41200
C  -1.67900 2.09700 24.04000
O  -1.63900 2.32400 22.81800
C  -2.04300 0.60100 24.22400
N  -0.39100 7.45400 24.48000
C  -0.81900 6.57200 23.50200
C  -0.62700 7.11300 22.08500
C  -0.67200 8.67000 22.38600
C  -0.27900 8.72000 23.87900
C  0.75600 6.67400 21.45900
C  -2.15300 9.32000 22.23700
C  -2.31400 10.07600 20.95000
N  0.15600 8.95000 26.82400
C  0.32000 10.01700 25.92800
C  0.70500 11.23200 26.59200
C  0.96500 10.87600 27.90100
C  0.51900 9.52700 28.00300
C  0.89300 12.62400 26.00800
C  1.26300 11.39900 29.22200
O  1.71200 12.46900 29.63700
C  0.96600 10.19800 30.23900
C  2.19000 9.95700 31.05800
O  3.25200 9.47800 30.67300
O  2.09700 10.47100 32.25300
C  3.30200 10.39700 33.07300
H  -0.80900 3.48000 29.24400
H  -1.22600 4.64200 22.92900
H  0.06400 10.79800 23.97900
H  1.05600 7.17000 31.71900
H  -1.15200 5.34500 31.32900
H  0.31300 3.89300 32.31700
H  1.75000 4.88900 31.84500
H  1.15800 3.75900 30.77000
H  -1.96900 7.16800 32.05400
H  -1.21700 8.55300 31.25500
H  -1.68500 8.30500 33.83900
H  -0.46100 9.36800 33.06300
H  -1.35500 1.55200 28.40800
H  -1.28200 0.75500 27.00400
H  -2.86600 1.65900 27.59300
H  -2.72200 0.32900 25.03300
H  -1.15700 0.06100 24.56000
H  -2.35200 0.29300 23.22500
H  -1.57000 6.95000 21.56300
H  -0.00800 9.40700 21.93300
H  0.98300 5.82100 22.09900
H  1.59200 7.37100 21.40300
H  0.60900 6.35400 20.42700
H  -2.41900 10.00400 23.04300
H  -2.86800 8.51300 22.07100
H  -1.56900 9.70000 20.24800
H  -2.15800 11.12300 21.20800
H  -3.36900 10.04200 20.67600
H  -0.07100 12.89000 25.57200
H  1.56000 12.52800 25.15200
H  1.25600 13.38800 26.69500
H  0.21500 10.54000 30.95100
H  2.88300 10.50400 34.07300
H  4.06900 11.11300 32.77700
H  3.79000 9.42200 33.06200
Mg 44.35200 5.07200 47.54700
C  42.04000 7.81100 47.51600
C  41.66800 2.97900 47.03000
C  46.56400 2.66200 46.93400
C  46.92000 7.45300 47.18700
N  42.15200 5.34100 47.45100
C  41.46900 6.56400 47.39900
C  39.92600 6.31100 47.39000
C  39.83000 4.68100 47.35700
C  41.29800 4.30100 47.28000
C  38.93800 4.07100 48.50300
C  39.11800 6.99200 46.23800
C  40.03600 7.17700 45.00700
H  39.43900 6.69500 43.66900
N  44.18200 3.04000 47.16200
C  42.97500 2.35200 46.97100
C  43.25500 1.01600 46.62100
C  44.64000 0.89900 46.46000
C  45.18700 2.20600 46.86800
C  42.18400 -0.01900 46.32700
C  45.30400 -0.40900 45.95800
O  44.74200 -1.52000 45.77900
C  46.73200 -0.31500 45.57200
N  46.44400 5.03100 47.17100
C  47.16300 3.88300 46.99900
C  48.65000 4.04000 47.12200
C  48.73300 5.59100 46.92400
C  47.30700 6.10800 47.08900
C  49.24000 3.60300 48.47700
C  49.24900 5.93900 45.51400
C  50.62200 5.48400 45.16300
N  44.50400 7.16300 47.37300
C  45.63100 7.97700 47.28500
C  45.18700 9.33000 47.24200
C  43.81900 9.33400 47.44600
C  43.38500 7.98700 47.44900
C  46.11600 10.52100 47.15100
C  42.62100 10.14900 47.65200
O  42.51400 11.38100 47.73700
C  41.42400 9.24300 47.66000
C  40.58500 9.44700 48.90600
O  40.60300 8.74300 49.91400
O  39.52500 10.32100 48.63700
C  38.27600 10.22300 49.47600
H  40.81400 2.33300 46.81600
H  47.34300 1.90200 46.83900
H  47.81300 8.05100 46.99300
H  39.48600 6.65900 48.32400
H  39.45700 4.37200 46.38100
H  39.55700 3.63300 49.28700
H  38.31800 3.22400 48.21200
H  38.29100 4.81100 48.97400
H  38.76600 7.99200 46.49100
H  38.24300 6.39500 45.98000
H  41.04900 6.78700 45.09800
H  40.12600 8.26200 44.96900
H  41.15300 0.26400 46.54000
H  42.34400 -0.93300 46.89900
H  42.22500 -0.24300 45.26000
H  46.95300 -1.13900 44.89400
H  47.29700 -0.57300 46.46700
H  47.04000 0.59800 45.06200
H  49.04700 3.62200 46.19600
H  49.40400 6.01400 47.67200
H  49.93900 4.31300 48.92100
H  49.67300 2.60300 48.48600
H  48.44600 3.45300 49.20800
H  49.15100 7.02400 45.47700
H  48.48200 5.56000 44.83900
H  51.12900 4.72100 45.75400
H  51.15200 6.43600 45.17800
H  50.70200 5.12900 44.13500
H  45.62900 11.49400 47.07500
H  46.69600 10.42200 46.23300
H  46.83300 10.35600 47.95500
H  40.87500 9.53900 46.76500
H  38.27400 11.08400 50.14400
H  38.25900 9.41100 50.20400
H  37.38800 10.13300 48.85100

