158

Mg 24.29800 1.16900 29.13000
C  26.42300 1.03900 32.09800
C  21.68100 1.59300 31.01000
C  22.53800 0.97800 26.38700
C  27.28300 0.60800 27.23400
N  24.12000 1.16900 31.37300
C  25.05500 1.20200 32.39100
C  24.43800 1.56300 33.74200
C  22.90600 1.70500 33.33500
C  22.87000 1.46800 31.76000
C  21.81900 0.74700 33.98800
C  25.05800 2.88600 34.43200
C  25.70500 2.69200 35.82500
H  25.52800 3.67900 36.98800
N  22.35100 1.32800 28.75400
C  21.40300 1.59100 29.69900
C  20.09300 1.59000 29.06300
C  20.32200 1.27700 27.72500
C  21.78000 1.15300 27.54000
C  18.82700 2.00100 29.76100
C  19.29100 1.15200 26.59800
O  19.65600 0.94300 25.45500
C  17.76100 1.18800 26.90200
N  24.88400 0.85200 27.08100
C  23.90800 0.90800 26.11800
C  24.53000 1.11400 24.75100
C  26.07200 0.96200 25.04300
C  26.09700 0.73900 26.53000
C  24.01400 0.02900 23.71100
C  26.87000 2.25800 24.63100
C  26.28100 3.59900 25.02400
N  26.41100 0.95300 29.51100
C  27.44900 0.60800 28.65400
C  28.69300 0.66500 29.41700
C  28.33800 0.83900 30.81300
C  26.92800 0.97200 30.79800
C  30.02500 0.34200 28.91900
C  28.78400 0.88700 32.15300
O  29.92500 0.72500 32.65000
C  27.59400 1.12200 33.08700
C  27.52300 0.12500 34.12500
O  26.92800 -0.94800 33.99000
O  28.24500 0.53200 35.15700
C  28.32500 -0.36700 36.32100
H  20.76900 1.65300 31.60800
H  21.93700 0.86300 25.48200
H  28.16600 0.55700 26.59300
H  24.66600 0.67300 34.33000
H  22.50900 2.70200 33.52800
H  21.07800 1.40200 34.44500
H  22.30000 0.03100 34.65500
H  21.34100 0.24800 33.14500
H  24.31100 3.67300 34.52800
H  25.74000 3.38900 33.74700
H  26.78200 2.71100 35.66200
H  25.35500 1.72800 36.19500
H  18.25900 1.07100 29.79700
H  18.27800 2.72600 29.15900
H  18.89500 2.31700 30.80200
H  17.46500 2.21200 27.12900
H  17.45600 0.62500 27.78500
H  17.17300 0.70600 26.12100
H  24.24500 2.07100 24.31500
H  26.54700 0.17500 24.45700
H  23.13400 -0.41400 24.17900
H  24.68700 -0.81800 23.58500
H  23.79200 0.38700 22.70600
H  27.06100 2.24700 23.55800
H  27.87400 2.22400 25.05500
H  25.35000 3.52900 25.58600
H  26.13200 4.18900 24.12000
H  26.99300 4.20000 25.58900
H  30.31600 0.72500 27.94100
H  30.20100 -0.73300 28.91900
H  30.71600 0.66200 29.69900
H  27.68400 2.08300 33.59400
H  29.37800 -0.30500 36.59300
H  28.23100 -1.40800 36.01100
H  27.64500 -0.20200 37.15700
Mg -11.42800 38.51500 41.48000
C  -9.58600 35.61600 40.87000
C  -9.18000 40.27500 39.62900
C  -13.54100 41.10900 41.71700
C  -13.99400 36.44500 42.73500
N  -9.51700 38.04000 40.49400
C  -8.98900 36.80000 40.31300
C  -7.67900 36.85300 39.52100
C  -7.54500 38.36700 39.23400
C  -8.78200 38.96400 39.83300
C  -6.18100 39.06100 39.68600
C  -7.64800 36.01600 38.21100
C  -6.30900 35.37400 37.68700
H  -5.66200 35.69700 36.34200
N  -11.30600 40.41700 40.85400
C  -10.28200 40.98700 40.12600
C  -10.57800 42.45900 39.96800
C  -11.67300 42.72100 40.82400
C  -12.20300 41.38000 41.23600
C  -9.79900 43.40000 39.08900
C  -12.26900 44.13300 41.14000
O  -11.68300 45.07500 40.68600
C  -13.49200 44.37500 41.94900
N  -13.61400 38.73200 41.95000
C  -14.20800 39.90200 42.00500
C  -15.63700 39.90600 42.54700
C  -15.82700 38.34500 42.83300
C  -14.40200 37.84000 42.54100
C  -15.92900 40.79700 43.77600
C  -16.92500 37.63200 41.98100
C  -18.00800 36.76900 42.63700
N  -11.71700 36.50200 41.82300
C  -12.78500 35.84700 42.42100
C  -12.48700 34.43200 42.58400
C  -11.24400 34.34900 41.97600
C  -10.85900 35.63800 41.48200
C  -13.30900 33.41500 43.16000
C  -10.15800 33.41600 41.63400
O  -10.17000 32.20600 41.85800
C  -9.06300 34.19200 40.86400
C  -7.76200 33.95700 41.48500
O  -7.05100 32.97500 41.30500
O  -7.43500 34.94100 42.38700
C  -6.15100 34.71400 43.03000
H  -8.44700 40.89100 39.10300
H  -14.24700 41.93600 41.81300
H  -14.76900 35.83100 43.19800
H  -6.91300 36.45300 40.18500
H  -7.69700 38.65100 38.19300
H  -6.50600 40.03200 40.05900
H  -5.50200 39.24800 38.85400
H  -5.67500 38.47300 40.45200
H  -7.92700 36.52100 37.28600
H  -8.50600 35.34500 38.21700
H  -6.37000 34.28600 37.64400
H  -5.51600 35.53800 38.41700
H  -10.47100 43.76300 38.31200
H  -9.00400 42.95800 38.49000
H  -9.48700 44.26100 39.68000
H  -13.39100 45.39900 42.31000
H  -13.69300 43.74200 42.81300
H  -14.26100 44.37400 41.17600
H  -16.23800 40.25100 41.70700
H  -16.04400 38.19400 43.89000
H  -15.19800 41.58000 43.97600
H  -16.17600 40.12100 44.59500
H  -16.93700 41.10800 43.50300
H  -16.38700 36.90600 41.37200
H  -17.39300 38.36600 41.32400
H  -17.95800 36.80800 43.72600
H  -17.99300 35.70000 42.42800
H  -18.98500 37.04100 42.23800
H  -13.52000 33.63000 44.20700
H  -12.79600 32.46600 42.99900
H  -14.32200 33.31800 42.76800
H  -9.19100 33.67300 39.91400
H  -5.28700 34.84300 42.37800
H  -6.08000 33.77700 43.58300
H  -6.19300 35.46600 43.81700

