158

Mg 29.67400 57.56700 39.93800
C  27.08700 55.37000 38.82100
C  31.92100 55.10800 38.83900
C  32.20900 59.88700 40.12600
C  27.33000 60.15700 40.26600
N  29.46000 55.42200 39.05900
C  28.35500 54.74300 38.72000
C  28.62100 53.27900 38.25900
C  30.14300 53.21900 38.48900
C  30.56200 54.61100 38.94300
C  30.59100 52.21400 39.50800
C  28.16900 53.04100 36.77100
C  28.75300 53.97300 35.61600
H  27.74700 54.77200 34.69700
N  31.77200 57.48900 39.70600
C  32.48600 56.36500 39.15500
C  33.87100 56.69600 39.15900
C  33.98300 58.02100 39.73200
C  32.64800 58.52900 39.95200
C  34.98900 55.70500 38.73300
C  35.32600 58.81600 39.91600
O  36.35900 58.35300 39.48100
C  35.41700 60.25900 40.54400
N  29.74000 59.79200 40.08500
C  30.91900 60.46200 40.25400
C  30.61000 62.02000 40.31000
C  28.98400 62.00300 40.37400
C  28.65500 60.58700 40.29300
C  31.29700 62.86500 41.31100
C  28.22000 62.91800 39.44300
C  26.92200 63.65300 39.92600
N  27.57800 57.73900 39.81500
C  26.83500 58.86300 39.95300
C  25.48600 58.50500 39.77300
C  25.53000 57.15200 39.35200
C  26.86500 56.70100 39.34000
C  24.34100 59.52300 39.94300
C  24.70800 56.00500 38.86200
O  23.51900 55.88200 38.66900
C  25.69100 54.90600 38.46500
C  25.44600 53.67900 39.24000
O  25.67100 53.48900 40.42400
O  24.78400 52.78100 38.44200
C  24.30300 51.51400 39.02700
H  32.56300 54.24300 38.66500
H  33.00100 60.63900 40.11600
H  26.61700 60.95800 40.47200
H  28.03400 52.69600 38.96800
H  30.62500 52.95700 37.54700
H  31.11100 51.51800 38.85000
H  29.73800 51.79500 40.04200
H  31.33200 52.67300 40.16300
H  27.09100 52.90700 36.86100
H  28.69700 52.10200 36.60800
H  29.38900 53.40600 34.93600
H  29.54500 54.65800 35.91900
H  35.53300 56.04400 37.85100
H  34.52000 54.72600 38.64300
H  35.67900 55.45700 39.53900
H  36.36200 60.56000 40.99500
H  34.68200 60.46100 41.32300
H  35.11900 60.90000 39.71300
H  30.83200 62.45900 39.33700
H  28.84900 62.36700 41.39200
H  31.99100 63.43700 40.69500
H  31.74200 62.28100 42.11600
H  30.63900 63.59800 41.78000
H  28.02800 62.33100 38.54500
H  28.90000 63.74000 39.22300
H  26.07100 63.48800 39.26500
H  27.00600 64.73800 39.98300
H  26.58200 63.29600 40.89900
H  24.24200 59.75200 41.00400
H  23.37400 59.16700 39.58700
H  24.45800 60.49400 39.46300
H  25.50800 54.77100 37.39900
H  24.64500 51.30800 40.04100
H  24.53100 50.63800 38.42000
H  23.22400 51.64800 39.10200
Mg 35.67800 48.28300 26.76100
C  36.23900 46.25200 29.60200
C  34.65200 50.80100 28.86000
C  35.03100 50.13100 24.09000
C  36.89700 45.71600 24.72600
N  35.29900 48.36800 28.97900
C  35.75500 47.49100 29.91000
C  35.63700 48.05700 31.33100
C  34.86200 49.42900 31.03900
C  34.96100 49.58900 29.56200
C  33.51200 49.48600 31.75800
C  37.03000 48.34100 32.02600
C  37.13800 48.04600 33.51900
H  35.94400 48.43300 34.45700
N  35.01300 50.22600 26.52800
C  34.69400 51.14900 27.50000
C  34.34100 52.42400 26.95900
C  34.26400 52.20900 25.53200
C  34.80900 50.83600 25.30600
C  34.01900 53.60500 27.75000
C  33.79400 53.14600 24.36800
O  33.81900 52.77200 23.20700
C  33.18700 54.50300 24.66900
N  36.03000 48.02900 24.69700
C  35.65300 48.90900 23.81800
C  35.72300 48.30500 22.42800
C  36.58400 47.07300 22.67000
C  36.50000 46.92100 24.13400
C  34.38400 47.97700 21.71100
C  38.06900 47.16300 22.29400
C  38.85600 45.96100 21.80500
N  36.22700 46.32300 27.02300
C  36.69100 45.38000 26.06000
C  37.08400 44.11000 26.68400
C  36.88500 44.46000 28.12200
C  36.42600 45.76700 28.21700
C  37.50700 42.84300 26.05400
C  37.02700 43.93200 29.44500
O  37.36600 42.83700 29.86500
C  36.72200 45.08300 30.41300
C  35.54800 44.55500 31.34600
O  34.42700 44.15700 31.03500
O  35.95600 44.63400 32.68400
C  34.98300 44.32100 33.77200
H  34.37600 51.56000 29.59500
H  34.84900 50.53100 23.09000
H  37.25900 45.08400 23.91300
H  35.03500 47.36900 31.92400
H  35.43300 50.21200 31.53800
H  32.87900 50.07000 31.09000
H  33.63300 50.02600 32.69700
H  33.22600 48.45900 31.98700
H  37.28400 49.39900 31.95900
H  37.75200 47.81500 31.40100
H  37.97100 48.57500 33.98200
H  37.31500 46.97800 33.64400
H  34.96600 54.13900 27.82700
H  33.70100 53.24800 28.73000
H  33.18100 54.24200 27.46800
H  33.49800 55.01800 25.57800
H  32.10700 54.36000 24.64600
H  33.43400 55.13700 23.81800
H  36.12500 49.05400 21.74500
H  36.24500 46.13300 22.23500
H  34.00400 47.00300 22.02000
H  34.58700 47.96300 20.64000
H  33.66400 48.76600 21.93000
H  38.55700 47.55000 23.18800
H  38.14900 47.99100 21.59100
H  39.27800 46.15200 20.81800
H  38.25400 45.05700 21.88900
H  39.65300 45.83600 22.53900
H  38.25200 42.39200 26.71000
H  38.04100 43.05000 25.12700
H  36.68000 42.16400 25.84700
H  37.58200 45.28100 31.05300
H  35.17200 44.98900 34.61200
H  35.19900 43.30900 34.11300
H  33.94400 44.48900 33.48800

