158

Mg 3.03800 -2.29000 45.20700
C  6.37900 -1.66300 44.75400
C  2.22300 0.01000 42.91400
C  -0.01900 -3.48500 45.30200
C  4.06400 -4.99300 47.34400
N  4.19700 -0.93000 43.92500
C  5.54400 -0.83300 43.96200
C  5.95700 0.42400 43.06900
C  4.54500 1.07700 42.82600
C  3.61000 0.02900 43.24100
C  4.26200 2.39900 43.60200
C  6.82100 -0.04500 41.83000
C  8.18200 0.63100 41.61900
H  8.45500 1.09000 40.16800
N  1.35400 -1.86200 44.13000
C  1.21800 -0.87400 43.28200
C  -0.14800 -0.80100 42.84700
C  -0.87700 -1.75200 43.57600
C  0.18700 -2.37700 44.42700
C  -0.68100 0.25900 42.01600
C  -2.38100 -2.08800 43.46800
O  -3.02700 -1.59800 42.53300
C  -3.19200 -3.10300 44.27700
N  2.19900 -4.00400 46.14400
C  0.88100 -4.23800 46.07600
C  0.43800 -5.58300 46.69600
C  1.72500 -5.94900 47.40500
C  2.75600 -4.93900 46.97800
C  -0.89200 -5.60300 47.49200
C  2.06600 -7.47200 47.25000
C  1.95800 -8.35500 48.46100
N  4.84300 -3.17600 45.97200
C  5.13700 -4.27100 46.80700
C  6.59000 -4.43300 46.96300
C  7.09500 -3.33900 46.25700
C  5.98800 -2.69200 45.62700
C  7.31500 -5.43700 47.76500
C  8.35400 -2.66600 45.89700
O  9.46100 -2.91000 46.31500
C  7.95800 -1.50000 44.98100
C  8.11900 -0.26400 45.75400
O  7.76700 -0.11100 46.92400
O  8.69200 0.71400 44.98000
C  8.98800 1.97500 45.64600
H  2.03900 0.79600 42.17900
H  -1.01400 -3.93300 45.33000
H  4.40100 -5.87100 47.90000
H  6.46300 1.09500 43.76300
H  4.37000 1.19600 41.75700
H  5.28100 2.68700 43.86300
H  3.64800 2.13600 44.46400
H  3.79900 3.13400 42.94400
H  6.18200 0.13100 40.96400
H  6.98000 -1.11400 41.96900
H  8.99400 -0.00200 41.97600
H  8.15600 1.55500 42.19600
H  -0.69500 -0.12100 40.99400
H  -0.24000 1.25300 42.08500
H  -1.68100 0.47500 42.39300
H  -3.15600 -2.93200 45.35300
H  -2.80200 -4.09700 44.05700
H  -4.24300 -3.05900 43.99300
H  0.38900 -6.12300 45.75100
H  1.55300 -5.72400 48.45800
H  -1.42400 -6.54200 47.33900
H  -1.48200 -4.70200 47.32400
H  -0.61100 -5.64100 48.54400
H  3.07100 -7.56900 46.84000
H  1.39400 -8.07000 46.63400
H  2.84200 -8.37100 49.09900
H  1.71300 -9.35900 48.11400
H  1.18200 -7.88800 49.06700
H  8.38900 -5.27600 47.86000
H  6.96600 -6.41800 47.44200
H  6.89500 -5.35500 48.76800
H  8.52200 -1.51100 44.04900
H  8.07400 2.55500 45.76800
H  9.78800 2.41400 45.05000
H  9.47800 1.85500 46.61200
Mg 27.35000 50.16600 27.02600
C  25.11500 51.07900 29.65500
C  29.70500 49.42600 29.36900
C  29.57300 49.63700 24.55700
C  24.99500 51.23200 24.75500
N  27.33000 50.28800 29.24200
C  26.33600 50.65800 30.11100
C  26.73600 50.38100 31.60600
C  28.27400 49.89300 31.41200
C  28.46400 49.81700 29.90200
C  29.21000 50.93300 32.07100
C  25.86100 49.29100 32.22300
C  25.09100 49.67100 33.51500
H  25.25500 48.77100 34.70000
N  29.36800 49.53800 26.95400
C  30.15400 49.22500 28.00300
C  31.48900 48.68700 27.55100
C  31.49300 49.04600 26.17700
C  30.09400 49.40700 25.82200
C  32.59700 48.16500 28.42900
C  32.62900 49.11700 25.19700
O  32.52300 49.65000 24.10000
C  33.98700 48.67200 25.65500
N  27.30600 50.43900 24.94500
C  28.26900 49.98800 24.08900
C  27.80500 50.07200 22.60900
C  26.38000 50.71800 22.73900
C  26.22800 50.76600 24.21300
C  28.88500 50.70000 21.61500
C  25.20600 50.00500 22.06400
C  24.28500 50.72500 21.07900
N  25.37200 50.92800 27.10800
C  24.58900 51.39800 26.11900
C  23.38700 51.89000 26.61200
C  23.56900 51.82700 28.02000
C  24.78500 51.21300 28.27400
C  22.19800 52.53300 25.79100
C  22.96900 52.11700 29.27700
O  21.96200 52.69700 29.61500
C  23.92900 51.56200 30.43400
C  24.08600 52.77300 31.30000
O  24.36400 53.85100 30.90100
O  23.70100 52.39000 32.54300
C  23.87200 53.36600 33.61300
H  30.36600 49.08800 30.17000
H  30.26700 49.47900 23.72900
H  24.23600 51.35600 23.98000
H  26.68300 51.26000 32.24800
H  28.38200 48.90500 31.86000
H  29.81200 50.54900 32.89500
H  28.67500 51.74300 32.56600
H  29.83900 51.42600 31.33000
H  26.36600 48.35800 32.47500
H  25.07100 49.00200 31.53000
H  24.05000 49.58400 33.20400
H  25.29800 50.68900 33.84600
H  33.28700 47.52100 27.88300
H  32.21700 47.51300 29.21500
H  33.09100 48.96700 28.97800
H  34.72700 49.06200 24.95700
H  33.94200 47.58500 25.72500
H  34.06500 49.20700 26.60100
H  27.84000 49.07300 22.17300
H  26.50400 51.76700 22.46700
H  29.69500 51.21000 22.13700
H  28.32000 51.39400 20.99200
H  29.26600 49.98100 20.89000
H  24.68300 49.44500 22.84000
H  25.64900 49.23400 21.43400
H  24.53400 50.26500 20.12200
H  24.57300 51.77600 21.10800
H  23.23000 50.75400 21.35200
H  22.16000 51.86500 24.93000
H  22.39900 53.58500 25.59000
H  21.28300 52.49100 26.38200
H  23.43200 50.77900 31.00700
H  24.16400 54.35000 33.24700
H  24.61700 53.02000 34.33000
H  22.90000 53.52700 34.08000

