158

Mg 24.71900 -6.02700 47.19500
C  26.40900 -3.24100 45.92500
C  22.28400 -5.45100 44.94400
C  23.30900 -8.97900 48.20300
C  27.75500 -7.08400 48.70000
N  24.45100 -4.57500 45.47400
C  25.24500 -3.52200 45.14400
C  24.71600 -2.76900 43.96300
C  23.32900 -3.41400 43.74600
C  23.32300 -4.56500 44.71200
C  22.11000 -2.44500 43.97500
C  25.76100 -2.81000 42.79600
C  25.32000 -3.12700 41.38000
H  26.27300 -2.99600 40.19100
N  22.96100 -7.06500 46.74800
C  22.12400 -6.61100 45.75200
C  20.95100 -7.45500 45.74400
C  21.22700 -8.56500 46.63100
C  22.60500 -8.24900 47.21800
C  19.75100 -7.32000 44.98700
C  20.22600 -9.65000 47.03800
O  19.15600 -9.73400 46.49100
C  20.68000 -10.81000 47.94100
N  25.41700 -7.82900 48.12800
C  24.57100 -8.74600 48.58600
C  25.29300 -9.65400 49.56200
C  26.77300 -9.28000 49.41700
C  26.63900 -7.98500 48.70900
C  24.70800 -9.52100 51.01100
C  27.68200 -10.22100 48.60600
C  29.07600 -10.58700 49.28800
N  26.56400 -5.20800 47.59800
C  27.72000 -5.76300 48.21500
C  28.86000 -4.84300 48.03000
C  28.30000 -3.79400 47.23300
C  26.96800 -4.09900 46.90400
C  30.33100 -5.00200 48.67500
C  28.73500 -2.55800 46.51100
O  29.75000 -1.95000 46.45200
C  27.44700 -2.16100 45.61400
C  27.05000 -0.77800 46.03500
O  26.76300 -0.43900 47.19700
O  27.04000 0.04900 44.95500
C  26.82400 1.48900 45.19200
H  21.38200 -5.30600 44.34500
H  23.05400 -10.01500 48.43500
H  28.71300 -7.46300 49.06400
H  24.67400 -1.73500 44.30700
H  23.20900 -3.73000 42.71000
H  22.43300 -1.49100 44.39200
H  21.33700 -2.82700 44.64200
H  21.66200 -2.22800 43.00600
H  26.44000 -3.59500 43.12900
H  26.36600 -1.92100 42.61700
H  24.48200 -2.43100 41.34200
H  24.97000 -4.15900 41.41400
H  19.69600 -6.42600 44.36600
H  18.89800 -7.38400 45.66200
H  19.77200 -8.22800 44.38500
H  21.52500 -11.22400 47.39000
H  19.84500 -11.50900 47.88900
H  20.88500 -10.44400 48.94700
H  25.14100 -10.69700 49.28300
H  27.19100 -9.15300 50.41500
H  23.91800 -10.25200 51.18300
H  24.22100 -8.56700 51.20900
H  25.46600 -9.81100 51.73800
H  27.90000 -9.81700 47.61800
H  27.11400 -11.13000 48.40500
H  29.21400 -11.66400 49.38200
H  29.12100 -10.20800 50.30900
H  29.85600 -10.16800 48.65200
H  30.34000 -4.43400 49.60500
H  31.00000 -4.65700 47.88700
H  30.67100 -6.03000 48.80100
H  27.69800 -2.17400 44.55400
H  25.99700 1.81400 44.56100
H  27.69400 2.07800 44.90100
H  26.47300 1.76500 46.18600
Mg 16.42700 51.85700 25.42300
C  18.24300 50.82900 28.34500
C  13.68100 52.37900 27.46800
C  14.64500 52.20700 22.71100
C  19.18900 50.72000 23.58800
N  16.05300 51.64900 27.66700
C  16.98800 51.32400 28.65100
C  16.34500 51.54900 30.00200
C  14.83600 51.84000 29.66100
C  14.82300 51.90900 28.17000
C  13.78100 50.76600 30.15300
C  16.99800 52.69200 30.77500
C  17.58000 52.48800 32.18500
H  16.88400 51.39800 33.04200
N  14.37800 52.29300 25.10000
C  13.43500 52.51000 26.09300
C  12.16800 52.76800 25.35100
C  12.39400 52.82300 23.93700
C  13.83900 52.36900 23.86400
C  10.91200 53.08900 26.18200
C  11.48000 53.21100 22.84800
O  11.73700 53.19300 21.61700
C  10.16000 53.68800 23.20500
N  16.91500 51.55400 23.50300
C  15.92200 51.68900 22.56400
C  16.45400 51.23800 21.18100
C  18.00400 51.12000 21.35500
C  18.05300 51.13100 22.88900
C  15.73800 49.91200 20.69900
C  18.80800 52.23500 20.59600
C  19.83000 51.86600 19.54000
N  18.32900 51.06300 25.84500
C  19.30700 50.66400 24.96000
C  20.43800 50.15800 25.69300
C  20.09200 50.24500 27.04700
C  18.79200 50.75200 27.04400
C  21.74800 49.78100 25.12300
C  20.50200 49.99800 28.39200
O  21.57000 49.51300 28.81100
C  19.29500 50.40400 29.33600
C  18.90000 49.27300 30.09800
O  17.98000 48.53000 29.75600
O  19.65300 49.22100 31.27000
C  19.48200 48.02100 32.13500
H  12.78400 52.48100 28.08300
H  13.99600 52.47600 21.87500
H  20.00300 50.44900 22.91200
H  16.39600 50.61400 30.56100
H  14.51800 52.77700 30.11800
H  13.34900 51.08900 31.10000
H  14.39000 49.90300 30.42100
H  12.90700 50.59000 29.52600
H  16.25100 53.48100 30.86600
H  17.89100 53.11600 30.31600
H  17.50900 53.39700 32.78300
H  18.63900 52.24400 32.25800
H  10.86800 54.02300 26.74300
H  10.88500 52.22200 26.84200
H  9.98800 52.94800 25.62100
H  10.16500 54.50300 23.92900
H  9.60100 52.82100 23.55600
H  9.70200 54.03400 22.27900
H  16.21000 52.10400 20.56600
H  18.25700 50.09500 21.08400
H  15.42900 49.32500 21.56400
H  16.38900 49.21500 20.17000
H  14.90800 50.29400 20.10400
H  19.39900 52.71900 21.37300
H  18.28200 53.06500 20.12500
H  19.82200 50.79400 19.34200
H  20.83400 52.22900 19.76000
H  19.58000 52.37700 18.61100
H  22.04000 48.75500 25.34600
H  22.61300 50.32800 25.50200
H  21.71300 49.92400 24.04300
H  19.70500 51.16300 30.00200
H  18.93000 47.29300 31.54000
H  18.87700 48.28300 33.00300
H  20.41700 47.62300 32.52800

