158

Mg 36.15200 1.08900 29.84200
C  33.89500 1.90200 32.32000
C  38.54300 0.66800 32.39400
C  38.41700 0.30500 27.40700
C  33.67500 1.24700 27.46200
N  36.19500 1.43300 32.09300
C  35.12300 1.77600 32.82300
C  35.48300 1.73100 34.29800
C  37.01400 1.65500 34.29800
C  37.33700 1.29900 32.84500
C  37.85700 2.75100 34.85300
C  34.83000 0.51000 35.00300
C  35.07200 0.43700 36.57600
H  35.70000 1.64200 37.33800
N  38.17100 0.64800 29.91100
C  38.96200 0.50300 31.01900
C  40.33400 0.10100 30.54100
C  40.35600 0.05600 29.15400
C  38.92200 0.45500 28.73900
C  41.46800 -0.18700 31.54900
C  41.55600 -0.34600 28.18500
O  41.38500 -0.35900 26.95500
C  42.77600 -1.06700 28.74000
N  36.04900 0.63300 27.76500
C  37.08900 0.31900 26.92200
C  36.64200 0.23300 25.44100
C  35.10100 0.41500 25.51600
C  34.92400 0.78000 27.00600
C  37.40500 1.18400 24.56800
C  34.28900 -0.78500 25.06800
C  34.00100 -1.75300 26.19300
N  34.18000 1.60800 29.83000
C  33.28900 1.62700 28.77800
C  31.99700 2.08200 29.30400
C  32.18600 2.16900 30.65900
C  33.51400 1.85900 30.92400
C  30.78700 2.24900 28.40100
C  31.51100 2.51500 31.88900
O  30.38300 2.99600 32.08900
C  32.61500 2.34000 32.94000
C  32.61100 3.55600 33.75200
O  32.81200 4.65100 33.29900
O  32.44000 3.24400 35.10400
C  32.34400 4.30100 36.13800
H  39.30200 0.38400 33.12600
H  39.06500 -0.07900 26.61600
H  32.93800 1.49500 26.69500
H  35.26900 2.69900 34.75200
H  37.30200 0.73400 34.80500
H  38.62800 2.29500 35.47400
H  37.29900 3.41300 35.51400
H  38.41300 3.30600 34.09600
H  35.26000 -0.41900 34.63000
H  33.75500 0.49200 34.82300
H  35.61000 -0.48600 36.79100
H  34.04000 0.33000 36.90900
H  41.34700 -1.18100 31.97900
H  41.31800 0.50200 32.38000
H  42.51400 0.00200 31.30600
H  42.56200 -1.76900 29.54600
H  43.57700 -0.36300 28.96600
H  43.27600 -1.78700 28.09200
H  36.87500 -0.80800 25.21800
H  34.83200 1.27700 24.90500
H  37.84300 0.53500 23.80900
H  38.30900 1.61400 25.00000
H  36.79700 1.88800 24.00000
H  34.80300 -1.33700 24.28000
H  33.31100 -0.36400 24.83300
H  33.15300 -1.48300 26.82100
H  34.83000 -1.74600 26.90000
H  33.88900 -2.79000 25.87700
H  30.59900 1.25900 27.98400
H  31.05400 2.98200 27.64000
H  29.91200 2.58100 28.95800
H  32.26400 1.52900 33.57800
H  32.32700 5.24600 35.59500
H  33.22800 4.31700 36.77500
H  31.48100 4.20300 36.79700
Mg 8.61700 48.08500 25.31000
C  6.54200 47.97600 28.06700
C  11.10700 49.37800 27.24700
C  10.68200 48.20500 22.49700
C  5.94000 47.41400 23.25100
N  8.72400 48.64100 27.40100
C  7.81500 48.40600 28.36100
C  8.38700 48.90300 29.73000
C  9.66700 49.74600 29.35100
C  9.88700 49.29100 27.90500
C  9.38100 51.31800 29.49500
C  8.69400 47.72600 30.80200
C  8.05300 47.92600 32.18400
H  8.38300 46.76200 33.21800
N  10.69100 48.64500 24.97000
C  11.53000 49.05700 25.90300
C  12.79000 49.17900 25.30900
C  12.75500 48.67200 23.96200
C  11.34500 48.50500 23.72800
C  14.04200 49.50400 26.09600
C  13.89600 48.39000 22.92400
O  13.70000 47.96900 21.79700
C  15.36300 48.64300 23.24900
N  8.33900 47.99100 23.17500
C  9.28700 48.04300 22.22200
C  8.70000 47.83700 20.81600
C  7.26200 47.29400 21.22400
C  7.11300 47.66800 22.63000
C  8.67000 49.03200 19.86300
C  7.07800 45.75100 20.86800
C  5.78900 45.39500 20.14700
N  6.66100 47.74500 25.54400
C  5.73100 47.40400 24.61800
C  4.45300 47.13900 25.34000
C  4.69800 47.37300 26.69200
C  6.09400 47.69900 26.80500
C  3.18700 46.70000 24.67700
C  4.09100 47.31500 28.03300
O  3.01400 47.00300 28.46000
C  5.30200 47.69400 29.02100
C  5.54100 46.55100 30.01400
O  6.17800 45.55800 29.83400
O  4.71100 46.77300 31.14600
C  4.92200 45.78400 32.24000
H  11.93400 49.75100 27.85500
H  11.31600 47.96900 21.63900
H  5.20300 46.88200 22.64600
H  7.53600 49.48200 30.09000
H  10.54300 49.46500 29.93500
H  9.31400 51.67900 28.46900
H  10.27500 51.69500 29.99100
H  8.55200 51.59400 30.14700
H  9.77900 47.62700 30.84300
H  8.32800 46.85200 30.26400
H  6.97300 47.94400 32.04200
H  8.35600 48.87300 32.63100
H  13.83600 49.62400 27.15900
H  14.64300 50.34800 25.75700
H  14.61000 48.57800 26.00500
H  15.39000 49.62600 23.72000
H  15.90200 48.60800 22.30200
H  15.65700 47.84400 23.93000
H  9.19100 47.02500 20.28100
H  6.48500 47.78700 20.63900
H  7.66200 49.44300 19.79500
H  9.08000 48.66900 18.92100
H  9.37400 49.78500 20.21700
H  7.05600 45.23400 21.82700
H  7.94500 45.29500 20.39000
H  5.98900 45.24900 19.08500
H  5.03800 46.16900 20.30300
H  5.21800 44.54900 20.53000
H  3.42200 46.08400 23.80900
H  2.48200 47.51300 24.50200
H  2.69800 46.13700 25.47300
H  5.07800 48.60900 29.57100
H  3.92100 45.42600 32.48000
H  5.33300 46.22400 33.14900
H  5.54700 44.91600 32.03200

