158

Mg 30.57900 59.42200 39.72000
C  27.59700 57.73700 38.66300
C  32.32400 56.69400 38.60400
C  33.27400 61.17700 40.07000
C  28.52400 62.31200 39.86100
N  30.05800 57.48700 38.69800
C  28.79200 57.00600 38.30200
C  28.85100 55.65800 37.51300
C  30.31200 55.19100 37.82700
C  30.98000 56.50600 38.49900
C  30.42400 53.90500 38.71600
C  28.41800 55.71700 36.01300
C  27.30500 54.72600 35.51600
H  26.07200 55.22300 34.86900
N  32.54700 58.96500 39.54800
C  33.07700 57.75300 39.12200
C  34.54500 57.84100 39.29000
C  34.85600 59.16700 39.80200
C  33.49100 59.82600 39.84600
C  35.43700 56.78200 39.07200
C  36.25500 59.72400 40.25600
O  37.30200 59.05400 40.22700
C  36.33200 60.93600 41.12500
N  30.88100 61.51000 39.93200
C  32.08600 61.98000 40.18800
C  32.04100 63.42900 40.40200
C  30.54200 63.76600 40.15600
C  29.91300 62.44100 39.93300
C  32.63600 63.95600 41.73900
C  30.25800 64.74700 38.95000
C  29.14500 65.80200 39.23800
N  28.53000 59.93100 39.49300
C  27.86600 61.14800 39.62200
C  26.41700 60.99500 39.50000
C  26.28400 59.64200 39.13500
C  27.58100 59.02200 39.15900
C  25.28500 62.02300 39.78700
C  25.29500 58.62100 38.77500
O  24.07300 58.65800 38.69600
C  26.10500 57.34500 38.36400
C  25.50100 56.13600 39.07800
O  25.64000 55.85300 40.26700
O  24.76500 55.34100 38.22100
C  24.13300 54.13200 38.81400
H  32.89600 55.80600 38.32600
H  34.16200 61.79600 40.21700
H  27.85300 63.13400 40.11700
H  28.14100 55.06900 38.09400
H  30.82800 55.04300 36.87900
H  30.56400 53.02800 38.08400
H  29.56200 53.63900 39.32800
H  31.21500 53.96300 39.46400
H  29.28100 55.35000 35.45600
H  28.32400 56.72900 35.61900
H  26.86800 54.10200 36.29600
H  27.68100 54.00200 34.79300
H  36.26100 56.68600 39.78000
H  35.97200 56.89300 38.12800
H  34.88700 55.84300 39.13100
H  37.15700 60.75400 41.81400
H  35.36300 60.96600 41.62400
H  36.43900 61.83500 40.51800
H  32.59800 63.98200 39.64600
H  30.01800 63.96700 41.09000
H  32.86700 63.29500 42.57500
H  31.98400 64.76500 42.06600
H  33.55000 64.44900 41.40600
H  29.88700 64.07000 38.18100
H  31.14300 65.35300 38.75700
H  29.16500 65.97100 40.31500
H  28.12800 65.52800 38.95800
H  29.35600 66.76700 38.77600
H  24.31100 61.70000 39.42100
H  25.50800 62.95000 39.25900
H  25.23600 62.19900 40.86200
H  26.05800 57.22300 37.28200
H  23.27400 54.36900 39.44100
H  24.75700 53.54800 39.49100
H  23.63100 53.51200 38.07200
Mg 8.61300 47.78200 25.80000
C  6.39500 47.65200 28.49100
C  11.08600 48.90200 27.94900
C  10.71300 47.83700 23.23200
C  5.89600 47.36900 23.69100
N  8.63500 48.37500 27.90300
C  7.68600 48.07500 28.86200
C  8.16800 48.38600 30.25600
C  9.51200 49.16100 29.96800
C  9.77000 48.81800 28.56000
C  9.50500 50.70300 30.17100
C  8.11100 47.18700 31.26500
C  9.11000 47.18300 32.43000
H  8.69100 46.56000 33.77500
N  10.65600 48.01800 25.68000
C  11.53000 48.48800 26.64200
C  12.83100 48.41700 26.05500
C  12.77300 48.02200 24.73200
C  11.35100 47.96000 24.47100
C  14.04200 48.73300 26.89400
C  13.86600 47.79100 23.62000
O  13.68400 47.51900 22.45200
C  15.34100 47.81900 24.02300
N  8.30100 47.76700 23.75700
C  9.36100 47.75500 22.88200
C  8.89200 47.70100 21.43000
C  7.33800 47.58700 21.56400
C  7.14100 47.55100 23.10100
C  9.38900 48.87800 20.60500
C  6.66900 46.37100 20.86700
C  5.75700 46.61300 19.64600
N  6.57200 47.58400 25.95700
C  5.58700 47.38100 25.02800
C  4.28800 47.14100 25.66900
C  4.62500 47.21900 27.03500
C  6.00600 47.52100 27.16900
C  2.93300 46.97300 25.08400
C  3.94500 47.14700 28.34400
O  2.74800 46.93400 28.53000
C  5.11000 47.42500 29.35500
C  5.05100 46.36000 30.37700
O  5.62500 45.32200 30.38800
O  4.17700 46.75800 31.39000
C  4.42300 46.28300 32.75400
H  11.85100 49.15300 28.68700
H  11.39100 47.97700 22.38700
H  5.08100 47.25800 22.97300
H  7.49000 49.17600 30.57900
H  10.39400 48.75900 30.46500
H  9.20700 51.05600 29.18400
H  10.42800 51.13400 30.56100
H  8.83600 50.95400 30.99400
H  8.05300 46.24400 30.72200
H  7.17000 47.41000 31.76800
H  9.42600 48.22300 32.50900
H  9.96400 46.57700 32.12700
H  14.68700 49.39500 26.31600
H  14.64000 47.85100 27.12400
H  13.76900 49.17800 27.85100
H  15.47800 46.93500 24.64600
H  15.62100 48.72100 24.56600
H  16.08800 47.64900 23.24800
H  9.34300 46.81100 20.99200
H  6.73900 48.47600 21.36600
H  9.71800 48.40600 19.68000
H  10.10300 49.52100 21.12000
H  8.49000 49.42500 20.32000
H  6.17300 45.81100 21.66000
H  7.49800 45.71400 20.60200
H  6.05500 45.89100 18.88500
H  5.84500 47.62300 19.24600
H  4.73100 46.44200 19.97300
H  3.08000 46.53400 24.09800
H  2.54600 47.98700 24.98000
H  2.43700 46.23300 25.71200
H  4.92300 48.38500 29.83700
H  3.65900 45.59100 33.11000
H  4.57300 47.06900 33.49500
H  5.36500 45.73900 32.82700

