158

Mg 17.11500 -1.87600 27.70300
C  16.36700 0.41800 30.42500
C  18.92600 -3.67900 29.89800
C  18.31000 -3.48400 25.13300
C  15.64200 0.59200 25.59800
N  17.54300 -1.66400 29.99700
C  17.08000 -0.78600 30.90600
C  17.40100 -1.13900 32.39700
C  18.38000 -2.38600 32.18100
C  18.31900 -2.60300 30.61300
C  19.81500 -2.26100 32.80300
C  16.21000 -1.35900 33.37900
C  16.47100 -1.07500 34.87600
H  17.86200 -0.44200 35.32300
N  18.17500 -3.52500 27.59200
C  18.87000 -4.13000 28.58500
C  19.43200 -5.37900 28.06000
C  19.39600 -5.27000 26.65700
C  18.64900 -3.99600 26.36700
C  20.27500 -6.39900 28.84100
C  20.18400 -6.11400 25.57700
O  20.30400 -5.65300 24.50700
C  21.10800 -7.23600 25.92700
N  16.79500 -1.60800 25.73600
C  17.57700 -2.35800 24.83500
C  17.30600 -1.87500 23.37600
C  16.42100 -0.63700 23.55800
C  16.21200 -0.58400 25.05200
C  18.57800 -1.66600 22.59800
C  15.01800 -0.62300 22.85900
C  14.86300 0.42300 21.71600
N  16.15300 0.15900 27.88400
C  15.57500 0.92400 26.94200
C  15.06700 2.10600 27.53500
C  15.32100 1.91800 28.89100
C  16.02300 0.75200 29.05200
C  14.32300 3.16600 26.86000
C  15.20300 2.55400 30.12700
O  14.50500 3.54800 30.38500
C  15.91800 1.67400 31.18800
C  16.96300 2.39900 31.99400
O  18.17300 2.25200 31.89900
O  16.32900 3.30900 32.73600
C  17.11400 3.83900 33.81600
H  19.47600 -4.29100 30.61600
H  18.84500 -3.97000 24.31500
H  15.19400 1.29800 24.89600
H  18.05000 -0.35800 32.79300
H  17.95900 -3.34100 32.49500
H  19.79000 -1.53400 33.61500
H  20.55300 -1.93900 32.06700
H  20.13600 -3.19700 33.26000
H  15.87000 -2.38400 33.22900
H  15.40200 -0.70800 33.04500
H  16.31300 -2.04200 35.35400
H  15.61400 -0.50200 35.23000
H  20.06900 -7.43300 28.56500
H  20.26400 -6.31900 29.92800
H  21.28500 -6.02200 28.67800
H  21.51500 -7.74600 25.05300
H  20.46200 -8.01900 26.32500
H  21.96100 -6.97500 26.55200
H  16.79100 -2.59800 22.74400
H  16.91700 0.28800 23.26200
H  19.47300 -1.86900 23.18600
H  18.85100 -0.61900 22.47000
H  18.56000 -2.16500 21.62900
H  14.20600 -0.36500 23.53900
H  14.87000 -1.63900 22.49200
H  15.86600 0.65900 21.36100
H  14.45400 1.35400 22.11000
H  14.29200 0.04900 20.86600
H  14.93700 3.39700 25.98900
H  14.24800 4.02500 27.52700
H  13.36300 2.80900 26.48800
H  15.20100 1.44800 31.97600
H  17.56500 4.72500 33.37000
H  17.83300 3.14700 34.25500
H  16.40400 4.19500 34.56200
Mg 26.54100 50.64400 26.40600
C  24.15900 51.45600 28.95600
C  28.77900 50.11500 28.80900
C  28.76300 50.27800 23.88700
C  24.07200 51.60100 24.10300
N  26.42300 50.77100 28.59300
C  25.37900 51.00700 29.44000
C  25.72900 50.87600 30.88200
C  27.32200 50.56400 30.79300
C  27.57100 50.50600 29.31200
C  28.23500 51.51600 31.59700
C  24.85500 49.76100 31.57600
C  25.34900 49.26300 32.88100
H  24.60400 49.72400 34.14300
N  28.46500 50.06800 26.33600
C  29.23900 49.88800 27.47200
C  30.49700 49.37200 27.03000
C  30.56900 49.51200 25.58900
C  29.25200 49.98300 25.19500
C  31.54100 48.98600 28.14200
C  31.75800 49.23100 24.72200
O  31.61600 49.46500 23.52600
C  33.03900 48.60900 25.21500
N  26.35100 50.92200 24.27300
C  27.42300 50.74300 23.49900
C  27.02200 50.74200 22.05800
C  25.61200 51.33200 22.10500
C  25.27700 51.27800 23.55000
C  27.98500 51.64300 21.18900
C  24.54900 50.44100 21.29400
C  23.58700 51.10000 20.27600
N  24.57700 51.40700 26.43100
C  23.73900 51.71800 25.41500
C  22.35300 52.09400 25.91200
C  22.51200 52.06100 27.30500
C  23.85700 51.58400 27.55300
C  21.24600 52.67700 25.17600
C  21.86400 52.42900 28.55300
O  20.75000 52.88700 28.79500
C  22.87500 51.85900 29.67300
C  23.14800 53.08600 30.51200
O  23.92100 53.97900 30.16500
O  22.48400 53.13900 31.67800
C  22.72400 54.26100 32.58100
H  29.45200 49.83600 29.62200
H  29.45200 50.01400 23.08200
H  23.26400 51.83400 23.40600
H  25.54400 51.87000 31.28900
H  27.60100 49.60600 31.23100
H  29.07500 51.82900 30.97700
H  28.62500 51.09100 32.52200
H  27.69600 52.42900 31.84700
H  24.57200 48.96200 30.89200
H  23.90700 50.27500 31.73200
H  26.35500 49.59500 33.13800
H  25.28700 48.17500 32.85800
H  31.20000 49.04700 29.17600
H  32.43500 49.60800 28.17000
H  31.89000 47.99200 27.86200
H  32.80100 47.62100 25.60900
H  33.40300 49.29500 25.98000
H  33.65300 48.59400 24.31400
H  26.92700 49.75000 21.61600
H  25.70200 52.36700 21.77700
H  28.90000 51.09500 20.96200
H  28.15100 52.56000 21.75500
H  27.43000 52.02900 20.33300
H  23.87000 49.96800 22.00300
H  25.11500 49.64700 20.80600
H  23.43200 50.54700 19.34900
H  23.99900 52.06400 19.97700
H  22.60800 51.33200 20.69500
H  21.18400 52.16700 24.21500
H  21.47000 53.71700 24.93500
H  20.29500 52.50000 25.67700
H  22.47400 51.07600 30.31600
H  23.61600 54.11400 33.19100
H  22.05300 54.48600 33.41000
H  22.81200 55.21700 32.06400

