158

Mg 41.20700 8.45800 29.82300
C  43.20600 9.57900 32.49900
C  39.17500 6.84500 32.27200
C  39.30200 7.32700 27.34300
C  43.63800 9.54800 27.60100
N  41.14500 8.33400 32.09600
C  42.00400 8.97300 32.95200
C  41.68000 8.60900 34.38000
C  40.66900 7.51400 34.23700
C  40.32400 7.57100 32.76500
C  41.01500 6.05600 34.70100
C  41.20000 9.87600 35.16000
C  41.83900 10.05100 36.56100
H  41.87700 11.48800 37.11700
N  39.41500 7.35200 29.76900
C  38.71000 6.86100 30.90400
C  37.48800 6.30400 30.36800
C  37.43300 6.51800 28.92000
C  38.72400 7.13800 28.59200
C  36.44500 5.65500 31.21600
C  36.44700 6.25000 27.89300
O  36.49500 6.58500 26.71800
C  35.17400 5.50400 28.30500
N  41.63400 8.13800 27.76900
C  40.59900 7.85100 26.96800
C  40.90300 8.11100 25.54900
C  42.40200 8.55200 25.56200
C  42.55700 8.89700 27.03700
C  40.56100 6.98700 24.49200
C  42.62700 9.76600 24.57700
C  41.96400 11.11000 24.89900
N  43.00500 9.46400 29.95300
C  43.90700 9.83600 28.98900
C  45.17000 10.33200 29.57800
C  44.86800 10.32900 30.95800
C  43.52000 9.77600 31.12900
C  46.41500 10.71100 28.82600
C  45.38800 10.72500 32.29200
O  46.43800 11.28700 32.52400
C  44.33300 10.30000 33.32400
C  45.02400 9.26700 34.13600
O  45.56000 8.24600 33.72800
O  45.14300 9.73000 35.45800
C  46.23000 9.18700 36.27700
H  38.42900 6.58200 33.02500
H  38.77600 6.90600 26.48400
H  44.50800 9.89400 27.04100
H  42.58300 8.26400 34.88300
H  39.78400 7.79500 34.80800
H  40.41000 5.93000 35.59900
H  42.02000 6.08500 35.12400
H  40.80700 5.23600 34.01400
H  40.14200 9.92400 35.41700
H  41.47000 10.78500 34.62300
H  42.84000 9.62300 36.51700
H  41.24500 9.42700 37.22800
H  36.79800 5.56400 32.24400
H  36.04000 4.71400 30.84500
H  35.53900 6.26200 31.23000
H  35.28200 4.43200 28.47200
H  34.61700 5.41600 27.37200
H  34.66400 6.00600 29.12700
H  40.16200 8.85300 25.25100
H  42.99300 7.64700 25.41800
H  39.52900 7.03300 24.14200
H  40.74500 6.05000 25.01800
H  41.31200 7.02200 23.70300
H  42.22100 9.39000 23.63800
H  43.71400 9.81600 24.50200
H  42.74800 11.86700 24.86100
H  41.49800 11.15800 25.88300
H  41.16800 11.23400 24.16500
H  46.71600 9.95300 28.10200
H  47.31800 10.97500 29.37700
H  46.22500 11.58700 28.20600
H  43.89800 11.04300 33.99200
H  46.90000 10.00100 36.55500
H  46.82100 8.44300 35.74400
H  46.00800 8.71700 37.23500
Mg 9.13300 47.99800 25.15300
C  7.09600 48.62100 27.86900
C  11.88700 48.87000 27.00600
C  10.92200 47.21800 22.40300
C  6.14200 47.77200 23.04200
N  9.42100 48.67900 27.17100
C  8.44100 48.80000 28.16800
C  9.13100 49.08300 29.46200
C  10.58700 49.60700 29.13900
C  10.65400 49.04100 27.64600
C  10.70800 51.15800 29.12200
C  9.05800 47.97100 30.53700
C  9.08100 48.42700 32.08600
H  9.35500 47.17200 33.06000
N  11.18100 47.94400 24.74600
C  12.18600 48.39200 25.67900
C  13.44100 48.29600 24.97900
C  13.17000 47.80500 23.62900
C  11.70000 47.64600 23.52900
C  14.76900 48.71000 25.60600
C  14.16500 47.67300 22.47200
O  13.77600 47.35400 21.33000
C  15.59300 47.71600 22.70500
N  8.58100 47.64400 22.93600
C  9.56500 47.23000 22.07100
C  8.86500 46.55800 20.85800
C  7.49300 47.35200 20.87000
C  7.31600 47.56500 22.35800
C  9.62200 46.63300 19.43500
C  6.28200 46.71800 20.18100
C  5.23800 47.74600 19.86900
N  7.09000 48.07600 25.38700
C  5.96000 47.98500 24.45400
C  4.76900 48.17100 25.19700
C  5.14900 48.35400 26.54700
C  6.58100 48.28800 26.61500
C  3.38700 48.09400 24.64500
C  4.60500 48.68900 27.78300
O  3.43400 49.00300 28.08000
C  5.88900 48.83600 28.72000
C  5.76400 48.07900 29.91100
O  5.55600 46.86700 29.87400
O  5.83700 48.82300 31.10400
C  5.31100 48.06200 32.28600
H  12.74900 49.15300 27.61400
H  11.51900 46.89400 21.54800
H  5.14100 47.65000 22.62400
H  8.53300 49.93200 29.79700
H  11.32800 49.19000 29.82100
H  9.75600 51.67000 29.26400
H  11.29700 51.51800 28.27900
H  11.15600 51.44400 30.07400
H  9.95100 47.34800 30.49100
H  8.20800 47.32400 30.32300
H  8.18400 49.00400 32.31200
H  9.91100 49.11400 32.24900
H  14.67300 48.97900 26.65800
H  15.19600 49.55300 25.06300
H  15.39500 47.82200 25.52000
H  15.95200 46.89900 23.33100
H  15.72600 48.71400 23.12400
H  16.24900 47.68500 21.83400
H  8.73200 45.50300 21.10000
H  7.73900 48.32700 20.44900
H  8.96000 47.08300 18.69500
H  9.89300 45.61900 19.14100
H  10.48300 47.29900 19.39000
H  5.84100 45.86500 20.69600
H  6.70300 46.24700 19.29300
H  5.49300 48.68400 20.36200
H  4.27200 47.43900 20.27100
H  5.21400 48.02400 18.81600
H  2.69300 47.44700 25.18200
H  3.38300 47.76500 23.60500
H  2.90900 49.07100 24.72600
H  5.94000 49.86500 29.07400
H  4.41400 48.55300 32.66400
H  6.08300 48.14800 33.05100
H  5.02700 47.02500 32.10600

