158

Mg 30.57000 57.23100 40.18900
C  27.78700 55.13200 38.97600
C  32.58900 54.76700 39.27700
C  32.98000 59.46000 40.03500
C  28.21400 59.69900 40.81300
N  30.16600 55.22900 39.19700
C  29.05300 54.52200 38.78500
C  29.50200 53.14800 38.31800
C  30.89800 52.87900 38.95900
C  31.28600 54.37100 39.17600
C  30.91200 52.06400 40.32100
C  29.43800 53.02600 36.76300
C  28.12200 52.23800 36.20700
H  27.28700 53.03600 35.16400
N  32.60800 57.13400 39.85300
C  33.23200 55.99600 39.46100
C  34.62500 56.33300 39.21300
C  34.80800 57.67000 39.56000
C  33.47300 58.15800 39.92000
C  35.69400 55.34400 38.74900
C  36.11100 58.43200 39.60400
O  37.15700 57.88700 39.37200
C  36.17500 59.79900 39.97500
N  30.52500 59.35400 40.21900
C  31.71100 60.00700 40.18500
C  31.50600 61.43400 40.63500
C  30.05700 61.45900 41.20400
C  29.54000 60.09800 40.72700
C  32.51400 62.00900 41.64300
C  29.15700 62.66600 40.71800
C  28.31900 63.47700 41.80200
N  28.36900 57.44000 39.99200
C  27.55600 58.52100 40.31400
C  26.15400 58.24300 39.96200
C  26.24800 56.88800 39.50800
C  27.60200 56.49800 39.48300
C  24.99300 59.07700 40.08600
C  25.42400 55.72900 39.07800
O  24.24800 55.54800 39.00600
C  26.40200 54.59800 38.85100
C  26.15200 53.53400 39.81300
O  26.19800 53.57400 40.99500
O  25.82700 52.42900 39.00600
C  25.47400 51.32000 39.87500
H  33.30900 53.95700 39.14300
H  33.77400 60.20300 39.93000
H  27.54200 60.53800 41.00500
H  28.74100 52.44100 38.64700
H  31.68500 52.42300 38.35800
H  30.90500 52.80500 41.12100
H  31.87200 51.55800 40.41700
H  30.10200 51.33500 40.31300
H  30.19800 52.28000 36.53100
H  29.55800 53.97800 36.24600
H  27.41900 52.04000 37.01600
H  28.44500 51.26500 35.83700
H  36.17600 55.74200 37.85600
H  35.32900 54.34100 38.52700
H  36.42800 55.16600 39.53500
H  35.67700 60.27800 39.13200
H  37.18200 60.18500 40.13400
H  35.58800 59.91500 40.88600
H  31.64400 62.10300 39.78500
H  30.13600 61.44300 42.29100
H  33.24900 61.27600 41.97500
H  32.05900 62.67300 42.37700
H  33.12600 62.69100 41.05200
H  28.46800 62.20600 40.01000
H  29.70700 63.25900 39.98700
H  27.30600 63.73300 41.49000
H  28.84200 64.40200 42.04400
H  28.22100 62.85100 42.68900
H  24.37800 59.05900 39.18700
H  25.24400 60.10500 40.35000
H  24.26900 58.65900 40.78500
H  26.32600 54.22500 37.82900
H  26.40900 50.84300 40.16800
H  24.94600 50.60900 39.23900
H  24.85700 51.62600 40.72000
Mg 0.66100 43.08700 25.80800
C  2.61700 43.22400 28.64100
C  -1.99600 42.00700 27.88700
C  -1.29600 42.45800 23.19700
C  3.47300 43.34600 23.79400
N  0.31300 42.73900 28.05500
C  1.26600 42.89900 28.99500
C  0.69300 42.86000 30.42700
C  -0.80700 42.35600 30.14800
C  -0.90400 42.43500 28.59100
C  -1.08500 40.90200 30.70300
C  0.79300 44.29200 31.05300
C  0.92700 44.42600 32.62200
H  0.45700 43.22300 33.38500
N  -1.43300 42.47700 25.64800
C  -2.30800 42.11900 26.57000
C  -3.62600 41.64000 25.95700
C  -3.41600 41.83900 24.59200
C  -2.01000 42.31500 24.41300
C  -4.89000 41.28100 26.79000
C  -4.30400 41.66600 23.39200
O  -4.04700 41.93000 22.24600
C  -5.67600 41.19400 23.69000
N  1.11000 42.72000 23.77900
C  0.03300 42.77200 22.86200
C  0.60300 42.63900 21.45800
C  2.06600 43.04500 21.64000
C  2.24100 43.17300 23.13000
C  0.36400 41.25400 20.77500
C  2.40200 44.41500 20.97300
C  1.95500 45.70000 21.71000
N  2.62800 43.33300 26.10600
C  3.68100 43.35700 25.19800
C  4.90600 43.54900 25.96200
C  4.54000 43.51100 27.31300
C  3.16300 43.34200 27.35000
C  6.34500 43.61300 25.39800
C  5.07900 43.48100 28.63000
O  6.25000 43.47400 29.02600
C  3.80300 43.49800 29.58300
C  3.98200 42.50000 30.64800
O  3.87800 41.31500 30.53600
O  4.13800 43.06700 31.83600
C  4.30400 42.19400 32.99600
H  -2.76400 41.64500 28.57300
H  -1.85800 42.34500 22.26700
H  4.33000 43.47200 23.12900
H  1.29600 42.22500 31.07600
H  -1.56500 43.02800 30.54900
H  -0.52200 40.63200 31.59600
H  -0.82600 40.21400 29.89900
H  -2.13100 40.87900 31.00700
H  -0.09200 44.88400 30.81900
H  1.67000 44.82400 30.68400
H  0.43500 45.34200 32.95000
H  1.98200 44.61400 32.82300
H  -5.37200 40.47200 26.24100
H  -5.54700 42.12200 27.00900
H  -4.68600 40.95400 27.81000
H  -5.95100 41.70200 24.61400
H  -5.65500 40.11700 23.85800
H  -6.30600 41.54400 22.87200
H  0.10700 43.43200 20.89900
H  2.74100 42.31100 21.20000
H  -0.19900 40.54500 21.38200
H  1.36900 40.84400 20.67000
H  -0.04000 41.35500 19.76700
H  2.13300 44.40700 19.91700
H  3.48500 44.43500 20.84700
H  0.98700 45.59800 22.20000
H  1.97600 46.55000 21.02800
H  2.79000 46.08500 22.29500
H  6.32200 43.57900 24.30800
H  7.04300 42.84300 25.72500
H  6.74700 44.58800 25.67500
H  3.73700 44.43300 30.13900
H  3.77700 42.71800 33.79400
H  5.35600 42.15300 33.27500
H  3.81900 41.21800 32.99200

