158

Mg 1.12900 7.38300 26.10700
C  1.68700 9.59300 28.98200
C  0.77000 4.89200 28.32900
C  0.68900 5.45800 23.46500
C  1.60400 10.17700 24.06200
N  1.31500 7.32500 28.43300
C  1.53300 8.23500 29.37200
C  1.57700 7.60900 30.76200
C  1.36000 6.13300 30.43600
C  1.18600 6.06200 28.96600
C  2.43400 5.09900 30.94800
C  0.57800 8.22100 31.80600
C  0.81700 8.00600 33.30300
H  2.08900 7.43400 33.88600
N  0.86700 5.37400 25.93300
C  0.61300 4.52300 26.89700
C  0.24900 3.22100 26.40500
C  0.35000 3.32400 24.99000
C  0.63000 4.75700 24.75500
C  0.12700 1.97700 27.25600
C  0.16800 2.29900 23.90200
O  0.42400 2.54000 22.72000
C  -0.11900 0.87200 24.31200
N  1.04600 7.81600 24.10800
C  0.84900 6.81700 23.16600
C  0.62000 7.37100 21.74300
C  1.06800 8.87800 21.91800
C  1.26000 8.98900 23.41800
C  1.40800 6.62800 20.67200
C  -0.00600 9.99900 21.51400
C  0.19900 10.74300 20.18500
N  1.54000 9.42300 26.41300
C  1.70200 10.37400 25.46500
C  1.94600 11.71400 26.16200
C  1.96100 11.39800 27.57500
C  1.67600 10.01500 27.67300
C  2.23700 13.05600 25.49700
C  2.20500 11.91000 28.90500
O  2.52200 12.97600 29.31600
C  2.04800 10.77300 29.93800
C  3.35500 10.70600 30.70000
O  4.38700 10.19400 30.33400
O  3.14200 11.07300 32.02200
C  4.40100 11.55300 32.68000
H  0.66800 4.16000 29.13300
H  0.48900 4.84400 22.58500
H  2.03700 10.93600 23.40800
H  2.56800 7.76400 31.18900
H  0.42300 5.85100 30.91500
H  3.13700 5.57100 31.63400
H  2.95500 4.61700 30.12100
H  1.95100 4.24500 31.42400
H  -0.43400 7.86600 31.61400
H  0.58500 9.30800 31.72900
H  -0.06100 7.46700 33.66000
H  0.71700 9.01700 33.69800
H  0.67600 1.11300 26.88200
H  -0.94200 1.84300 27.41700
H  0.63000 2.24600 28.18500
H  -0.31400 0.31600 23.39600
H  -1.02100 0.82500 24.92200
H  0.72300 0.41500 24.83100
H  -0.44400 7.27200 21.52700
H  2.04600 8.96700 21.44700
H  2.04900 7.31200 20.11600
H  0.81900 6.03100 19.97700
H  2.05300 5.89000 21.15000
H  -0.24000 10.69300 22.32200
H  -0.94200 9.44000 21.52300
H  -0.60600 10.54200 19.47900
H  1.04400 10.39300 19.59300
H  0.38900 11.80000 20.37400
H  3.22500 13.50000 25.62100
H  1.49900 13.70800 25.96400
H  2.07500 13.02200 24.42000
H  1.31400 11.03900 30.69800
H  4.96100 12.11600 31.93300
H  5.03200 10.79500 33.14400
H  3.95400 12.29700 33.33900
Mg 25.57200 -7.59900 47.40000
C  27.84800 -5.27900 46.39000
C  23.19200 -6.34900 45.12500
C  23.57100 -10.14500 48.05600
C  28.20600 -9.13700 49.18300
N  25.61400 -6.04300 45.80200
C  26.64600 -5.14500 45.60700
C  26.37800 -4.25800 44.43300
C  24.83600 -4.48400 44.18000
C  24.47500 -5.69200 45.10500
C  23.82700 -3.31700 44.39100
C  27.22700 -4.47200 43.20200
C  28.00100 -3.25700 42.62400
H  27.62300 -2.80800 41.20100
N  23.54600 -8.17300 46.72000
C  22.75800 -7.51300 45.81400
C  21.51600 -8.17900 45.60600
C  21.58000 -9.36000 46.49300
C  22.89600 -9.20600 47.18600
C  20.37400 -7.69400 44.67600
C  20.47600 -10.41200 46.65400
O  19.47400 -10.39100 46.02000
C  20.69100 -11.54700 47.56500
N  25.92800 -9.36600 48.25300
C  24.88500 -10.26000 48.49500
C  25.28900 -11.34100 49.44000
C  26.84700 -11.21700 49.55500
C  27.01000 -9.79100 48.97500
C  24.53800 -11.26900 50.80800
C  27.59400 -12.24100 48.78800
C  28.48800 -13.25700 49.57500
N  27.61700 -7.25500 47.89500
C  28.53200 -7.90300 48.69500
C  29.75800 -7.12600 48.74600
C  29.52000 -6.10600 47.91200
C  28.24100 -6.22200 47.39800
C  31.06200 -7.46400 49.44400
C  30.08800 -4.85300 47.40600
O  31.15200 -4.26400 47.66900
C  29.02500 -4.23800 46.32200
C  28.56200 -2.87500 46.60800
O  27.75900 -2.58700 47.49700
O  28.92100 -1.99200 45.60600
C  28.18400 -0.68400 45.72500
H  22.53200 -5.88300 44.39000
H  22.92900 -10.93200 48.45900
H  28.95800 -9.58500 49.83600
H  26.52700 -3.25800 44.84100
H  24.71600 -4.78400 43.13900
H  23.25300 -3.40500 45.31300
H  23.17200 -3.31500 43.51900
H  24.22900 -2.30700 44.30800
H  26.63400 -4.84100 42.36500
H  27.85000 -5.34700 43.38800
H  29.06900 -3.42300 42.76400
H  27.93000 -2.41600 43.31300
H  20.31900 -6.60600 44.70700
H  19.46800 -8.01300 45.19100
H  20.41600 -8.08800 43.66100
H  20.73300 -11.31600 48.63000
H  21.60100 -12.05900 47.25400
H  19.92200 -12.31200 47.45600
H  24.88800 -12.15300 48.83300
H  27.21800 -11.05900 50.56700
H  23.80900 -10.45900 50.82500
H  25.23800 -11.04300 51.61200
H  24.11200 -12.19600 51.19200
H  28.09200 -11.75300 47.95000
H  26.90700 -12.88300 48.23600
H  29.54200 -13.10000 49.34500
H  28.41100 -14.30100 49.27000
H  28.41900 -13.02600 50.63800
H  31.74700 -7.89700 48.71500
H  30.78400 -8.26300 50.13200
H  31.54400 -6.61200 49.92400
H  29.63000 -4.21300 45.41600
H  27.12500 -0.93600 45.78300
H  28.42200 -0.17600 44.79000
H  28.53000 -0.10800 46.58300

