158

Mg 46.99300 15.33500 27.84000
C  45.01300 15.47100 30.68900
C  49.12900 17.61400 29.35900
C  48.93200 15.17800 25.14800
C  44.48000 13.60900 26.12000
N  47.05100 16.37600 29.81500
C  46.16200 16.22800 30.75000
C  46.61000 16.95300 32.01000
C  47.82800 17.81700 31.55400
C  48.01800 17.21100 30.19300
C  47.76800 19.35700 31.46400
C  47.00300 16.06800 33.18000
C  46.50500 16.46600 34.66300
H  47.35600 16.27800 35.93800
N  48.74900 16.36500 27.30000
C  49.49800 17.24800 28.04700
C  50.72200 17.53800 27.31600
C  50.65100 16.86200 26.10100
C  49.40800 16.11200 26.13600
C  51.70600 18.57000 27.75600
C  51.64400 16.94500 24.99400
O  51.49000 16.25700 23.97400
C  52.90200 17.62000 25.08000
N  46.66600 14.66700 25.90600
C  47.69000 14.65800 24.99800
C  47.22800 14.01400 23.72200
C  45.87200 13.34300 24.08900
C  45.62400 13.94000 25.44600
C  46.90000 15.05500 22.57400
C  45.94700 11.78200 23.99500
C  46.84200 11.03200 25.08500
N  45.17700 14.54900 28.28500
C  44.28300 13.88100 27.49300
C  43.20600 13.43900 28.37800
C  43.45500 14.11200 29.58600
C  44.63500 14.76200 29.49800
C  41.97800 12.66500 27.96500
C  42.87300 14.34400 30.87700
O  41.77700 13.86700 31.28200
C  43.84400 15.22700 31.69900
C  43.16300 16.53300 31.93900
O  42.43500 17.11900 31.15800
O  43.35200 16.94900 33.20200
C  42.89500 18.26800 33.55500
H  49.71600 18.30500 29.96800
H  49.58700 14.89000 24.32300
H  43.84000 12.91100 25.57700
H  45.92400 17.76700 32.24400
H  48.76800 17.64800 32.08000
H  46.86700 19.64000 32.00900
H  47.60800 19.62000 30.41800
H  48.66600 19.82800 31.86400
H  48.07900 15.91800 33.27000
H  46.59300 15.07000 33.02500
H  45.61200 15.85100 34.77800
H  46.13600 17.49200 34.65900
H  51.51500 18.96200 28.75500
H  51.84900 19.43800 27.11300
H  52.65200 18.06000 27.93600
H  53.56400 17.48300 25.93500
H  52.72300 18.68100 24.90500
H  53.52200 17.27700 24.25200
H  47.87900 13.21900 23.35900
H  45.08200 13.60300 23.38400
H  47.26800 15.96700 23.04600
H  45.84100 15.13000 22.32900
H  47.61100 14.69100 21.83300
H  46.32500 11.41300 23.04200
H  44.90900 11.45200 23.93900
H  47.77100 10.68000 24.63600
H  46.32500 10.08900 25.26000
H  47.04800 11.67700 25.93900
H  41.19400 13.39900 27.77900
H  41.72700 12.09300 28.85900
H  42.23400 12.02400 27.12200
H  44.14200 14.81800 32.66400
H  42.79000 18.25700 34.64000
H  41.90000 18.52000 33.18700
H  43.62100 19.00900 33.21900
Mg 41.05100 40.89900 26.87500
C  40.40400 43.39700 29.11400
C  42.16500 38.79900 29.33700
C  41.83100 38.74500 24.44200
C  40.71200 43.35700 24.18700
N  41.26700 41.04900 29.00800
C  40.80900 42.15400 29.74900
C  41.05000 41.90600 31.26900
C  41.58900 40.46200 31.28100
C  41.74500 40.06700 29.82300
C  42.90200 40.30200 31.98800
C  39.74800 42.10200 32.21100
C  39.99100 42.01700 33.78000
H  39.18400 42.93500 34.65600
N  41.81300 38.98700 26.93100
C  42.22500 38.29000 28.03300
C  42.59200 36.94600 27.60500
C  42.56000 36.98800 26.16400
C  42.00600 38.28800 25.77000
C  43.01200 35.83000 28.49000
C  43.00600 35.81800 25.22100
O  43.04800 35.98400 23.96600
C  43.27400 34.45100 25.75600
N  40.97300 40.95600 24.60600
C  41.39300 39.91100 23.89000
C  41.39500 40.04000 22.36600
C  40.88200 41.58200 22.33800
C  40.83700 42.01800 23.78100
C  42.70700 39.64300 21.62000
C  39.45200 41.76400 21.65700
C  38.31300 41.37300 22.55700
N  40.67700 42.99500 26.61700
C  40.58800 43.85400 25.52900
C  40.31600 45.15100 26.06000
C  40.18900 45.03500 27.43500
C  40.40700 43.71700 27.70100
C  40.24200 46.43000 25.23800
C  39.94400 45.70200 28.66800
O  39.67300 46.85200 29.00900
C  40.13600 44.69000 29.83500
C  41.38600 45.18600 30.52700
O  42.47900 45.23600 29.98900
O  41.16700 45.47900 31.89800
C  42.29000 45.89400 32.72900
H  42.35400 38.13200 30.18000
H  41.97000 37.95100 23.70500
H  40.63800 44.11300 23.40100
H  41.76500 42.69600 31.50000
H  40.80700 39.88200 31.77100
H  42.70200 39.66500 32.85000
H  43.22000 41.29500 32.30400
H  43.69700 39.87800 31.37500
H  39.06500 41.32000 31.88000
H  39.21900 42.98100 31.84300
H  41.06900 42.00100 33.94400
H  39.66200 40.99000 33.93800
H  42.30800 35.00200 28.57700
H  43.09000 36.21900 29.50500
H  43.97000 35.34800 28.29400
H  42.60200 34.09300 26.53500
H  44.16900 34.57600 26.36500
H  43.33300 33.74800 24.92500
H  40.62600 39.43800 21.88300
H  41.61200 42.11200 21.72600
H  43.51900 39.24500 22.22800
H  43.07900 40.54200 21.13000
H  42.49200 38.91300 20.83900
H  39.57400 41.11400 20.79000
H  39.31700 42.81700 21.41100
H  38.60900 41.04400 23.55300
H  37.73400 40.61700 22.02700
H  37.72300 42.28700 22.62100
H  39.93000 46.25200 24.20900
H  41.24800 46.85000 25.23600
H  39.55400 47.03100 25.83300
H  39.19100 44.84400 30.35700
H  42.27200 45.39300 33.69700
H  42.21700 46.97800 32.82000
H  43.22000 45.49800 32.32100

