158

Mg 30.00700 57.91300 41.51900
C  27.05100 56.22500 40.81300
C  31.76300 55.47400 40.03700
C  32.59200 60.13700 41.37200
C  28.02900 60.57200 42.95100
N  29.45100 56.19900 40.37400
C  28.20200 55.59900 40.36700
C  28.27500 54.33200 39.38700
C  29.84600 53.90900 39.53500
C  30.38400 55.31800 39.85000
C  30.23500 52.80200 40.55300
C  27.77800 54.63900 37.98400
C  27.19300 53.47700 37.10300
H  26.61000 53.85100 35.76700
N  31.97500 57.79900 40.95700
C  32.55000 56.62600 40.41800
C  33.99700 56.79000 40.38600
C  34.24300 58.15900 40.76000
C  32.90200 58.77500 41.06900
C  34.95800 55.71500 39.86900
C  35.66900 58.73800 40.92500
O  36.69800 58.09600 40.88400
C  35.81800 60.27100 41.12000
N  30.23000 60.08400 41.91800
C  31.40500 60.75500 41.79800
C  31.31500 62.22600 42.30200
C  29.85900 62.27500 42.77200
C  29.32400 60.89400 42.53400
C  32.34500 62.55800 43.31300
C  29.10500 63.39600 41.98700
C  27.87000 64.02600 42.71600
N  27.99500 58.38000 41.93900
C  27.31400 59.38700 42.52700
C  25.86700 59.04700 42.68000
C  25.70600 57.84000 41.99200
C  26.97800 57.45900 41.52200
C  24.74300 59.93200 43.20200
C  24.81100 56.77800 41.53300
O  23.57800 56.76400 41.77300
C  25.54300 55.74400 40.74300
C  25.47600 54.41700 41.41600
O  26.09600 54.20000 42.41400
O  24.67100 53.51700 40.76200
C  24.62800 52.33400 41.51600
H  32.39000 54.64200 39.71100
H  33.39000 60.88300 41.39100
H  27.61800 61.42900 43.48800
H  27.67900 53.55800 39.87000
H  30.13300 53.61200 38.52600
H  31.30800 52.72600 40.72700
H  29.90600 51.85200 40.13300
H  29.71600 53.06500 41.47500
H  28.67600 54.92700 37.43800
H  27.03400 55.42900 37.88600
H  26.35100 53.10500 37.68700
H  27.96900 52.75700 36.84200
H  35.84300 56.09500 39.35800
H  34.49100 54.92600 39.28000
H  35.48400 55.27700 40.71800
H  35.30700 60.70000 41.98200
H  35.45400 60.64100 40.16200
H  36.87600 60.52400 41.04600
H  31.41900 62.85400 41.41800
H  29.71200 62.53600 43.82000
H  33.05200 61.74200 43.45600
H  31.98300 62.83700 44.30300
H  32.86900 63.45900 42.99400
H  28.67300 63.03300 41.05400
H  29.68500 64.28700 41.75000
H  27.89900 65.11400 42.66000
H  27.87000 63.66800 43.74600
H  26.94000 63.76400 42.21000
H  24.38600 60.57700 42.39900
H  25.16900 60.64400 43.90900
H  23.98300 59.30600 43.67100
H  25.22400 55.76700 39.70100
H  25.63200 51.90900 41.50800
H  23.97700 51.68700 40.92800
H  24.21400 52.46100 42.51600
Mg -11.17500 16.08100 42.17800
C  -7.82000 16.91700 41.67000
C  -12.00000 19.16100 41.10500
C  -14.23500 14.91900 41.82500
C  -10.10300 12.77600 43.05700
N  -9.98200 17.85700 41.48000
C  -8.68200 18.03000 41.45200
C  -8.36000 19.55700 41.04600
C  -9.66100 20.26100 41.44300
C  -10.60900 19.04500 41.33800
C  -9.60900 20.88900 42.83800
C  -7.92700 19.85900 39.61900
C  -6.98600 21.06900 39.38700
H  -5.74400 20.72200 38.55900
N  -12.87500 16.91700 41.29800
C  -13.02400 18.18000 41.01800
C  -14.34400 18.38100 40.54400
C  -15.03800 17.16500 40.74700
C  -14.06500 16.24500 41.29500
C  -14.83900 19.68100 40.01600
C  -16.44000 16.90200 40.27800
O  -17.19700 17.86100 40.00800
C  -16.84600 15.48700 40.07200
N  -12.09300 14.14600 42.47600
C  -13.41400 13.97600 42.37700
C  -13.80400 12.48300 42.88000
C  -12.38700 11.79700 43.16600
C  -11.50900 12.96700 42.89200
C  -14.81000 12.46400 44.13300
C  -12.16500 10.58000 42.22900
C  -11.77500 9.22800 42.82500
N  -9.35000 14.99100 42.38600
C  -9.08500 13.68500 42.80500
C  -7.60900 13.54500 42.74900
C  -7.09400 14.78700 42.42400
C  -8.21600 15.62900 42.14000
C  -6.94900 12.27100 42.98700
C  -5.81000 15.51700 42.26500
O  -4.64800 15.11500 42.39900
C  -6.26400 16.95000 41.70900
C  -5.70300 17.92500 42.68600
O  -6.07300 17.94800 43.83800
O  -4.92000 18.81500 42.06000
C  -4.28000 19.84100 42.83700
H  -12.33300 20.19500 40.98800
H  -15.26900 14.57700 41.90900
H  -9.95700 11.72600 43.31700
H  -7.54700 19.93800 41.66400
H  -9.98700 20.96100 40.67400
H  -9.78100 21.96200 42.76000
H  -8.70000 20.66800 43.39800
H  -10.39600 20.45400 43.45400
H  -8.81300 20.03700 39.01000
H  -7.39500 18.95800 39.31200
H  -6.59700 21.49600 40.31200
H  -7.40700 21.91400 38.84300
H  -14.39300 20.58400 40.43200
H  -15.84600 19.77000 40.42500
H  -14.86000 19.69800 38.92600
H  -17.63600 15.45500 39.32100
H  -17.22800 14.92700 40.92600
H  -16.01000 14.91200 39.67400
H  -14.28900 11.96300 42.05500
H  -12.32600 11.53900 44.22400
H  -15.10100 13.42000 44.57000
H  -14.62600 11.79800 44.97600
H  -15.77100 12.08300 43.78700
H  -11.56400 10.94300 41.39500
H  -13.10500 10.41000 41.70200
H  -11.88000 9.30000 43.90800
H  -10.74300 8.91200 42.67200
H  -12.33700 8.35200 42.50100
H  -7.15700 11.52900 42.21600
H  -7.22500 11.85000 43.95300
H  -5.87900 12.47300 43.04800
H  -5.94100 17.12200 40.68300
H  -3.85400 19.30500 43.68500
H  -4.86900 20.70100 43.15600
H  -3.50100 20.15200 42.14000

