158

Mg 17.37200 -2.34800 28.01400
C  16.35400 -0.39800 30.84000
C  19.48500 -4.13300 30.09100
C  18.89900 -3.65400 25.36900
C  15.41300 -0.31000 26.07300
N  17.89000 -2.23700 30.21500
C  17.30100 -1.41100 31.18900
C  17.60400 -1.96700 32.60500
C  18.75700 -3.01000 32.29700
C  18.71300 -3.12700 30.77900
C  20.10600 -2.61900 32.82800
C  16.31600 -2.60000 33.17300
C  15.93500 -2.21000 34.56500
H  17.00400 -1.64400 35.54200
N  18.91200 -3.81000 27.76500
C  19.56600 -4.48700 28.76700
C  20.32900 -5.56500 28.19100
C  20.16200 -5.48700 26.77100
C  19.33100 -4.27400 26.52800
C  21.06500 -6.55900 29.07200
C  20.80100 -6.30600 25.68400
O  20.64800 -6.11000 24.50600
C  21.95300 -7.29100 26.05900
N  17.37200 -1.80100 26.04400
C  18.03600 -2.55500 25.09600
C  17.64600 -2.11000 23.71100
C  16.49300 -1.07000 23.87700
C  16.38800 -1.06100 25.43300
C  18.82000 -1.68200 22.86200
C  15.20100 -1.47400 23.07000
C  14.75600 -0.55200 21.91200
N  16.20200 -0.67400 28.36000
C  15.32100 -0.05300 27.47100
C  14.48700 0.92400 28.14100
C  14.89200 0.89100 29.47000
C  15.83400 -0.13000 29.55400
C  13.53600 1.76200 27.49500
C  14.72700 1.43800 30.81700
O  14.04500 2.42000 31.20700
C  15.63800 0.57600 31.75800
C  16.62500 1.46200 32.42400
O  17.66900 1.91700 31.83800
O  16.17300 1.81600 33.68700
C  16.99100 2.90300 34.26500
H  20.01000 -4.74800 30.82500
H  19.22700 -4.28000 24.53600
H  14.65700 0.16100 25.44100
H  18.04100 -1.24300 33.29200
H  18.61700 -4.04200 32.61700
H  20.47500 -1.95700 32.04500
H  20.69100 -3.49800 33.10200
H  19.99200 -1.99700 33.71600
H  16.45800 -3.68100 33.15100
H  15.54100 -2.28200 32.47600
H  15.63300 -3.08000 35.14800
H  15.07000 -1.54900 34.52200
H  21.06500 -7.59100 28.72300
H  20.59400 -6.57100 30.05500
H  22.09800 -6.22100 29.15100
H  21.63100 -8.26400 26.43100
H  22.54100 -6.80200 26.83600
H  22.56400 -7.46700 25.17400
H  17.18600 -3.00300 23.28600
H  16.92800 -0.14500 23.49900
H  18.94500 -2.43200 22.08100
H  19.75400 -1.56200 23.41100
H  18.58900 -0.75100 22.34400
H  14.39500 -1.31800 23.78800
H  15.05300 -2.50200 22.73700
H  14.33300 -1.19100 21.13700
H  15.45600 0.15800 21.47100
H  13.84800 -0.00400 22.16700
H  12.75800 2.02100 28.21300
H  13.26900 1.23000 26.58200
H  14.08200 2.68300 27.29100
H  15.04800 0.11400 32.55000
H  17.17600 3.67400 33.51800
H  17.94300 2.55700 34.66800
H  16.45700 3.35500 35.10100
Mg 0.46300 43.73700 26.28300
C  2.34100 43.13200 29.16600
C  -2.36700 42.73500 28.14300
C  -1.32500 43.58500 23.38300
C  3.30200 44.27300 24.50400
N  0.05000 43.10100 28.44900
C  0.98000 43.00700 29.43500
C  0.36200 42.72500 30.76800
C  -1.11600 42.32000 30.37700
C  -1.13900 42.75500 28.92500
C  -1.28000 40.79800 30.57100
C  0.44000 44.11400 31.59400
C  0.46300 43.97600 33.13200
H  0.31300 42.55600 33.62400
N  -1.62400 43.37700 25.79700
C  -2.58700 43.04900 26.75200
C  -3.88000 42.99100 26.12100
C  -3.60700 43.20200 24.71900
C  -2.12600 43.44300 24.56000
C  -5.30100 42.70500 26.75300
C  -4.55500 43.17200 23.47900
O  -4.07000 43.33600 22.35000
C  -6.02400 43.14300 23.57900
N  0.87100 43.91400 24.29500
C  0.02600 43.71800 23.23900
C  0.71200 43.73600 21.84500
C  2.13200 44.24400 22.33100
C  2.11600 44.17000 23.83600
C  0.74400 42.28100 21.14700
C  2.46600 45.57500 21.62300
C  2.22600 46.91600 22.49600
N  2.41100 43.63000 26.68000
C  3.41200 43.86900 25.87800
C  4.68500 43.73400 26.60100
C  4.26900 43.38500 27.93900
C  2.87000 43.43800 27.96100
C  6.06800 43.85400 26.15700
C  4.80100 43.01500 29.19600
O  5.97200 42.73600 29.56400
C  3.56300 42.97100 30.09100
C  3.63500 41.70200 30.93300
O  3.04300 40.65100 30.66700
O  4.34200 42.04400 32.04800
C  4.49800 40.86900 33.04600
H  -3.31400 42.51000 28.63700
H  -1.83200 43.57600 22.41600
H  4.21600 44.54600 23.97300
H  0.91100 41.87200 31.16700
H  -1.87100 42.93900 30.86200
H  -1.84100 40.43100 29.71100
H  -2.01100 40.68800 31.37200
H  -0.37900 40.20500 30.72700
H  -0.43100 44.74700 31.42900
H  1.29200 44.72700 31.29800
H  -0.23800 44.61700 33.66700
H  1.48600 44.24400 33.39800
H  -6.07900 43.43500 26.53200
H  -5.26900 42.61200 27.83900
H  -5.49800 41.71400 26.34400
H  -6.42300 44.11500 23.87100
H  -6.30300 42.49600 24.41000
H  -6.37100 42.83500 22.59200
H  0.02900 44.35100 21.25800
H  2.88700 43.52300 22.01700
H  0.14500 41.58200 21.73200
H  1.74400 41.84800 21.19300
H  0.47000 42.36900 20.09600
H  1.91000 45.81300 20.71600
H  3.48900 45.61400 21.25000
H  1.28100 46.94300 23.03800
H  2.30700 47.85100 21.94100
H  2.98200 46.96600 23.28000
H  6.05900 44.29800 25.16200
H  6.63000 42.92300 26.08700
H  6.48700 44.51100 26.91900
H  3.64700 43.92800 30.60600
H  4.50600 39.85400 32.64800
H  3.66600 40.89500 33.74900
H  5.43500 40.93500 33.59800

