158

Mg 49.98500 46.02400 43.35300
C  46.56200 46.34500 42.49300
C  49.75500 42.72700 42.11200
C  53.37900 45.70700 43.53700
C  50.21700 49.36300 44.19900
N  48.40300 44.72300 42.31400
C  47.06300 45.08000 42.13400
C  46.24800 43.95100 41.39400
C  47.20600 42.72700 41.59700
C  48.55100 43.35200 42.10200
C  46.74400 41.71900 42.68200
C  46.05300 44.40000 39.88700
C  44.92300 43.65700 39.10400
H  45.38500 43.07100 37.75900
N  51.39800 44.43300 42.82000
C  51.07200 43.14100 42.46900
C  52.27800 42.35900 42.35000
C  53.38100 43.17500 42.80500
C  52.76600 44.51100 43.00200
C  52.23800 40.89600 41.96300
C  54.88700 42.79800 42.85200
O  55.25200 41.67000 42.57400
C  55.97400 43.78000 43.27400
N  51.54800 47.34200 43.75500
C  52.86600 47.02800 43.81500
C  53.78100 48.12600 44.24700
C  52.74300 49.30000 44.56500
C  51.40700 48.62700 44.14100
C  54.92800 47.77000 45.33400
C  53.16000 50.57600 43.79000
C  52.73400 51.94500 44.38500
N  48.66300 47.52600 43.43200
C  48.88500 48.86800 43.80100
C  47.64600 49.59900 43.73800
C  46.71900 48.65700 43.18700
C  47.36900 47.40300 43.08200
C  47.47300 51.05800 44.10800
C  45.33600 48.49300 42.65900
O  44.40100 49.30400 42.36400
C  45.18100 46.96600 42.31100
C  44.13200 46.42000 43.23700
O  43.96600 46.72700 44.41100
O  43.53500 45.35700 42.58900
C  42.70600 44.42900 43.30600
H  49.63100 41.71100 41.73100
H  54.46100 45.64100 43.67100
H  50.31800 50.41700 44.46500
H  45.29100 43.85100 41.90600
H  47.34000 42.24700 40.62700
H  46.40800 40.79100 42.22100
H  45.98000 42.21300 43.28300
H  47.51800 41.54600 43.43000
H  47.00900 44.18300 39.41200
H  45.95600 45.48200 39.80000
H  44.09600 44.34600 38.93700
H  44.50000 42.94600 39.81400
H  52.59200 40.56800 40.98600
H  51.36200 40.25100 42.02900
H  52.92900 40.49300 42.70300
H  55.60400 43.98000 44.28000
H  55.95300 44.61600 42.57500
H  56.93600 43.27200 43.21100
H  54.38700 48.39500 43.38200
H  52.74600 49.56100 45.62300
H  55.92400 48.15000 45.10700
H  55.16400 46.70800 45.39000
H  54.67300 48.24000 46.28400
H  52.51100 50.50400 42.91800
H  54.18700 50.67100 43.43700
H  53.50800 52.69300 44.21200
H  52.57400 51.88400 45.46200
H  51.88800 52.34000 43.82300
H  47.48500 51.27000 45.17700
H  46.49200 51.37200 43.75200
H  48.29500 51.54200 43.57900
H  44.68300 46.92000 41.34200
H  42.00100 43.90700 42.66000
H  42.23600 44.82300 44.20700
H  43.37900 43.61100 43.56600
Mg 36.12500 49.27600 25.67000
C  36.56800 47.30100 28.62600
C  34.58300 51.64700 27.51600
C  35.13200 50.70300 22.84700
C  37.40400 46.56900 23.90700
N  35.44900 49.39700 27.91500
C  35.88800 48.56200 28.95200
C  35.50700 49.22300 30.29600
C  34.71300 50.54500 29.92300
C  35.01300 50.60500 28.36300
C  33.13900 50.54300 30.25800
C  36.82200 49.50800 31.03500
C  36.90600 49.24900 32.54500
H  35.69500 48.87300 33.41800
N  35.17800 51.00900 25.25400
C  34.63000 51.86600 26.12700
C  34.10600 53.01100 25.43500
C  34.12400 52.74800 24.04300
C  34.83700 51.41900 24.00600
C  33.72600 54.19700 26.31000
C  33.36700 53.54400 22.97400
O  33.32600 53.17400 21.80200
C  32.54800 54.72500 23.30600
N  36.33400 48.75700 23.60800
C  35.79200 49.47700 22.64400
C  36.36600 49.00300 21.19900
C  36.99800 47.59000 21.60400
C  36.98000 47.64700 23.16500
C  35.33100 49.01600 20.00700
C  38.43400 47.36000 20.96600
C  39.50800 48.40600 21.40300
N  36.80000 47.37800 26.10000
C  37.32000 46.40600 25.29100
C  37.73300 45.16200 26.00300
C  37.45100 45.56500 27.26500
C  36.91000 46.84900 27.33100
C  38.35300 43.93000 25.51000
C  37.57400 45.06200 28.69300
O  38.01300 44.05900 29.23700
C  37.04500 46.18000 29.56100
C  35.90300 45.68000 30.32800
O  34.75300 45.53200 29.87700
O  36.36800 45.26900 31.54700
C  35.41600 44.77400 32.51700
H  34.17400 52.49200 28.07400
H  34.99200 51.16600 21.86700
H  37.85700 45.80800 23.26800
H  34.97900 48.44300 30.84500
H  35.20000 51.31000 30.52700
H  32.86900 51.39600 30.88100
H  32.91800 49.63800 30.82400
H  32.55400 50.54300 29.33800
H  37.11000 50.55100 30.89900
H  37.59000 48.83200 30.66100
H  37.47900 50.03600 33.03800
H  37.64400 48.44700 32.55800
H  32.75400 54.12100 26.79700
H  33.81200 55.11400 25.72700
H  34.49100 54.26200 27.08400
H  33.25400 55.54700 23.42900
H  31.86900 54.56700 24.14400
H  31.94900 54.97200 22.43000
H  36.98800 49.87000 20.97500
H  36.28200 46.81100 21.34200
H  34.36000 49.21500 20.46100
H  35.26400 48.00900 19.59500
H  35.59600 49.77300 19.26900
H  38.20800 47.42500 19.90200
H  38.86500 46.40400 21.26400
H  40.08600 48.63000 20.50600
H  40.16100 47.90500 22.11800
H  39.09000 49.23200 21.97800
H  37.63600 43.11000 25.47200
H  39.26700 43.75400 26.07700
H  38.71900 44.13700 24.50400
H  37.86800 46.47600 30.21200
H  35.49200 43.69800 32.67700
H  34.39500 45.04800 32.25100
H  35.62600 45.22900 33.48500

