158

Mg -0.44500 7.05700 26.94800
C  0.37200 9.05300 29.76700
C  -0.36700 4.36500 28.89300
C  -0.93100 5.31400 24.18700
C  0.24900 9.86800 24.99900
N  0.10500 6.76000 29.02900
C  0.22500 7.70400 30.05200
C  0.22900 7.03900 31.39700
C  0.33100 5.50400 30.98300
C  -0.07400 5.56400 29.52400
C  1.72400 4.93400 31.09200
C  -1.00400 7.49000 32.30100
C  -0.58800 7.57700 33.80100
H  0.67100 6.94900 34.32500
N  -0.79600 5.11800 26.56800
C  -0.74700 4.13900 27.52400
C  -1.11100 2.84200 26.96500
C  -1.12400 3.12400 25.52800
C  -0.91700 4.58600 25.34400
C  -1.22200 1.57700 27.78800
C  -1.32300 2.18300 24.39000
O  -1.38900 2.50800 23.21900
C  -1.50200 0.69600 24.61200
N  -0.49900 7.57500 24.96400
C  -0.70900 6.65300 23.98700
C  -0.40900 7.19900 22.60600
C  -0.45200 8.71700 22.83900
C  -0.19000 8.71600 24.35100
C  0.98000 6.74600 22.06200
C  -1.71900 9.51000 22.47600
C  -3.10400 9.08500 22.96800
N  0.17200 9.07300 27.24800
C  0.42400 10.06500 26.38300
C  0.93700 11.24400 27.07200
C  0.87500 10.92700 28.40100
C  0.33800 9.63800 28.48400
C  1.29700 12.57600 26.39800
C  1.13000 11.39800 29.71100
O  1.58800 12.47900 30.10900
C  0.70900 10.17300 30.70000
C  1.96100 10.02800 31.50800
O  2.94600 9.39600 31.22900
O  1.77200 10.79900 32.69200
C  2.96000 10.86200 33.51000
H  -0.42600 3.54500 29.61200
H  -1.08100 4.87900 23.19600
H  0.58800 10.71100 24.39300
H  1.13800 7.39800 31.88100
H  -0.43700 4.96000 31.53300
H  1.91000 4.45800 32.05500
H  2.48100 5.70000 30.92700
H  1.90900 4.25600 30.25900
H  -1.76500 6.71100 32.26100
H  -1.56400 8.37900 32.00900
H  -1.38600 7.10400 34.37200
H  -0.62400 8.63000 34.08100
H  -1.50300 0.78100 27.09800
H  -2.00200 1.59300 28.54900
H  -0.26300 1.37400 28.26500
H  -0.63900 0.20800 25.06700
H  -1.44200 0.23300 23.62700
H  -2.42900 0.55400 25.16700
H  -1.28400 6.99000 21.99100
H  0.39500 9.12700 22.28800
H  1.14700 7.37300 21.18600
H  0.84800 5.68700 21.83900
H  1.76700 6.79900 22.81500
H  -1.58000 9.39300 21.40100
H  -1.56000 10.54800 22.76700
H  -3.65800 9.92400 23.38900
H  -3.00800 8.26500 23.68100
H  -3.68300 8.60400 22.18000
H  1.90200 13.18700 27.06800
H  0.36200 13.09300 26.18400
H  1.80000 12.51000 25.43300
H  -0.05800 10.44300 31.42600
H  3.30100 9.89200 33.87300
H  2.47400 11.37300 34.34100
H  3.71800 11.44800 32.99100
Mg 1.88800 41.99400 26.08400
C  3.59800 42.49000 28.96900
C  -0.86000 41.13800 27.87100
C  0.43000 40.89400 23.32300
C  4.81500 42.76900 24.25300
N  1.48900 41.79100 28.21300
C  2.25000 42.17800 29.22800
C  1.56900 42.10000 30.58100
C  0.11300 41.47300 30.10800
C  0.21100 41.46900 28.62800
C  -0.28900 40.09000 30.87900
C  1.52100 43.48000 31.41000
C  1.97600 43.41900 32.86800
H  1.75900 42.15300 33.69600
N  -0.03000 41.26400 25.65100
C  -1.03700 41.08200 26.50400
C  -2.25400 40.63800 25.83800
C  -1.89500 40.59200 24.41000
C  -0.45500 40.91800 24.43900
C  -3.58100 40.32400 26.56000
C  -2.78200 40.28300 23.20200
O  -2.46300 40.31200 22.02600
C  -4.29000 40.13700 23.58700
N  2.55300 41.76000 24.16200
C  1.78500 41.20200 23.19600
C  2.50200 40.92400 21.92100
C  3.78900 41.78600 22.07500
C  3.71900 42.19900 23.57400
C  2.58000 39.45600 21.45900
C  3.75000 43.15600 21.32600
C  5.24000 43.75700 20.95000
N  3.82100 42.55400 26.44400
C  4.87100 42.92200 25.64300
C  5.94900 43.35700 26.42900
C  5.54000 43.10000 27.74600
C  4.19100 42.69400 27.74000
C  7.29500 43.73100 25.96000
C  6.05000 42.92000 29.07000
O  7.21900 42.88100 29.52500
C  4.70800 42.65600 29.97500
C  5.03500 41.40500 30.71500
O  4.97600 40.27300 30.22200
O  5.37300 41.64800 32.06400
C  5.70700 40.45800 32.88700
H  -1.77000 41.03100 28.46500
H  -0.10900 40.58700 22.42400
H  5.67200 43.07400 23.65000
H  2.19900 41.40400 31.13500
H  -0.54400 42.25100 30.49700
H  -0.69500 39.34400 30.19600
H  -1.13300 40.35500 31.51600
H  0.55600 39.77600 31.49200
H  0.54800 43.96200 31.50700
H  2.06300 44.20900 30.80900
H  1.53900 44.29200 33.35300
H  3.06100 43.52400 32.89600
H  -4.25600 41.11500 26.23300
H  -3.49300 40.25400 27.64500
H  -3.94800 39.31500 26.37300
H  -4.51900 39.07300 23.64600
H  -4.88500 40.49600 22.74700
H  -4.70000 40.70500 24.42200
H  1.93900 41.52500 21.20700
H  4.78300 41.34000 22.03100
H  3.59400 39.07600 21.58500
H  2.22400 39.44000 20.42900
H  2.09500 38.75200 22.13500
H  3.18800 43.79300 22.00900
H  3.13700 43.27400 20.43300
H  5.37100 43.75100 19.86800
H  6.08200 43.15700 21.29700
H  5.48700 44.71800 21.40000
H  7.21000 44.11300 24.94300
H  7.96800 42.87500 26.00100
H  7.71200 44.38800 26.72300
H  4.46900 43.53800 30.57000
H  5.69500 40.89500 33.88500
H  6.68000 39.98200 32.76400
H  5.03100 39.63000 32.67200

