158

Mg 39.62700 10.38400 29.16700
C  41.65200 11.86400 31.65700
C  37.68200 9.09000 31.75600
C  38.06900 8.67500 26.83700
C  42.20000 11.03400 26.90200
N  39.58400 10.62800 31.43800
C  40.49200 11.36800 32.21000
C  40.13000 11.32300 33.69500
C  38.98200 10.19900 33.69000
C  38.76800 9.86000 32.22400
C  39.16600 8.91200 34.57900
C  39.61300 12.62200 34.35000
C  39.11800 12.48100 35.80300
H  39.90300 13.26500 36.80200
N  37.98000 9.21400 29.24900
C  37.33600 8.68000 30.35800
C  36.23500 7.87200 29.89500
C  36.28400 7.89000 28.46000
C  37.50900 8.57000 28.10900
C  35.25500 7.16000 30.80000
C  35.23700 7.34000 27.47700
O  35.29200 7.55500 26.28500
C  34.03800 6.65200 28.01900
N  40.15400 9.83400 27.10800
C  39.26800 9.18300 26.35000
C  39.73900 9.26100 24.85300
C  40.99300 10.24700 24.93600
C  41.12800 10.36900 26.39300
C  40.14100 7.85500 24.20600
C  40.81900 11.53200 24.16700
C  40.08100 12.79000 24.96500
N  41.50900 11.20400 29.23200
C  42.41500 11.41900 28.18900
C  43.59000 12.15600 28.69700
C  43.34500 12.35000 30.06200
C  42.11600 11.77100 30.33500
C  44.82000 12.64200 27.92300
C  43.85800 12.90900 31.25200
O  44.88700 13.60400 31.40400
C  42.75600 12.73000 32.28100
C  43.32200 12.17800 33.61000
O  43.72500 11.05300 33.78900
O  43.19900 13.08900 34.60400
C  43.56600 12.70600 35.91800
H  37.00200 8.77000 32.54900
H  37.53700 8.08900 26.08400
H  42.96100 11.35500 26.18800
H  40.95500 10.87100 34.24500
H  38.04600 10.60800 34.06900
H  38.28400 8.67500 35.17400
H  39.96700 9.11600 35.29000
H  39.37800 8.02900 33.97700
H  38.86200 13.09800 33.71900
H  40.50900 13.24100 34.41100
H  39.08900 11.50200 36.28100
H  38.09800 12.84300 35.66900
H  34.35500 7.77500 30.82400
H  35.71100 7.17900 31.79000
H  34.94400 6.14700 30.54700
H  33.47000 6.32000 27.15000
H  33.47400 7.24000 28.74300
H  34.41400 5.72000 28.44200
H  38.90500 9.67300 24.28600
H  41.80000 9.74800 24.39900
H  41.22800 7.78000 24.17600
H  39.74200 7.75900 23.19700
H  39.52800 7.21400 24.84000
H  40.12800 11.42500 23.33000
H  41.75600 11.82800 23.69500
H  40.11000 12.51700 26.02000
H  39.12800 13.12300 24.55300
H  40.69700 13.68400 24.87200
H  44.65800 13.52400 27.30400
H  45.28000 11.84300 27.34000
H  45.56400 12.82200 28.69900
H  42.22800 13.66900 32.44700
H  44.64900 12.66000 36.03100
H  43.11700 11.76600 36.23700
H  43.24500 13.45000 36.64700
Mg 36.77600 50.16000 25.50000
C  36.77000 48.29700 28.49300
C  35.58200 52.79900 27.11700
C  36.51600 51.79800 22.54500
C  37.69400 47.16500 23.84800
N  36.25900 50.49900 27.49500
C  36.33900 49.61000 28.60600
C  35.87300 50.32500 29.90200
C  35.29700 51.68500 29.34400
C  35.82000 51.66000 27.89000
C  33.79000 51.71200 29.41500
C  37.08800 50.61300 30.81500
C  36.83000 50.81300 32.36100
H  35.44600 50.72500 32.94900
N  36.07000 52.06900 24.90300
C  35.67400 52.99400 25.76800
C  35.41200 54.22600 25.08100
C  35.59000 54.03600 23.66400
C  36.10600 52.58700 23.63700
C  34.92300 55.41000 25.80100
C  35.36300 54.88400 22.52600
O  35.66400 54.54900 21.35200
C  34.58000 56.17900 22.70700
N  37.17100 49.55000 23.47400
C  36.86800 50.44100 22.43900
C  37.16700 49.78000 21.08300
C  37.56400 48.30600 21.47900
C  37.53300 48.34300 23.05200
C  35.97100 49.89000 20.06200
C  38.86100 47.73400 20.83800
C  40.17800 48.04900 21.54800
N  37.08300 48.11700 26.00600
C  37.56700 47.08500 25.26600
C  37.95000 45.94400 26.11100
C  37.67800 46.38600 27.43700
C  37.10300 47.67900 27.26800
C  38.48600 44.59700 25.64800
C  37.71100 46.12100 28.83700
O  37.93400 45.09500 29.46000
C  37.16600 47.31600 29.56300
C  36.09500 46.86000 30.46400
O  34.90100 46.80200 30.11800
O  36.63200 46.56300 31.69500
C  35.65000 45.92400 32.56900
H  35.30000 53.71100 27.64800
H  36.35800 52.30700 21.59200
H  38.08600 46.25300 23.39200
H  35.22200 49.71300 30.52600
H  35.69500 52.56200 29.85200
H  33.45600 52.32600 30.25100
H  33.36300 50.76000 29.73100
H  33.18800 51.83300 28.51400
H  37.52500 51.50100 30.35700
H  37.84200 49.82600 30.78700
H  37.25600 51.74900 32.72200
H  37.51300 50.17800 32.92500
H  34.45400 56.15200 25.15400
H  35.81500 55.81200 26.28200
H  34.12900 55.18700 26.51400
H  34.69100 56.72400 21.76900
H  35.16300 56.72800 23.44600
H  33.59400 55.77800 22.93900
H  37.99200 50.32100 20.61800
H  36.74300 47.63300 21.23400
H  35.73100 48.99500 19.48800
H  36.07100 50.70300 19.34200
H  35.07400 50.23300 20.57600
H  38.96200 47.85500 19.75900
H  38.78100 46.64800 20.86900
H  40.53200 47.16700 22.08200
H  40.12300 48.90800 22.21700
H  40.78900 48.40500 20.71900
H  38.04300 44.37300 24.67800
H  38.35400 43.76700 26.34300
H  39.57000 44.53500 25.54700
H  38.04200 47.70200 30.08300
H  34.92100 46.71700 32.72700
H  36.12900 45.72600 33.52800
H  35.08600 45.08400 32.16200

