158

Mg 27.68900 50.51600 27.00700
C  25.52200 51.02400 29.63500
C  30.12900 49.72400 29.19300
C  29.56300 50.03400 24.35800
C  25.07700 51.72200 24.78300
N  27.80300 50.30100 29.19200
C  26.79000 50.55400 30.03200
C  27.23600 50.30500 31.44700
C  28.79300 50.15900 31.39600
C  28.92200 49.96000 29.84100
C  29.55700 51.37200 31.96000
C  26.46900 49.22200 32.36800
C  27.03800 49.08400 33.77600
H  26.10200 49.41100 35.00200
N  29.52600 49.80600 26.84100
C  30.38600 49.50100 27.84500
C  31.57700 49.05200 27.25600
C  31.41900 49.10200 25.88300
C  30.12800 49.61200 25.61700
C  32.85100 48.47100 27.95200
C  32.36600 48.69100 24.83300
O  32.16300 48.78800 23.66700
C  33.77300 48.18600 25.22700
N  27.40500 51.11900 24.89800
C  28.31100 50.61800 24.04100
C  27.88300 50.78100 22.54000
C  26.36300 51.17600 22.69300
C  26.27500 51.35100 24.19400
C  28.79400 51.83300 21.83300
C  25.34800 50.11900 22.11300
C  25.36800 48.68400 22.69600
N  25.76700 51.41700 27.12300
C  24.86200 51.72800 26.14900
C  23.60100 52.15000 26.84200
C  23.80200 51.88300 28.25700
C  25.13900 51.41700 28.31000
C  22.45100 52.65200 26.02900
C  23.14800 51.90700 29.58100
O  22.04300 52.34600 29.96300
C  24.35500 51.42200 30.49500
C  24.61000 52.56200 31.43300
O  25.08600 53.62300 30.94300
O  24.21300 52.38500 32.74100
C  24.63700 53.40400 33.68800
H  30.98400 49.47800 29.82800
H  30.22200 50.08200 23.48800
H  24.25400 51.71100 24.06500
H  26.86100 51.22800 31.89000
H  29.05800 49.21800 31.87900
H  30.17200 51.73400 31.13600
H  30.15100 51.14100 32.84400
H  28.95700 52.26100 32.15800
H  26.45200 48.25400 31.86600
H  25.43900 49.57400 32.43400
H  27.84100 49.80000 33.95300
H  27.48600 48.11000 33.97300
H  33.05400 47.40100 27.98700
H  32.72300 48.80700 28.98100
H  33.77600 49.04700 27.89500
H  34.16300 49.03600 25.78800
H  34.41000 48.06400 24.35100
H  33.63000 47.20700 25.68300
H  28.02700 49.88300 21.94000
H  26.17600 52.18000 22.31200
H  29.53000 52.22100 22.53700
H  28.17400 52.65500 21.47600
H  29.25600 51.39200 20.94900
H  25.59100 49.99600 21.05700
H  24.32500 50.47900 22.21500
H  25.99100 48.70200 23.59100
H  25.83300 48.00100 21.98500
H  24.40900 48.29500 23.03900
H  21.56500 52.59800 26.66200
H  22.25300 52.08600 25.11900
H  22.84200 53.65600 25.86000
H  24.02700 50.50700 30.98800
H  24.19400 54.34000 33.34900
H  25.70700 53.59400 33.60300
H  24.40700 53.27800 34.74600
Mg 10.98600 46.98100 25.86900
C  8.78800 47.20100 28.67700
C  13.40200 48.14600 27.91400
C  13.00800 46.80900 23.26800
C  8.21100 46.06100 23.97500
N  11.02400 47.70800 27.97200
C  10.08200 47.62900 28.96300
C  10.59500 47.99700 30.38500
C  11.90600 48.74400 29.99100
C  12.17700 48.20500 28.52700
C  11.77800 50.28100 30.05000
C  10.69700 46.78300 31.33000
C  10.49800 46.89300 32.83100
H  10.56400 45.60600 33.67500
N  12.86200 47.44800 25.56600
C  13.78500 47.80000 26.59500
C  15.11700 47.88600 26.07000
C  15.02500 47.58500 24.70500
C  13.57400 47.27900 24.42900
C  16.33200 48.28000 26.87500
C  16.11600 47.28400 23.68300
O  15.90900 46.83200 22.52600
C  17.51400 47.41600 24.11200
N  10.58700 46.53400 23.83800
C  11.64200 46.51200 22.98900
C  11.15700 45.91100 21.65900
C  9.53800 45.77800 21.83100
C  9.42600 46.18900 23.29700
C  11.56300 46.79000 20.41600
C  8.99100 44.32400 21.51100
C  8.98900 43.29400 22.60600
N  8.87600 46.56000 26.18400
C  7.86400 46.23900 25.29200
C  6.62800 46.18300 25.94700
C  6.87800 46.51700 27.26100
C  8.30100 46.77100 27.38500
C  5.31600 45.78400 25.20300
C  6.32900 46.65000 28.58400
O  5.25500 46.32800 29.02800
C  7.47100 46.96800 29.52800
C  7.62200 45.73700 30.38600
O  8.17100 44.71600 30.01000
O  6.93600 45.99300 31.53100
C  7.01100 44.79500 32.42600
H  14.22800 48.44700 28.56100
H  13.77600 46.80200 22.49200
H  7.40700 45.97500 23.24100
H  9.99300 48.79200 30.82500
H  12.74100 48.48000 30.64100
H  10.84900 50.66700 30.47000
H  11.69100 50.77800 29.08300
H  12.57500 50.71400 30.65300
H  11.65500 46.28900 31.17100
H  10.02500 45.97900 31.03100
H  9.52000 47.35100 32.97700
H  11.16900 47.64000 33.25400
H  17.07700 47.48600 26.92800
H  16.11000 48.27900 27.94200
H  16.76400 49.25200 26.63500
H  18.26300 47.27400 23.33300
H  17.63400 46.60200 24.82700
H  17.68500 48.41500 24.51300
H  11.60900 44.91900 21.65500
H  9.00200 46.45200 21.16200
H  10.77000 46.80400 19.66800
H  12.51800 46.41300 20.05000
H  11.70600 47.76900 20.87400
H  9.62800 44.00000 20.68800
H  7.95500 44.30500 21.16900
H  8.09100 43.20300 23.21900
H  9.70000 43.62900 23.36100
H  9.33600 42.33800 22.21500
H  4.80900 46.72200 24.97600
H  4.67800 45.15300 25.82300
H  5.68500 45.34200 24.27800
H  7.16800 47.80300 30.16000
H  6.08000 44.24900 32.27400
H  7.03300 45.03100 33.49000
H  7.88300 44.14700 32.34400

