158

Mg -2.47200 17.50800 26.79800
C  -2.71100 15.26300 29.45700
C  -3.04900 20.12000 28.99500
C  -2.32400 19.63000 24.12800
C  -2.38900 14.82400 24.56000
N  -3.15500 17.59900 29.01000
C  -2.96800 16.56900 29.95200
C  -3.24900 17.06800 31.31700
C  -3.36800 18.67200 31.14900
C  -3.06700 18.87000 29.63300
C  -4.63100 19.54400 31.62400
C  -2.20300 16.57300 32.41300
C  -1.72200 17.53600 33.60700
H  -1.08300 16.80500 34.80000
N  -2.50000 19.60400 26.63800
C  -2.82300 20.46000 27.63800
C  -2.80400 21.86600 27.12700
C  -2.48600 21.70100 25.72900
C  -2.43700 20.24900 25.40200
C  -3.15500 23.15000 27.97300
C  -2.28900 22.75400 24.71600
O  -1.97600 22.46800 23.59100
C  -2.44300 24.19000 25.09000
N  -2.71300 17.26100 24.56600
C  -2.56400 18.29600 23.66100
C  -2.55500 17.77200 22.18100
C  -2.26300 16.27500 22.44600
C  -2.53800 16.07300 23.91600
C  -3.71200 18.06100 21.22300
C  -0.86200 15.71200 21.99500
C  0.30900 16.33700 22.82700
N  -2.58600 15.43100 26.90800
C  -2.53900 14.47500 25.91400
C  -2.66400 13.17500 26.49900
C  -2.72700 13.42800 27.87100
C  -2.65400 14.76900 28.05100
C  -2.64400 11.84300 25.81500
C  -2.85700 12.83300 29.21600
O  -2.92500 11.63700 29.51900
C  -2.95100 13.95600 30.31100
C  -1.91400 13.69800 31.32900
O  -0.76700 13.94100 31.13000
O  -2.48100 13.07700 32.41100
C  -1.52700 12.27300 33.24500
H  -3.24700 20.92100 29.71100
H  -2.28100 20.25000 23.23000
H  -2.28800 13.95900 23.90100
H  -4.18400 16.67000 31.71200
H  -2.56200 19.06200 31.77100
H  -5.10400 18.99600 32.43900
H  -5.31200 19.72900 30.79300
H  -4.30200 20.50600 32.01800
H  -1.31600 16.39700 31.80400
H  -2.52800 15.64600 32.88600
H  -2.40200 18.34500 33.87400
H  -0.84600 17.99000 33.14400
H  -2.27700 23.79500 27.94800
H  -3.25000 22.87900 29.02500
H  -4.07700 23.64600 27.66900
H  -3.45300 24.45000 25.40800
H  -2.21900 24.70800 24.15700
H  -1.62100 24.38800 25.77900
H  -1.65100 18.07500 21.65300
H  -2.97200 15.68400 21.86600
H  -4.53000 18.56600 21.73600
H  -4.24100 17.22800 20.76100
H  -3.42600 18.55300 20.29400
H  -0.60000 15.99100 20.97400
H  -0.85900 14.62800 22.10700
H  0.54500 17.28600 22.34500
H  1.22600 15.76400 22.95800
H  0.07800 16.76300 23.80400
H  -2.20900 11.82700 24.81500
H  -3.67300 11.49500 25.73000
H  -2.13100 11.05100 26.35900
H  -3.95700 14.04400 30.72100
H  -2.04800 11.47400 33.77200
H  -1.09700 12.91100 34.01800
H  -0.71500 11.80200 32.69100
Mg 54.71800 24.47300 44.55700
C  52.10400 26.76100 43.82300
C  52.58400 21.86600 43.54000
C  57.32900 22.39500 44.59300
C  56.69300 27.10300 45.38300
N  52.55700 24.34500 43.94000
C  51.75800 25.43100 43.58200
C  50.40700 24.87800 42.92400
C  50.47800 23.32000 43.37400
C  52.01800 23.14700 43.59600
C  49.70900 22.82400 44.58400
C  50.20000 25.04600 41.41100
C  48.83200 25.05200 40.74700
H  48.68100 24.28100 39.45100
N  54.94100 22.42000 44.03600
C  53.92700 21.49100 43.71600
C  54.54300 20.20600 43.53100
C  55.89500 20.30000 43.94600
C  56.10100 21.71600 44.17600
C  53.72900 19.06600 43.21300
C  56.89500 19.08600 44.07700
O  56.62900 17.90200 43.71200
C  58.18800 19.29000 44.73600
N  56.76000 24.67500 44.86800
C  57.70600 23.68800 44.84300
C  59.04100 24.14300 45.39600
C  58.70400 25.70200 45.60800
C  57.30200 25.83900 45.26000
C  59.57600 23.40400 46.69700
C  59.56200 26.59100 44.66300
C  60.58300 27.42000 45.40400
N  54.54800 26.55600 44.58200
C  55.38100 27.48900 45.12700
C  54.75900 28.76500 45.24400
C  53.49400 28.54600 44.64000
C  53.39800 27.20500 44.30600
C  55.37200 29.96000 45.86600
C  52.27800 29.20700 44.26500
O  51.94300 30.38500 44.39900
C  51.27900 28.05700 43.62300
C  50.84200 28.34500 42.24300
O  51.62500 28.41900 41.24700
O  49.52500 28.42900 42.22100
C  49.08100 28.71600 40.89000
H  51.85000 21.08200 43.34200
H  58.19600 21.74800 44.74200
H  57.36100 27.91700 45.67100
H  49.60100 25.32700 43.50500
H  50.27300 22.69900 42.50200
H  50.43900 22.69900 45.38400
H  49.04900 21.97100 44.42700
H  49.00400 23.61000 44.85300
H  50.88700 24.31700 40.98100
H  50.61100 26.01600 41.13200
H  48.57800 26.10600 40.64200
H  48.13800 24.57600 41.43900
H  53.26000 19.22400 42.24100
H  52.96200 18.94400 43.97800
H  54.22400 18.09700 43.15200
H  58.46900 18.28300 45.04500
H  58.12800 19.83300 45.68000
H  59.02000 19.67200 44.14600
H  59.78800 24.00200 44.61600
H  58.91200 25.91900 46.65600
H  59.33000 24.03300 47.55300
H  60.63800 23.16100 46.72900
H  59.06200 22.44400 46.75700
H  58.99400 27.29200 44.05100
H  60.11900 25.94700 43.98300
H  60.38900 27.41100 46.47600
H  60.54700 28.47900 45.15100
H  61.54000 26.97700 45.12600
H  56.39700 30.16400 45.55500
H  55.31900 29.79600 46.94200
H  54.79400 30.84100 45.59000
H  50.34900 27.91500 44.17200
H  48.84600 29.77400 40.77400
H  48.13100 28.20500 40.73300
H  49.70300 28.41100 40.04800

