158

Mg 41.64400 7.44600 29.03800
C  42.96700 9.19800 31.63300
C  39.24100 6.25100 31.18300
C  40.53000 5.43600 26.58100
C  44.25700 8.33600 26.92700
N  41.36200 7.41800 31.31400
C  41.93900 8.41700 32.10600
C  41.25700 8.51600 33.54400
C  39.93200 7.63100 33.26900
C  40.13900 7.04100 31.85800
C  39.61900 6.57000 34.38500
C  40.70700 9.95700 34.03100
C  40.12000 9.89800 35.44600
H  40.46900 11.12700 36.29400
N  40.04500 6.10600 28.84100
C  39.16000 5.79700 29.86600
C  38.04500 5.22200 29.24900
C  38.34800 5.14300 27.86200
C  39.68900 5.52000 27.72300
C  36.79200 4.83800 30.05900
C  37.28000 4.77300 26.80400
O  37.62200 4.49500 25.64100
C  35.71800 4.77900 27.05300
N  42.34700 6.84700 27.09500
C  41.76100 5.93700 26.31200
C  42.33500 5.93700 24.93200
C  43.49400 6.92400 24.95800
C  43.39000 7.37900 26.43300
C  42.67400 4.52200 24.40200
C  43.46600 8.15900 23.95900
C  44.22500 7.81600 22.67600
N  43.28800 8.45300 29.18900
C  44.28600 8.75100 28.30400
C  45.31000 9.61400 28.95400
C  44.77200 9.86500 30.18900
C  43.57700 9.07600 30.32400
C  46.51300 10.12600 28.26500
C  44.97600 10.64000 31.39600
O  45.85500 11.38800 31.77100
C  43.77000 10.22100 32.32400
C  44.38800 9.77000 33.62200
O  44.92700 8.74400 33.80700
O  44.15000 10.70700 34.63400
C  44.63300 10.40100 35.97100
H  38.41000 5.93700 31.81900
H  40.13300 4.79600 25.79000
H  45.12500 8.66300 26.35100
H  41.85600 8.15300 34.37800
H  39.01100 8.21300 33.29200
H  38.74000 6.84000 34.97100
H  40.46300 6.65100 35.07000
H  39.56100 5.56200 33.97400
H  40.04200 10.42900 33.30700
H  41.55900 10.63700 34.02700
H  40.50500 9.04600 36.00700
H  39.04000 9.80100 35.33800
H  36.97100 4.70000 31.12600
H  36.39600 3.89800 29.67400
H  35.95000 5.51800 29.93000
H  35.19000 4.93100 26.11200
H  35.42800 5.59900 27.70900
H  35.69500 3.74900 27.41100
H  41.49700 6.37300 24.38700
H  44.49000 6.48200 24.92200
H  42.66100 3.74100 25.16300
H  43.63900 4.44300 23.90100
H  41.95100 4.30200 23.61700
H  43.87300 9.04200 24.45200
H  42.41400 8.37200 23.76900
H  44.66000 6.82200 22.58000
H  45.18900 8.31800 22.75600
H  43.72300 8.15300 21.76900
H  46.47800 10.21300 27.17900
H  47.35000 9.45200 28.44800
H  46.90000 11.06500 28.66200
H  43.24200 11.16300 32.47200
H  45.71800 10.29400 35.98700
H  44.13700 9.50900 36.35400
H  44.39200 11.29500 36.54600
Mg 53.02300 24.29100 44.98000
C  50.39200 26.39300 43.83300
C  51.47700 21.71500 43.60100
C  55.98500 22.75500 45.14400
C  54.57300 27.34900 45.83900
N  51.25900 24.15200 43.62200
C  50.25000 25.06200 43.36600
C  49.18400 24.44500 42.46300
C  49.26500 22.93100 42.83300
C  50.76000 22.90900 43.39200
C  48.30300 22.38700 43.95200
C  49.52500 24.84600 40.96200
C  48.29600 25.09400 40.10100
H  48.02700 24.15600 38.86800
N  53.64800 22.40800 44.62700
C  52.83600 21.47600 44.03100
C  53.54300 20.23900 44.05700
C  54.89300 20.44700 44.52100
C  54.90700 21.92500 44.79900
C  52.83200 18.93700 43.57100
C  55.96700 19.34500 44.68500
O  55.77400 18.18700 44.35100
C  57.21000 19.64100 45.46900
N  55.04400 25.00200 45.38200
C  56.02300 24.12200 45.57800
C  57.35000 24.80000 46.08800
C  56.85400 26.28000 46.19700
C  55.39600 26.23300 45.79900
C  58.24500 24.15900 47.25900
C  57.62700 27.28100 45.39500
C  58.33500 28.52500 46.04400
N  52.53500 26.38500 45.03900
C  53.22900 27.42100 45.51000
C  52.34200 28.57100 45.68800
C  51.20000 28.26000 44.95800
C  51.39800 26.90000 44.61100
C  52.77100 29.85800 46.31400
C  50.00300 28.71300 44.39700
O  49.51800 29.79400 44.41600
C  49.38500 27.55000 43.65600
C  49.32300 27.97300 42.17700
O  50.20400 28.60500 41.61700
O  48.05200 27.83400 41.72400
C  47.77000 28.55800 40.46800
H  50.91200 20.87000 43.20300
H  56.94200 22.25200 45.29600
H  55.03000 28.29200 46.14900
H  48.19200 24.84000 42.68200
H  49.38800 22.31700 41.94100
H  48.71200 21.82100 44.78900
H  47.69500 21.63300 43.45200
H  47.63000 23.18200 44.27500
H  50.09400 24.04100 40.49700
H  50.23500 25.66800 40.87000
H  48.39200 26.00200 39.50600
H  47.38400 25.19600 40.68800
H  52.75200 19.05800 42.49100
H  51.86300 18.86800 44.06600
H  53.43900 18.07600 43.84700
H  57.89600 20.39200 45.07800
H  57.61000 18.64700 45.66900
H  56.84900 19.91500 46.46000
H  58.04700 24.79300 45.24900
H  56.86600 26.48700 47.26700
H  57.76200 23.23900 47.58700
H  58.41400 24.85300 48.08200
H  59.25700 23.91900 46.93400
H  56.89100 27.71200 44.71500
H  58.35800 26.84500 44.71400
H  58.54700 28.38100 47.10400
H  57.73400 29.42100 45.89100
H  59.28100 28.56200 45.50300
H  53.34700 29.88500 47.23900
H  51.84600 30.38800 46.53800
H  53.36000 30.50900 45.66800
H  48.39100 27.30200 44.02800
H  48.59400 28.95400 39.87400
H  47.13500 29.41500 40.69300
H  47.18300 27.86600 39.86300

