158

Mg 41.02100 7.79500 29.52100
C  42.92200 9.22400 32.08100
C  38.65000 6.80200 31.81800
C  39.54900 5.99500 27.12500
C  43.81600 8.03900 27.34700
N  40.86700 7.90700 31.74900
C  41.68500 8.73200 32.54700
C  41.03000 8.81000 33.96300
C  39.82000 7.86200 33.95300
C  39.75700 7.40000 32.43800
C  39.75300 6.64200 34.85000
C  40.72900 10.35900 34.16900
C  40.03500 10.72600 35.47400
H  40.75200 11.67200 36.45700
N  39.35800 6.61000 29.54600
C  38.41300 6.44800 30.50800
C  37.31200 5.70100 30.02700
C  37.51800 5.41500 28.66400
C  38.91100 5.93600 28.41000
C  36.09600 5.36000 30.93100
C  36.62000 4.72600 27.63300
O  36.98600 4.49600 26.45400
C  35.10300 4.44400 27.95800
N  41.58500 7.07500 27.48900
C  40.75300 6.41700 26.74500
C  41.31700 6.07000 25.39400
C  42.50100 7.05700 25.35200
C  42.72100 7.28900 26.83300
C  41.60100 4.64500 25.04900
C  42.23200 8.39600 24.58200
C  43.43500 9.38800 24.16200
N  42.95000 8.47700 29.63600
C  43.96800 8.47000 28.66400
C  45.07100 9.17300 29.17200
C  44.72500 9.45000 30.51800
C  43.45100 9.01500 30.74800
C  46.27600 9.66300 28.42600
C  45.15100 10.11100 31.77000
O  46.20100 10.65500 32.06700
C  43.98600 10.00900 32.85600
C  44.48800 9.31400 34.06400
O  44.92300 8.16300 34.04900
O  44.39700 10.08800 35.20700
C  44.38300 9.28500 36.45000
H  37.84300 6.69100 32.54600
H  39.07200 5.40800 26.33700
H  44.69300 8.13500 26.70300
H  41.76900 8.48400 34.69400
H  38.85400 8.35100 34.07500
H  39.97300 5.73800 34.28200
H  38.89700 6.59600 35.52400
H  40.54400 6.67600 35.59900
H  40.23200 10.80400 33.30800
H  41.64000 10.95500 34.22600
H  39.87400 9.77300 35.97700
H  39.15500 11.33400 35.26300
H  35.17100 5.75700 30.51400
H  36.15300 5.61200 31.99000
H  36.01200 4.27400 30.95600
H  35.07200 3.80800 28.84300
H  34.56700 3.95500 27.14400
H  34.55400 5.36900 28.13600
H  40.63300 6.44200 24.63100
H  43.31900 6.58300 24.81000
H  41.06500 3.86700 25.59300
H  42.66800 4.54900 25.24600
H  41.44900 4.51500 23.97700
H  41.64100 8.92800 25.32700
H  41.56700 8.07300 23.78100
H  43.39100 9.48900 23.07800
H  44.30900 8.85400 24.53600
H  43.33500 10.39200 24.57600
H  45.86700 9.90400 27.44500
H  47.01000 8.86500 28.31800
H  46.67100 10.62300 28.75900
H  43.79300 11.03700 33.16200
H  45.42900 9.13000 36.71700
H  43.81200 8.37000 36.29300
H  43.90200 9.78800 37.28800
Mg -2.01900 34.44800 27.13700
C  -3.39700 32.61600 29.87400
C  -0.48500 36.57400 29.30800
C  -1.05500 36.30800 24.34200
C  -3.88700 32.40800 25.05800
N  -2.06200 34.60800 29.34500
C  -2.63400 33.75300 30.29900
C  -2.20200 34.16600 31.71400
C  -1.34500 35.46900 31.47900
C  -1.24600 35.58300 29.92300
C  -1.87900 36.75700 32.22100
C  -1.56900 33.03300 32.49800
C  -2.33300 32.58000 33.77600
H  -1.64700 32.28900 35.05600
N  -0.70000 36.11100 26.84400
C  -0.22000 36.86400 27.89200
C  0.57500 37.92700 27.27900
C  0.32900 37.90500 25.88200
C  -0.49000 36.70600 25.62300
C  1.37000 38.92600 28.19400
C  0.82300 38.75700 24.77700
O  0.60400 38.66300 23.59600
C  1.70600 39.86400 25.15600
N  -2.42300 34.41500 25.01100
C  -1.85100 35.16200 24.06000
C  -2.46600 34.87900 22.69600
C  -2.99200 33.44800 22.94700
C  -3.07600 33.33800 24.42300
C  -3.60700 35.92400 22.29500
C  -2.02100 32.29300 22.44900
C  -0.62400 32.10900 23.01200
N  -3.27100 32.80300 27.33000
C  -4.00800 32.12600 26.37800
C  -4.69900 31.06800 26.96100
C  -4.52400 31.22400 28.33900
C  -3.65900 32.27100 28.51700
C  -5.70000 30.03200 26.37900
C  -4.85100 30.72900 29.57800
O  -5.58400 29.78600 29.84800
C  -4.12500 31.56100 30.69700
C  -5.22000 32.08000 31.61500
O  -6.06500 32.92200 31.25900
O  -5.21700 31.45900 32.84300
C  -6.07900 32.14000 33.82600
H  0.02600 37.23100 30.01400
H  -0.88800 36.87300 23.42300
H  -4.31300 31.74700 24.30100
H  -3.10200 34.50200 32.22800
H  -0.34800 35.30000 31.88500
H  -2.38200 36.40900 33.12300
H  -2.70100 37.18200 31.64400
H  -1.07000 37.42000 32.52800
H  -0.54000 33.27700 32.76500
H  -1.56500 32.12500 31.89500
H  -2.90000 31.69100 33.49800
H  -3.03200 33.37000 34.05200
H  0.87800 39.88900 28.06100
H  2.39600 38.87600 27.82700
H  1.35600 38.59400 29.23200
H  1.25000 40.36900 26.00800
H  1.71500 40.67700 24.43000
H  2.74900 39.62800 25.36600
H  -1.67000 34.91400 21.95200
H  -3.93900 33.33600 22.41900
H  -3.65000 36.64800 23.10800
H  -4.60000 35.48800 22.18700
H  -3.31400 36.44800 21.38500
H  -2.00200 32.47500 21.37500
H  -2.48200 31.31700 22.60400
H  -0.17000 33.01900 23.40400
H  -0.05300 31.71000 22.17400
H  -0.66700 31.46500 23.89000
H  -5.43400 28.97600 26.43800
H  -5.97800 30.24500 25.34700
H  -6.54900 30.23300 27.03300
H  -3.45700 30.93300 31.28700
H  -5.98300 31.60900 34.77300
H  -7.08100 32.09500 33.39900
H  -5.76100 33.17400 33.95900

