158

Mg 53.15400 24.19500 44.25200
C  50.66000 26.46500 43.44200
C  51.07400 21.59000 43.16400
C  55.78700 22.09400 43.96400
C  55.16300 26.73600 45.26200
N  51.13700 24.04400 43.35100
C  50.31300 25.12200 43.07400
C  48.94800 24.57900 42.48400
C  48.87500 23.12700 43.07700
C  50.37400 22.87800 43.17400
C  48.08100 23.01000 44.42800
C  48.95400 24.51400 40.90300
C  50.21200 24.93500 40.13000
H  50.10800 25.18200 38.61100
N  53.41400 22.08600 43.77400
C  52.39300 21.19800 43.37100
C  52.88700 19.88200 43.09600
C  54.34400 19.96300 43.37300
C  54.55000 21.43700 43.71500
C  52.00500 18.77800 42.65200
C  55.36800 18.78900 43.22000
O  54.86200 17.73500 42.84800
C  56.82200 18.85500 43.58800
N  55.21300 24.35800 44.59300
C  56.18600 23.37400 44.34900
C  57.58800 23.85500 44.83700
C  57.32300 25.33600 45.25100
C  55.77200 25.53500 45.12200
C  58.08800 22.95300 45.99200
C  58.08900 26.24000 44.32000
C  57.54100 26.31000 42.86300
N  53.01000 26.20200 44.30700
C  53.88100 27.17800 44.86800
C  53.31000 28.51900 44.85400
C  51.97700 28.26700 44.33600
C  51.86500 26.88800 44.05600
C  53.93600 29.91100 45.39300
C  50.71900 28.86500 43.87300
O  50.36300 29.99000 43.84900
C  49.85000 27.72200 43.38300
C  49.46200 28.01600 41.99700
O  50.09200 28.36400 41.08500
O  48.09100 27.90900 41.99800
C  47.46100 28.10900 40.61800
H  50.32300 20.88900 42.79400
H  56.61900 21.40700 43.79500
H  55.81700 27.60500 45.35700
H  48.11500 25.19700 42.81900
H  48.43100 22.46100 42.33700
H  48.66000 22.57100 45.23900
H  47.27000 22.36300 44.09400
H  47.62400 23.96800 44.67900
H  48.25800 25.24600 40.49200
H  48.57200 23.55400 40.55700
H  51.03000 24.21500 40.17200
H  50.50600 25.90400 40.53200
H  51.22600 19.22100 42.03200
H  51.42900 18.35100 43.47300
H  52.54100 18.03200 42.06500
H  56.96200 19.44200 44.49600
H  57.40500 19.32500 42.79700
H  57.04700 17.78800 43.60300
H  58.23500 23.64800 43.98500
H  57.80700 25.37200 46.22600
H  57.38700 22.13200 46.14200
H  58.01000 23.37100 46.99600
H  59.12400 22.64300 45.86000
H  59.16400 26.06500 44.29200
H  57.95900 27.22300 44.77100
H  56.91200 25.42700 42.75300
H  58.31500 26.18700 42.10500
H  56.96000 27.21600 42.68900
H  54.70100 30.10600 44.64100
H  54.44700 29.64600 46.31800
H  53.19100 30.70000 45.49900
H  49.03700 27.86500 44.09500
H  48.20700 28.26900 39.84000
H  46.81700 28.98800 40.63200
H  46.93200 27.22100 40.27200
Mg 9.41300 47.99600 26.17500
C  7.19100 47.80500 28.76800
C  11.91700 49.09100 28.38000
C  11.42100 48.51900 23.58700
C  6.81200 47.23700 23.98200
N  9.52500 48.29400 28.33400
C  8.51000 48.17600 29.19300
C  8.89400 48.56600 30.66700
C  10.35100 49.18400 30.43000
C  10.63400 48.85900 28.97900
C  10.48500 50.71000 30.84000
C  8.93700 47.32500 31.57700
C  9.73000 47.37100 32.91200
H  9.00600 47.08100 34.30300
N  11.38200 48.77500 26.02000
C  12.33100 49.07400 27.00300
C  13.55200 49.38500 26.44500
C  13.42600 49.21500 25.01200
C  12.01800 48.79100 24.81500
C  14.71500 49.67300 27.31800
C  14.49800 49.39600 23.90700
O  14.34200 49.27600 22.70700
C  15.82500 49.91700 24.36800
N  9.08000 47.90000 24.00400
C  10.12300 48.12700 23.15700
C  9.70100 47.92300 21.64800
C  8.34600 47.14100 21.85200
C  7.96700 47.52900 23.35300
C  9.45100 49.29700 20.91100
C  8.39800 45.64000 21.48300
C  8.46200 45.24400 19.95400
N  7.47400 47.59500 26.24100
C  6.49600 47.34900 25.27900
C  5.17100 47.14600 25.90800
C  5.39800 47.32700 27.27200
C  6.77900 47.66500 27.40600
C  3.88500 46.79000 25.19300
C  4.79500 47.32300 28.57200
O  3.60900 47.08100 28.89400
C  5.90900 47.56500 29.61300
C  6.05500 46.28500 30.44100
O  6.73300 45.33500 30.17200
O  5.38100 46.42600 31.61400
C  5.51300 45.32500 32.62000
H  12.57300 49.38100 29.20400
H  12.03200 48.52700 22.68200
H  6.00900 46.88900 23.32900
H  8.22900 49.24900 31.19600
H  11.00200 48.64800 31.12000
H  10.62700 51.35300 29.97100
H  11.37500 50.77000 31.46600
H  9.55800 51.08100 31.27800
H  9.27400 46.39600 31.11700
H  7.88600 47.30900 31.86500
H  10.18200 48.35400 33.04200
H  10.48400 46.58500 32.89500
H  15.06900 50.70300 27.30300
H  15.45800 48.95000 26.97900
H  14.61700 49.50200 28.39000
H  16.41000 50.19900 23.49300
H  16.12600 49.09500 25.01900
H  15.62900 50.81200 24.95700
H  10.24100 47.14000 21.11500
H  7.59000 47.63700 21.24200
H  10.04000 49.20400 19.99800
H  9.82500 50.07400 21.57800
H  8.42800 49.56100 20.64200
H  7.39400 45.32100 21.76400
H  9.11700 45.06200 22.06400
H  9.06100 45.92900 19.35400
H  7.48500 45.24800 19.47000
H  8.90600 44.25000 19.90500
H  3.24600 46.17400 25.82500
H  4.32300 46.21700 24.37600
H  3.34600 47.64800 24.79000
H  5.71800 48.45400 30.21400
H  5.15700 45.61400 33.60900
H  6.58200 45.11300 32.60800
H  4.89800 44.47400 32.33000

