158

Mg 26.05600 -0.25400 29.56600
C  28.19500 -0.52700 32.37400
C  23.53100 0.32300 31.70400
C  24.15100 -0.11200 26.89300
C  28.72000 -1.52100 27.62300
N  25.90900 -0.16600 31.77500
C  26.91200 -0.11600 32.68800
C  26.43900 0.33800 34.08100
C  24.90200 0.41200 33.91500
C  24.76200 0.21900 32.37000
C  24.05800 -0.65200 34.71800
C  27.14300 1.67800 34.45300
C  28.07300 1.56300 35.71600
H  27.88900 2.57900 36.87400
N  24.08900 0.11100 29.33300
C  23.16100 0.32900 30.31400
C  21.88500 0.57300 29.74700
C  21.97600 0.40000 28.36300
C  23.43600 0.10000 28.09200
C  20.69800 1.02800 30.62100
C  20.89300 0.44100 27.25600
O  21.17800 0.12500 26.08900
C  19.59900 1.09400 27.54000
N  26.41300 -0.66000 27.51500
C  25.46800 -0.45800 26.63100
C  26.00500 -0.69500 25.12300
C  27.44200 -1.12100 25.41400
C  27.59500 -1.11600 26.90500
C  25.13400 -1.69400 24.19600
C  28.52400 -0.26000 24.66200
C  28.56500 1.26800 24.86900
N  28.04100 -0.84500 29.89000
C  28.98100 -1.33500 29.01200
C  30.28600 -1.49500 29.69700
C  30.00400 -1.12700 31.03300
C  28.63900 -0.82900 31.07300
C  31.52300 -1.94700 29.10700
C  30.58200 -0.96400 32.35600
O  31.65400 -1.25400 32.82100
C  29.47000 -0.57600 33.24900
C  29.41200 -1.58100 34.31900
O  28.88000 -2.67300 34.25700
O  30.09800 -1.17100 35.43200
C  30.23600 -2.01800 36.64500
H  22.74200 0.58100 32.41400
H  23.47800 -0.00600 26.04000
H  29.63800 -1.71700 27.06600
H  26.76800 -0.40400 34.80800
H  24.55100 1.34800 34.35000
H  24.64700 -1.05700 35.54100
H  23.70900 -1.48800 34.11200
H  23.13000 -0.22300 35.09600
H  26.42700 2.48200 34.62500
H  27.75900 2.03200 33.62700
H  29.10200 1.70900 35.39000
H  28.07400 0.50900 35.99100
H  20.45200 2.07000 30.42000
H  20.88300 1.07700 31.69400
H  19.86700 0.35800 30.39500
H  19.55200 2.10200 27.95200
H  19.01300 0.45000 28.19600
H  19.05000 1.17500 26.60200
H  25.98900 0.25200 24.58200
H  27.60900 -2.15100 25.09800
H  24.21100 -1.84900 24.75500
H  25.58000 -2.67300 24.02500
H  24.80200 -1.22500 23.26900
H  28.22300 -0.26000 23.61400
H  29.48700 -0.72200 24.88000
H  27.87000 1.63400 25.62500
H  28.15000 1.75400 23.98600
H  29.61200 1.56100 24.94400
H  32.33200 -1.64400 29.77100
H  31.55400 -1.60200 28.07300
H  31.56500 -3.03600 29.14900
H  29.85100 0.40700 33.52500
H  29.64900 -1.53800 37.42700
H  31.25400 -2.08700 37.02900
H  29.95000 -3.05000 36.44400
Mg 35.66500 48.64500 24.73200
C  35.83400 47.12400 27.90500
C  34.47500 51.47900 26.28400
C  35.48300 50.11000 21.71500
C  36.31300 45.61300 23.24300
N  35.04100 49.18700 26.77400
C  35.35600 48.47200 27.92900
C  35.14600 49.29300 29.20100
C  34.52500 50.68400 28.68100
C  34.57900 50.42700 27.15200
C  33.11500 51.04200 29.19000
C  36.48700 49.52200 29.98900
C  36.52500 49.33500 31.45800
H  35.22800 49.12400 32.26100
N  35.06700 50.57600 24.07600
C  34.63400 51.58300 24.89400
C  34.50300 52.81000 24.11800
C  34.65100 52.43600 22.71100
C  35.04300 50.97700 22.76100
C  34.24900 54.15700 24.72600
C  34.52200 53.20800 21.43100
O  34.85600 52.73100 20.31500
C  34.03400 54.62700 21.49000
N  35.82000 47.94800 22.76900
C  35.78900 48.74800 21.68100
C  36.11200 48.06800 20.38500
C  36.62700 46.67000 20.93000
C  36.22700 46.73000 22.41800
C  34.83000 47.90600 19.49000
C  38.11700 46.41500 20.75200
C  39.19500 47.52500 20.88900
N  35.88700 46.70500 25.41100
C  36.22400 45.56600 24.72200
C  36.41300 44.45000 25.62000
C  36.23000 44.98200 26.90700
C  35.97700 46.38500 26.74700
C  36.86000 43.01400 25.31600
C  36.17700 44.69600 28.35600
O  36.25500 43.62500 29.01600
C  35.98500 46.14200 29.08400
C  34.77800 45.97600 30.00500
O  33.65800 46.32000 29.72700
O  35.11400 45.19400 31.05700
C  33.95300 44.59800 31.74300
H  34.22200 52.41200 26.79400
H  35.49300 50.52500 20.70500
H  36.59700 44.68400 22.74400
H  34.33600 48.95500 29.84700
H  35.20900 51.52000 28.82800
H  33.27300 52.01400 29.65800
H  32.72600 50.34600 29.93300
H  32.37700 51.31000 28.43300
H  36.62800 50.59900 29.89900
H  37.31400 48.97100 29.54200
H  37.06500 50.19400 31.85900
H  37.10000 48.41100 31.51400
H  34.53600 54.99800 24.09500
H  34.53400 54.22500 25.77600
H  33.16100 54.11500 24.67500
H  33.61500 54.87500 20.51500
H  34.91400 55.23400 21.70400
H  33.23300 54.59800 22.22900
H  36.79100 48.63500 19.74700
H  36.14300 45.90200 20.32700
H  34.26200 48.83000 19.60000
H  34.26800 47.04000 19.84000
H  35.16700 47.92600 18.45400
H  38.29500 45.99000 19.76400
H  38.49200 45.57000 21.33000
H  39.46300 47.35400 21.93200
H  39.00400 48.57000 20.64400
H  40.15500 47.39100 20.39000
H  37.86200 42.79700 25.68500
H  36.86300 42.76100 24.25500
H  36.13600 42.32300 25.74700
H  36.91900 46.33500 29.61200
H  33.30300 43.94700 31.15700
H  33.32500 45.28600 32.30900
H  34.45200 44.05500 32.54600

