158

Mg 16.75900 52.74500 26.56000
C  18.56400 51.48700 29.27200
C  14.11000 53.31600 28.69800
C  15.01000 53.96000 23.98000
C  19.25800 51.60300 24.44000
N  16.40700 52.52200 28.76800
C  17.30900 52.09100 29.64900
C  16.71200 52.38200 31.10100
C  15.22800 52.66700 30.83200
C  15.25700 52.82100 29.33800
C  14.23000 51.61600 31.41500
C  17.51300 53.57600 31.73100
C  18.27800 53.28900 33.01000
H  17.48500 52.60200 34.14800
N  14.84000 53.50300 26.38200
C  13.91600 53.74600 27.40000
C  12.80000 54.45100 26.86200
C  13.01400 54.69500 25.50800
C  14.33900 54.09400 25.23300
C  11.55400 54.66900 27.69600
C  12.15600 55.31000 24.47200
O  12.49600 55.44700 23.31900
C  10.90800 55.97600 24.92800
N  17.10600 52.74600 24.54900
C  16.20400 53.27500 23.73200
C  16.79600 53.49400 22.35200
C  18.21900 52.78100 22.35200
C  18.20900 52.33100 23.86200
C  15.96300 52.97300 21.14000
C  19.39500 53.62300 21.98200
C  20.50000 53.02700 21.03300
N  18.62100 51.71100 26.73800
C  19.50300 51.28900 25.77500
C  20.63600 50.61600 26.35500
C  20.31200 50.67000 27.77900
C  19.08900 51.29600 27.90700
C  21.79500 49.99400 25.59900
C  20.76300 50.30900 29.08400
O  21.76800 49.70400 29.41400
C  19.70500 50.85500 30.08200
C  19.25000 49.70100 30.94100
O  18.63400 48.69400 30.54500
O  19.59100 49.95900 32.23300
C  19.00400 48.96900 33.18200
H  13.28700 53.55100 29.37600
H  14.41600 54.26900 23.11700
H  20.05600 51.38900 23.72600
H  16.85800 51.43000 31.61100
H  14.96600 53.64800 31.22800
H  14.75300 50.89900 32.04700
H  13.67800 51.05400 30.66200
H  13.53700 52.02900 32.14900
H  16.85800 54.44700 31.74500
H  18.29400 53.84000 31.01800
H  18.47500 54.25200 33.48100
H  19.22700 52.82100 32.74900
H  10.91800 53.78700 27.62700
H  10.96900 55.56600 27.49700
H  11.80700 54.89000 28.73300
H  10.34900 56.35100 24.07100
H  11.24800 56.74800 25.61800
H  10.34300 55.10400 25.26100
H  16.88900 54.55900 22.13700
H  18.28100 51.84700 21.79300
H  16.61200 52.33200 20.54200
H  15.74300 53.84900 20.53000
H  14.98800 52.55100 21.38400
H  19.85400 54.04000 22.87800
H  19.08100 54.52000 21.44800
H  20.53700 53.47800 20.04200
H  20.46200 51.93800 21.03300
H  21.46300 53.17100 21.52300
H  21.72200 48.93300 25.83800
H  22.71000 50.43100 25.99900
H  21.77600 50.16100 24.52300
H  20.14500 51.60600 30.73700
H  17.91500 49.01500 33.15600
H  19.38400 49.03900 34.20200
H  19.34700 47.95300 32.98800
Mg 9.28400 48.52600 26.06200
C  6.97100 48.87200 28.70500
C  11.64000 49.97300 28.16800
C  11.56600 48.61500 23.35800
C  6.75600 47.75000 23.83000
N  9.25500 49.35000 28.18600
C  8.31600 49.11500 29.13100
C  8.77600 49.54800 30.54300
C  10.17200 50.23600 30.31300
C  10.38600 49.82300 28.77000
C  10.11300 51.80100 30.40600
C  8.89800 48.27600 31.40400
C  8.62500 48.53300 32.86600
H  8.82200 47.40200 33.90700
N  11.29500 49.05800 25.90600
C  12.09200 49.69500 26.86300
C  13.38200 49.82400 26.29700
C  13.43500 49.38500 24.94600
C  12.05600 49.00200 24.65700
C  14.58900 50.13700 27.16700
C  14.67000 49.10900 23.94400
O  14.51500 48.60400 22.81500
C  16.00800 49.61900 24.24400
N  9.14900 48.29000 23.94200
C  10.22200 48.33600 23.04200
C  9.83400 47.83100 21.61000
C  8.36300 47.45400 21.82800
C  8.02300 47.81600 23.34500
C  9.99200 48.86300 20.45800
C  8.06800 45.99000 21.48200
C  8.67900 44.91600 22.35600
N  7.29200 48.29000 26.16300
C  6.36100 47.96500 25.15300
C  5.05900 47.81500 25.83000
C  5.30300 48.17200 27.16700
C  6.61900 48.53600 27.35700
C  3.82900 47.46800 25.12500
C  4.65000 48.26100 28.40300
O  3.49100 48.05400 28.74900
C  5.73700 48.88900 29.49700
C  5.69800 48.00000 30.61100
O  5.80200 46.79700 30.65800
O  5.18900 48.75100 31.69900
C  4.72500 47.96500 32.87200
H  12.38600 50.31800 28.88700
H  12.18100 48.66700 22.45600
H  6.03400 47.30500 23.14300
H  8.14200 50.31500 30.98800
H  11.01900 49.80100 30.84200
H  10.80100 52.25200 31.12100
H  9.09400 52.13800 30.59200
H  10.38300 52.26500 29.45700
H  9.90900 47.89000 31.26900
H  8.34500 47.38500 31.10800
H  7.55500 48.72600 32.93400
H  9.24700 49.39300 33.11100
H  15.15200 50.97400 26.75400
H  15.36100 49.36800 27.19100
H  14.33600 50.41000 28.19100
H  16.73500 49.34200 23.48200
H  16.39100 49.22500 25.18500
H  15.76400 50.66700 24.42300
H  10.39200 46.91300 21.42800
H  7.63000 47.86000 21.13200
H  9.02700 49.05200 19.98700
H  10.75300 48.52800 19.75300
H  10.25700 49.82400 20.90000
H  8.34400 45.78900 20.44700
H  6.98600 45.89400 21.57000
H  9.22800 45.23100 23.24300
H  9.37700 44.41400 21.68600
H  7.87200 44.22500 22.59800
H  3.38100 46.69000 25.74200
H  4.06400 47.02900 24.15600
H  3.13400 48.26800 24.86700
H  5.41800 49.90300 29.73600
H  5.57400 47.60100 33.45200
H  4.13400 47.12600 32.50500
H  4.07100 48.63600 33.42900

