158

Mg 8.38900 2.91200 27.95700
C  9.83100 1.66900 30.80100
C  6.27800 4.82500 29.93700
C  6.67000 3.69300 25.12100
C  9.96400 0.22000 26.11400
N  8.10200 3.20700 30.14000
C  8.97500 2.71200 31.08200
C  8.65500 3.36800 32.41400
C  7.33400 4.16300 32.17400
C  7.24200 4.12000 30.63000
C  6.11400 3.58600 32.89000
C  9.97600 4.11700 32.96300
C  10.72600 3.50600 34.24800
H  11.03700 4.48700 35.46200
N  6.71600 4.16600 27.56600
C  6.03200 4.85300 28.51700
C  5.11600 5.79600 27.73900
C  5.29200 5.50400 26.36400
C  6.21500 4.37900 26.29900
C  4.18600 6.82300 28.43300
C  4.74900 6.23500 25.16100
O  4.96100 5.97200 23.96800
C  3.82100 7.37900 25.36100
N  8.35800 2.06700 25.93000
C  7.57900 2.61800 24.94900
C  7.62200 1.90400 23.60000
C  8.78300 0.81400 23.86500
C  9.07300 1.01000 25.39200
C  6.21400 1.25500 23.28600
C  10.09700 0.97000 23.01000
C  10.33200 -0.14600 22.02500
N  9.72600 1.34300 28.27800
C  10.32800 0.38100 27.51300
C  11.23500 -0.40600 28.25200
C  11.07900 0.11700 29.58200
C  10.10600 1.14200 29.49900
C  11.95400 -1.55000 27.84600
C  11.48200 -0.07900 30.95000
O  12.23100 -0.97700 31.36300
C  10.76400 1.01600 31.76500
C  10.02800 0.39400 32.90500
O  8.89600 -0.11500 32.89400
O  10.76200 0.43300 34.07800
C  10.10200 0.03500 35.34900
H  5.70200 5.54200 30.52600
H  6.29200 4.13300 24.19500
H  10.36000 -0.61000 25.52600
H  8.46100 2.57200 33.13200
H  7.50800 5.18600 32.50700
H  6.07100 2.61100 33.37600
H  5.39800 3.58600 32.06800
H  5.80900 4.32600 33.63000
H  9.64300 5.10200 33.29200
H  10.71600 4.16800 32.16500
H  11.53200 2.80500 34.03300
H  10.00300 2.78900 34.63800
H  4.59300 7.82400 28.57300
H  4.12600 6.51000 29.47500
H  3.20700 6.80800 27.95400
H  2.89600 7.03700 25.82500
H  3.60700 7.85100 24.40300
H  4.22100 8.11100 26.06300
H  8.01200 2.66200 22.92000
H  8.41400 -0.19800 23.70000
H  5.75000 1.95700 22.59300
H  5.50000 1.05700 24.08500
H  6.38000 0.33700 22.72300
H  10.99600 1.18300 23.58900
H  10.06600 1.87200 22.39900
H  10.89500 0.17000 21.14700
H  9.34600 -0.49200 21.71600
H  11.03900 -0.89300 22.38700
H  12.21200 -1.51300 26.78800
H  11.49400 -2.47300 28.19800
H  12.93900 -1.65000 28.30300
H  11.42100 1.76200 32.21300
H  9.83600 -1.01700 35.25100
H  9.14700 0.54400 35.47800
H  10.70400 0.19000 36.24500
Mg 42.15300 41.71500 26.48100
C  41.06200 43.95800 28.89100
C  43.38100 39.70000 28.90600
C  43.05400 39.72500 23.96600
C  41.58300 44.27100 23.96300
N  42.15100 41.85500 28.60400
C  41.50600 42.75800 29.41500
C  41.62700 42.41200 30.95600
C  42.46600 41.07900 30.88700
C  42.66500 40.83200 29.37200
C  43.72800 41.03100 31.75100
C  40.31100 42.33200 31.67800
C  40.26800 43.04900 33.06100
H  39.58400 42.25100 34.17700
N  43.14600 39.94800 26.44400
C  43.56900 39.29700 27.56600
C  44.15100 38.02000 27.20300
C  43.91200 37.88300 25.75100
C  43.35200 39.21600 25.30200
C  44.83200 37.00600 28.16500
C  44.17700 36.75500 24.81700
O  43.80200 36.69200 23.63900
C  44.78000 35.45200 25.37400
N  42.44400 42.09400 24.28000
C  42.80600 40.99600 23.51500
C  42.65700 41.24900 22.01000
C  42.43200 42.80200 21.97300
C  42.15900 43.13300 23.48400
C  43.87800 40.78900 21.13200
C  41.37900 43.40100 20.99300
C  42.07400 44.32400 19.95500
N  41.40900 43.63200 26.37900
C  41.25300 44.56000 25.34000
C  40.77700 45.80900 25.89500
C  40.59900 45.55200 27.32200
C  41.01800 44.28000 27.56700
C  40.57600 47.15500 25.21100
C  40.24800 46.23700 28.54800
O  39.94300 47.38800 28.75900
C  40.42500 45.09800 29.67100
C  41.42700 45.61800 30.73100
O  42.63000 45.70200 30.57100
O  40.83500 46.07600 31.88800
C  41.51000 46.80000 32.94200
H  43.83500 38.98400 29.59500
H  43.19100 38.98100 23.17800
H  41.35100 45.03800 23.22200
H  42.20200 43.14400 31.52300
H  41.88100 40.21700 31.20900
H  43.58900 41.76300 32.54700
H  44.71100 41.33200 31.38900
H  43.80500 40.04500 32.20800
H  39.96700 41.30500 31.80200
H  39.55300 42.68300 30.97800
H  39.73500 44.00000 33.05600
H  41.26700 43.21600 33.46300
H  44.11100 36.21700 28.37900
H  45.26700 37.51800 29.02300
H  45.70400 36.59200 27.65800
H  44.26100 35.29400 26.32000
H  45.85500 35.49000 25.55200
H  44.49900 34.59600 24.76100
H  41.77300 40.70500 21.67600
H  43.42400 43.16600 21.70500
H  44.57800 40.24300 21.76400
H  44.39500 41.61900 20.65100
H  43.52700 40.12300 20.34300
H  40.64300 44.02900 21.49500
H  40.73800 42.66400 20.51100
H  42.17200 43.73000 19.04600
H  43.11600 44.50200 20.22100
H  41.54400 45.25300 19.74600
H  40.99300 47.10800 24.20500
H  40.89600 47.97100 25.85800
H  39.51600 47.18200 24.95800
H  39.46800 44.95100 30.17200
H  41.37700 46.30900 33.90600
H  41.06900 47.79700 32.98300
H  42.54300 47.14100 32.87500

