158

Mg 17.09100 -0.63300 27.67000
C  15.84400 1.23200 30.26700
C  19.07200 -2.39700 29.86800
C  18.70100 -2.09000 24.89500
C  15.43100 1.53300 25.34200
N  17.43100 -0.46600 29.78800
C  16.81700 0.27400 30.68900
C  17.18000 -0.19000 32.13600
C  18.29400 -1.23900 31.88500
C  18.21700 -1.42300 30.39500
C  19.71300 -0.84400 32.46100
C  15.95000 -0.59100 32.95300
C  15.73900 0.17500 34.32600
H  16.92000 0.78000 35.14800
N  18.59300 -2.09200 27.43300
C  19.24800 -2.68800 28.52300
C  20.15000 -3.71900 27.97000
C  20.05000 -3.66800 26.53300
C  19.06500 -2.60800 26.19400
C  20.88500 -4.69500 28.78400
C  20.58000 -4.64100 25.55500
O  20.18100 -4.69700 24.40000
C  21.74300 -5.69800 25.93800
N  17.02500 -0.38500 25.44700
C  17.85200 -1.06200 24.57700
C  17.71800 -0.57600 23.15300
C  16.69000 0.57900 23.23500
C  16.28400 0.57500 24.75600
C  19.13700 -0.14100 22.55100
C  15.47200 0.42400 22.21800
C  15.05500 1.79500 21.52200
N  15.88100 1.01900 27.64900
C  15.27700 1.76400 26.70900
C  14.52500 2.86100 27.34200
C  14.73900 2.70000 28.75700
C  15.57500 1.54100 28.88300
C  13.77600 3.85500 26.61600
C  14.42300 3.20700 30.09100
O  13.83200 4.20700 30.49900
C  15.13200 2.28900 31.12700
C  16.02500 3.04500 32.07300
O  17.20400 3.38200 31.88900
O  15.26800 3.45900 33.17300
C  15.75000 4.55200 34.03500
H  19.56000 -2.96000 30.66700
H  19.23800 -2.52800 24.05100
H  15.02500 2.22900 24.60500
H  17.62700 0.68200 32.61300
H  17.96400 -2.22200 32.22200
H  20.51100 -0.76600 31.72200
H  19.96700 -1.71700 33.06200
H  19.69500 0.10100 33.00400
H  15.82600 -1.66300 33.10700
H  15.16600 -0.28300 32.26100
H  15.31700 -0.66200 34.88300
H  14.96000 0.87500 34.02500
H  20.26400 -5.57300 28.96600
H  20.98600 -4.17000 29.73300
H  21.93400 -4.84700 28.52700
H  21.21000 -6.40700 26.57100
H  22.48500 -5.40200 26.67900
H  22.23900 -6.17900 25.09400
H  17.41600 -1.43600 22.55500
H  17.22600 1.50700 23.03800
H  19.94000 -0.11400 23.28800
H  19.10400 0.82400 22.04600
H  19.44900 -0.80900 21.74800
H  14.59000 0.01400 22.70900
H  15.80800 -0.18800 21.38100
H  15.71600 2.64700 21.68200
H  14.07200 2.07300 21.90200
H  14.88600 1.73100 20.44800
H  12.87500 3.43700 26.16600
H  14.36900 4.35700 25.85300
H  13.48300 4.63700 27.31700
H  14.37000 1.82700 31.75500
H  16.30800 4.20500 34.90400
H  14.82900 5.10300 34.22800
H  16.36700 5.14000 33.35400
Mg -2.82900 34.81500 28.04100
C  -4.54700 32.80200 30.08900
C  -1.75700 36.55400 30.65400
C  -1.28600 36.86300 25.79700
C  -4.26100 33.19600 25.22600
N  -3.19200 34.70000 30.11500
C  -3.85400 33.73400 30.79500
C  -3.80100 33.84300 32.34100
C  -3.11700 35.24400 32.47800
C  -2.66000 35.56200 30.99700
C  -4.10500 36.32100 32.98500
C  -3.00800 32.61700 32.87000
C  -3.61000 32.12600 34.15600
H  -4.18500 33.21700 35.14800
N  -1.72800 36.48200 28.19500
C  -1.33300 37.01200 29.39900
C  -0.40600 38.17400 29.13400
C  -0.35100 38.31000 27.72700
C  -1.15200 37.22300 27.17200
C  0.18400 39.04100 30.26600
C  0.27900 39.45000 26.96200
O  0.00400 39.68100 25.79300
C  1.19300 40.39800 27.66500
N  -2.78900 34.99900 25.73100
C  -1.97100 35.85700 25.11000
C  -1.74100 35.52400 23.56600
C  -2.66400 34.24800 23.49000
C  -3.30700 34.11200 24.89200
C  -2.26600 36.52000 22.53700
C  -1.95100 32.89200 22.95700
C  -2.78800 32.08300 21.84800
N  -4.19200 33.30700 27.66800
C  -4.69900 32.76200 26.50500
C  -5.60900 31.71300 26.87800
C  -5.45200 31.54800 28.23700
C  -4.64000 32.60600 28.70500
C  -6.34500 30.67600 25.99700
C  -5.85000 30.79300 29.41600
O  -6.59100 29.81400 29.48800
C  -5.28700 31.58100 30.66800
C  -6.51200 32.00100 31.51500
O  -7.19800 33.00400 31.30000
O  -6.67800 31.03600 32.46900
C  -7.74100 31.29400 33.35800
H  -1.43100 36.95900 31.61400
H  -0.72600 37.56800 25.18000
H  -4.48400 32.44600 24.46400
H  -4.80500 33.81800 32.76500
H  -2.17300 35.05200 32.98900
H  -5.09800 35.88100 33.07700
H  -4.23400 37.17000 32.31400
H  -3.72600 36.62900 33.96000
H  -1.96100 32.83500 33.08200
H  -2.99400 31.73700 32.22800
H  -2.80400 31.58500 34.65200
H  -4.35400 31.37100 33.90400
H  1.27100 39.05900 30.18100
H  -0.11200 38.69200 31.25600
H  -0.26400 40.03300 30.31700
H  0.63200 41.09300 28.29000
H  1.72800 40.89200 26.85500
H  1.87500 39.83900 28.30600
H  -0.71700 35.20400 23.37600
H  -3.57000 34.42700 22.91100
H  -1.79500 37.49900 22.62400
H  -3.32700 36.65400 22.74700
H  -2.06000 36.06500 21.56700
H  -1.72600 32.28900 23.83700
H  -0.92800 32.95100 22.58500
H  -3.18700 31.28200 22.46900
H  -2.04800 31.62400 21.19200
H  -3.40400 32.69300 21.18700
H  -6.61100 31.13900 25.04700
H  -7.25000 30.32600 26.49300
H  -5.68900 29.82700 25.80200
H  -4.67800 30.83000 31.17400
H  -7.54100 32.26800 33.80400
H  -7.66300 30.51600 34.11700
H  -8.62600 31.19900 32.72800

