158

Mg 8.63700 2.87400 27.70600
C  9.98900 1.26300 30.52000
C  6.56400 4.73300 29.64800
C  7.35200 4.31700 24.93700
C  10.50900 0.67800 25.76900
N  8.33000 2.97200 29.79300
C  8.99100 2.20400 30.73200
C  8.64600 2.75300 32.16000
C  7.53300 3.77300 31.85800
C  7.36700 3.75300 30.31500
C  6.30200 3.67900 32.70800
C  9.85700 3.40700 32.88600
C  9.48100 4.27500 34.08300
H  10.28800 4.03700 35.39700
N  7.12500 4.40200 27.31900
C  6.47000 5.11400 28.30300
C  5.80100 6.20100 27.62100
C  6.07600 6.13400 26.21500
C  6.96400 4.93100 26.13400
C  5.03500 7.28300 28.43500
C  5.48500 6.90900 25.03400
O  5.64100 6.55300 23.91000
C  4.50100 7.98700 25.33700
N  8.74500 2.49100 25.65400
C  8.18000 3.20600 24.69100
C  8.56900 2.79000 23.25700
C  9.59500 1.68200 23.54300
C  9.69800 1.62600 25.10700
C  7.34000 2.51000 22.38500
C  11.01800 1.80300 22.93600
C  11.61400 0.48700 22.28000
N  9.92700 1.20900 28.00300
C  10.65200 0.43600 27.15700
C  11.49700 -0.50200 27.81900
C  11.16600 -0.26900 29.21400
C  10.31300 0.79400 29.23200
C  12.43700 -1.53100 27.15700
C  11.46700 -0.61500 30.55400
O  12.13400 -1.53000 31.02200
C  10.73200 0.41000 31.46500
C  9.91800 -0.29600 32.56400
O  9.02400 -1.09800 32.27300
O  10.22500 0.17600 33.79900
C  9.44400 -0.45200 34.90400
H  5.88800 5.38200 30.20900
H  7.22500 4.71200 23.92700
H  11.13200 0.18200 25.02200
H  8.40700 1.92300 32.82600
H  7.81800 4.81000 32.03400
H  5.99000 4.67100 33.03700
H  6.52500 3.03300 33.55700
H  5.47500 3.30300 32.10500
H  10.42500 3.99800 32.16800
H  10.56800 2.62100 33.14300
H  8.41000 4.34500 34.27200
H  9.78900 5.27900 33.79100
H  5.41900 8.29600 28.31400
H  5.16200 7.12700 29.50600
H  3.97200 7.28800 28.19500
H  5.00500 8.70300 25.98700
H  3.70900 7.50000 25.90500
H  4.10800 8.56700 24.50200
H  9.00300 3.65400 22.75300
H  9.20800 0.76500 23.09700
H  6.40900 2.72000 22.91200
H  7.44700 1.49500 22.00200
H  7.50800 3.16300 21.52900
H  11.63800 2.10100 23.78200
H  11.01800 2.62000 22.21300
H  12.18900 0.67900 21.37400
H  10.78700 -0.17300 22.01900
H  12.25700 0.04900 23.04300
H  12.00600 -2.52900 27.24200
H  13.48000 -1.59800 27.46500
H  12.46700 -1.31600 26.08900
H  11.51300 0.90900 32.03900
H  10.24800 -0.58000 35.62900
H  9.03500 -1.45500 34.77400
H  8.65400 0.05600 35.45700
Mg 25.81100 0.23800 29.19200
C  27.59700 0.12300 32.24200
C  22.81900 0.24700 30.85900
C  24.22800 0.37500 26.23500
C  28.81500 -0.61800 27.58900
N  25.29700 0.20500 31.33700
C  26.22500 0.34700 32.39900
C  25.42900 0.51200 33.74800
C  23.97700 0.53500 33.22100
C  24.00500 0.33600 31.62100
C  23.02200 -0.51200 33.93100
C  25.92800 1.83100 34.46400
C  26.70200 1.68400 35.77900
H  26.12500 2.72300 36.74300
N  23.79000 0.20200 28.65300
C  22.68400 0.10700 29.46800
C  21.48600 0.19600 28.72400
C  21.87100 0.42100 27.34900
C  23.37000 0.29700 27.38000
C  20.05600 0.07700 29.34200
C  20.99400 0.73800 26.10100
O  21.50100 0.94400 24.99900
C  19.52500 0.76400 26.22500
N  26.46400 -0.10900 27.14800
C  25.65700 0.15500 26.14700
C  26.43700 0.24700 24.77600
C  27.87300 -0.01800 25.24600
C  27.74200 -0.27600 26.74800
C  25.93200 -0.74400 23.66800
C  28.94100 1.08300 24.90400
C  29.97200 0.58900 23.85600
N  27.75300 -0.19100 29.74800
C  28.86100 -0.55100 29.00800
C  30.08800 -0.74800 29.87700
C  29.62300 -0.46300 31.18300
C  28.23500 -0.15700 31.01300
C  31.32500 -1.31700 29.37900
C  30.03700 -0.34800 32.57500
O  31.11400 -0.46900 33.12900
C  28.69400 0.17400 33.34600
C  28.50900 -0.88500 34.38900
O  27.93900 -1.96500 34.21300
O  28.97600 -0.45600 35.59500
C  28.51700 -1.14500 36.82500
H  21.90400 0.43800 31.42300
H  23.73300 0.48900 25.26800
H  29.77200 -0.83100 27.10800
H  25.48000 -0.35600 34.40600
H  23.43000 1.47700 33.24700
H  22.73000 -1.32700 33.27000
H  22.12900 -0.04900 34.35100
H  23.28100 -1.07200 34.82900
H  24.99000 2.36400 34.61600
H  26.59800 2.29300 33.73900
H  27.70500 2.03400 35.53900
H  26.60300 0.64100 36.08000
H  20.04100 -0.01100 30.42800
H  19.37700 -0.58600 28.80300
H  19.52300 0.99500 29.09400
H  19.18800 0.65500 25.19500
H  19.23700 1.72400 26.65500
H  19.00400 -0.03700 26.75000
H  26.25000 1.22000 24.32200
H  28.29500 -0.95600 24.88400
H  25.25900 -1.35800 24.26500
H  26.71000 -1.37200 23.23400
H  25.40600 -0.17800 22.90000
H  29.55400 1.38700 25.75200
H  28.35700 1.90100 24.48300
H  29.81000 1.30400 23.05000
H  29.76200 -0.37000 23.38100
H  31.01500 0.60100 24.17200
H  31.69900 -0.66700 28.58800
H  31.09500 -2.32400 29.03200
H  32.04100 -1.28800 30.19900
H  28.87300 1.15200 33.79400
H  28.14300 -0.42200 37.54900
H  29.31300 -1.53600 37.45900
H  27.79700 -1.95700 36.72000

