158

Mg 42.76700 42.15300 25.99100
C  42.17200 44.49900 28.42900
C  43.95700 39.96500 28.44000
C  43.90200 40.08500 23.47900
C  41.95800 44.47700 23.61800
N  42.97600 42.19700 28.21800
C  42.59700 43.25700 29.00900
C  42.74600 42.98200 30.51300
C  43.37600 41.55900 30.48400
C  43.50700 41.24300 28.95500
C  44.65600 41.30700 31.32500
C  41.38800 43.06500 31.32500
C  41.38600 43.82300 32.64400
H  42.31900 43.41300 33.81400
N  43.70500 40.21800 25.96800
C  44.08100 39.45500 27.11900
C  44.64100 38.15600 26.66500
C  44.57400 38.18200 25.18300
C  44.07700 39.53400 24.83300
C  45.13100 37.09600 27.67200
C  44.87500 37.10400 24.23800
O  44.94000 37.18000 22.99200
C  45.14600 35.73100 24.80000
N  43.11200 42.37000 23.80900
C  43.43700 41.32600 23.00500
C  43.27200 41.76100 21.53800
C  42.30000 43.00000 21.64400
C  42.41100 43.29500 23.11200
C  44.54700 42.02400 20.61200
C  40.92700 42.75200 21.08400
C  39.97500 41.86600 21.96400
N  42.15000 44.12300 25.99400
C  41.87200 44.95200 24.98200
C  41.60300 46.30200 25.41700
C  41.72200 46.17000 26.82300
C  42.05400 44.80200 27.08900
C  41.19000 47.46600 24.53200
C  41.59900 46.88700 28.06900
O  41.40900 48.02300 28.35500
C  41.78200 45.79600 29.14100
C  42.70000 46.37300 30.15400
O  43.91500 46.44000 30.02700
O  41.97900 46.94500 31.18700
C  42.66000 47.62400 32.26200
H  44.13500 39.28700 29.27700
H  44.13400 39.37000 22.68800
H  41.56800 45.20800 22.90600
H  43.41100 43.73100 30.94300
H  42.68700 40.79200 30.83900
H  44.81200 42.05900 32.09800
H  45.60800 41.18800 30.80700
H  44.44500 40.35600 31.81400
H  40.99700 42.07000 31.53900
H  40.68700 43.53700 30.63700
H  40.36200 43.94500 33.00000
H  41.71900 44.84700 32.47400
H  44.68500 36.11700 27.50000
H  45.02900 37.35800 28.72500
H  46.20100 37.00500 27.48400
H  44.25700 35.48400 25.38200
H  46.02900 36.01800 25.37100
H  45.40200 34.97600 24.05700
H  42.75100 40.90000 21.12100
H  42.71500 43.80500 21.03800
H  45.40900 42.06100 21.27800
H  44.43800 42.95100 20.04900
H  44.62300 41.16000 19.95200
H  41.01800 42.38100 20.06300
H  40.42000 43.71700 21.06800
H  39.34500 41.19900 21.37500
H  39.40200 42.51800 22.62300
H  40.57400 41.23800 22.62400
H  40.56900 48.10700 25.15800
H  40.64900 47.12800 23.64800
H  42.05700 48.01500 24.16400
H  40.86000 45.63000 29.69800
H  42.98400 46.80100 32.89800
H  41.91300 48.19100 32.81900
H  43.42400 48.34100 31.96000
Mg 9.93200 46.68500 26.29200
C  7.64400 47.12100 28.97000
C  12.32400 48.17300 28.31500
C  11.85600 46.80000 23.58100
C  7.19600 46.02300 24.27600
N  10.07200 47.26100 28.41100
C  9.01200 47.29900 29.34400
C  9.47200 47.67600 30.81300
C  10.77800 48.39100 30.41800
C  11.13300 47.82300 29.01200
C  10.58400 49.96200 30.43200
C  9.62400 46.34300 31.65300
C  9.33500 46.42300 33.13700
H  10.06900 45.39100 34.02400
N  11.89600 47.22700 25.97400
C  12.69800 47.85000 26.96000
C  14.01400 47.92500 26.43800
C  13.94600 47.55100 25.06200
C  12.56900 47.21900 24.80000
C  15.20000 48.41500 27.24200
C  15.09800 47.45300 24.02100
O  14.77000 47.12200 22.89500
C  16.47300 47.66900 24.32400
N  9.56700 46.54100 24.17400
C  10.59300 46.49500 23.28400
C  10.05200 46.25000 21.80300
C  8.58500 45.85100 22.10200
C  8.45600 46.01600 23.62600
C  10.32000 47.47200 20.92400
C  7.97900 44.51100 21.51200
C  7.43700 44.60300 20.07100
N  7.84700 46.76000 26.50500
C  6.86600 46.41100 25.62300
C  5.55900 46.44900 26.23100
C  5.79700 46.68900 27.61000
C  7.19400 46.90700 27.68600
C  4.20400 46.22900 25.52600
C  5.17100 46.88200 28.87500
O  3.97900 46.81900 29.21200
C  6.29500 47.34400 29.77300
C  6.10400 46.52700 31.04500
O  6.47900 45.35900 31.15900
O  5.43700 47.21400 32.01900
C  5.17400 46.35400 33.16400
H  13.05300 48.71100 28.92400
H  12.42300 46.94700 22.65900
H  6.32700 45.66300 23.72100
H  8.74800 48.35200 31.26900
H  11.58700 48.15100 31.10800
H  10.40200 50.32100 29.41900
H  11.47700 50.42400 30.85200
H  9.79600 50.28000 31.11500
H  10.64400 45.96700 31.57200
H  8.91400 45.66100 31.18600
H  8.27700 46.19200 33.26100
H  9.48500 47.45200 33.46300
H  15.03400 48.42200 28.32000
H  15.72200 49.28300 26.84100
H  15.94900 47.62300 27.24600
H  16.89600 46.86700 24.92900
H  16.69000 48.47500 25.02400
H  16.95000 47.84800 23.36000
H  10.55300 45.43300 21.28500
H  7.86600 46.56700 21.70400
H  10.99900 48.17100 21.41300
H  9.38800 47.96100 20.64200
H  10.71900 47.12900 19.96900
H  7.11800 44.21900 22.11300
H  8.78200 43.78300 21.63400
H  8.15100 44.11000 19.41100
H  7.36400 45.57600 19.58500
H  6.42400 44.22300 19.93900
H  3.84000 45.25200 25.84200
H  4.25200 46.31000 24.44000
H  3.42600 46.91900 25.85200
H  6.22600 48.39100 30.06700
H  4.29400 46.82700 33.59900
H  6.07800 46.24700 33.76500
H  4.82100 45.33100 33.03300

