158

Mg 1.58500 7.94900 27.58800
C  2.10800 10.02100 30.32900
C  2.01600 5.24200 29.91500
C  1.25300 5.84400 25.07200
C  1.62700 10.58700 25.41900
N  1.94700 7.68700 29.83000
C  1.88000 8.76100 30.70900
C  1.67500 8.25000 32.11900
C  2.19600 6.77900 32.01600
C  1.96400 6.50800 30.48900
C  3.47500 6.19900 32.63000
C  0.26800 8.36300 32.54100
C  -0.12100 8.43100 34.11400
H  1.14400 8.20500 35.09200
N  1.49000 5.83800 27.50000
C  1.77200 4.89500 28.53300
C  1.73800 3.57400 27.87900
C  1.37900 3.67800 26.50500
C  1.33200 5.14200 26.28500
C  2.00000 2.26000 28.61000
C  1.23700 2.57900 25.43900
O  0.95800 2.90100 24.26600
C  1.32500 1.05100 25.75400
N  1.37100 8.17400 25.62400
C  1.29600 7.20200 24.72900
C  1.01400 7.64100 23.29200
C  0.86800 9.21100 23.54400
C  1.24800 9.35200 24.93700
C  2.21400 7.46900 22.27300
C  -0.45600 9.86300 23.00600
C  -0.44400 11.13900 22.24000
N  1.96300 9.93300 27.77000
C  1.96200 10.90000 26.76500
C  2.14600 12.16000 27.39100
C  2.24200 11.90100 28.75900
C  2.05200 10.54000 28.92800
C  2.12800 13.54500 26.68000
C  2.48700 12.48000 30.10600
O  2.78100 13.60300 30.46600
C  2.33600 11.34300 31.16000
C  3.54300 11.26300 32.02200
O  4.65700 11.13700 31.54800
O  3.35500 11.48900 33.42300
C  4.57200 11.68500 34.21400
H  1.94600 4.44700 30.66000
H  1.12500 5.24000 24.17100
H  1.46400 11.45800 24.78000
H  2.31500 8.79800 32.81100
H  1.51400 6.08500 32.50800
H  4.03100 6.98800 33.13500
H  4.20700 5.90000 31.87900
H  3.33700 5.27200 33.18800
H  -0.34200 7.57300 32.10200
H  -0.16300 9.20800 32.00400
H  -0.88500 7.65900 34.20300
H  -0.66400 9.36100 34.27800
H  1.18700 1.61900 28.27000
H  1.90300 2.31200 29.69400
H  2.89600 1.74400 28.26600
H  1.38000 0.43300 24.85900
H  0.43800 0.70500 26.28600
H  2.16900 0.81900 26.40300
H  0.11400 7.13700 22.94000
H  1.59900 9.78900 22.97700
H  1.82100 7.04800 21.34700
H  2.86500 6.72100 22.72600
H  2.81600 8.37000 22.15300
H  -1.10700 10.17000 23.82500
H  -1.05600 9.12900 22.46800
H  -0.83400 10.80300 21.27900
H  0.57400 11.41900 21.97000
H  -1.01700 11.99700 22.59200
H  3.02300 13.82900 26.12800
H  1.88200 14.26500 27.46100
H  1.22100 13.41000 26.09000
H  1.52300 11.56500 31.85200
H  4.53300 12.51700 34.91800
H  5.40800 12.02700 33.60500
H  4.77400 10.73500 34.70800
Mg 16.87800 53.14400 26.62700
C  18.88500 51.55100 29.05000
C  14.84400 54.15100 29.13700
C  14.75000 54.28600 24.27500
C  18.96500 51.93500 24.17200
N  16.92100 52.73200 28.82400
C  17.84700 52.29500 29.62100
C  17.57600 52.47100 31.08400
C  16.15200 53.08600 31.03900
C  15.90100 53.34500 29.53400
C  15.02200 52.32100 31.73500
C  18.62900 53.36800 31.74300
C  18.59600 53.57000 33.25500
H  17.75000 52.66100 33.98700
N  15.06400 54.11500 26.66900
C  14.45300 54.56400 27.85200
C  13.35400 55.41300 27.47300
C  13.31800 55.49500 26.02000
C  14.48500 54.67400 25.63100
C  12.58600 56.10400 28.47900
C  12.43900 56.28700 25.04500
O  12.52800 56.29000 23.77100
C  11.55700 57.37900 25.68400
N  16.76200 53.00300 24.55200
C  15.80300 53.44700 23.76800
C  16.05500 53.29400 22.25700
C  17.54600 52.73200 22.21800
C  17.80500 52.64700 23.76500
C  15.02500 52.37400 21.52900
C  18.60900 53.52800 21.50800
C  18.69600 55.03700 21.81300
N  18.60000 51.92000 26.55800
C  19.33400 51.43900 25.50600
C  20.42700 50.62500 25.96000
C  20.30600 50.58700 27.37700
C  19.16200 51.36900 27.66600
C  21.39000 49.82800 25.13900
C  20.82600 50.02400 28.56600
O  21.71900 49.18600 28.75900
C  19.97600 50.63500 29.78900
C  19.44300 49.41800 30.59000
O  18.67400 48.58800 30.12900
O  19.90900 49.34900 31.89200
C  19.21800 48.40000 32.73900
H  14.29900 54.62100 29.95800
H  13.98000 54.53600 23.54300
H  19.52400 51.60800 23.29300
H  17.44600 51.52200 31.60300
H  16.20200 53.99300 31.64100
H  15.28800 51.43800 32.31600
H  14.25200 51.97000 31.04800
H  14.65400 52.92900 32.56100
H  18.55400 54.31400 31.20700
H  19.61800 53.09300 31.37700
H  18.34300 54.61000 33.46200
H  19.58600 53.47200 33.70100
H  12.82800 56.00500 29.53700
H  11.54600 55.83900 28.28600
H  12.72600 57.17200 28.31100
H  11.19000 57.99400 24.86300
H  12.10300 57.92200 26.45500
H  10.67700 56.93400 26.14800
H  16.01200 54.23400 21.70600
H  17.56400 51.68600 21.91200
H  14.85800 52.58400 20.47200
H  14.12200 52.24700 22.12600
H  15.39300 51.34800 21.55500
H  18.54300 53.44900 20.42300
H  19.63800 53.17400 21.56600
H  18.14700 55.59800 21.05700
H  19.73000 55.30800 22.02900
H  18.16400 55.16500 22.75500
H  21.62200 48.88600 25.63500
H  22.32600 50.34800 24.93500
H  20.93200 49.61800 24.17200
H  20.66200 51.21700 30.40400
H  19.71800 48.46800 33.70400
H  19.25200 47.37100 32.38200
H  18.20900 48.74900 32.95800

