158

Mg 16.83000 52.29200 26.56100
C  18.74400 50.95300 29.00800
C  14.40200 53.20200 28.83100
C  14.90900 53.54700 24.10800
C  19.24700 51.36100 24.13700
N  16.58700 52.04800 28.68300
C  17.54900 51.53800 29.49900
C  17.09500 51.72200 30.94100
C  15.63800 52.28600 30.83000
C  15.54400 52.55800 29.35200
C  14.46800 51.37700 31.37700
C  18.04900 52.73600 31.62000
C  17.90900 52.94400 33.16800
H  17.05300 51.98900 33.91100
N  14.88400 53.18600 26.46400
C  14.07200 53.51700 27.46400
C  12.94800 54.24500 27.00500
C  13.05000 54.40200 25.58200
C  14.31300 53.65900 25.31900
C  11.80100 54.59000 27.98100
C  12.13800 54.94300 24.60700
O  12.29500 54.87100 23.39200
C  10.84900 55.60500 25.10400
N  17.00200 52.22300 24.35300
C  16.06200 52.85800 23.62800
C  16.54800 52.95800 22.16800
C  18.05600 52.44800 22.24100
C  18.06200 51.88300 23.64500
C  15.66700 52.20300 21.15300
C  19.12900 53.46500 21.94100
C  20.00800 53.22300 20.76100
N  18.64300 51.27800 26.49800
C  19.48000 50.95600 25.49500
C  20.64400 50.29700 26.02600
C  20.43800 50.25200 27.42700
C  19.19900 50.92400 27.65000
C  21.82200 49.72700 25.29700
C  20.98700 49.78600 28.68500
O  21.93700 48.99300 28.97200
C  19.89400 50.31600 29.78100
C  19.54600 49.25500 30.77700
O  18.76600 48.36600 30.63200
O  20.33400 49.42500 31.94200
C  19.91500 48.54000 33.00400
H  13.64300 53.49800 29.55900
H  14.47500 53.98500 23.20600
H  20.06100 51.18300 23.43100
H  17.08700 50.73700 31.40900
H  15.47000 53.17700 31.43600
H  14.73300 50.73400 32.21600
H  13.94400 50.76100 30.64600
H  13.68300 51.96200 31.85700
H  17.85000 53.67700 31.10700
H  19.09900 52.60700 31.35600
H  17.45300 53.93400 33.17300
H  18.90900 53.14700 33.55100
H  10.86200 54.17300 27.61700
H  11.71600 55.63900 28.26400
H  11.84900 54.09700 28.95200
H  9.99900 55.46800 24.43600
H  11.13500 56.65700 25.10800
H  10.42400 55.26300 26.04700
H  16.47200 53.99400 21.83700
H  18.18800 51.56600 21.61400
H  16.04500 51.22200 20.86400
H  15.43400 52.81200 20.27900
H  14.72800 51.99300 21.66600
H  19.65300 53.65000 22.87900
H  18.61100 54.40600 21.76000
H  19.62400 53.79900 19.91900
H  20.03700 52.16000 20.52100
H  21.06800 53.45500 20.86400
H  22.59300 49.64300 26.06300
H  22.08000 50.48600 24.55900
H  21.62900 48.75600 24.84200
H  20.42100 51.12300 30.29000
H  20.39100 48.80500 33.94800
H  20.15900 47.50300 32.77300
H  18.83600 48.53000 33.15600
Mg 9.74200 48.57400 26.26900
C  7.50700 48.43200 29.04900
C  12.24100 49.43200 28.41700
C  11.72700 48.56000 23.64300
C  6.92600 47.76700 24.21800
N  9.75100 49.13300 28.45600
C  8.81200 48.81600 29.37500
C  9.38600 48.94400 30.79300
C  10.72100 49.73100 30.55900
C  10.92200 49.44300 29.01700
C  10.60800 51.26700 30.82700
C  9.47700 47.53800 31.59800
C  10.63700 47.29300 32.59400
H  10.35000 46.36500 33.76700
N  11.74100 49.02200 26.06200
C  12.60500 49.33200 27.02900
C  13.86400 49.29200 26.53800
C  13.80500 48.99200 25.11900
C  12.43900 48.90600 24.85000
C  15.14700 49.61000 27.29800
C  14.94900 48.81500 23.94300
O  14.71500 48.58300 22.78200
C  16.30400 48.58400 24.54000
N  9.29500 48.40600 24.18500
C  10.36000 48.33300 23.28800
C  9.83100 48.04400 21.89600
C  8.37500 47.66000 22.15300
C  8.13300 48.04700 23.56900
C  10.14900 49.22200 20.89900
C  8.16800 46.15400 21.96500
C  6.93400 45.78900 21.04600
N  7.58000 48.24900 26.49400
C  6.59100 47.89900 25.59000
C  5.37600 47.60000 26.29000
C  5.63200 47.75300 27.63800
C  7.02100 48.20700 27.68300
C  4.05500 47.16000 25.64700
C  5.11100 47.81700 28.97900
O  3.95900 47.65100 29.37200
C  6.27400 48.09400 29.92600
C  6.42900 46.81100 30.74100
O  6.85800 45.74100 30.24700
O  5.91000 46.94500 31.98100
C  6.08400 45.87500 32.92900
H  13.05900 49.65000 29.10700
H  12.28300 48.45000 22.71000
H  6.06300 47.48500 23.61000
H  8.56500 49.52100 31.21900
H  11.64400 49.33500 30.98300
H  11.05400 51.86000 30.02800
H  11.12500 51.57200 31.73700
H  9.58200 51.46300 31.13600
H  9.20100 46.75700 30.88900
H  8.63400 47.68200 32.27300
H  10.94300 48.22800 33.06300
H  11.53900 46.99700 32.05800
H  15.04200 49.97600 28.32000
H  15.75000 50.35000 26.77200
H  15.68700 48.66600 27.36900
H  16.64700 49.54200 24.93200
H  17.04200 48.36600 23.76800
H  16.27800 47.78200 25.27700
H  10.41500 47.21300 21.50000
H  7.61600 48.12200 21.52100
H  10.68400 48.81800 20.03900
H  10.70100 49.94400 21.50000
H  9.26600 49.63500 20.41000
H  8.01400 45.59000 22.88500
H  9.08200 45.73000 21.54800
H  7.18900 45.65300 19.99500
H  6.10300 46.49200 21.10600
H  6.53900 44.81800 21.34400
H  4.27300 46.55000 24.77000
H  3.47700 48.03100 25.33900
H  3.39000 46.60000 26.30500
H  6.07300 48.99800 30.50100
H  5.05800 45.57900 33.14600
H  6.60500 46.24200 33.81300
H  6.55200 44.96300 32.55900

