158

Mg 48.58800 15.58700 28.79800
C  46.66500 15.34800 31.63600
C  50.96300 17.47800 30.55500
C  50.40100 15.87700 26.00100
C  46.06300 14.03700 27.03700
N  48.75600 16.28600 30.92900
C  47.84400 16.08900 31.90300
C  48.47900 16.37400 33.22600
C  49.64500 17.36800 32.87100
C  49.86400 17.00800 31.40100
C  49.49100 18.94800 33.05200
C  48.91400 15.13000 34.05500
C  48.52800 15.14600 35.57500
H  48.33100 16.52700 36.23200
N  50.37300 16.63200 28.31400
C  51.23500 17.22400 29.20000
C  52.35100 17.77500 28.51100
C  52.29200 17.19000 27.19900
C  50.95800 16.53700 27.14900
C  53.43200 18.65700 29.10900
C  53.31300 17.24400 26.06300
O  53.23600 16.46000 25.10700
C  54.49100 18.12300 26.13600
N  48.26500 15.05000 26.74200
C  49.19500 15.22800 25.81000
C  48.71900 14.68600 24.43400
C  47.32200 14.08100 24.77800
C  47.18200 14.34500 26.30600
C  48.70700 15.87100 23.41700
C  47.24100 12.56200 24.26500
C  45.86200 11.92000 23.92100
N  46.78700 14.86500 29.20200
C  45.85700 14.25300 28.37800
C  44.70800 13.92000 29.14600
C  45.05900 14.20100 30.45200
C  46.22700 14.90200 30.43800
C  43.48300 13.19200 28.67000
C  44.54100 14.17900 31.74800
O  43.36800 13.93900 32.10000
C  45.58400 14.85400 32.64200
C  44.87200 15.94100 33.30100
O  44.46500 17.00400 32.82500
O  44.59500 15.58500 34.56000
C  43.88800 16.54000 35.41600
H  51.71700 18.08100 31.06500
H  50.92000 15.91700 25.04100
H  45.39300 13.46000 26.39700
H  47.69000 16.82600 33.82700
H  50.58400 17.13900 33.37600
H  48.45100 19.26700 33.11900
H  49.99900 19.58500 32.32900
H  50.04700 19.24700 33.94100
H  50.00400 15.11600 34.04700
H  48.64200 14.16300 33.63300
H  49.35300 14.67800 36.11100
H  47.64300 14.56400 35.83100
H  52.93100 19.21000 29.90300
H  53.66500 19.43400 28.38000
H  54.29500 18.09000 29.45800
H  54.05900 19.09900 26.35700
H  54.92700 18.31100 25.15400
H  55.23100 17.84100 26.88500
H  49.51700 13.95900 24.28500
H  46.57600 14.67000 24.24500
H  48.67800 16.86300 23.86900
H  47.87700 15.78800 22.71500
H  49.69300 15.77600 22.96400
H  47.55200 11.99200 25.14000
H  47.96800 12.41800 23.46600
H  45.61900 11.16700 24.67100
H  45.99600 11.43200 22.95600
H  45.03800 12.61600 23.76100
H  42.81300 12.98300 29.50400
H  43.86300 12.25900 28.25400
H  42.95400 13.68100 27.85200
H  46.02300 14.15200 33.35100
H  42.93400 16.66500 34.90400
H  44.38400 17.49300 35.60000
H  43.66300 15.99400 36.33200
Mg 0.47400 44.01600 26.15700
C  2.81800 43.90000 28.78400
C  -1.89400 43.32700 28.25600
C  -1.60600 43.46300 23.46700
C  3.21400 44.00100 23.85000
N  0.43800 43.85900 28.31700
C  1.49200 43.87700 29.20800
C  1.01800 43.91400 30.71300
C  -0.39900 43.32400 30.43300
C  -0.65400 43.47600 28.89500
C  -0.56800 41.78000 30.80700
C  0.89300 45.35600 31.31500
C  0.91900 45.37000 32.88500
H  0.50500 44.06300 33.64300
N  -1.51100 43.55100 25.88200
C  -2.39400 43.30200 26.97000
C  -3.69200 43.02500 26.48300
C  -3.59400 43.11900 25.08200
C  -2.21100 43.45000 24.70300
C  -4.87700 42.91900 27.39000
C  -4.62700 42.74900 24.09000
O  -4.48900 42.83300 22.89900
C  -5.93900 42.25900 24.59300
N  0.79800 43.84900 23.99900
C  -0.28800 43.66300 23.14700
C  0.23100 43.51800 21.71700
C  1.67800 44.08200 21.79000
C  1.93800 43.86800 23.30000
C  0.06100 42.07600 21.06700
C  2.01500 45.49600 21.39000
C  3.24600 45.90100 20.54900
N  2.62900 44.12300 26.21300
C  3.60100 44.11100 25.23000
C  4.95900 44.26200 25.86100
C  4.67600 44.17400 27.20300
C  3.26200 44.13200 27.37900
C  6.28900 44.28200 25.17800
C  5.31100 44.08400 28.48800
O  6.50700 43.91800 28.74900
C  4.14600 43.92900 29.56100
C  4.40400 42.75000 30.41800
O  4.49400 41.59900 29.92300
O  4.35200 43.01000 31.80000
C  4.55500 41.77700 32.62100
H  -2.64700 43.00900 28.98100
H  -2.20900 43.31000 22.57000
H  3.96300 44.16800 23.07400
H  1.61800 43.26100 31.34700
H  -1.10300 43.82700 31.09500
H  -1.48500 41.74400 31.39600
H  0.24100 41.24000 31.29800
H  -0.71700 41.18300 29.90700
H  -0.01300 45.88800 31.02500
H  1.75700 45.86800 30.89300
H  0.45200 46.30700 33.18900
H  1.92500 45.51300 33.28200
H  -5.51400 42.03800 27.32100
H  -5.57300 43.72400 27.15000
H  -4.54500 43.02000 28.42300
H  -5.77900 41.28700 25.05900
H  -6.55200 42.22000 23.69300
H  -6.39600 42.93100 25.31900
H  -0.30800 44.18200 21.04000
H  2.38100 43.43000 21.27200
H  -0.10000 41.39200 21.90000
H  1.03100 41.89300 20.60500
H  -0.71300 42.11000 20.30000
H  1.95600 46.16800 22.24700
H  1.10000 45.88900 20.94700
H  3.92100 46.53300 21.12700
H  2.89700 46.44000 19.66900
H  3.67700 44.94200 20.26100
H  6.29800 43.89600 24.15900
H  7.06700 43.73400 25.70900
H  6.52200 45.34600 25.12700
H  4.12900 44.78300 30.23900
H  4.41600 41.91900 33.69300
H  5.54000 41.32200 32.52800
H  3.76200 41.09400 32.31700

