158

Mg 44.19800 5.23900 47.92000
C  42.08300 7.94400 46.97800
C  41.79300 3.13700 47.26100
C  46.53900 2.85000 48.04000
C  46.73300 7.64500 48.30200
N  42.14600 5.59600 47.26800
C  41.49000 6.73900 46.85400
C  40.08400 6.34500 46.33800
C  39.89700 4.86200 46.84500
C  41.38500 4.52000 47.13700
C  38.97000 4.70000 48.08000
C  40.02100 6.36700 44.78500
C  39.15900 7.48600 44.14500
H  39.92200 8.48200 43.24600
N  44.14900 3.30800 47.73000
C  43.04700 2.59900 47.56100
C  43.40200 1.20100 47.56500
C  44.85300 1.10400 47.68800
C  45.25900 2.48600 47.73600
C  42.37500 0.09000 47.47000
C  45.60700 -0.19300 47.65000
O  44.98300 -1.24600 47.81100
C  47.10300 -0.31800 47.38400
N  46.36800 5.29900 47.90200
C  47.07800 4.17900 48.16400
C  48.57000 4.41600 48.38800
C  48.66200 6.00400 48.28200
C  47.16800 6.34800 48.19600
C  49.07300 3.83500 49.79600
C  49.57300 6.58100 47.17300
C  50.65400 7.57300 47.61700
N  44.41600 7.35600 47.76500
C  45.50900 8.16700 47.96500
C  45.12800 9.57800 47.81600
C  43.77300 9.51400 47.42200
C  43.44000 8.15300 47.37900
C  45.96300 10.83600 47.90800
C  42.68400 10.33300 47.08800
O  42.56000 11.53900 46.97500
C  41.50700 9.34700 46.79000
C  40.58100 9.71400 47.87800
O  40.58000 9.20700 49.04300
O  39.68900 10.67000 47.54400
C  38.66500 11.03900 48.54100
H  40.87000 2.55400 47.30200
H  47.33300 2.12400 48.22600
H  47.48600 8.41100 48.49800
H  39.35200 7.00600 46.80200
H  39.39500 4.28800 46.06600
H  38.42800 5.62800 48.26100
H  39.51200 4.35100 48.95900
H  38.22800 3.94700 47.81400
H  39.70800 5.40800 44.37300
H  41.02500 6.53000 44.39200
H  38.63600 8.03300 44.92900
H  38.31400 7.16600 43.53500
H  42.40600 -0.72200 48.19500
H  42.42400 -0.34100 46.47000
H  41.44300 0.65000 47.54800
H  47.44600 0.28300 46.54200
H  47.40400 -1.35600 47.24000
H  47.66700 -0.01500 48.26700
H  49.20300 3.94400 47.63700
H  48.86200 6.48600 49.23900
H  48.34400 3.09800 50.13300
H  49.33500 4.65900 50.45900
H  50.00000 3.26200 49.76800
H  48.86100 7.07400 46.51000
H  49.99500 5.80000 46.54100
H  50.14500 8.50900 47.84800
H  51.51300 7.68700 46.95700
H  51.08500 7.29700 48.57900
H  45.38000 11.73700 48.09600
H  46.59900 10.90200 47.02500
H  46.50100 10.78600 48.85500
H  41.05600 9.47900 45.80700
H  37.75000 10.53100 48.23500
H  38.67000 12.12900 48.52800
H  38.80800 10.72600 49.57600
Mg 42.77500 41.65000 26.15300
C  41.69500 43.91700 28.60800
C  43.93400 39.64200 28.69800
C  43.65500 39.43800 23.87000
C  41.81600 43.91800 23.73000
N  42.65000 41.77300 28.38000
C  42.24000 42.75300 29.19500
C  42.09600 42.26200 30.64100
C  42.83200 40.89600 30.63300
C  43.22500 40.80100 29.13400
C  44.01400 40.83600 31.58900
C  40.62800 42.12100 31.20400
C  40.45000 41.66200 32.67800
H  39.70200 42.63800 33.60400
N  43.70600 39.81700 26.28500
C  44.08700 39.13300 27.42900
C  44.74200 37.88300 27.00900
C  44.53900 37.78300 25.61500
C  43.95900 39.04900 25.20800
C  45.13700 36.86500 28.04900
C  44.85300 36.60100 24.75500
O  44.78400 36.57400 23.51700
C  45.07200 35.32300 25.45700
N  42.61500 41.62000 24.08800
C  43.07300 40.59900 23.32900
C  42.92100 40.85400 21.78700
C  42.03900 42.15800 21.87100
C  42.16700 42.63800 23.27300
C  44.20500 41.08100 21.16300
C  40.56600 41.94600 21.44500
C  40.22700 42.24900 19.97500
N  42.10100 43.63300 26.08200
C  41.81000 44.44700 25.02600
C  41.31900 45.74400 25.48400
C  41.29500 45.58500 26.92300
C  41.83800 44.28300 27.19000
C  40.82500 46.77600 24.64700
C  40.80300 46.13700 28.17400
O  40.33900 47.24500 28.49900
C  41.05200 45.01400 29.29200
C  41.98700 45.59800 30.34400
O  43.08300 46.03000 30.23200
O  41.27200 45.54400 31.53200
C  42.00000 45.96300 32.75100
H  44.34000 39.01800 29.49700
H  43.78000 38.68300 23.09100
H  41.48000 44.50800 22.87400
H  42.60700 42.96300 31.30200
H  42.14800 40.07900 30.86400
H  43.96100 39.91900 32.17500
H  43.96000 41.67600 32.28200
H  44.95500 40.82600 31.03900
H  40.05000 41.46600 30.55200
H  40.08800 43.02900 30.93300
H  41.43200 41.55500 33.13800
H  39.97800 40.68900 32.53500
H  45.13400 37.17300 29.09400
H  46.15400 36.60000 27.76000
H  44.51300 35.97800 27.93600
H  45.97900 35.41000 26.05600
H  45.05300 34.56500 24.67400
H  44.19900 35.10200 26.07000
H  42.30000 40.06400 21.36500
H  42.42200 42.82600 21.10000
H  44.97500 40.66600 21.81400
H  44.54000 42.09600 20.94900
H  44.19400 40.51200 20.23400
H  39.97500 42.60200 22.08600
H  40.20500 40.91900 21.48800
H  39.85900 41.31300 19.55600
H  41.10000 42.66200 19.46800
H  39.45600 43.01800 19.91700
H  40.25400 46.43400 23.78300
H  41.54900 47.50300 24.28100
H  40.08900 47.33500 25.22500
H  40.01600 44.88900 29.60500
H  41.58400 45.53900 33.66500
H  41.82800 47.02300 32.94200
H  43.08300 45.86500 32.66800

