158

Mg -1.23200 17.26600 26.73000
C  -1.64400 15.09100 29.38600
C  -1.73800 19.93100 28.93600
C  -1.17100 19.36400 24.15700
C  -1.43000 14.65400 24.53900
N  -1.65700 17.44000 28.89300
C  -1.75500 16.41500 29.83200
C  -1.90200 16.96300 31.29400
C  -2.18900 18.48200 31.01900
C  -1.88000 18.67900 29.53100
C  -3.60200 19.02000 31.46500
C  -0.70900 16.68700 32.28600
C  -0.68300 17.60000 33.54900
H  -0.58400 16.95200 34.94000
N  -1.29500 19.31300 26.58400
C  -1.37300 20.25800 27.62400
C  -1.23100 21.52700 27.07600
C  -1.07100 21.43000 25.65100
C  -1.08000 19.97600 25.41600
C  -1.36200 22.80200 27.94200
C  -1.01000 22.58500 24.66800
O  -0.97500 22.41700 23.46700
C  -0.78200 24.02200 25.07600
N  -1.25700 17.11300 24.67700
C  -1.30500 18.10900 23.79700
C  -1.52500 17.64100 22.35500
C  -1.24100 16.07100 22.48300
C  -1.29100 15.91700 24.00300
C  -2.87500 17.96700 21.83600
C  0.15600 15.61900 22.01400
C  0.41900 15.81300 20.52300
N  -1.34100 15.28700 26.81900
C  -1.38100 14.36500 25.94400
C  -1.36700 13.04100 26.51800
C  -1.47200 13.24900 27.84800
C  -1.55000 14.67900 28.01500
C  -1.35900 11.84000 25.65400
C  -1.63600 12.61000 29.12200
O  -1.74800 11.40600 29.37800
C  -1.82500 13.79900 30.17100
C  -0.93200 13.43300 31.24500
O  0.25700 13.64500 31.34100
O  -1.69700 12.85300 32.28900
C  -0.80600 12.41500 33.43200
H  -1.98900 20.77700 29.58000
H  -1.13700 20.08500 23.33700
H  -1.41600 13.78400 23.87900
H  -2.83800 16.70600 31.79000
H  -1.55600 19.19800 31.54500
H  -3.94600 19.67900 30.66800
H  -3.43800 19.59800 32.37400
H  -4.38500 18.33100 31.78000
H  0.18300 16.85500 31.68200
H  -0.73100 15.68700 32.71700
H  -1.58200 18.20500 33.66600
H  0.18400 18.25800 33.48900
H  -2.28100 23.28400 27.60700
H  -0.47300 23.41000 27.77600
H  -1.35600 22.62900 29.01900
H  0.03500 24.15100 25.78500
H  -1.74700 24.33600 25.47300
H  -0.40300 24.47500 24.16000
H  -0.69700 18.11700 21.83100
H  -1.92100 15.37000 21.99900
H  -3.10200 18.95600 22.23400
H  -3.56500 17.14700 22.03600
H  -2.81200 18.11200 20.75700
H  0.31700 14.57200 22.27300
H  0.80100 16.31100 22.55500
H  0.62500 14.87900 19.99900
H  1.28000 16.44900 20.31800
H  -0.41900 16.26900 19.99500
H  -2.30900 11.78600 25.12100
H  -1.28900 11.03800 26.38800
H  -0.58800 11.65200 24.90600
H  -2.86100 13.60500 30.45000
H  -0.42700 13.21700 34.06600
H  0.04300 11.77300 33.20000
H  -1.47600 11.94700 34.15200
Mg 7.06600 57.13100 41.37700
C  6.32600 53.80000 41.12600
C  10.23200 56.48200 40.31600
C  7.74900 60.51800 41.09800
C  3.77300 57.83000 42.09800
N  8.06900 55.36900 40.65000
C  7.56900 54.08200 40.60800
C  8.54300 53.11400 39.91300
C  9.89000 53.85100 40.07300
C  9.37700 55.35800 40.39400
C  10.84100 53.24000 41.06400
C  8.11800 52.86100 38.44000
C  8.39600 51.45300 37.78200
H  9.41000 51.14500 36.71800
N  8.78300 58.32100 40.84900
C  10.02000 57.84000 40.55200
C  10.96700 58.96500 40.36200
C  10.23900 60.18900 40.61300
C  8.90100 59.72100 40.85900
C  12.41700 58.83900 40.11000
C  10.80400 61.60600 40.56400
O  12.01200 61.86700 40.36400
C  9.90600 62.89700 40.71700
N  5.90000 58.93700 41.39100
C  6.40900 60.17600 41.38400
C  5.34700 61.24600 41.72000
C  4.07100 60.39300 42.07600
C  4.58600 58.96200 41.81000
C  5.73600 62.28200 42.83000
C  2.85400 60.82600 41.21900
C  1.40100 60.77100 41.85600
N  5.29500 56.04500 41.57700
C  4.02600 56.46200 41.93100
C  3.31100 55.22500 42.33400
C  4.19100 54.16500 42.02100
C  5.28900 54.73800 41.54500
C  1.99900 55.10500 43.11700
C  4.35200 52.72200 41.97100
O  3.73400 51.74200 42.40400
C  5.72800 52.44500 41.24400
C  5.40900 51.76400 39.98800
O  4.69700 52.22000 39.11400
O  6.02400 50.51900 39.87400
C  5.54800 49.73100 38.74500
H  11.26600 56.28800 40.02300
H  7.83400 61.60100 40.98400
H  2.77300 57.99800 42.50100
H  8.50600 52.17200 40.45900
H  10.54300 53.77700 39.20300
H  10.23100 52.78400 41.84400
H  11.43100 53.98700 41.59300
H  11.53700 52.49800 40.67300
H  8.57900 53.65300 37.85100
H  7.03500 52.85100 38.31900
H  7.42900 51.17700 37.36100
H  8.51900 50.63300 38.49100
H  12.58100 59.06400 39.05600
H  12.96100 57.95000 40.43200
H  12.79600 59.63400 40.75300
H  9.44800 62.82900 41.70400
H  9.16100 63.09500 39.94700
H  10.51800 63.79500 40.62900
H  5.29900 61.70400 40.73200
H  3.78800 60.46400 43.12600
H  5.80800 63.31800 42.49900
H  6.70600 61.97400 43.22000
H  4.98500 62.14900 43.60800
H  2.79700 60.21800 40.31600
H  2.89500 61.86100 40.87800
H  0.94100 61.66700 41.44000
H  1.40200 60.77600 42.94600
H  0.83500 59.89600 41.53600
H  1.96000 55.70400 44.02700
H  1.72100 54.08300 43.37800
H  1.20900 55.51300 42.48700
H  6.33100 51.77200 41.85300
H  4.64200 49.19900 39.03600
H  6.22700 48.95600 38.38800
H  5.22400 50.14400 37.79100

