158

Mg 8.48500 3.86300 27.72100
C  10.05400 2.48900 30.40200
C  6.63600 5.86600 29.86200
C  7.10900 5.31500 24.94900
C  10.26200 1.76800 25.53900
N  8.42100 4.13200 29.85400
C  9.16500 3.46000 30.77700
C  8.94200 3.98100 32.21100
C  7.67800 4.98000 32.02300
C  7.51800 5.00800 30.49500
C  6.43400 4.75600 32.85000
C  10.17000 4.62800 32.89500
C  9.82100 5.16400 34.29000
H  10.69000 4.70000 35.42900
N  7.11900 5.41500 27.47200
C  6.46800 6.10900 28.47800
C  5.48900 7.01100 27.79200
C  5.61700 6.86700 26.38200
C  6.66100 5.80100 26.18300
C  4.52600 7.82000 28.60100
C  4.85200 7.60300 25.32200
O  4.88700 7.39800 24.13300
C  3.95400 8.67200 25.70800
N  8.65600 3.61500 25.53600
C  8.06300 4.39500 24.62200
C  8.39100 3.98900 23.11300
C  9.56300 3.00400 23.32000
C  9.46000 2.74800 24.89800
C  7.13600 3.52000 22.32000
C  10.94900 3.43100 22.83700
C  11.63100 4.62000 23.64100
N  9.80600 2.38400 27.84400
C  10.45000 1.60600 26.92000
C  11.27000 0.70100 27.66100
C  11.20200 0.94900 28.99000
C  10.31200 2.03300 29.07700
C  12.07300 -0.38800 26.97100
C  11.62300 0.60200 30.34200
O  12.34400 -0.31400 30.79700
C  10.99000 1.69900 31.30200
C  10.31300 0.97800 32.35600
O  9.15800 0.53800 32.14600
O  11.07000 0.88000 33.46100
C  10.53900 0.03700 34.59600
H  5.97500 6.27800 30.62800
H  6.54800 5.56900 24.04800
H  10.78000 1.19600 24.76600
H  8.72800 3.13100 32.85900
H  8.06400 5.93200 32.38900
H  5.73500 4.10900 32.31800
H  5.91100 5.69700 33.01900
H  6.70600 4.35000 33.82400
H  10.40700 5.51300 32.30500
H  11.04400 3.99700 33.05600
H  8.82300 4.89600 34.63500
H  9.82400 6.25400 34.28800
H  4.63600 7.51700 29.64200
H  3.50700 7.64200 28.25500
H  4.68400 8.89800 28.63100
H  3.01700 8.34200 26.15700
H  3.65000 9.38100 24.93700
H  4.47900 9.22100 26.48900
H  8.82900 4.86300 22.63000
H  9.38200 2.03700 22.85100
H  6.25300 3.89500 22.83800
H  6.96700 2.44900 22.20200
H  7.17000 3.97100 21.32900
H  10.86500 3.58700 21.76100
H  11.54300 2.53300 23.00600
H  12.10500 4.20100 24.52900
H  10.79300 5.26400 23.90900
H  12.25500 5.24000 22.99700
H  12.35600 -0.09000 25.96100
H  11.41300 -1.24700 26.84800
H  12.94800 -0.65900 27.56100
H  11.85800 2.29000 31.59300
H  10.02600 0.81800 35.15800
H  11.29100 -0.38500 35.26300
H  9.82800 -0.67300 34.17300
Mg 27.27700 50.15600 25.71300
C  25.41000 51.51200 28.46700
C  29.50800 49.08300 28.10600
C  28.97200 48.99900 23.24100
C  25.02600 51.69100 23.45300
N  27.39600 50.25800 28.04700
C  26.47000 50.70500 28.92300
C  26.92900 50.46400 30.37600
C  28.25500 49.62700 30.17300
C  28.41900 49.67700 28.72000
C  29.36100 50.11100 31.06100
C  25.79200 49.71700 31.14500
C  25.22700 50.33300 32.51200
H  26.29100 50.61300 33.63900
N  28.98500 49.23400 25.63800
C  29.80600 48.93800 26.69300
C  30.91900 48.17300 26.18600
C  30.78000 48.07700 24.82600
C  29.58000 48.83700 24.47900
C  32.04900 47.65300 27.06000
C  31.55900 47.23000 23.84800
O  31.23400 47.16500 22.66400
C  32.87400 46.48300 24.28300
N  27.06600 50.40200 23.68300
C  27.85500 49.69500 22.80000
C  27.61800 50.11800 21.35400
C  26.15700 50.65200 21.41100
C  26.04500 50.97100 22.93700
C  28.59300 51.12300 20.85000
C  25.20600 49.59000 20.90300
C  24.59600 48.42100 21.79700
N  25.61900 51.42000 25.88700
C  24.76700 51.89900 24.84500
C  23.67900 52.64400 25.54700
C  23.89700 52.50200 26.93800
C  25.06000 51.70500 27.11000
C  22.53100 53.31000 24.90100
C  23.27600 52.84000 28.22100
O  22.30300 53.50200 28.48800
C  24.28900 52.21900 29.27600
C  24.80000 53.31600 30.10900
O  25.87100 53.92900 29.93000
O  23.90400 53.49600 31.16100
C  24.23300 54.44900 32.17800
H  30.17600 48.56100 28.79500
H  29.50800 48.76200 22.32000
H  24.30400 52.00800 22.69800
H  27.13200 51.41700 30.86200
H  28.06900 48.59400 30.46500
H  30.25300 50.10300 30.43400
H  29.61200 49.51000 31.93500
H  29.30100 51.17200 31.30200
H  26.17600 48.71300 31.32400
H  24.89300 49.57900 30.54400
H  24.58700 49.55200 32.91900
H  24.78800 51.23900 32.09400
H  32.96800 47.85200 26.50800
H  31.94800 46.58700 27.25900
H  32.13900 48.21400 27.99000
H  33.02600 45.91100 23.36800
H  32.64300 45.72100 25.02700
H  33.78200 47.06000 24.45700
H  27.69100 49.25400 20.69400
H  26.09000 51.54800 20.79500
H  29.29600 51.30100 21.66400
H  28.04300 51.99500 20.49600
H  29.21800 50.68500 20.07200
H  25.63800 49.02900 20.07400
H  24.34600 50.15700 20.54500
H  24.69800 48.55200 22.87400
H  25.15500 47.50700 21.59700
H  23.55300 48.27600 21.51700
H  21.66900 52.64400 24.92500
H  22.74100 53.59900 23.87100
H  22.35600 54.18900 25.52200
H  23.64800 51.59700 29.90100
H  25.12900 54.10900 32.69800
H  23.39800 54.67000 32.84300
H  24.48900 55.42300 31.76000

