158

Mg 47.11100 24.53400 28.73800
C  47.82200 26.73800 31.29900
C  45.84300 22.33300 31.28600
C  46.66000 22.22400 26.46500
C  48.30200 26.84100 26.42500
N  46.64100 24.64400 30.98400
C  47.08900 25.64700 31.79600
C  46.80200 25.37500 33.25500
C  46.32200 23.94800 33.27300
C  46.26600 23.57200 31.76300
C  47.14500 22.92000 34.16900
C  45.85300 26.49800 33.76400
C  45.93600 26.97300 35.20900
H  46.58800 26.14000 36.41000
N  46.34300 22.54100 28.83800
C  45.93600 21.81900 29.95600
C  45.59200 20.46200 29.55100
C  45.80300 20.38700 28.14200
C  46.25900 21.73700 27.76800
C  44.89100 19.40300 30.49200
C  45.51100 19.24300 27.19700
O  45.83700 19.22800 26.01100
C  44.72300 18.08300 27.58200
N  47.31100 24.60600 26.70800
C  47.08300 23.46200 25.97100
C  47.35400 23.75800 24.51000
C  47.63900 25.29900 24.46000
C  47.75300 25.66500 25.92800
C  48.52800 22.94000 23.80500
C  46.45000 26.04600 23.83700
C  45.05700 25.82200 24.38700
N  47.93800 26.32800 28.75500
C  48.42700 27.11000 27.75200
C  49.13800 28.25200 28.34100
C  48.91200 28.10400 29.67900
C  48.17400 26.93400 29.90800
C  49.90800 29.25700 27.63900
C  49.12500 28.79500 30.93300
O  49.65500 29.87200 31.23200
C  48.42900 27.92900 32.02400
C  49.32600 27.51400 33.13700
O  50.01900 26.49200 33.04100
O  49.32100 28.40600 34.17900
C  50.03500 28.08700 35.45200
H  45.60300 21.69200 32.13600
H  46.66100 21.49600 25.65100
H  48.64200 27.60400 25.72100
H  47.69300 25.54300 33.86100
H  45.29800 23.85500 33.63700
H  46.46100 22.55800 34.93700
H  48.06200 23.25500 34.65300
H  47.34500 21.99800 33.62400
H  44.83100 26.21100 33.51600
H  45.98800 27.36700 33.12000
H  44.89800 27.06300 35.52900
H  46.20100 28.02900 35.15400
H  43.99300 18.94100 30.08300
H  44.56900 19.77000 31.46700
H  45.59800 18.57300 30.50200
H  43.74900 18.41600 27.94200
H  45.30800 17.49900 28.29200
H  44.47500 17.42300 26.75000
H  46.45400 23.41000 24.00300
H  48.53500 25.71600 24.00000
H  49.18900 23.68000 23.35400
H  48.05800 22.20100 23.15700
H  49.04400 22.42200 24.61400
H  46.56000 25.73900 22.79700
H  46.58700 27.12600 23.88600
H  44.54100 26.76700 24.55500
H  45.14400 25.19000 25.27000
H  44.45900 25.26700 23.66500
H  49.42500 30.22400 27.49800
H  50.39500 28.93000 26.72000
H  50.72900 29.59800 28.27000
H  47.58800 28.52900 32.37000
H  49.28300 27.92900 36.22500
H  50.55200 28.99900 35.75000
H  50.72100 27.28300 35.18700
Mg -5.10600 25.52300 25.22000
C  -3.57400 27.15200 27.83900
C  -6.81300 23.50400 27.57300
C  -6.49500 23.74600 22.77100
C  -2.99900 27.28600 23.03000
N  -5.09900 25.32700 27.45400
C  -4.50500 26.23500 28.30200
C  -5.03500 26.05200 29.69800
C  -5.73300 24.62800 29.56700
C  -5.92500 24.42300 28.09400
C  -4.87600 23.46300 30.07200
C  -6.01600 27.24700 30.11700
C  -6.05900 27.72800 31.66500
H  -5.62200 26.74900 32.70600
N  -6.53300 23.83900 25.20300
C  -7.03900 23.25200 26.25100
C  -8.09200 22.28900 25.78900
C  -7.97600 22.29400 24.34200
C  -6.96700 23.33400 24.03900
C  -8.88500 21.44600 26.64300
C  -8.65300 21.41000 23.36000
O  -8.54700 21.53000 22.16600
C  -9.50200 20.24800 23.83500
N  -4.85600 25.62100 23.18000
C  -5.44100 24.68000 22.39000
C  -4.93700 24.86400 20.94700
C  -3.97900 26.12900 21.01100
C  -3.92900 26.35300 22.52700
C  -4.30500 23.64300 20.40300
C  -4.34900 27.35500 20.08900
C  -3.20100 27.89100 19.21100
N  -3.58800 26.94700 25.41100
C  -2.79700 27.58500 24.40900
C  -1.87200 28.52600 25.06400
C  -2.16800 28.44500 26.44100
C  -3.20600 27.50300 26.55500
C  -0.85900 29.42500 24.34600
C  -1.85300 28.90600 27.77700
O  -1.09300 29.79400 28.03600
C  -2.84000 28.08000 28.70900
C  -2.03500 27.43500 29.75300
O  -1.14900 26.59300 29.50100
O  -2.58100 27.66800 30.95300
C  -1.67000 27.35100 32.17000
H  -7.40400 22.84900 28.21600
H  -6.87900 23.20100 21.90700
H  -2.32400 27.72700 22.29400
H  -4.23300 25.95800 30.43000
H  -6.75800 24.58200 29.93500
H  -4.44400 22.83400 29.29300
H  -5.48400 22.89100 30.77300
H  -4.02100 23.83900 30.63300
H  -7.04800 26.94000 29.94400
H  -5.76000 27.98800 29.36000
H  -7.12000 27.90700 31.83600
H  -5.48900 28.65500 31.72800
H  -9.92900 21.73500 26.53000
H  -8.71500 21.49600 27.71900
H  -8.65700 20.40500 26.41300
H  -10.34700 20.64900 24.39400
H  -8.86700 19.57100 24.40600
H  -10.00700 19.65000 23.07700
H  -5.74100 25.16500 20.27600
H  -2.99000 25.86800 20.63400
H  -4.35200 22.84700 21.14700
H  -3.25100 23.83600 20.20600
H  -4.74200 23.27100 19.47600
H  -4.51300 28.22300 20.72900
H  -5.14000 27.08700 19.38800
H  -3.50500 28.00800 18.17000
H  -2.27900 27.31100 19.22800
H  -3.16600 28.95400 19.44900
H  -1.38100 30.17200 23.74800
H  -0.50300 28.83300 23.50200
H  -0.01300 29.75600 24.94900
H  -3.51000 28.84700 29.09800
H  -2.02800 27.70800 33.13600
H  -0.67100 27.75100 31.99700
H  -1.54600 26.26800 32.17600

