158

Mg 40.40900 9.74600 29.40500
C  42.41500 10.79400 32.08600
C  38.29300 8.33000 31.76100
C  38.75800 8.55600 26.87800
C  42.94300 10.92400 27.24400
N  40.46900 9.47400 31.67700
C  41.26300 10.24000 32.54400
C  40.76100 10.20100 33.98300
C  39.47300 9.23500 33.89800
C  39.42000 8.99000 32.38000
C  39.53300 7.92900 34.65100
C  40.65500 11.52600 34.64600
C  39.62500 11.74300 35.69600
H  40.07700 12.21900 37.07300
N  38.85300 8.57400 29.30900
C  38.01500 8.16800 30.39800
C  36.87000 7.46300 29.90700
C  36.95700 7.57500 28.52500
C  38.27100 8.13500 28.13800
C  35.80400 6.78600 30.69900
C  35.89900 7.32800 27.51000
O  36.05300 7.44000 26.27900
C  34.43400 7.04600 27.92600
N  40.72800 9.83600 27.38600
C  39.87800 9.29600 26.51700
C  40.27600 9.41100 25.09800
C  41.74200 9.96800 25.25500
C  41.78400 10.36600 26.75200
C  40.14900 8.11900 24.11900
C  42.12300 11.29500 24.44300
C  43.60600 11.37200 23.94700
N  42.33500 10.56100 29.58200
C  43.21000 11.07000 28.60300
C  44.36700 11.67900 29.20400
C  44.03600 11.55200 30.57600
C  42.83000 10.89900 30.79700
C  45.55300 12.32800 28.54300
C  44.51700 11.90000 31.95200
O  45.50500 12.56300 32.24700
C  43.47100 11.38100 32.98700
C  44.05600 10.43300 34.03400
O  44.51900 9.31500 33.80600
O  44.31600 11.14500 35.19900
C  45.16200 10.50200 36.30600
H  37.55400 7.88100 32.42800
H  38.09200 8.46000 26.01800
H  43.72100 11.14900 26.51100
H  41.55800 9.63500 34.46500
H  38.59100 9.73000 34.30300
H  39.09800 7.06600 34.14600
H  38.73100 8.02900 35.38300
H  40.39700 7.60500 35.23100
H  40.73400 12.27400 33.85700
H  41.54800 11.68200 35.25100
H  39.11600 10.79900 35.88800
H  38.78800 12.30600 35.28300
H  36.15800 6.25100 31.58100
H  35.45200 5.94800 30.09800
H  34.89800 7.39000 30.66900
H  34.36500 6.01300 28.26700
H  33.80600 7.12500 27.03800
H  34.03400 7.73200 28.67300
H  39.57500 10.16600 24.74100
H  42.31100 9.05100 25.10800
H  40.96200 8.14700 23.39400
H  39.16600 8.32800 23.69700
H  40.17600 7.18000 24.67200
H  41.81000 12.05700 25.15700
H  41.42200 11.47500 23.62800
H  43.46900 11.69100 22.91400
H  44.10000 10.40000 23.93400
H  44.25300 12.06500 24.48300
H  45.36800 12.37000 27.46900
H  46.49600 11.81000 28.72000
H  45.75400 13.36600 28.80800
H  43.12600 12.28200 33.49500
H  46.12500 11.01000 36.25700
H  45.19200 9.43700 36.07900
H  44.68800 10.82500 37.23400
Mg 43.40400 42.10100 26.21700
C  42.55000 44.34500 28.87800
C  44.86600 40.02700 28.47700
C  44.13000 40.14000 23.63400
C  42.27200 44.74200 24.03800
N  43.66400 42.21800 28.35900
C  43.17000 43.13000 29.26000
C  43.43000 42.60100 30.69500
C  44.40700 41.37400 30.55000
C  44.21000 41.13600 29.02500
C  45.88400 41.59800 31.00600
C  42.22000 42.35300 31.56700
C  42.13000 42.99600 32.94100
H  40.74500 43.37600 33.40900
N  44.32400 40.25300 26.10100
C  44.87800 39.56500 27.13400
C  45.41200 38.29400 26.62800
C  45.13200 38.28300 25.20700
C  44.48900 39.60100 24.92600
C  46.07700 37.27700 27.53600
C  45.60700 37.23500 24.15900
O  45.40500 37.36200 22.93500
C  46.21500 35.88500 24.54000
N  43.33400 42.44000 24.16600
C  43.61700 41.38600 23.26200
C  43.33900 41.84100 21.85600
C  42.48800 43.13200 22.01600
C  42.77400 43.50000 23.52000
C  44.53600 42.08700 20.90600
C  40.99700 42.90000 21.79900
C  40.43300 41.71000 22.52600
N  42.69200 44.20000 26.31300
C  42.22700 45.14700 25.37900
C  41.75400 46.30400 25.99100
C  41.85000 46.04600 27.38500
C  42.41700 44.73100 27.53100
C  41.28900 47.45200 25.35700
C  41.55400 46.54900 28.68200
O  41.03400 47.66200 28.96400
C  41.83200 45.41800 29.72600
C  42.79200 46.01600 30.68400
O  43.96300 46.20300 30.47400
O  42.10300 46.37900 31.86700
C  42.99400 47.02300 32.82700
H  45.33100 39.38000 29.22400
H  44.37400 39.55700 22.74400
H  41.78700 45.30500 23.23800
H  44.03900 43.37900 31.15400
H  44.11000 40.55100 31.20000
H  46.04400 42.67500 31.03900
H  46.57300 40.96100 30.45200
H  45.80100 41.15800 31.99900
H  42.06500 41.27600 31.63500
H  41.36400 42.67000 30.97100
H  42.78300 43.86700 32.89400
H  42.69900 42.27200 33.52300
H  45.44500 36.39000 27.51300
H  46.08300 37.60700 28.57500
H  47.10900 37.03000 27.28400
H  46.26100 35.16900 23.72000
H  45.47600 35.49100 25.23800
H  47.19800 35.91900 25.01000
H  42.73000 41.07500 21.37600
H  42.84700 43.86400 21.29200
H  45.44800 41.68500 21.34700
H  44.65800 43.15500 20.73100
H  44.37400 41.58000 19.95500
H  40.81000 42.85600 20.72600
H  40.44300 43.80000 22.06400
H  41.11100 40.91000 22.82300
H  39.49700 41.32900 22.11900
H  40.19200 41.92600 23.56800
H  42.13100 47.96100 24.88800
H  40.75100 48.10100 26.04800
H  40.62900 47.18800 24.53100
H  40.93400 45.11100 30.26100
H  43.73400 46.30900 33.18900
H  42.35100 47.35900 33.64100
H  43.57200 47.81100 32.34500

