158

Mg 43.27900 3.45200 47.35300
C  41.08000 6.16600 46.63700
C  40.50900 1.32800 46.94500
C  45.40800 0.87500 47.41300
C  46.09500 5.72400 47.14100
N  41.14700 3.73200 46.93700
C  40.41200 4.94100 46.73000
C  38.91100 4.68800 46.44200
C  38.87200 3.19700 46.88400
C  40.27700 2.71300 46.95400
C  38.10500 2.91900 48.23000
C  38.65500 4.91000 44.89900
C  37.33600 5.47900 44.47700
H  37.38500 6.57800 43.42000
N  42.97400 1.38800 47.13700
C  41.76100 0.68100 47.04700
C  41.99800 -0.76700 47.05400
C  43.43500 -0.89700 47.20300
C  44.02000 0.47300 47.22900
C  40.88100 -1.89200 47.14100
C  44.16100 -2.18500 47.33700
O  43.58200 -3.28500 47.13300
C  45.57600 -2.35900 47.57200
N  45.38100 3.32100 47.28600
C  45.94900 2.14100 47.51100
C  47.50000 2.22400 47.53300
C  47.74200 3.76200 47.44900
C  46.32400 4.35800 47.30800
C  48.18000 1.43200 48.69000
C  48.77500 4.19100 46.39600
C  48.57700 3.66100 44.89100
N  43.57900 5.48200 47.01600
C  44.75500 6.31400 46.97900
C  44.29600 7.73800 46.81800
C  42.87200 7.66200 46.77000
C  42.51600 6.29400 46.78600
C  45.17600 9.02600 46.83900
C  41.64800 8.46900 46.66300
O  41.50900 9.70100 46.59100
C  40.42900 7.52300 46.66100
C  39.48900 7.84900 47.79500
O  39.68400 7.52900 48.94900
O  38.26600 8.39500 47.33200
C  37.30100 8.61100 48.43000
H  39.53900 0.83200 46.87300
H  46.10600 0.05500 47.23500
H  46.96500 6.38300 47.10700
H  38.31300 5.34700 47.07100
H  38.27800 2.62200 46.17400
H  37.29600 2.22700 47.99400
H  37.63000 3.87600 48.44700
H  38.70100 2.69300 49.11400
H  38.92200 4.00900 44.34700
H  39.34500 5.65200 44.49600
H  36.89900 5.98800 45.33600
H  36.69200 4.65500 44.16800
H  39.90000 -1.44500 46.98100
H  40.74300 -2.24100 48.16400
H  41.14800 -2.65500 46.40900
H  46.23600 -2.25100 46.71100
H  45.67800 -3.36200 47.98500
H  46.00500 -1.70700 48.33200
H  47.80400 1.78800 46.58200
H  48.00700 4.10600 48.44900
H  47.57300 0.66500 49.17200
H  48.72200 1.99600 49.44900
H  48.87400 0.82300 48.11100
H  49.75700 3.87500 46.74700
H  48.88400 5.27300 46.47200
H  49.33800 2.98600 44.50000
H  48.42500 4.48800 44.19700
H  47.66800 3.06500 44.81400
H  45.42500 9.45100 47.81200
H  44.82100 9.70800 46.06600
H  46.17000 8.69700 46.53800
H  39.76800 7.72900 45.81900
H  36.30700 8.91100 48.09900
H  37.72000 9.25600 49.20200
H  37.16200 7.63500 48.89500
Mg 47.28100 24.16600 27.99400
C  47.97600 26.34600 30.73100
C  46.32900 21.74300 30.12000
C  46.97300 22.12300 25.34000
C  48.52800 26.70600 25.88000
N  47.07200 24.12000 30.13100
C  47.44300 25.07500 31.03400
C  47.12600 24.54100 32.47500
C  46.74400 23.07400 32.23700
C  46.67900 22.98500 30.73500
C  47.68000 21.96600 32.85500
C  45.97200 25.35400 33.15100
C  46.40700 25.91300 34.48900
H  45.30200 26.35700 35.55400
N  46.60400 22.24700 27.77700
C  46.21900 21.35400 28.76100
C  45.83700 20.15600 28.21500
C  46.05600 20.22200 26.80900
C  46.51700 21.62400 26.58900
C  45.34000 19.04100 29.00300
C  45.75900 19.19400 25.64400
O  46.14100 19.39600 24.53200
C  45.06900 17.86800 25.95400
N  47.66800 24.39200 25.89600
C  47.52800 23.44300 25.03500
C  47.63100 23.94100 23.61200
C  47.76700 25.47200 23.79500
C  48.04700 25.56300 25.27000
C  48.79000 23.28300 22.91600
C  46.67400 26.35800 23.19900
C  45.38200 26.63300 24.00700
N  48.21500 26.13800 28.22200
C  48.58400 27.04100 27.20800
C  48.94700 28.27700 27.84200
C  48.77500 28.02700 29.25900
C  48.28100 26.76200 29.40900
C  49.47000 29.50200 27.15500
C  49.00300 28.61500 30.60100
O  49.46200 29.73400 30.80500
C  48.47400 27.49800 31.59300
C  49.47200 27.12400 32.60700
O  50.08400 26.08900 32.64000
O  49.43500 28.09700 33.58600
C  50.28400 27.73000 34.72800
H  46.22600 20.88500 30.78700
H  46.77900 21.54400 24.43500
H  48.72700 27.54200 25.20600
H  48.09900 24.58400 32.96500
H  45.74100 22.78400 32.55100
H  47.05700 21.18300 33.28700
H  48.28800 22.25700 33.71100
H  48.38300 21.48800 32.17300
H  45.19900 24.64900 33.45600
H  45.60600 26.11100 32.45700
H  47.09400 26.75700 34.43100
H  46.99400 25.12800 34.96600
H  44.36800 18.66800 28.68000
H  45.08200 19.32700 30.02200
H  46.13300 18.29900 28.91900
H  45.49700 17.49700 26.88500
H  45.33300 17.16300 25.16600
H  43.98000 17.85000 26.00000
H  46.70600 23.69100 23.09300
H  48.74000 25.87100 23.51100
H  49.55200 24.01900 22.66100
H  48.43100 22.64400 22.11000
H  49.24400 22.59200 23.62700
H  46.38200 25.89000 22.25800
H  46.99000 27.36500 22.92800
H  45.52200 26.41800 25.06600
H  44.68800 25.92800 23.55100
H  45.04700 27.66000 23.86100
H  48.66100 30.23300 27.18100
H  49.67500 29.30200 26.10400
H  50.35500 29.78900 27.72300
H  47.53600 27.87000 32.00700
H  50.30900 28.56800 35.42400
H  51.31500 27.50900 34.45200
H  49.88000 26.82700 35.18600

