158

Mg 40.46400 8.36400 28.78500
C  42.06100 9.58400 31.47900
C  38.33300 6.54100 30.84700
C  38.90200 7.41000 25.99400
C  42.88800 10.06500 26.72600
N  40.32300 8.03700 30.87900
C  40.97900 8.82000 31.80400
C  40.32900 8.60500 33.15300
C  39.49200 7.23100 33.01600
C  39.34200 7.22900 31.46100
C  40.28000 5.99700 33.55800
C  39.50500 9.85400 33.65900
C  39.20900 9.96100 35.12300
H  39.81500 11.12500 35.80600
N  38.74900 7.26800 28.50200
C  37.99600 6.58800 29.43800
C  36.88500 5.96300 28.76800
C  36.93800 6.33200 27.41000
C  38.21900 6.99600 27.23300
C  35.89500 5.18700 29.54000
C  35.98100 6.07000 26.22800
O  36.22600 6.33100 25.07300
C  34.66600 5.33000 26.50900
N  40.90900 8.56800 26.62800
C  40.10900 8.06200 25.70000
C  40.62900 8.36600 24.33200
C  41.62700 9.51100 24.54200
C  41.82000 9.41000 26.06600
C  41.30200 7.10800 23.68800
C  41.11300 10.87200 24.04000
C  39.81300 11.39000 24.75000
N  42.23400 9.47300 29.04000
C  43.11900 10.11000 28.13800
C  44.27000 10.60000 28.84400
C  43.78700 10.62200 30.13000
C  42.61100 9.83600 30.21700
C  45.55100 11.15000 28.28200
C  44.06500 11.15100 31.48000
O  44.94100 11.86300 31.94300
C  42.92700 10.45200 32.37900
C  43.59900 9.59600 33.36900
O  43.99000 8.43000 33.26000
O  43.62400 10.35700 34.56000
C  44.43000 9.80400 35.64900
H  37.69100 5.95900 31.51200
H  38.28200 7.20500 25.11800
H  43.54000 10.64200 26.06700
H  41.17800 8.33400 33.78000
H  38.57200 7.44200 33.56100
H  39.57100 5.67300 34.32000
H  41.26500 6.20400 33.97700
H  40.44400 5.22100 32.81000
H  38.50900 9.88200 33.21700
H  40.02000 10.71500 33.23300
H  39.57600 9.07200 35.63700
H  38.14100 9.80700 35.27300
H  36.00400 5.31000 30.61800
H  36.23500 4.16800 29.35200
H  34.88000 5.21000 29.14300
H  34.01000 5.31300 25.63900
H  34.24200 5.94300 27.30400
H  34.82800 4.34400 26.94600
H  39.76900 8.70000 23.75200
H  42.57000 9.25300 24.05900
H  42.31400 7.33300 23.35100
H  40.67200 6.78000 22.86200
H  41.49100 6.31600 24.41200
H  40.89900 10.67000 22.99100
H  41.92300 11.59800 24.10400
H  39.20700 10.56300 25.12200
H  39.25700 11.91600 23.97400
H  39.94400 12.11800 25.55100
H  46.33200 10.51000 27.87300
H  45.89300 11.86600 29.03000
H  45.09800 11.81100 27.54300
H  42.48400 11.27400 32.94300
H  43.89800 8.89600 35.93100
H  44.59700 10.62800 36.34400
H  45.41300 9.39700 35.40900
Mg 26.63000 50.55400 26.93900
C  24.46100 51.56800 29.49200
C  28.95100 49.59000 29.34700
C  28.81400 49.74500 24.45900
C  24.38000 51.83300 24.61000
N  26.62800 50.57000 29.13000
C  25.63200 51.05900 29.97300
C  25.88500 50.74600 31.47200
C  27.37600 50.38300 31.46900
C  27.68500 50.07100 29.92400
C  28.40400 51.43000 32.03500
C  25.01700 49.57300 32.13700
C  25.49300 48.78700 33.48000
H  25.98300 49.67300 34.61000
N  28.62100 49.82100 26.94000
C  29.34900 49.43300 28.03600
C  30.57200 48.83100 27.50400
C  30.65000 48.97000 26.07900
C  29.32700 49.53900 25.77100
C  31.62100 48.14500 28.34000
C  31.73700 48.45400 25.15200
O  31.67700 48.64200 23.96500
C  32.82600 47.62300 25.61600
N  26.66100 50.83800 24.90700
C  27.53700 50.22600 24.12300
C  27.13800 50.13500 22.63200
C  25.80600 50.95600 22.60000
C  25.57700 51.26700 24.10700
C  28.17200 50.65200 21.66400
C  24.51800 50.19400 21.96700
C  24.74900 49.56800 20.57100
N  24.80900 51.52000 27.00300
C  24.08100 52.02900 25.98900
C  22.85400 52.66300 26.48500
C  22.93900 52.46500 27.88300
C  24.12500 51.79000 28.14400
C  21.84800 53.33300 25.73100
C  22.23700 52.67300 29.17300
O  21.18500 53.24700 29.48700
C  23.22600 52.06100 30.28700
C  23.57100 53.23000 31.19900
O  24.50300 54.05900 31.06600
O  22.73500 53.24500 32.29600
C  23.05300 54.32800 33.25100
H  29.73500 49.28500 30.04300
H  29.37900 49.18500 23.71200
H  23.64900 52.34800 23.98300
H  25.78900 51.64000 32.08800
H  27.49200 49.48700 32.07800
H  27.95300 52.40500 32.22200
H  29.22600 51.59100 31.33700
H  28.76800 51.12900 33.01800
H  25.05700 48.80600 31.36400
H  23.98300 49.88000 32.29500
H  26.25400 48.09200 33.12600
H  24.60600 48.21400 33.75100
H  31.42500 48.19800 29.41100
H  32.62700 48.56400 28.34800
H  31.53000 47.08600 28.10000
H  33.50900 48.28900 26.14300
H  33.39300 47.34700 24.72700
H  32.63400 46.75300 26.24400
H  26.86200 49.10700 22.39800
H  25.94100 51.94000 22.15000
H  27.68300 51.38100 21.01700
H  28.61300 49.82200 21.11300
H  28.94100 51.10200 22.29300
H  23.81200 51.02000 22.05100
H  24.08000 49.42900 22.60700
H  24.43800 48.52700 20.48700
H  25.79700 49.53400 20.27300
H  24.26000 50.16700 19.80200
H  22.23300 54.20000 25.19600
H  21.08800 53.74100 26.39700
H  21.27500 52.75000 25.01000
H  22.78100 51.23600 30.84400
H  23.49500 55.25000 32.87300
H  23.74900 53.90000 33.97200
H  22.16300 54.63000 33.80300

