158

Mg 41.05900 7.80700 29.81800
C  42.96300 9.42300 32.29200
C  39.06500 6.30700 32.16700
C  39.44300 6.20700 27.30900
C  43.62200 8.77200 27.49300
N  41.20500 7.69600 32.02400
C  41.87800 8.64500 32.82100
C  41.35600 8.51900 34.29000
C  40.19800 7.48900 34.25500
C  40.15800 7.05700 32.72100
C  40.45100 6.32100 35.17900
C  40.95200 9.93100 34.70400
C  40.63200 9.99400 36.24400
H  41.34100 11.10300 37.06000
N  39.48600 6.55200 29.73900
C  38.71000 6.09000 30.82100
C  37.66700 5.28200 30.29600
C  37.61700 5.41200 28.89700
C  38.87200 6.12600 28.60700
C  36.71900 4.35200 31.11200
C  36.63300 4.81600 27.91400
O  36.78600 4.94100 26.71700
C  35.40200 4.21600 28.37300
N  41.47800 7.40900 27.73500
C  40.65400 6.74900 26.95000
C  41.29000 6.60400 25.54900
C  42.61700 7.33200 25.62200
C  42.54100 7.94200 27.00600
C  41.39900 5.13600 25.06300
C  42.96800 8.26400 24.40300
C  42.29900 9.60500 24.46100
N  42.99200 8.95700 29.81400
C  43.88600 9.22000 28.81700
C  44.96500 9.93600 29.34900
C  44.64800 10.13900 30.69600
C  43.46100 9.44300 30.96000
C  46.28000 10.35800 28.69400
C  45.03000 10.67100 32.02500
O  46.05300 11.27500 32.28100
C  43.83800 10.38700 33.03400
C  44.35000 9.81100 34.30500
O  44.57900 8.64500 34.52300
O  44.60900 10.83200 35.20800
C  45.12700 10.34100 36.48500
H  38.35500 5.98200 32.92900
H  38.97100 5.74500 26.44000
H  44.35600 9.11000 26.75900
H  42.18800 8.22000 34.92800
H  39.28300 8.02900 34.50000
H  39.95400 5.36400 35.02100
H  40.08400 6.58900 36.17000
H  41.50800 6.17400 35.40500
H  40.10800 10.30500 34.12400
H  41.75600 10.64400 34.51900
H  40.76200 9.04800 36.77000
H  39.54800 10.10200 36.27100
H  36.88100 3.32500 30.78400
H  35.66000 4.61100 31.11200
H  37.07400 4.39200 32.14200
H  34.66800 4.37500 27.58300
H  35.06400 4.92900 29.12500
H  35.58700 3.19200 28.69700
H  40.60000 7.10500 24.87000
H  43.40000 6.57500 25.65500
H  40.77900 5.01200 24.17500
H  40.98200 4.46900 25.81800
H  42.41200 4.82700 24.80400
H  42.59600 7.84500 23.46900
H  44.05000 8.32100 24.27800
H  41.51000 9.71500 23.71800
H  43.07200 10.37300 24.42500
H  41.77200 9.80100 25.39400
H  46.10100 10.29200 27.62000
H  47.17900 9.82100 28.99800
H  46.41600 11.41300 28.93100
H  43.21800 11.25700 33.25200
H  46.16200 10.00100 36.51600
H  44.54100 9.56100 36.97100
H  45.18800 11.22000 37.12700
Mg 16.23200 52.50200 24.33700
C  18.13700 51.52200 27.19100
C  13.56300 53.20300 26.54900
C  14.25200 52.83600 21.72500
C  18.60500 50.83200 22.35100
N  15.89500 52.45200 26.61300
C  16.81300 52.02400 27.50400
C  16.25400 52.26000 28.93500
C  14.75300 52.69000 28.68800
C  14.72900 52.68600 27.17700
C  13.71100 51.72600 29.31400
C  17.03400 53.22200 29.70800
C  17.40200 52.80400 31.19100
H  16.53900 51.75800 31.93200
N  14.27200 53.20600 24.12300
C  13.39500 53.42700 25.15500
C  12.16900 53.94900 24.55500
C  12.26700 53.73600 23.14900
C  13.64200 53.27400 22.93900
C  10.94600 54.28700 25.37700
C  11.20100 54.05700 22.02500
O  11.41700 53.84700 20.85300
C  9.73300 54.57100 22.45200
N  16.49200 52.01100 22.45300
C  15.54000 52.28300 21.48100
C  15.90200 51.75400 20.14500
C  17.48000 51.46600 20.23900
C  17.49800 51.36000 21.78000
C  15.14100 50.37100 19.77500
C  18.30700 52.64000 19.81900
C  19.60900 52.17900 19.20400
N  18.00400 51.34700 24.68200
C  18.88400 50.76100 23.74800
C  20.00400 50.17300 24.45200
C  19.65500 50.43900 25.82800
C  18.51000 51.16600 25.89200
C  21.24000 49.61300 23.79900
C  20.16700 50.33300 27.15300
O  21.26800 49.86500 27.46900
C  19.11700 50.84600 28.18400
C  18.59300 49.71100 28.91000
O  17.72700 48.90900 28.58300
O  19.05000 49.77000 30.17300
C  18.77600 48.60900 31.01500
H  12.72000 53.50600 27.17300
H  13.64000 52.79800 20.82100
H  19.38800 50.37000 21.74600
H  16.23000 51.29800 29.44700
H  14.44300 53.69500 28.97600
H  14.17800 51.03900 30.01900
H  13.23400 51.17600 28.50300
H  13.10200 52.45900 29.84200
H  16.42600 54.12500 29.65800
H  17.95900 53.42500 29.16800
H  17.41700 53.72900 31.76700
H  18.37400 52.33600 31.34400
H  11.17900 54.76800 26.32800
H  10.45300 53.35500 25.65200
H  10.25500 54.96100 24.87100
H  9.14700 54.32300 21.56700
H  9.72000 55.63000 22.70900
H  9.31900 53.96500 23.25800
H  15.71800 52.48100 19.35400
H  17.82600 50.53400 19.79400
H  14.55500 50.61700 18.89000
H  14.43200 50.22500 20.59100
H  15.72400 49.45800 19.66300
H  18.65000 53.21200 20.68100
H  17.77700 53.28200 19.11500
H  19.68500 51.25000 18.63900
H  20.44500 52.31500 19.89000
H  19.81100 52.83800 18.36000
H  22.04300 50.15600 24.29800
H  21.24900 49.95400 22.76300
H  21.33100 48.54400 23.99000
H  19.56200 51.58100 28.85400
H  19.27500 48.79500 31.96600
H  19.17700 47.73400 30.50400
H  17.73200 48.45800 31.29100

