158

Mg 53.94300 24.12000 44.26100
C  51.26700 26.35200 43.42900
C  52.02600 21.60500 43.24100
C  56.73900 22.39000 43.71000
C  55.80800 26.82100 45.19600
N  52.00900 24.04900 43.21100
C  51.05700 25.04600 43.02300
C  49.79700 24.46400 42.38700
C  49.84800 22.98300 42.85800
C  51.41000 22.88000 43.16500
C  48.90000 22.58300 43.94600
C  49.74400 24.42400 40.80800
C  51.09300 24.68800 40.06900
H  52.03300 23.53400 39.88500
N  54.32400 22.19800 43.68100
C  53.36000 21.29800 43.43000
C  53.96300 20.04600 43.16600
C  55.40800 20.18400 43.19000
C  55.54500 21.59000 43.46000
C  53.17400 18.81300 42.96000
C  56.39800 19.05800 43.07600
O  56.13600 17.90800 42.77100
C  57.89700 19.37200 43.48200
N  56.04900 24.59000 44.33700
C  56.97200 23.64500 44.23500
C  58.34300 24.22800 44.47700
C  58.05900 25.60800 45.12700
C  56.56400 25.78700 44.77200
C  59.19900 23.34300 45.43600
C  58.96200 26.83800 44.68200
C  58.65700 27.37700 43.30300
N  53.55800 26.15800 44.47000
C  54.41700 27.12200 44.99900
C  53.67400 28.38600 45.18600
C  52.42000 28.12400 44.57300
C  52.46900 26.77700 44.11600
C  54.22500 29.74800 45.70400
C  51.09000 28.72200 44.14800
O  50.61700 29.76300 44.34800
C  50.40100 27.62100 43.33500
C  50.22900 28.19100 41.95500
O  51.11100 28.39500 41.22000
O  48.88400 28.33600 41.65500
C  48.74400 28.65500 40.21800
H  51.40500 20.71500 43.12400
H  57.66300 21.88700 43.41400
H  56.24500 27.69100 45.69000
H  48.98100 25.04600 42.81600
H  49.54600 22.27900 42.08200
H  48.49800 21.58200 43.78600
H  48.13300 23.34700 44.07200
H  49.44700 22.43600 44.87700
H  49.02500 25.14000 40.40900
H  49.32000 23.47800 40.47200
H  51.51400 25.64300 40.38500
H  50.86200 24.95200 39.03700
H  53.87200 17.97700 42.90200
H  52.60100 18.75200 42.03500
H  52.52500 18.65200 43.82000
H  58.34600 19.77600 42.57500
H  58.47800 18.50900 43.80700
H  57.89800 20.02000 44.35900
H  58.85800 24.39100 43.53000
H  58.06600 25.49900 46.21100
H  58.63500 22.41000 45.44100
H  59.31200 23.74200 46.44400
H  60.11700 23.18100 44.87100
H  60.03700 26.66500 44.71600
H  58.74300 27.65800 45.36700
H  58.56400 28.46100 43.35400
H  57.81700 26.82500 42.88000
H  59.44500 27.14400 42.58700
H  54.16000 29.80400 46.79100
H  53.65600 30.41900 45.06000
H  55.28000 29.81200 45.43700
H  49.57800 27.35500 43.99700
H  48.69100 29.74200 40.27700
H  47.70200 28.53200 39.92400
H  49.46700 28.19200 39.54500
Mg 35.73400 49.55600 24.85800
C  36.07800 47.86400 27.97800
C  34.54700 52.25700 26.46800
C  35.22800 50.97400 21.85200
C  36.93100 46.62400 23.34900
N  35.54900 50.00600 27.08200
C  35.71600 49.27200 28.16400
C  35.32200 50.04700 29.44000
C  34.70400 51.38700 28.89900
C  34.94800 51.22600 27.34900
C  33.17600 51.65100 29.24100
C  36.43800 50.17500 30.50200
C  36.10900 49.47600 31.86500
H  34.65800 49.55800 32.33500
N  35.01800 51.41000 24.27600
C  34.48100 52.36700 25.08100
C  33.92300 53.41100 24.31300
C  34.16400 53.13600 22.92500
C  34.81900 51.78500 22.93900
C  33.14200 54.57700 24.89800
C  33.65200 53.88900 21.68800
O  33.61500 53.37600 20.57100
C  33.05200 55.30600 21.91100
N  35.84500 48.84600 22.89400
C  35.72800 49.66200 21.75900
C  35.99700 48.89700 20.44500
C  36.56400 47.51700 20.98600
C  36.45300 47.64900 22.52100
C  34.84300 48.77200 19.41500
C  37.93600 47.10500 20.47900
C  39.14300 47.75400 21.20100
N  36.46000 47.65200 25.52900
C  36.74800 46.50100 24.76700
C  37.11000 45.43100 25.56900
C  36.72300 45.83400 26.85300
C  36.41800 47.23900 26.77500
C  37.65400 44.12800 25.14100
C  36.70100 45.47900 28.21700
O  36.93700 44.41600 28.73300
C  36.38700 46.80700 29.00500
C  35.30500 46.54400 29.98800
O  34.08600 46.57700 29.79700
O  35.88200 46.01200 31.13700
C  35.07200 45.35600 32.19600
H  34.06600 53.13900 26.89600
H  34.98300 51.48300 20.91700
H  37.35300 45.76200 22.83000
H  34.44300 49.55700 29.85900
H  35.31200 52.26900 29.09900
H  32.91300 51.25700 30.22300
H  32.47400 51.18500 28.55000
H  33.01600 52.72500 29.32900
H  36.48800 51.22200 30.80100
H  37.34500 49.76500 30.05800
H  36.70000 50.03200 32.59400
H  36.50600 48.46900 31.99200
H  33.02200 54.56400 25.98200
H  32.13600 54.55600 24.48000
H  33.59000 55.53800 24.64800
H  33.58900 55.98900 22.56800
H  32.01700 55.19400 22.23600
H  32.90600 55.73900 20.92100
H  36.79900 49.39900 19.90400
H  35.81200 46.78900 20.68200
H  33.92300 49.13400 19.87400
H  34.72500 47.71300 19.18600
H  34.98000 49.39400 18.53100
H  37.83500 47.29600 19.41100
H  37.97400 46.02700 20.64100
H  38.84900 48.55300 21.88100
H  39.82400 48.29100 20.54100
H  39.70700 47.05200 21.81600
H  38.50200 44.32800 24.48600
H  36.99100 43.45600 24.59800
H  37.91800 43.60100 26.05800
H  37.21400 47.04700 29.67500
H  34.95400 44.32500 31.86400
H  34.05800 45.75200 32.25700
H  35.56900 45.48800 33.15700

