158

Mg 24.33000 -4.96500 45.22100
C  26.85600 -3.02100 43.84100
C  22.12400 -3.54600 43.12100
C  22.29000 -7.57000 45.83300
C  26.91500 -6.76200 46.96300
N  24.47600 -3.39500 43.88000
C  25.56000 -2.72700 43.39100
C  25.22500 -1.59500 42.31700
C  23.66600 -1.65800 42.43400
C  23.35200 -2.90700 43.23000
C  22.93900 -0.34900 43.01100
C  25.66800 -2.09900 40.91700
C  26.23800 -0.94900 40.07700
H  26.02000 -0.94200 38.53600
N  22.43600 -5.50600 44.53000
C  21.68300 -4.78900 43.63300
C  20.45100 -5.47500 43.42600
C  20.49300 -6.64500 44.24500
C  21.72400 -6.57600 44.98700
C  19.35800 -4.99200 42.49200
C  19.41500 -7.67900 44.33200
O  18.37800 -7.57700 43.61400
C  19.37000 -8.79500 45.31800
N  24.69600 -7.00100 46.11600
C  23.54400 -7.72500 46.44100
C  23.89100 -8.96500 47.31100
C  25.30200 -8.58100 47.83500
C  25.68600 -7.39900 46.93000
C  22.86400 -9.23700 48.51300
C  26.28700 -9.79100 47.93700
C  26.81100 -10.40900 46.60800
N  26.42800 -4.85700 45.53400
C  27.31800 -5.63000 46.22500
C  28.68800 -5.11900 46.04800
C  28.54300 -4.09300 45.10300
C  27.17900 -3.99700 44.81900
C  29.93400 -5.69200 46.63700
C  29.25700 -3.12500 44.35100
O  30.48600 -2.89600 44.37000
C  28.20400 -2.45000 43.37800
C  28.36200 -1.03300 43.57200
O  27.87700 -0.25300 44.36600
O  29.07000 -0.60500 42.43800
C  28.99100 0.85000 42.06900
H  21.49400 -3.05800 42.37400
H  21.61300 -8.38800 46.08800
H  27.69700 -7.32300 47.47800
H  25.60800 -0.65700 42.72000
H  23.01600 -1.83700 41.57800
H  22.43600 0.21500 42.22600
H  23.62800 0.44000 43.31500
H  22.32600 -0.58500 43.88100
H  24.90300 -2.71000 40.43700
H  26.49700 -2.80600 40.95500
H  27.30800 -0.94600 40.28300
H  25.84300 0.00400 40.43000
H  19.87600 -5.03700 41.53400
H  19.14000 -3.95100 42.72900
H  18.42700 -5.55900 42.46300
H  19.61600 -8.47100 46.33000
H  19.98900 -9.61400 44.95300
H  18.34500 -9.16400 45.33700
H  23.82700 -9.86400 46.69900
H  25.16200 -8.07200 48.78900
H  22.08000 -8.48600 48.61000
H  23.25300 -9.50700 49.49400
H  22.30000 -10.10300 48.16500
H  25.70700 -10.59300 48.39300
H  27.06600 -9.70100 48.69500
H  27.88900 -10.53900 46.69900
H  26.71900 -9.67500 45.80700
H  26.38100 -11.35200 46.27100
H  30.51200 -6.09200 45.80400
H  29.64700 -6.54300 47.25600
H  30.55400 -4.96400 47.16000
H  28.55000 -2.82300 42.41400
H  28.83300 1.44700 42.96800
H  28.27800 0.99200 41.25800
H  29.92700 1.16800 41.61000
Mg -1.91200 35.38900 26.33600
C  -3.85600 33.99700 28.94300
C  -0.97900 37.88200 28.56200
C  0.10100 36.63800 23.95600
C  -3.25300 33.12700 24.10200
N  -2.30300 35.72100 28.62700
C  -3.19600 35.08500 29.48200
C  -3.24200 35.76600 30.90700
C  -2.49500 37.06300 30.55900
C  -1.86700 36.90900 29.15900
C  -3.59600 38.20300 30.62400
C  -2.55600 34.83000 31.98000
C  -3.34600 34.60100 33.32200
H  -2.53500 34.25300 34.52300
N  -0.58500 36.99900 26.28300
C  -0.39200 37.95900 27.29200
C  0.59200 38.85200 26.90000
C  0.92100 38.53400 25.54200
C  0.17500 37.31600 25.16400
C  0.97100 40.05100 27.82200
C  1.83300 39.19000 24.53100
O  1.95100 39.02200 23.35200
C  2.60000 40.28700 25.03300
N  -1.80700 35.12500 24.26600
C  -0.80700 35.65900 23.50700
C  -0.87400 35.21600 22.09100
C  -1.66000 33.86600 22.28800
C  -2.35300 34.01800 23.63600
C  -1.62100 36.19200 21.12700
C  -0.70300 32.62900 22.30800
C  -1.33700 31.43900 21.57800
N  -3.22400 33.78200 26.45200
C  -3.76900 33.00400 25.44800
C  -4.54200 31.98400 26.08100
C  -4.72000 32.36000 27.46000
C  -3.83700 33.47900 27.63700
C  -5.35900 30.92900 25.31500
C  -5.29900 31.91300 28.70400
O  -6.06900 30.98600 29.04300
C  -4.78500 33.05000 29.71100
C  -5.86100 33.80100 30.48900
O  -6.40100 34.87200 30.18600
O  -5.93500 33.21900 31.77600
C  -6.99800 33.65700 32.71100
H  -0.56000 38.58900 29.28200
H  0.65000 36.95200 23.06600
H  -3.58600 32.28600 23.49100
H  -4.26100 35.96000 31.24400
H  -1.77700 37.22800 31.36200
H  -4.63600 37.92300 30.79400
H  -3.51400 38.83800 29.74200
H  -3.20400 38.89700 31.36800
H  -1.54900 35.17000 32.21900
H  -2.44100 33.81900 31.58900
H  -4.02300 33.76000 33.17000
H  -3.73400 35.60700 33.48200
H  0.92100 40.99000 27.27100
H  2.02100 39.93100 28.08800
H  0.30900 40.27000 28.66100
H  2.82300 40.09000 26.08100
H  1.92000 41.13200 24.91800
H  3.53600 40.39500 24.48500
H  0.16100 35.07000 21.78200
H  -2.42100 33.74500 21.51800
H  -1.43300 35.78500 20.13400
H  -1.16200 37.17100 21.26600
H  -2.68600 36.17100 21.35800
H  -0.72700 32.34900 23.36100
H  0.32000 32.74200 21.94600
H  -0.63200 30.89100 20.95300
H  -2.23000 31.63000 20.98400
H  -1.63000 30.69900 22.32200
H  -4.76000 30.30900 24.64700
H  -6.10100 31.41400 24.68100
H  -5.84500 30.25400 26.01900
H  -4.21800 32.61500 30.53400
H  -7.32200 32.78800 33.28300
H  -7.91400 34.04100 32.26300
H  -6.57300 34.47100 33.29800

