158

Mg -2.72600 16.99300 26.15900
C  -3.17200 14.88700 28.85600
C  -2.99500 19.67400 28.31100
C  -2.40000 19.03600 23.47500
C  -2.52600 14.31900 23.97200
N  -3.09900 17.19000 28.28700
C  -3.24200 16.17000 29.23500
C  -3.27900 16.79600 30.65900
C  -3.57800 18.31100 30.37900
C  -3.12000 18.42500 28.91200
C  -5.03900 18.65700 30.66000
C  -2.03200 16.36400 31.62100
C  -1.68100 17.28800 32.77600
H  -1.04800 16.67200 34.06800
N  -2.66900 19.07600 25.96400
C  -2.75600 20.05000 26.97200
C  -2.85200 21.34400 26.31600
C  -2.49200 21.13800 24.95300
C  -2.49400 19.68500 24.74600
C  -3.06200 22.57800 27.21200
C  -2.19200 22.23000 23.95100
O  -1.70800 21.92400 22.87600
C  -2.38600 23.71300 24.34600
N  -2.48500 16.64800 24.07400
C  -2.41200 17.72000 23.20900
C  -2.37700 17.23700 21.72300
C  -2.55300 15.72800 21.86300
C  -2.38600 15.49900 23.39500
C  -3.34800 17.99200 20.83100
C  -1.82300 14.82700 20.83800
C  -2.74800 14.35100 19.64100
N  -2.85100 14.96800 26.29600
C  -2.69600 14.01900 25.34800
C  -2.87100 12.73900 25.95400
C  -3.07000 13.01300 27.32400
C  -3.02300 14.39200 27.47200
C  -2.68300 11.45100 25.24600
C  -3.24800 12.34400 28.59200
O  -3.38600 11.16600 28.81500
C  -3.34700 13.57700 29.65300
C  -2.22400 13.33900 30.64500
O  -1.04900 13.59600 30.50100
O  -2.76400 12.76500 31.76500
C  -1.86100 12.53600 32.95600
H  -2.90600 20.41400 29.10900
H  -2.44400 19.71500 22.62200
H  -2.58500 13.43500 23.33400
H  -4.08400 16.20300 31.09400
H  -2.92000 18.90300 31.01600
H  -5.56400 17.86200 31.18900
H  -5.50100 18.82300 29.68700
H  -5.26100 19.59600 31.16700
H  -1.07900 16.26500 31.10000
H  -2.33700 15.43100 32.09400
H  -2.67300 17.62100 33.08200
H  -1.11600 18.13600 32.39000
H  -2.15700 23.16700 27.36200
H  -3.43900 22.34100 28.20700
H  -3.79000 23.25000 26.76000
H  -2.37400 24.27700 23.41300
H  -1.53300 24.08600 24.91200
H  -3.30300 24.01900 24.85100
H  -1.36600 17.42000 21.35900
H  -3.60700 15.56700 21.63500
H  -3.98900 18.76300 21.26200
H  -3.83300 17.27700 20.16600
H  -2.82000 18.67500 20.16700
H  -1.26000 14.03400 21.33200
H  -1.06700 15.33500 20.24000
H  -2.54600 15.05700 18.83600
H  -3.76900 14.41700 20.01700
H  -2.53500 13.32800 19.33100
H  -3.34100 11.34200 24.38400
H  -2.87300 10.62700 25.93300
H  -1.62400 11.50700 24.99500
H  -4.35300 13.62900 30.06900
H  -1.37700 11.56700 32.83000
H  -2.40800 12.41500 33.89100
H  -1.01500 13.22200 32.97400
Mg 31.08400 58.51600 39.60000
C  28.54500 56.24700 38.35100
C  33.35200 56.00400 39.01300
C  33.27100 60.79600 39.78100
C  28.42200 60.89100 39.98200
N  30.88700 56.41000 38.79500
C  29.83400 55.72200 38.26600
C  30.21300 54.43800 37.66700
C  31.56800 54.19800 38.38100
C  31.94500 55.57500 38.80000
C  31.59000 53.23400 39.62300
C  30.12800 54.47300 36.05300
C  29.03900 53.52900 35.41800
H  28.05500 54.02500 34.38800
N  33.02100 58.47900 39.46700
C  33.77800 57.34300 39.24200
C  35.20500 57.78400 39.21100
C  35.18700 59.15500 39.41900
C  33.81600 59.54500 39.56000
C  36.40400 56.76700 38.89800
C  36.47300 60.00700 39.62200
O  37.60800 59.55200 39.46800
C  36.41600 61.46200 39.79500
N  30.83600 60.55400 39.83600
C  32.00500 61.30400 40.02600
C  31.67500 62.76400 40.23700
C  30.10700 62.73700 40.45300
C  29.77500 61.32900 40.02300
C  32.48100 63.32200 41.44300
C  29.44500 64.00900 39.79000
C  29.62800 65.31500 40.53700
N  28.89800 58.63700 39.38200
C  28.00900 59.65300 39.52000
C  26.66000 59.19500 39.18700
C  26.92200 57.87900 38.69500
C  28.26200 57.59700 38.92800
C  25.35200 59.92500 39.30800
C  26.17100 56.74900 38.27500
O  24.95800 56.56100 38.26000
C  27.22100 55.59500 38.12700
C  26.92800 54.65400 39.23700
O  27.28900 54.74400 40.40900
O  26.07900 53.68900 38.79600
C  25.72700 52.76500 39.86100
H  34.13100 55.26900 38.80300
H  34.05200 61.55700 39.72300
H  27.59000 61.57700 40.15500
H  29.48800 53.70700 38.02500
H  32.30100 53.84400 37.65600
H  32.24400 53.60500 40.41200
H  31.96100 52.32000 39.15800
H  30.62600 53.01100 40.08000
H  31.13100 54.19400 35.73300
H  29.83200 55.50400 35.85500
H  28.43700 52.95200 36.12000
H  29.60700 52.77500 34.87400
H  37.04600 57.10800 38.08600
H  36.04000 55.76000 38.69400
H  36.99100 56.66800 39.81100
H  35.86100 61.82300 40.66100
H  36.11500 61.94300 38.86400
H  37.42200 61.80200 40.03900
H  32.05400 63.18100 39.30400
H  29.98100 62.83700 41.53100
H  33.37000 62.74500 41.69400
H  31.97900 63.53400 42.38800
H  32.84100 64.26300 41.02700
H  28.37500 63.87400 39.63600
H  29.91000 64.13200 38.81200
H  30.37600 65.84100 39.94500
H  29.96700 65.06600 41.54300
H  28.73100 65.92600 40.63300
H  25.15200 60.66100 40.08700
H  24.50900 59.23800 39.24100
H  25.46100 60.60000 38.45900
H  27.07300 55.04700 37.19600
H  26.54300 52.04800 39.95600
H  24.86800 52.28200 39.39600
H  25.44500 53.19100 40.82400

