158

Mg 30.07300 59.48400 39.34400
C  27.09400 58.00000 38.15800
C  31.82000 56.82800 37.99400
C  32.97000 61.13200 39.65300
C  28.18500 62.45900 39.76900
N  29.53000 57.67200 38.16300
C  28.25400 57.26400 37.85100
C  28.21800 55.91900 37.07900
C  29.74400 55.47900 37.34900
C  30.42000 56.74000 37.88600
C  29.96900 54.23600 38.09700
C  27.88500 56.08700 35.48800
C  26.82900 55.14100 34.96800
H  25.89100 55.76900 33.95700
N  32.19500 58.91600 39.03000
C  32.69200 57.84400 38.47700
C  34.16300 57.82200 38.56400
C  34.55500 59.11600 39.18100
C  33.21100 59.79800 39.35000
C  35.00200 56.73900 38.02200
C  35.85900 59.58100 39.46400
O  36.79400 58.79000 39.49200
C  36.19600 61.05300 39.81800
N  30.43000 61.47000 39.71300
C  31.73500 61.92800 39.73700
C  31.84800 63.47400 39.71200
C  30.34800 63.88800 39.98200
C  29.56300 62.56900 39.73800
C  32.85800 63.96500 40.76500
C  29.80800 65.07800 39.17900
C  29.34900 66.32600 39.96100
N  28.01000 60.10900 39.29800
C  27.40000 61.34100 39.45000
C  25.99400 61.21300 39.26200
C  25.81400 59.88500 38.78500
C  27.12600 59.26100 38.71800
C  24.92200 62.31700 39.34000
C  24.78600 58.91900 38.31200
O  23.59300 59.01100 38.08600
C  25.64100 57.56600 37.95100
C  25.34500 56.33200 38.78700
O  25.69200 56.24800 39.97200
O  24.59600 55.38400 38.13600
C  24.21800 54.11400 38.88100
H  32.34900 55.93500 37.65600
H  33.84100 61.79000 39.63200
H  27.55900 63.34400 39.63900
H  27.50400 55.26400 37.57800
H  30.29800 55.46100 36.41000
H  29.04600 53.67000 37.97100
H  30.05500 54.40000 39.17200
H  30.86300 53.72800 37.73500
H  28.85700 55.85100 35.05700
H  27.59400 57.10800 35.23800
H  26.24900 54.70800 35.78200
H  27.25800 54.24400 34.52000
H  34.53800 56.44900 37.07900
H  34.88600 55.87900 38.68200
H  36.03800 57.00100 37.80700
H  37.22100 61.06500 40.18700
H  35.52300 61.16400 40.66800
H  36.00400 61.74100 38.99400
H  32.19200 63.81000 38.73400
H  30.35200 64.12800 41.04500
H  33.26300 63.11300 41.31100
H  32.42500 64.64500 41.50000
H  33.58000 64.62900 40.29100
H  29.00300 64.70200 38.54700
H  30.61000 65.33900 38.48900
H  29.97500 67.19700 39.77000
H  29.40900 66.15000 41.03500
H  28.36100 66.64700 39.62900
H  24.66900 62.49900 38.29600
H  25.32300 63.23400 39.77200
H  24.03500 62.11200 39.94000
H  25.50100 57.31800 36.89900
H  25.05900 53.74100 39.46600
H  23.74900 53.40600 38.19800
H  23.45000 54.36400 39.61200
Mg 16.43700 51.46100 25.15200
C  18.08100 50.54500 28.03400
C  13.76600 52.49000 27.06500
C  14.63400 51.75300 22.35300
C  19.04900 49.76900 23.32500
N  16.01300 51.50300 27.35400
C  16.87200 51.14200 28.33900
C  16.26000 51.61200 29.72000
C  14.77700 52.02200 29.36300
C  14.81000 51.98800 27.83700
C  13.61600 51.29100 30.11200
C  17.30200 52.61700 30.40900
C  17.80300 52.33500 31.84600
H  16.94300 51.60300 32.81200
N  14.50400 52.14600 24.80200
C  13.58200 52.53600 25.69800
C  12.32700 53.01700 25.06600
C  12.55700 52.71000 23.66100
C  13.94200 52.12200 23.52000
C  11.06200 53.63000 25.63500
C  11.65300 52.92500 22.48000
O  11.96400 52.71100 21.31800
C  10.22700 53.41600 22.63000
N  16.82000 50.92600 23.10100
C  15.91300 51.17200 22.11600
C  16.44700 50.78700 20.62000
C  17.92800 50.39000 21.02900
C  17.91000 50.31900 22.57300
C  15.62700 49.66600 19.92200
C  19.08500 51.21400 20.45700
C  19.35000 52.65700 20.97100
N  18.27400 50.41700 25.49500
C  19.22300 49.77800 24.69300
C  20.19400 49.18300 25.57300
C  19.85400 49.54700 26.86100
C  18.64400 50.23600 26.77800
C  21.28800 48.23000 25.08100
C  20.18100 49.37700 28.25900
O  21.11100 48.80400 28.77800
C  19.05400 50.01900 29.03300
C  18.48500 48.86700 29.89300
O  17.67700 48.03600 29.49200
O  19.13600 48.86900 31.10300
C  18.64800 47.85500 32.00800
H  12.90500 52.73700 27.68900
H  14.15100 51.83300 21.37600
H  19.97700 49.32100 22.96200
H  16.20300 50.71700 30.33900
H  14.52800 53.07300 29.51100
H  13.98600 50.77300 30.99700
H  12.99200 50.61000 29.53500
H  12.94600 52.04900 30.51900
H  16.74700 53.55100 30.31200
H  18.14400 52.83500 29.75200
H  18.18300 53.20400 32.38300
H  18.71000 51.75200 31.69100
H  11.26600 53.79300 26.69300
H  10.19900 52.97900 25.50000
H  10.79100 54.65800 25.39400
H  10.40400 54.45000 22.92700
H  9.73100 52.68000 23.26300
H  9.73100 53.32700 21.66400
H  16.37300 51.60900 19.90800
H  18.17100 49.36600 20.74600
H  15.11000 50.17000 19.10500
H  14.82600 49.31200 20.57100
H  16.25400 48.80300 19.69300
H  18.89900 51.19500 19.38300
H  19.88900 50.52000 20.70000
H  20.28500 52.64000 21.53200
H  18.44400 52.98700 21.48000
H  19.44000 53.35100 20.13500
H  21.12700 47.79300 24.09500
H  21.26900 47.41500 25.80300
H  22.20100 48.81900 25.16500
H  19.47600 50.74300 29.73000
H  17.64000 47.45400 31.90500
H  18.63700 48.32100 32.99400
H  19.36300 47.03200 32.03400

