158

Mg 42.04400 41.64700 26.27300
C  41.06000 44.05700 28.56900
C  42.76400 39.42000 28.91800
C  43.29500 39.39000 24.01000
C  42.08600 44.05200 23.77300
N  42.04400 41.77500 28.51700
C  41.40900 42.79300 29.18300
C  41.35000 42.51300 30.66400
C  41.89500 41.01300 30.80900
C  42.25800 40.67200 29.31300
C  43.15700 40.81800 31.69100
C  39.88200 42.72600 31.35300
C  39.68900 41.92600 32.69100
H  38.87200 42.61500 33.80800
N  42.80600 39.63400 26.40100
C  43.05800 38.95600 27.58800
C  43.68300 37.68500 27.26100
C  43.78000 37.63200 25.84900
C  43.36200 38.91600 25.36200
C  44.03600 36.61600 28.28600
C  44.17200 36.47200 24.94500
O  44.32500 36.54400 23.72400
C  44.50900 35.11700 25.48600
N  42.67500 41.67900 24.19900
C  43.08400 40.60700 23.48000
C  43.29800 40.97300 21.98200
C  42.81900 42.50700 21.95100
C  42.48600 42.80200 23.40000
C  44.79600 40.72500 21.48600
C  41.58400 42.64100 20.91900
C  41.51000 44.04100 20.20300
N  41.63800 43.67100 26.13800
C  41.60900 44.43200 25.01900
C  40.91700 45.72500 25.39600
C  40.78900 45.61800 26.80000
C  41.15500 44.34000 27.19900
C  40.51600 46.70700 24.41400
C  40.30400 46.31600 27.99000
O  39.77300 47.39100 28.05800
C  40.50500 45.30700 29.21000
C  41.43300 45.94000 30.15700
O  42.62900 46.14100 29.90200
O  40.80400 46.13000 31.36900
C  41.55700 46.73100 32.49400
H  42.76900 38.64700 29.68900
H  43.55400 38.60600 23.29500
H  42.05100 44.83800 23.01600
H  42.07300 43.17400 31.14200
H  41.14200 40.25500 31.02300
H  43.95700 41.25100 31.09000
H  43.28500 39.74900 31.85900
H  43.04100 41.40200 32.60400
H  39.13400 42.48500 30.59800
H  39.70600 43.76900 31.61600
H  40.60500 41.81300 33.27100
H  39.19800 41.00300 32.38200
H  44.07300 36.99200 29.30800
H  45.05700 36.34100 28.02200
H  43.33700 35.78200 28.22400
H  43.63100 34.92500 26.10300
H  45.43500 35.21300 26.05300
H  44.68700 34.35500 24.72700
H  42.62700 40.27400 21.48100
H  43.63500 43.19100 21.71600
H  45.47900 40.60800 22.32800
H  45.26800 41.52700 20.91700
H  44.89400 39.96500 20.71200
H  40.65900 42.47800 21.47200
H  41.67800 41.86900 20.15500
H  40.46900 44.36500 20.21700
H  41.96800 43.99800 19.21500
H  42.15700 44.70300 20.77700
H  39.60700 47.23500 24.70000
H  40.11200 46.24600 23.51300
H  41.34900 47.38600 24.23000
H  39.54500 45.07600 29.67200
H  42.59300 47.06500 32.43500
H  41.61400 45.98800 33.28800
H  40.86500 47.43900 32.95000
Mg 9.80700 47.86900 26.83700
C  8.11900 48.11100 29.90700
C  12.46300 49.55800 28.36800
C  11.16600 47.95400 23.88000
C  6.54000 47.11500 25.38600
N  10.19000 48.72000 28.86800
C  9.41200 48.54300 30.01600
C  10.18300 48.92600 31.25500
C  11.19800 49.88800 30.56000
C  11.37600 49.35000 29.16600
C  10.86200 51.42900 30.64300
C  10.82300 47.70900 32.13700
C  10.43800 47.78400 33.65300
H  10.31200 46.47600 34.39200
N  11.66000 48.49100 26.22600
C  12.62700 49.10200 27.00500
C  13.81700 49.25500 26.15500
C  13.47900 48.70600 24.85200
C  12.02900 48.36100 24.92200
C  15.06300 49.99900 26.63700
C  14.41700 48.59300 23.69000
O  14.06800 48.20400 22.59900
C  15.89000 48.83200 23.94200
N  8.94100 47.68500 24.91300
C  9.76700 47.71500 23.86800
C  9.06400 47.28200 22.55000
C  7.64400 46.82000 23.06300
C  7.68600 47.31600 24.57400
C  9.01900 48.29700 21.50600
C  7.39100 45.28500 22.94200
C  7.96500 44.25000 23.94300
N  7.68700 47.70600 27.51300
C  6.50400 47.33000 26.81900
C  5.39800 47.13600 27.73600
C  6.04900 47.39400 29.01800
C  7.41100 47.74900 28.78600
C  3.94800 46.73500 27.40600
C  5.75800 47.40100 30.44900
O  4.72300 47.24000 31.04600
C  7.15600 47.76200 31.06500
C  7.57800 46.47300 31.74300
O  7.89500 45.48000 31.16800
O  7.32000 46.53500 33.09200
C  7.24600 45.27400 33.78100
H  13.25400 50.14400 28.84200
H  11.62600 47.81900 22.89900
H  5.60600 46.71700 24.98400
H  9.56700 49.55200 31.90100
H  12.12900 49.87300 31.12600
H  10.16600 51.60800 31.46200
H  10.50100 51.75000 29.66600
H  11.74800 52.04200 30.80700
H  11.91100 47.73800 32.08800
H  10.45900 46.76100 31.74200
H  9.49100 48.32400 33.64400
H  11.22900 48.31500 34.18300
H  14.82500 50.41500 27.61600
H  15.34900 50.70900 25.86200
H  15.90700 49.31400 26.71800
H  16.22100 48.14800 24.72300
H  16.08600 49.87300 24.20100
H  16.49300 48.55400 23.07700
H  9.57200 46.36500 22.25100
H  6.85700 47.35100 22.52800
H  9.79500 49.01000 21.78600
H  8.10900 48.89400 21.56700
H  9.17900 48.04100 20.45900
H  7.62200 44.97200 21.92300
H  6.35200 45.04900 23.17500
H  8.60300 44.78200 24.64900
H  8.68800 43.59500 23.45800
H  7.24400 43.79500 24.62300
H  3.75700 46.57500 26.34500
H  3.27200 47.47600 27.83300
H  3.75000 45.78500 27.90200
H  7.09100 48.54100 31.82500
H  7.75000 44.39800 33.37300
H  6.19600 44.99100 33.85200
H  7.67800 45.48400 34.75900

