158

Mg 40.32100 8.77600 29.39800
C  42.15600 9.80400 32.21400
C  38.36600 6.98400 31.45900
C  38.62400 8.01200 26.67400
C  42.91700 10.01100 27.37700
N  40.23300 8.55700 31.67200
C  41.04000 9.07600 32.61600
C  40.43300 8.69800 34.02600
C  39.55700 7.37700 33.75800
C  39.34500 7.63500 32.23000
C  40.24000 5.99200 34.16100
C  39.60600 9.86700 34.62200
C  39.92500 10.22900 36.12500
H  40.47400 11.54800 36.53400
N  38.69300 7.71100 29.08400
C  38.04300 6.96600 30.09400
C  37.00000 6.27200 29.38700
C  36.93100 6.63300 28.04900
C  38.07800 7.54300 27.90200
C  36.06900 5.29900 30.18900
C  35.91100 6.18200 26.96800
O  35.88900 6.51100 25.77800
C  34.77600 5.51200 27.36100
N  40.73900 9.01600 27.29900
C  39.80300 8.65200 26.38600
C  40.22600 9.11300 24.98300
C  41.70100 9.63600 25.20000
C  41.79600 9.50500 26.69800
C  40.25300 7.94100 23.97000
C  41.77800 11.13100 24.69600
C  43.29000 11.47300 24.32300
N  42.22100 9.65800 29.70300
C  43.13100 10.06500 28.79500
C  44.27900 10.74200 29.55500
C  43.87800 10.69500 30.89200
C  42.57500 10.02700 30.93900
C  45.36900 11.44700 28.93300
C  44.26700 11.13900 32.26200
O  45.19700 11.86700 32.66100
C  43.20800 10.45700 33.18700
C  44.05100 9.39800 33.82300
O  44.11100 8.21400 33.50100
O  44.74200 9.96200 34.87900
C  45.32900 9.05000 35.85800
H  37.79500 6.26300 32.04700
H  38.01800 7.76300 25.80000
H  43.68000 10.49200 26.76200
H  41.26700 8.58600 34.71900
H  38.53900 7.42000 34.14500
H  39.59400 5.55200 34.92000
H  41.15000 6.13500 34.74400
H  40.39100 5.30400 33.32800
H  38.54000 9.64700 34.58300
H  39.83800 10.79000 34.09000
H  40.56500 9.45200 36.54500
H  38.94800 10.13300 36.59900
H  36.43800 4.91200 31.13900
H  35.85200 4.41700 29.58600
H  35.10600 5.77500 30.37200
H  34.09100 5.47200 26.51400
H  34.19300 6.06200 28.09900
H  34.96600 4.47100 27.62300
H  39.58500 9.92200 24.63500
H  42.49000 8.98100 24.83000
H  40.81200 7.04200 24.22800
H  40.75100 8.32200 23.07900
H  39.33500 7.44000 23.66300
H  41.63600 11.81300 25.53400
H  41.07800 11.39900 23.90400
H  43.20100 11.97000 23.35700
H  44.02200 10.66500 24.32100
H  43.73800 12.19800 25.00300
H  44.93900 11.94000 28.06100
H  46.07900 10.71200 28.55200
H  45.88200 12.05700 29.67700
H  42.68100 11.11000 33.88200
H  45.77800 9.65000 36.64900
H  45.96100 8.24700 35.47900
H  44.51600 8.44600 36.25900
Mg -10.78900 15.73100 43.09100
C  -7.35900 16.31000 43.05700
C  -11.26500 19.11400 42.80900
C  -14.04300 15.14300 42.10700
C  -10.17100 12.29100 42.83200
N  -9.39200 17.49500 42.79600
C  -8.03900 17.47600 42.98000
C  -7.46000 18.88200 42.80900
C  -8.75700 19.78300 42.96700
C  -9.93800 18.73400 42.93400
C  -8.84600 20.55400 44.32000
C  -6.81900 19.09500 41.38300
C  -5.42300 19.75700 41.35200
H  -4.34200 19.25000 40.38300
N  -12.43900 16.95200 42.49200
C  -12.42900 18.32200 42.53900
C  -13.70700 18.87000 42.16900
C  -14.53700 17.72300 41.85900
C  -13.66300 16.51500 42.13400
C  -14.05000 20.30400 41.98900
C  -15.93900 17.91300 41.48000
O  -16.52000 18.97600 41.50300
C  -16.69000 16.70600 41.17100
N  -12.00000 13.98200 42.59700
C  -13.31100 14.03100 42.44700
C  -13.95600 12.57100 42.34500
C  -12.63900 11.69200 42.30100
C  -11.55200 12.73700 42.69200
C  -14.81100 12.20200 43.53000
C  -12.44400 10.95100 40.92200
C  -12.34900 9.41800 41.00300
N  -9.17600 14.46200 43.02900
C  -9.03800 13.11000 42.97400
C  -7.62200 12.72500 43.15800
C  -6.91700 13.96300 43.15800
C  -7.87800 14.97400 43.10400
C  -7.08800 11.31500 43.14200
C  -5.55600 14.59400 43.14000
O  -4.42200 14.10000 43.06100
C  -5.81200 16.11800 43.29800
C  -5.40300 16.43100 44.68800
O  -6.05700 16.52700 45.72400
O  -4.05200 16.61900 44.64400
C  -3.21500 16.81600 45.83000
H  -11.29900 20.20200 42.72000
H  -15.01500 14.85000 41.70500
H  -10.07300 11.23500 42.57400
H  -6.82100 18.99600 43.68400
H  -8.84500 20.43100 42.09500
H  -8.94000 21.57500 43.94900
H  -7.93100 20.47200 44.90600
H  -9.72800 20.17400 44.83500
H  -7.63400 19.46800 40.76400
H  -6.72600 18.07600 41.00700
H  -5.01300 19.49100 42.32700
H  -5.45900 20.84600 41.32100
H  -13.25200 20.87600 42.46000
H  -14.87600 20.57600 42.64500
H  -14.30800 20.48700 40.94600
H  -17.70700 16.91900 40.84100
H  -16.95400 16.20600 42.10200
H  -16.17900 15.98900 40.52800
H  -14.45500 12.60000 41.37600
H  -12.76700 10.92800 43.06800
H  -15.83900 12.01800 43.21800
H  -14.80300 12.89400 44.37300
H  -14.65700 11.23300 44.00300
H  -11.49800 11.23000 40.45800
H  -13.13800 11.32800 40.17100
H  -11.39800 9.13300 40.55200
H  -13.21300 9.05400 40.44800
H  -12.27900 8.95900 41.99000
H  -7.40700 10.74700 44.01500
H  -6.00000 11.30000 43.07500
H  -7.30400 10.80400 42.20300
H  -5.23400 16.66500 42.55300
H  -2.53700 15.96900 45.93800
H  -3.65700 17.09700 46.78500
H  -2.54700 17.66300 45.66600

