158

Mg 1.87300 -1.96500 44.66900
C  5.33500 -1.23400 44.22300
C  1.31100 0.97300 42.87500
C  -1.26800 -2.81300 44.53400
C  2.83900 -5.22700 45.52200
N  3.17800 -0.35100 43.75600
C  4.50800 -0.29800 43.62100
C  4.97900 0.89600 42.76000
C  3.73100 1.79700 42.80600
C  2.64300 0.78600 43.20700
C  3.83800 3.05100 43.70500
C  5.51500 0.49200 41.35700
C  6.59600 1.26600 40.72800
H  6.36900 1.89200 39.33700
N  0.23400 -0.94100 43.92100
C  0.20000 0.20400 43.13100
C  -1.13900 0.45500 42.69500
C  -1.90000 -0.62400 43.17900
C  -0.99200 -1.54400 43.95800
C  -1.51900 1.64900 41.89800
C  -3.40400 -0.60100 43.23800
O  -3.97300 0.19000 42.54700
C  -4.25500 -1.47900 44.05900
N  0.96700 -3.84300 44.80500
C  -0.39800 -3.84400 44.88200
C  -0.85900 -5.21500 45.52500
C  0.46500 -6.01700 45.81500
C  1.50300 -5.02100 45.35200
C  -1.78400 -5.10000 46.76200
C  0.55900 -7.43100 45.02100
C  0.37000 -8.65900 45.90000
N  3.63100 -3.05400 44.93500
C  3.90000 -4.31300 45.31700
C  5.28500 -4.47500 45.61200
C  5.88400 -3.23800 45.24400
C  4.83700 -2.42700 44.81100
C  5.96400 -5.76100 46.12400
C  7.15100 -2.48900 45.22300
O  8.27000 -2.80600 45.65300
C  6.78900 -1.18000 44.47100
C  7.33800 0.07300 45.17000
O  7.19900 0.41000 46.35000
O  7.91400 0.76100 44.18500
C  8.47200 2.07700 44.43300
H  1.27500 1.85500 42.23300
H  -2.31700 -3.08400 44.67100
H  3.16500 -6.13100 46.04000
H  5.80500 1.44400 43.21200
H  3.64900 2.26000 41.82300
H  2.82100 3.24100 44.04900
H  4.11500 3.96700 43.18300
H  4.59200 2.95600 44.48700
H  4.68300 0.60200 40.66200
H  5.93900 -0.51000 41.43100
H  7.35200 0.50500 40.53500
H  6.90700 2.04400 41.42600
H  -0.71900 2.37300 41.74000
H  -2.28200 2.09300 42.53900
H  -1.76400 1.36300 40.87600
H  -4.27900 -2.50400 43.69000
H  -5.26300 -1.10000 44.22500
H  -3.95600 -1.50700 45.10600
H  -1.37500 -5.68800 44.69000
H  0.53700 -6.11400 46.89900
H  -2.76300 -5.39500 46.38500
H  -1.83400 -4.07900 47.14200
H  -1.46700 -5.75500 47.57400
H  1.54300 -7.58500 44.57800
H  -0.14600 -7.45600 44.19000
H  1.26700 -9.27300 45.98300
H  -0.59600 -9.13200 45.72600
H  0.16800 -8.31000 46.91200
H  6.49200 -5.48800 47.03800
H  6.54800 -6.19900 45.31500
H  5.15500 -6.44600 46.37800
H  7.32100 -1.29800 43.52700
H  7.59300 2.70700 44.56600
H  8.98600 2.39800 43.52700
H  9.19200 2.16100 45.24700
Mg 43.13400 41.55300 26.34500
C  41.97800 43.87100 28.54200
C  44.29100 39.50600 28.82000
C  44.68000 39.72100 23.93000
C  42.42400 43.93100 23.78500
N  43.24000 41.79900 28.46100
C  42.47000 42.69400 29.12800
C  42.36200 42.41900 30.66100
C  43.16500 41.01100 30.69700
C  43.62700 40.74500 29.24500
C  44.47200 41.01200 31.51200
C  40.85200 42.25400 31.27500
C  40.72400 41.47300 32.57100
H  39.91900 42.05000 33.71100
N  44.18300 39.78200 26.37000
C  44.49600 39.07400 27.47300
C  45.09000 37.81800 27.06600
C  45.19300 37.81600 25.68300
C  44.70300 39.16600 25.26300
C  45.53600 36.83800 28.08500
C  45.64200 36.77500 24.67300
O  45.71900 37.00300 23.45300
C  46.04700 35.42800 25.11000
N  43.73200 41.88700 24.13200
C  44.23900 40.89900 23.40700
C  44.25200 41.25900 21.86700
C  43.47000 42.63200 21.80300
C  43.21300 42.90000 23.32400
C  45.64000 41.27200 21.24700
C  42.19300 42.54300 20.98300
C  42.01100 43.61000 19.88700
N  42.33500 43.50100 26.14200
C  42.08500 44.25800 25.06000
C  41.46100 45.50800 25.48200
C  41.30800 45.43100 26.89100
C  41.86300 44.19500 27.19200
C  41.01400 46.61200 24.59700
C  40.83100 46.02300 28.12000
O  40.28400 47.11000 28.23500
C  41.20100 45.01200 29.28100
C  42.17400 45.71800 30.13000
O  43.38400 45.82300 30.03600
O  41.55000 46.11300 31.29600
C  42.44400 46.56200 32.46700
H  44.38500 38.78500 29.63500
H  45.14200 39.13300 23.13400
H  42.04800 44.61000 23.01700
H  42.90900 43.19400 31.19700
H  42.51200 40.22200 31.07000
H  44.24700 41.81400 32.21400
H  45.31500 41.32500 30.89500
H  44.72600 40.09700 32.04700
H  40.20100 41.92800 30.46400
H  40.59800 43.25000 31.63700
H  41.66300 41.07200 32.95400
H  40.20600 40.53200 32.38800
H  44.99300 35.90200 27.95300
H  45.46900 37.13100 29.13300
H  46.55100 36.57500 27.78800
H  45.31700 34.99200 25.79300
H  46.99600 35.55400 25.63100
H  46.28500 34.78600 24.26200
H  43.78900 40.42300 21.34300
H  44.13000 43.43900 21.48400
H  46.33300 40.95100 22.02500
H  45.88100 42.23600 20.80100
H  45.71400 40.46700 20.51600
H  41.33700 42.68300 21.64300
H  42.05900 41.58300 20.48500
H  41.89800 43.09300 18.93400
H  42.91400 44.13500 19.57500
H  41.19600 44.33400 19.92900
H  40.51800 47.37000 25.20400
H  40.43200 46.17800 23.78400
H  41.87100 47.18000 24.23500
H  40.31700 44.49500 29.65300
H  43.51000 46.68400 32.27200
H  42.27900 45.74500 33.17000
H  42.03700 47.48100 32.88700

