158

Mg 47.42700 24.91600 28.50200
C  48.37600 27.11800 31.04300
C  46.42200 22.64000 31.00300
C  47.19600 22.59400 26.10700
C  49.17200 26.96500 26.20400
N  47.41700 24.97500 30.75500
C  47.72100 25.98400 31.53500
C  47.42600 25.66400 32.95400
C  47.00900 24.18400 32.96100
C  46.86700 23.87500 31.46500
C  47.90900 23.22200 33.72500
C  46.30200 26.64800 33.58100
C  46.64600 27.27400 34.97200
H  45.55200 27.17100 36.02100
N  46.66700 22.97200 28.53200
C  46.31900 22.21700 29.65400
C  45.84500 20.89400 29.15400
C  45.99800 20.96400 27.73300
C  46.66900 22.17900 27.42200
C  45.34700 19.80200 30.02800
C  45.62000 19.87700 26.69700
O  45.53200 19.98000 25.48500
C  45.24600 18.52200 27.22600
N  48.24200 24.72100 26.47000
C  47.96800 23.64500 25.69600
C  48.27200 23.83900 24.22800
C  48.86400 25.35700 24.23700
C  48.75200 25.73500 25.72000
C  49.25800 22.78200 23.70300
C  48.17300 26.31400 23.25100
C  46.81400 26.91900 23.66100
N  48.56400 26.71100 28.54100
C  49.15600 27.41500 27.52600
C  49.51300 28.72300 27.97800
C  49.39200 28.62600 29.39200
C  48.80500 27.33600 29.67100
C  49.85500 29.92000 27.14700
C  49.48200 29.35800 30.61700
O  49.88400 30.47000 30.80600
C  48.79800 28.39800 31.78200
C  49.85400 28.17500 32.74000
O  50.71900 27.28800 32.70600
O  49.63800 28.99200 33.82800
C  50.64900 28.80500 34.91300
H  46.13500 21.94500 31.79600
H  46.96200 21.92600 25.27500
H  49.73800 27.64500 25.56400
H  48.37400 25.83600 33.46300
H  46.00600 24.10200 33.37900
H  48.75600 23.72000 34.19700
H  48.33500 22.42300 33.11900
H  47.24000 22.76100 34.45200
H  45.39500 26.08200 33.79300
H  46.06900 27.53400 32.99100
H  46.75400 28.35100 34.84600
H  47.62400 26.94400 35.32200
H  45.86400 18.85800 29.85100
H  44.31800 19.70300 29.68300
H  45.33200 20.11500 31.07200
H  44.86000 17.84400 26.46500
H  44.37500 18.54500 27.88000
H  46.15600 18.07500 27.62800
H  47.34400 23.74500 23.66400
H  49.90600 25.30300 23.92200
H  48.86100 22.41600 22.75600
H  49.61800 21.93600 24.28800
H  50.20400 23.28800 23.50500
H  47.98800 25.74400 22.34100
H  48.90600 27.08000 22.99900
H  46.03000 26.66100 22.95000
H  46.88200 28.00600 23.71500
H  46.47700 26.56000 24.63300
H  49.82900 30.83000 27.74600
H  49.08400 29.91900 26.37700
H  50.86600 29.73800 26.78200
H  47.96100 28.92200 32.24400
H  50.46600 27.77400 35.21700
H  50.57600 29.52400 35.72900
H  51.67800 28.83500 34.55500
Mg -11.54100 16.91500 42.22100
C  -8.29900 17.87000 41.86300
C  -12.59300 20.23200 41.73500
C  -14.86500 16.00500 42.54800
C  -10.39500 13.62900 42.43800
N  -10.56600 18.81100 41.68300
C  -9.20000 18.98000 41.73100
C  -8.70700 20.39600 41.58400
C  -10.13900 21.16300 41.71600
C  -11.19600 20.04600 41.76500
C  -10.24200 22.18600 42.94000
C  -8.02200 20.64600 40.21100
C  -6.75200 21.37400 40.26000
H  -5.62500 21.06400 39.26300
N  -13.48000 17.93700 41.93500
C  -13.68300 19.29500 41.76900
C  -15.08300 19.59500 41.84900
C  -15.75100 18.40000 42.08300
C  -14.73200 17.38100 42.23500
C  -15.55600 21.05000 41.70700
C  -17.25500 18.37200 42.21800
O  -17.95400 19.35700 42.08600
C  -18.00400 16.97500 42.40200
N  -12.46100 15.04400 42.09000
C  -13.81300 14.96400 42.52300
C  -14.10100 13.52500 42.90500
C  -12.76000 12.73200 42.46100
C  -11.78000 13.87100 42.39600
C  -14.48200 13.38000 44.39600
C  -12.80300 11.99800 41.14400
C  -13.70300 10.76000 41.06400
N  -9.72200 15.87200 42.17900
C  -9.37000 14.54700 42.27500
C  -7.93000 14.45400 42.40200
C  -7.44400 15.73800 42.15800
C  -8.57300 16.55700 42.08900
C  -7.21800 13.18200 42.78700
C  -6.27900 16.51500 42.06700
O  -5.13300 16.08400 42.14200
C  -6.76400 18.01300 41.87900
C  -6.33700 18.81500 43.13400
O  -6.82600 18.58300 44.18200
O  -5.29900 19.58600 42.90600
C  -4.65300 20.20600 44.04200
H  -12.88400 21.25200 41.47600
H  -15.85300 15.66900 42.86900
H  -10.10300 12.61400 42.71600
H  -8.24700 20.65600 42.53800
H  -10.23600 21.84500 40.87200
H  -10.12300 23.19800 42.55200
H  -9.55000 21.98700 43.75900
H  -11.24500 22.24300 43.36400
H  -8.59800 21.10400 39.40700
H  -7.83200 19.69400 39.71600
H  -6.38000 21.12200 41.25300
H  -6.97000 22.44100 40.21200
H  -16.53500 21.13800 41.23600
H  -14.82300 21.60600 41.12200
H  -15.57000 21.48700 42.70600
H  -19.02300 17.16800 42.06600
H  -17.98200 16.64400 43.44000
H  -17.61600 16.23400 41.70300
H  -14.88100 13.12400 42.25800
H  -12.26900 12.01000 43.11300
H  -15.46500 12.94000 44.55900
H  -14.38100 14.32700 44.92800
H  -13.77500 12.75500 44.94200
H  -11.81200 11.73500 40.77300
H  -13.18000 12.71400 40.41300
H  -14.53500 10.97500 40.39200
H  -14.02900 10.65700 42.09900
H  -13.16400 9.87300 40.73400
H  -7.36600 12.95400 43.84300
H  -6.15900 13.33100 42.58000
H  -7.67500 12.41100 42.16600
H  -6.31200 18.24300 40.91400
H  -5.24600 21.01600 44.46400
H  -3.75600 20.76200 43.76700
H  -4.26300 19.51100 44.78600

