158

Mg -8.56100 40.71900 43.11800
C  -7.54300 37.43500 42.40500
C  -5.53700 41.68100 41.46300
C  -9.67500 43.82500 43.05700
C  -11.53100 39.53300 44.34600
N  -6.73300 39.65000 42.17100
C  -6.56600 38.29600 42.00700
C  -5.39200 37.91000 41.12200
C  -4.54700 39.15000 41.12800
C  -5.64200 40.30700 41.56200
C  -3.43200 39.21000 42.14800
C  -5.67600 37.45900 39.64600
C  -4.85500 36.24200 39.13000
H  -3.84900 36.52100 37.95100
N  -7.71200 42.51000 42.39600
C  -6.47800 42.68000 41.80100
C  -6.35000 44.06200 41.48000
C  -7.44300 44.78300 42.05000
C  -8.34000 43.70400 42.56100
C  -5.10300 44.62900 40.82400
C  -7.60300 46.29600 42.16700
O  -6.82600 47.01900 41.56600
C  -8.82400 46.92200 43.00100
N  -10.40400 41.51700 43.52300
C  -10.59000 42.83800 43.47000
C  -11.96700 43.24000 44.05300
C  -12.49800 41.92300 44.62300
C  -11.42500 40.90300 44.12900
C  -11.96600 44.30900 45.24700
C  -13.92800 41.61800 44.16800
C  -14.69700 41.01500 45.31400
N  -9.47300 38.79700 43.32900
C  -10.66800 38.48300 43.94700
C  -10.74100 37.02700 43.99400
C  -9.52000 36.53300 43.38700
C  -8.79700 37.68800 43.05200
C  -11.80000 36.17400 44.52000
C  -8.76100 35.38300 42.94100
O  -9.03800 34.19200 43.05600
C  -7.49600 35.96000 42.22500
C  -6.24400 35.25100 42.60800
O  -5.53400 35.36100 43.64200
O  -6.06000 34.23000 41.70000
C  -4.93000 33.38200 42.11800
H  -4.55200 41.87400 41.03200
H  -10.17300 44.78800 43.19100
H  -12.48800 39.23500 44.78000
H  -4.87700 37.09700 41.63400
H  -4.03600 39.39100 40.19600
H  -3.76300 39.93500 42.89200
H  -2.47700 39.47600 41.69600
H  -3.32800 38.24400 42.64200
H  -5.49200 38.27000 38.94100
H  -6.71700 37.14700 39.56800
H  -5.57100 35.42300 39.05800
H  -4.30400 36.03400 40.04700
H  -5.45000 45.44400 40.18800
H  -4.63600 43.90400 40.15700
H  -4.35800 45.02200 41.51500
H  -8.44500 47.93100 43.16200
H  -8.98100 46.42300 43.95800
H  -9.74400 47.00500 42.42300
H  -12.49800 43.74900 43.24700
H  -12.32000 41.83800 45.69500
H  -11.90500 45.31800 44.83900
H  -11.17700 44.14200 45.98100
H  -12.80900 44.14500 45.91800
H  -13.91400 40.83500 43.41100
H  -14.40800 42.51400 43.77400
H  -14.31100 41.31800 46.28800
H  -14.60500 39.92900 45.29800
H  -15.75100 41.28600 45.26800
H  -12.61900 35.98100 43.82600
H  -12.29000 36.71900 45.32700
H  -11.37300 35.22900 44.85200
H  -7.71400 35.80600 41.16800
H  -4.61100 32.60700 41.42200
H  -5.11500 32.86300 43.05900
H  -4.02900 33.98600 42.22300
Mg -1.53600 34.03200 27.01700
C  -2.60500 32.38900 29.91400
C  0.27400 36.30100 29.12200
C  -0.90500 35.89000 24.33400
C  -3.64300 31.89100 25.16000
N  -1.28300 34.39700 29.28300
C  -1.67000 33.40700 30.22200
C  -1.05600 33.65600 31.58900
C  -0.21100 34.94700 31.34900
C  -0.40200 35.23900 29.84100
C  -0.58500 36.08700 32.29900
C  -0.37900 32.43200 32.32800
C  -0.97300 32.00600 33.68300
H  0.00700 31.78800 34.86100
N  -0.51300 35.90100 26.73300
C  0.23900 36.62400 27.66500
C  0.80300 37.75400 26.95100
C  0.37800 37.71400 25.63400
C  -0.40500 36.49800 25.50800
C  1.62900 38.79700 27.58900
C  0.71200 38.71400 24.53800
O  0.33400 38.50800 23.44500
C  1.57900 39.89700 24.72400
N  -2.29700 33.96700 25.02000
C  -1.75900 34.77100 24.10000
C  -2.32100 34.39600 22.71100
C  -2.92600 32.98400 22.91800
C  -2.96300 32.93200 24.45400
C  -3.35900 35.47000 22.15300
C  -2.08000 31.94300 22.23600
C  -0.63000 31.69500 22.90000
N  -2.81600 32.44500 27.37600
C  -3.61400 31.67700 26.55800
C  -4.51300 30.80600 27.29500
C  -4.05000 30.99900 28.63100
C  -3.06500 32.02100 28.61300
C  -5.60000 29.91200 26.73900
C  -4.31200 30.58800 29.99600
O  -5.14400 29.78100 30.44400
C  -3.38100 31.48600 30.88100
C  -4.34800 32.21300 31.69100
O  -5.22600 33.01400 31.36800
O  -4.19800 31.78900 32.99800
C  -4.94100 32.36500 34.11400
H  1.07400 36.84100 29.63200
H  -0.79700 36.48400 23.42400
H  -4.27200 31.16200 24.64600
H  -1.98700 33.88100 32.11000
H  0.81600 34.70000 31.61700
H  -0.99100 35.68300 33.22700
H  -1.41700 36.61000 31.82800
H  0.17600 36.84400 32.49000
H  0.63000 32.75600 32.57900
H  -0.34100 31.65000 31.56900
H  -1.51500 31.08500 33.46800
H  -1.84100 32.59400 33.98300
H  1.81800 38.52500 28.62700
H  1.12700 39.76100 27.67300
H  2.62000 38.86400 27.13900
H  1.54900 40.48000 23.80300
H  2.51800 39.47100 25.08000
H  1.11600 40.51500 25.49300
H  -1.45800 34.51800 22.05600
H  -3.99200 33.05000 22.70000
H  -2.95600 35.89200 21.23200
H  -3.56400 36.21000 22.92700
H  -4.36100 35.10000 21.93500
H  -1.91400 32.22500 21.19600
H  -2.52400 30.94900 22.28100
H  0.08100 31.86600 22.09200
H  -0.62800 30.65500 23.22800
H  -0.37400 32.26800 23.79100
H  -5.96000 30.18300 25.74600
H  -6.42900 29.88300 27.44600
H  -5.22400 28.88900 26.71800
H  -2.88300 30.75500 31.51800
H  -5.80900 31.71300 34.20900
H  -5.25100 33.38900 33.90300
H  -4.29300 32.39100 34.99000

