158

Mg 8.32300 2.97500 28.00600
C  9.95600 1.64400 30.91700
C  6.42900 4.86300 30.15500
C  6.90700 4.07800 25.26200
C  10.21000 0.65900 26.10300
N  8.21800 3.12500 30.30200
C  9.04600 2.64500 31.23100
C  8.73000 3.24200 32.61400
C  7.46400 4.15100 32.33100
C  7.39400 4.08500 30.85400
C  6.19000 3.80000 33.01600
C  9.98400 4.01100 33.20400
C  9.78400 4.65400 34.58300
H  10.73900 4.29800 35.77200
N  6.83100 4.30800 27.77700
C  6.17900 5.03200 28.75600
C  5.25700 6.01000 28.04000
C  5.41900 5.70700 26.66300
C  6.36100 4.60300 26.50900
C  4.29900 7.02300 28.73900
C  4.64100 6.37900 25.44100
O  4.70600 6.04800 24.23400
C  3.81200 7.55700 25.70300
N  8.66000 2.53300 25.97300
C  7.90200 3.13300 25.00300
C  8.43800 2.73500 23.62300
C  9.42300 1.59200 23.86400
C  9.49000 1.61000 25.38900
C  7.36200 2.32100 22.61300
C  10.75600 1.68900 23.08500
C  11.06200 0.45200 22.25900
N  9.70900 1.43900 28.38700
C  10.44000 0.57400 27.51700
C  11.22500 -0.33300 28.27100
C  11.11300 0.05800 29.59800
C  10.18600 1.13400 29.64000
C  12.04800 -1.39000 27.73200
C  11.58300 -0.17600 30.95700
O  12.41700 -0.94100 31.39600
C  10.90000 0.90400 31.85300
C  10.14600 0.11400 32.88400
O  9.02800 -0.41100 32.71400
O  10.93300 -0.03900 33.96200
C  10.48700 -0.85900 35.05200
H  5.83500 5.54900 30.76300
H  6.48600 4.45100 24.32600
H  10.77500 -0.13200 25.60600
H  8.56600 2.34000 33.20300
H  7.69500 5.18200 32.59800
H  6.40400 3.28200 33.95100
H  5.63600 3.05400 32.44700
H  5.58300 4.68100 33.22400
H  10.14500 4.73700 32.40600
H  10.87100 3.38000 33.18200
H  8.79600 4.61000 35.04100
H  10.09300 5.65900 34.29300
H  4.33000 6.97000 29.82700
H  3.26600 6.78400 28.48900
H  4.64800 8.03000 28.51200
H  3.38500 8.02000 24.81400
H  4.52700 8.31100 26.03300
H  2.98600 7.22900 26.33500
H  8.97800 3.55100 23.14300
H  8.91400 0.66200 23.61200
H  7.44900 1.27400 22.32400
H  7.40000 2.94300 21.71800
H  6.32800 2.35200 22.95800
H  11.56400 1.76300 23.81200
H  10.70400 2.50200 22.36000
H  10.22600 0.02400 21.70400
H  11.55900 -0.35400 22.79900
H  11.89000 0.74000 21.61200
H  12.50700 -1.11900 26.78100
H  11.31900 -2.18100 27.55700
H  12.86700 -1.60500 28.41800
H  11.63300 1.55700 32.32500
H  9.99300 -0.36900 35.89200
H  11.34900 -1.35200 35.50300
H  9.89900 -1.75200 34.84100
Mg -12.93700 16.03400 42.80900
C  -10.13300 14.03000 42.00600
C  -11.48700 18.58900 41.19400
C  -15.94400 17.49200 42.72400
C  -14.43200 12.90900 43.81300
N  -10.99400 16.18700 41.66200
C  -10.00300 15.32100 41.51500
C  -8.77600 16.05900 40.84000
C  -9.19300 17.52800 40.87700
C  -10.65600 17.43500 41.18500
C  -8.32300 18.59100 41.62400
C  -8.35100 15.43000 39.48900
C  -6.88300 15.08200 39.22600
H  -6.16200 15.84600 38.07300
N  -13.58700 17.93300 42.09900
C  -12.84400 18.83000 41.54100
C  -13.61700 20.02600 41.36600
C  -14.92500 19.78600 41.91300
C  -14.88500 18.36400 42.25700
C  -13.12600 21.25000 40.63000
C  -16.05500 20.75900 42.16700
O  -15.82100 21.90000 41.96300
C  -17.41800 20.33700 42.67600
N  -14.91400 15.32600 43.13300
C  -15.99000 16.14600 43.00000
C  -17.22500 15.39400 43.43100
C  -16.73500 13.88700 43.59000
C  -15.21400 14.04800 43.58900
C  -17.93500 15.91200 44.69600
C  -17.26400 12.83100 42.60700
C  -17.55500 11.48300 43.17700
N  -12.31700 13.98100 43.26500
C  -13.03000 12.81100 43.63900
C  -12.11900 11.69200 43.77100
C  -10.98700 12.14200 43.14000
C  -11.18400 13.52000 42.79300
C  -12.37400 10.31400 44.39500
C  -9.66500 11.77800 42.76900
O  -9.01500 10.82200 43.07100
C  -9.05900 12.95600 41.92400
C  -7.88000 13.39800 42.64000
O  -7.88500 13.87000 43.77900
O  -6.77700 13.15400 41.83200
C  -5.45900 13.44600 42.38500
H  -11.06400 19.47300 40.71300
H  -16.93600 17.94900 42.72000
H  -14.99900 11.99600 44.00700
H  -7.99400 15.96000 41.59200
H  -9.09800 17.98800 39.89400
H  -7.93700 19.30300 40.89400
H  -7.47200 18.03600 42.01800
H  -8.85200 19.09300 42.43300
H  -8.67600 16.10500 38.69700
H  -8.92500 14.52700 39.28000
H  -6.88600 14.05000 38.87700
H  -6.23600 15.19100 40.09700
H  -12.23900 21.60200 41.15600
H  -13.88800 22.03000 40.62200
H  -12.86900 20.95300 39.61300
H  -17.99300 19.67900 42.02500
H  -18.02500 21.20900 42.92000
H  -17.29500 19.84200 43.64000
H  -17.90200 15.44000 42.57800
H  -17.01100 13.58000 44.59900
H  -17.11600 16.27700 45.31600
H  -18.54600 15.28600 45.34700
H  -18.52000 16.79100 44.42700
H  -16.48400 12.73900 41.85100
H  -18.15400 13.23600 42.12500
H  -17.62000 11.44300 44.26400
H  -16.76200 10.82000 42.83000
H  -18.45200 11.14700 42.65700
H  -13.07100 10.43100 45.22500
H  -11.37800 10.00500 44.71300
H  -12.84800 9.59800 43.72300
H  -8.76300 12.62000 40.93000
H  -5.30300 14.49500 42.13400
H  -4.66100 12.82500 41.97900
H  -5.46400 13.37900 43.47300

