158

Mg 53.96700 24.53400 43.86400
C  51.38300 26.90600 43.27900
C  51.65600 21.99800 43.01500
C  56.50600 22.44300 43.82800
C  55.97600 27.15800 44.75700
N  51.87300 24.53800 43.15900
C  51.05000 25.59200 42.92600
C  49.56100 25.16300 42.57600
C  49.65700 23.59400 42.72200
C  51.15200 23.30100 43.07800
C  48.63200 22.91000 43.69000
C  49.04900 25.69600 41.28500
C  50.02100 25.85900 40.04900
H  49.97000 24.90500 38.87200
N  54.02500 22.52700 43.55700
C  52.99900 21.65900 43.22800
C  53.56200 20.37700 43.09900
C  54.98600 20.37800 43.40700
C  55.24000 21.83200 43.57700
C  52.67900 19.27500 42.64400
C  55.95200 19.21800 43.43500
O  55.50200 18.16700 43.02300
C  57.46700 19.24200 43.84900
N  55.94700 24.80600 44.01400
C  56.83100 23.82300 43.99500
C  58.31500 24.30200 44.33400
C  58.04600 25.77500 44.57600
C  56.55600 25.94600 44.35700
C  58.92800 23.53500 45.49400
C  59.00800 26.77300 43.72100
C  58.52800 26.97500 42.23700
N  53.86600 26.68300 43.78300
C  54.71800 27.58900 44.43300
C  54.14900 28.84300 44.58000
C  52.84300 28.68700 44.17600
C  52.67800 27.27000 43.70200
C  54.76800 30.12300 45.14900
C  51.51400 29.27900 44.00500
O  51.11100 30.43800 44.25100
C  50.55400 28.11900 43.40900
C  50.10200 28.72400 42.10600
O  50.87100 28.89200 41.14900
O  48.82200 29.20500 42.07500
C  48.36100 29.90500 40.90800
H  50.95000 21.21700 42.72200
H  57.40800 21.82700 43.83600
H  56.72500 27.89100 45.06300
H  48.92400 25.46800 43.40600
H  49.48300 23.12900 41.75200
H  47.81100 23.61600 43.81400
H  49.09500 22.55900 44.61200
H  48.26500 21.97000 43.27700
H  48.56800 26.64100 41.53500
H  48.28000 24.96600 41.03000
H  50.99400 25.60700 40.46900
H  50.12500 26.83600 39.57700
H  53.24100 18.64700 41.95300
H  51.84600 19.67300 42.06500
H  52.34100 18.76300 43.54600
H  57.59100 18.20400 44.15900
H  57.69900 19.84700 44.72500
H  57.97100 19.37000 42.89100
H  58.86700 24.12800 43.41000
H  58.27800 25.95000 45.62700
H  59.23200 24.29100 46.21800
H  59.74200 22.89600 45.15200
H  58.09100 22.94700 45.87100
H  59.97500 26.31400 43.51400
H  59.12800 27.66700 44.33300
H  58.42700 28.00800 41.90500
H  57.57400 26.50300 42.00400
H  59.24500 26.48400 41.57800
H  53.99900 30.81500 44.80500
H  55.79200 30.28100 44.81300
H  54.77600 29.96300 46.22700
H  49.73200 27.99000 44.11400
H  47.38200 30.33500 41.12200
H  48.36000 29.22300 40.05700
H  49.01100 30.76200 40.73200
Mg -13.36400 16.02200 42.05300
C  -10.19200 14.59500 41.32800
C  -12.21100 19.07300 40.67200
C  -16.52500 17.13200 41.95000
C  -14.58700 12.75600 42.74200
N  -11.41500 16.71300 40.99100
C  -10.19200 15.98000 40.99800
C  -8.97900 16.86800 40.56500
C  -9.64800 18.25400 40.60800
C  -11.21000 18.05900 40.77400
C  -9.13700 19.30500 41.68300
C  -8.25400 16.50400 39.27500
C  -6.84900 15.98800 39.31100
H  -6.53500 14.69100 38.61900
N  -14.22700 17.83700 41.55500
C  -13.56100 18.98900 40.99600
C  -14.50000 20.03600 40.66000
C  -15.79300 19.55100 41.12100
C  -15.55600 18.12500 41.67700
C  -14.15000 21.34700 40.04600
C  -17.06100 20.34800 41.07400
O  -17.09800 21.44500 40.43600
C  -18.35900 19.82200 41.65700
N  -15.34600 15.15100 42.58700
C  -16.47400 15.80300 42.38800
C  -17.74400 14.88100 42.60300
C  -17.05800 13.49600 42.96200
C  -15.54100 13.80800 42.72500
C  -18.75400 15.41500 43.68700
C  -17.68000 12.26700 42.18900
C  -17.12600 11.93300 40.74300
N  -12.62900 14.06500 42.22900
C  -13.18300 12.85500 42.57600
C  -12.21300 11.84800 42.76300
C  -11.02800 12.43000 42.23300
C  -11.30700 13.80600 41.94100
C  -12.48800 10.57500 43.27500
C  -9.65600 12.25700 41.94800
O  -8.97500 11.21600 42.13000
C  -9.05100 13.59700 41.32500
C  -8.05800 13.98100 42.33100
O  -8.38100 14.54600 43.36700
O  -6.78600 13.63400 41.92700
C  -5.65400 13.63900 42.91200
H  -11.89000 20.10000 40.48600
H  -17.55100 17.48900 41.84000
H  -14.94100 11.74400 42.94600
H  -8.25400 16.68400 41.35800
H  -9.53800 18.75200 39.64400
H  -8.89000 20.26100 41.22100
H  -8.32600 18.82000 42.22700
H  -9.93200 19.36200 42.42600
H  -8.12900 17.49000 38.82700
H  -8.78400 15.88100 38.55500
H  -6.45100 15.81600 40.31100
H  -6.12600 16.72900 38.97000
H  -13.75800 21.99700 40.82900
H  -14.89100 21.93000 39.49900
H  -13.37200 21.21500 39.29500
H  -18.99100 20.70600 41.74400
H  -18.26000 19.46600 42.68200
H  -18.78100 19.05700 41.00600
H  -18.26200 14.73900 41.65500
H  -17.00800 13.31600 44.03600
H  -19.72900 15.48300 43.20400
H  -18.62100 16.45700 43.97500
H  -18.88700 14.72600 44.52100
H  -18.75400 12.42200 42.08900
H  -17.44400 11.41300 42.82400
H  -16.74000 10.92100 40.62200
H  -16.22800 12.50700 40.51200
H  -17.89900 12.04600 39.98300
H  -12.90700 10.72500 44.27000
H  -11.54000 10.03800 43.27200
H  -13.24300 10.04200 42.69700
H  -8.54800 13.41300 40.37600
H  -5.31000 14.67400 42.91400
H  -4.91200 12.87800 42.67400
H  -5.89500 13.42000 43.95200

