158

Mg 26.23300 50.83900 26.52100
C  23.81100 51.97400 28.92000
C  28.34500 50.19600 29.13300
C  28.57900 50.01400 24.30900
C  24.15300 52.01700 24.00300
N  26.02300 51.01500 28.72500
C  24.92700 51.41600 29.48300
C  25.29000 51.40400 30.99000
C  26.74000 50.83200 31.00400
C  27.08600 50.71200 29.52700
C  27.78500 51.52700 31.83900
C  24.29300 50.68800 31.88400
C  24.21800 51.21700 33.24800
H  23.90100 50.25700 34.39300
N  28.17900 50.15000 26.70300
C  28.94700 50.00800 27.84200
C  30.23200 49.52200 27.51900
C  30.32900 49.47100 26.07500
C  29.03000 49.91100 25.62300
C  31.21300 48.89700 28.53100
C  31.49800 48.90200 25.07600
O  31.43100 48.80100 23.86100
C  32.78100 48.68400 25.66000
N  26.29200 50.92400 24.40000
C  27.33800 50.38700 23.71100
C  27.10500 50.71300 22.22600
C  25.68600 51.38600 22.07700
C  25.32500 51.48100 23.56500
C  28.27600 51.45500 21.59000
C  24.58600 50.72300 21.20000
C  24.10100 51.49900 19.99400
N  24.44200 51.83200 26.38000
C  23.71300 52.19200 25.29700
C  22.51300 52.88300 25.78200
C  22.53700 52.87400 27.18500
C  23.71200 52.16200 27.51100
C  21.44400 53.46400 24.93900
C  21.79200 53.06300 28.45500
O  20.68600 53.62800 28.64600
C  22.66700 52.68400 29.58500
C  22.98000 53.93600 30.39700
O  23.67200 54.86500 30.02400
O  22.38500 53.84300 31.67700
C  22.60500 54.86000 32.65000
H  28.98500 49.84200 29.94400
H  29.25200 49.61700 23.54700
H  23.47900 52.44200 23.25600
H  25.36200 52.43900 31.32500
H  26.71300 49.82700 31.42500
H  27.99700 52.53000 31.46900
H  28.66500 50.90300 31.99400
H  27.24000 51.61900 32.77800
H  24.50600 49.62100 31.94700
H  23.26200 50.75300 31.53500
H  23.37200 51.89800 33.33800
H  25.02500 51.88300 33.55600
H  30.93100 49.22300 29.53200
H  32.28100 49.11100 28.48300
H  31.21500 47.80900 28.59800
H  32.83600 49.55800 26.30800
H  33.59600 48.57600 24.94400
H  32.77700 47.74700 26.21700
H  27.03900 49.70600 21.81400
H  25.83400 52.40000 21.70500
H  28.88700 50.87600 20.89800
H  28.85500 51.85700 22.42200
H  27.91600 52.32800 21.04500
H  23.75800 50.44500 21.85300
H  24.95700 49.80100 20.75200
H  24.40200 51.09000 19.03000
H  24.45100 52.52900 20.06000
H  23.01400 51.50900 20.07200
H  21.87200 53.97700 24.07800
H  20.90200 54.11200 25.62700
H  20.83700 52.69500 24.46000
H  22.01900 51.97500 30.10000
H  22.77800 55.80500 32.13500
H  23.36400 54.56000 33.37300
H  21.65800 55.06400 33.15100
Mg -4.35600 24.88200 26.06100
C  -2.80500 26.49800 28.81900
C  -5.34200 22.42700 28.36000
C  -5.47100 23.25500 23.47400
C  -2.86300 27.32100 23.98400
N  -4.04100 24.52800 28.32100
C  -3.59600 25.45900 29.20600
C  -3.94700 25.03200 30.68600
C  -4.41200 23.51100 30.51000
C  -4.58400 23.44900 28.93800
C  -3.44200 22.40900 31.02700
C  -5.20900 26.00700 31.00900
C  -5.44200 26.37500 32.52500
H  -5.26400 25.24700 33.56900
N  -5.24400 23.16800 25.92700
C  -5.67600 22.32800 27.01400
C  -6.32900 21.24300 26.38900
C  -6.41300 21.35300 24.99200
C  -5.72100 22.68200 24.74800
C  -6.77400 20.00800 27.15300
C  -7.06200 20.46100 23.99200
O  -6.97100 20.78700 22.78000
C  -7.90100 19.29700 24.42200
N  -4.34700 25.33700 24.03600
C  -4.83500 24.45900 23.15800
C  -4.48900 24.90700 21.67900
C  -3.90500 26.32700 21.90800
C  -3.65800 26.37500 23.41300
C  -3.53300 23.87300 20.97400
C  -4.66900 27.55100 21.30900
C  -4.97400 27.58500 19.76700
N  -3.08200 26.52400 26.24400
C  -2.51400 27.36000 25.33400
C  -1.52100 28.16600 25.98400
C  -1.64100 27.92500 27.39600
C  -2.58500 26.86300 27.47900
C  -0.72900 29.15800 25.23200
C  -1.13400 28.29200 28.67100
O  -0.28000 29.08600 28.99000
C  -1.93800 27.44400 29.65400
C  -1.10100 26.70300 30.70500
O  -0.46700 25.66600 30.51100
O  -1.22900 27.37900 31.89500
C  -0.40600 26.81200 32.96900
H  -5.82100 21.78300 29.10000
H  -5.78700 22.74900 22.55900
H  -2.58300 28.09700 23.26900
H  -3.10400 25.05800 31.37600
H  -5.29200 23.41000 31.14600
H  -2.76600 22.86700 31.74900
H  -2.75900 21.97700 30.29600
H  -3.99000 21.62600 31.55100
H  -6.14900 25.60300 30.63400
H  -5.12600 27.00100 30.56900
H  -6.52100 26.52900 32.54100
H  -4.83100 27.22500 32.83000
H  -7.83400 19.89000 26.93000
H  -6.57400 20.21000 28.20600
H  -6.24800 19.11900 26.80400
H  -7.38400 18.48000 24.92500
H  -8.54600 18.91000 23.63300
H  -8.70000 19.58800 25.10400
H  -5.34900 24.98500 21.01400
H  -2.89600 26.39400 21.49900
H  -3.18800 23.04100 21.58700
H  -2.61100 24.34000 20.62900
H  -4.13800 23.38100 20.21200
H  -4.09000 28.44500 21.54100
H  -5.66300 27.69600 21.73300
H  -4.11100 27.07500 19.33900
H  -4.93800 28.66500 19.62000
H  -5.95100 27.21600 19.45700
H  -1.33800 29.72400 24.52700
H  0.02800 28.58300 24.69900
H  -0.27700 29.88100 25.91100
H  -2.54500 28.11800 30.25800
H  0.66800 26.97500 32.87000
H  -0.54000 25.73800 33.10100
H  -0.43900 27.35300 33.91400

