158

Mg 16.78700 -1.48800 27.83800
C  15.79700 0.65600 30.55700
C  18.47600 -3.44200 30.34800
C  18.06800 -3.26000 25.44100
C  14.99800 0.51800 25.77300
N  17.28100 -1.24800 30.13500
C  16.68900 -0.34600 30.98200
C  17.16300 -0.66000 32.46200
C  18.04600 -1.95400 32.34300
C  17.96200 -2.22300 30.78600
C  19.52200 -1.76700 32.89100
C  15.95300 -0.87900 33.47300
C  16.04500 -0.05600 34.78400
H  17.34100 0.44100 35.38700
N  18.06900 -3.10000 27.86400
C  18.58700 -3.83000 28.97500
C  19.15400 -5.09100 28.45700
C  19.05300 -5.03700 27.01500
C  18.43200 -3.73100 26.72300
C  19.81100 -6.14800 29.29200
C  19.72500 -6.00700 25.92600
O  19.48700 -5.83900 24.74700
C  20.53700 -7.20200 26.45700
N  16.78200 -1.19900 25.88300
C  17.40700 -2.11300 25.03400
C  17.11300 -1.69500 23.49800
C  16.03500 -0.56000 23.63700
C  15.90700 -0.41000 25.17100
C  18.39800 -1.38100 22.68300
C  14.69600 -0.84000 22.80100
C  14.42800 0.16400 21.66900
N  15.45700 0.16600 28.10700
C  14.66300 0.78500 27.14400
C  13.95700 1.94800 27.77100
C  14.33800 1.86800 29.12800
C  15.26500 0.82700 29.26000
C  13.00700 2.87000 27.07500
C  14.17900 2.48600 30.34300
O  13.48900 3.47500 30.55500
C  15.03100 1.66800 31.38000
C  15.80600 2.62300 32.25500
O  16.93900 3.00900 32.09800
O  14.90400 3.03500 33.25300
C  15.47200 4.00200 34.26700
H  19.04500 -4.11100 30.99600
H  18.36900 -3.79700 24.53900
H  14.40000 1.13600 25.10100
H  17.71400 0.20300 32.83600
H  17.81900 -2.89600 32.84200
H  20.17300 -1.58400 32.03600
H  19.84600 -2.69200 33.36700
H  19.64700 -0.94200 33.59200
H  15.95100 -1.94100 33.72000
H  15.04400 -0.60300 32.93800
H  15.53800 -0.81700 35.37700
H  15.35200 0.77200 34.63500
H  20.88100 -6.19200 29.08800
H  19.34900 -7.06200 28.91800
H  19.60800 -6.03100 30.35600
H  21.30800 -6.85300 27.14400
H  20.87700 -7.84300 25.64300
H  19.82000 -7.81000 27.00900
H  16.64200 -2.59700 23.10500
H  16.49200 0.33800 23.22100
H  18.33300 -0.31200 22.47900
H  18.29000 -1.91600 21.74000
H  19.31100 -1.64800 23.21500
H  13.85900 -0.52800 23.42500
H  14.64800 -1.90200 22.56200
H  14.46200 -0.43700 20.76000
H  15.19300 0.94000 21.64600
H  13.36800 0.40900 21.73500
H  12.92900 2.74800 25.99400
H  13.34900 3.87100 27.33500
H  11.98300 2.65000 27.37700
H  14.37900 1.20400 32.12000
H  16.54300 3.88000 34.42600
H  14.91400 3.95000 35.20200
H  15.39000 4.96400 33.76100
Mg 26.07000 49.51000 26.79000
C  24.23600 50.73600 29.45000
C  28.55400 48.62900 29.08800
C  28.24900 49.02900 24.25400
C  23.73600 50.75000 24.54000
N  26.24100 49.53000 29.08400
C  25.36600 50.03200 29.92800
C  25.79100 49.66300 31.38700
C  27.20000 49.11400 31.17100
C  27.39200 49.11700 29.67300
C  28.37400 49.75000 31.89500
C  24.68000 48.63800 31.97400
C  24.35800 48.94800 33.42900
H  25.30900 49.47400 34.48300
N  28.06700 48.86800 26.69600
C  28.92300 48.58100 27.72000
C  30.20000 48.12800 27.23000
C  30.13600 48.20300 25.81400
C  28.80500 48.71100 25.51700
C  31.30800 47.62000 28.13600
C  31.24800 47.95200 24.79900
O  30.99100 48.01500 23.60800
C  32.63900 47.64300 25.10600
N  25.96700 49.85900 24.60500
C  26.94400 49.48800 23.79800
C  26.46800 49.45900 22.39200
C  25.05700 50.06800 22.47200
C  24.86200 50.14700 23.91300
C  27.42500 49.93800 21.30500
C  23.99000 49.24500 21.71200
C  23.11300 49.88300 20.59600
N  24.39600 50.50600 26.91500
C  23.53800 50.93000 25.88700
C  22.46500 51.65000 26.47600
C  22.70200 51.62800 27.89200
C  23.92500 50.94500 28.11100
C  21.42100 52.26700 25.76100
C  22.12500 52.02400 29.18600
O  21.14900 52.66400 29.52800
C  23.05500 51.35800 30.35000
C  23.46400 52.47200 31.26800
O  24.30200 53.32900 31.13700
O  22.92700 52.13300 32.47700
C  23.36200 53.06100 33.55600
H  29.22800 48.17900 29.82000
H  28.93800 48.80400 23.43800
H  22.93000 51.06200 23.87300
H  25.83600 50.49700 32.08700
H  27.29800 48.05000 31.38600
H  27.82800 50.37100 32.60500
H  28.97600 50.39800 31.25900
H  28.91900 48.91700 32.33900
H  25.13600 47.65400 31.87200
H  23.80600 48.69900 31.32500
H  24.08300 47.92500 33.68400
H  23.45200 49.55000 33.50700
H  31.97800 47.11900 27.43700
H  31.09100 46.78300 28.80000
H  31.90100 48.37000 28.65900
H  33.07700 48.32600 25.83300
H  33.22300 47.71300 24.18800
H  32.72000 46.57500 25.30900
H  26.36600 48.38200 22.26100
H  25.15700 51.05800 22.02600
H  28.08100 50.72800 21.67100
H  26.88000 50.32700 20.44400
H  27.92100 49.06900 20.87300
H  23.36200 48.76800 22.46500
H  24.52100 48.37900 21.31700
H  23.62300 50.76500 20.20700
H  22.07400 50.07400 20.86600
H  23.14900 49.19300 19.75300
H  21.03000 51.67200 24.93600
H  21.78400 53.19000 25.30900
H  20.67400 52.45600 26.53100
H  22.59000 50.52400 30.87600
H  23.92600 52.52400 34.31800
H  22.46300 53.40600 34.06500
H  23.78700 54.01200 33.23600

