158

Mg 47.32600 25.20600 27.93800
C  48.45400 27.40200 30.43100
C  46.39300 22.99800 30.45100
C  46.63800 23.00700 25.50600
C  48.53500 27.48100 25.56900
N  47.57800 25.13400 30.17400
C  47.93200 26.22600 30.94000
C  47.55500 26.02200 32.39800
C  47.03400 24.50900 32.37200
C  47.00700 24.19900 30.90200
C  47.90400 23.57200 33.30800
C  46.36900 27.00000 32.88500
C  46.55300 27.75000 34.18300
H  47.27600 27.04400 35.36600
N  46.66500 23.27400 27.94700
C  46.24800 22.52000 29.06700
C  45.84200 21.19300 28.63200
C  45.76400 21.21400 27.22900
C  46.41400 22.49900 26.81900
C  45.58700 20.09800 29.62400
C  45.20400 20.19000 26.34000
O  45.26000 20.25500 25.11100
C  44.41400 19.06300 26.92900
N  47.59500 25.22600 25.90900
C  47.14900 24.20900 25.11100
C  47.42200 24.55700 23.62300
C  47.89700 26.03200 23.62300
C  48.04400 26.26500 25.12100
C  48.40600 23.50600 22.99500
C  46.75800 27.00400 22.98600
C  47.17300 28.28000 22.20300
N  48.12900 27.10900 27.90000
C  48.59200 27.91600 26.90800
C  49.01400 29.15900 27.34500
C  48.95400 29.01900 28.71500
C  48.51400 27.74900 29.02200
C  49.57100 30.33100 26.47600
C  49.24100 29.63500 29.91400
O  49.72600 30.69500 30.10800
C  48.87500 28.71800 31.09200
C  50.06000 28.55000 31.93100
O  51.19100 28.14600 31.65400
O  49.63600 28.61600 33.20900
C  50.73600 28.58400 34.17400
H  46.05800 22.33600 31.25300
H  46.33300 22.34900 24.69000
H  48.87800 28.25400 24.87900
H  48.48400 26.13400 32.95700
H  45.99600 24.54000 32.70300
H  48.52000 23.04700 32.57800
H  47.23200 23.02800 33.97100
H  48.54700 24.17400 33.95000
H  45.38400 26.54400 32.78500
H  46.35700 27.74900 32.09400
H  45.61600 28.11000 34.60800
H  47.12700 28.63800 33.92000
H  45.83600 19.08100 29.32100
H  44.56900 20.09100 30.01300
H  46.20100 20.36500 30.48300
H  43.78100 19.26300 27.79400
H  45.19700 18.31400 27.05100
H  43.85200 18.52600 26.16500
H  46.48500 24.46700 23.07300
H  48.90000 26.19600 23.23000
H  48.70000 22.76500 23.73900
H  49.29900 24.09900 22.79800
H  47.97300 22.99200 22.13700
H  46.14700 27.34600 23.82100
H  46.10100 26.35400 22.40800
H  48.24700 28.23400 22.02100
H  46.77100 29.18800 22.65300
H  46.50200 28.19500 21.34800
H  48.90100 30.30100 25.61600
H  50.64000 30.14200 26.38000
H  49.40000 31.31600 26.91100
H  48.07600 29.21000 31.64800
H  50.33400 29.08000 35.05700
H  51.65200 29.13400 33.95800
H  50.92400 27.55200 34.47000
Mg -5.41800 26.20600 26.01500
C  -3.89600 27.51000 28.91200
C  -7.07000 24.02800 27.92800
C  -6.54900 24.65300 23.26100
C  -3.32500 28.28200 24.08400
N  -5.34400 25.75700 28.14700
C  -4.75100 26.46900 29.14800
C  -5.24100 26.03200 30.57200
C  -6.05500 24.75100 30.20700
C  -6.19700 24.83700 28.67200
C  -5.31600 23.48800 30.82800
C  -6.11500 27.12500 31.29600
C  -6.16500 26.99400 32.82700
H  -5.54100 25.79700 33.46500
N  -6.80600 24.71700 25.59200
C  -7.39400 23.95500 26.50700
C  -8.28000 22.92000 25.90300
C  -8.08200 23.07800 24.52100
C  -7.13000 24.15100 24.40500
C  -9.14700 22.00600 26.72200
C  -8.66600 22.35700 23.31900
O  -8.29900 22.45800 22.15900
C  -9.78500 21.40200 23.65500
N  -4.95300 26.39100 23.97300
C  -5.57200 25.64000 23.07100
C  -5.13800 26.10300 21.66900
C  -4.12000 27.27200 21.87100
C  -4.17000 27.42800 23.38300
C  -4.72000 25.06500 20.63500
C  -4.49600 28.54700 21.14500
C  -4.21100 28.59700 19.65600
N  -3.93900 27.58300 26.33500
C  -3.13100 28.26000 25.43100
C  -2.19700 29.16800 26.22300
C  -2.46300 28.86300 27.59100
C  -3.54000 27.90800 27.60100
C  -1.33000 30.22400 25.66400
C  -2.12800 29.16300 28.95100
O  -1.26300 29.87200 29.43300
C  -3.03500 28.26800 29.88600
C  -2.17000 27.38800 30.79700
O  -1.86600 26.22500 30.58000
O  -1.96500 27.93400 31.98900
C  -1.28400 27.16700 33.02300
H  -7.44300 23.25100 28.59900
H  -6.98200 24.31200 22.31900
H  -2.75700 29.03200 23.52900
H  -4.39200 25.78100 31.20700
H  -7.05300 24.73000 30.64400
H  -4.33200 23.75600 31.21300
H  -5.08700 22.78200 30.02900
H  -5.95300 22.99500 31.56200
H  -7.14800 26.83500 31.10200
H  -5.88000 28.10600 30.88500
H  -7.22000 27.09900 33.08000
H  -5.68500 27.89700 33.20400
H  -10.10400 21.96900 26.20200
H  -9.29400 22.39900 27.72800
H  -8.75000 20.99300 26.65900
H  -10.57000 21.96600 24.16000
H  -9.45600 20.54300 24.23900
H  -10.14800 20.95100 22.73100
H  -6.01600 26.58600 21.23900
H  -3.16700 26.84000 21.56400
H  -3.66200 25.13100 20.38100
H  -5.24300 25.10200 19.67900
H  -4.92500 24.08000 21.05400
H  -3.84400 29.29700 21.59400
H  -5.56300 28.72600 21.28000
H  -5.03700 28.60200 18.94500
H  -3.62100 27.74200 19.32400
H  -3.65800 29.53500 19.60200
H  -2.04500 31.04200 25.74600
H  -0.99100 29.93100 24.67000
H  -0.35800 30.43700 26.11000
H  -3.68300 28.87200 30.52200
H  -0.21500 27.11200 32.82000
H  -1.77000 26.21600 33.23900
H  -1.39600 27.82500 33.88500

