158

Mg 47.78000 34.66800 27.12800
C  46.02300 33.30700 29.71200
C  48.26000 37.51300 29.21000
C  48.80300 36.57300 24.53200
C  46.62800 32.33100 24.92700
N  47.07600 35.34800 29.05100
C  46.70400 34.45200 30.02600
C  46.92900 34.91700 31.47600
C  47.20100 36.45400 31.22500
C  47.51600 36.47100 29.76400
C  45.95900 37.43400 31.55000
C  48.22500 34.23400 32.06200
C  48.41400 34.28100 33.61100
H  47.75800 35.41500 34.45500
N  48.49800 36.70100 26.96300
C  48.69500 37.62000 27.89800
C  49.37900 38.77800 27.38200
C  49.72300 38.47200 26.03100
C  49.00200 37.21300 25.74500
C  49.57300 40.01800 28.24400
C  50.53700 39.27200 24.99100
O  50.67400 38.94200 23.77000
C  51.34300 40.45300 25.52500
N  47.42300 34.64700 24.96200
C  48.13900 35.43200 24.16400
C  48.33500 34.79400 22.68200
C  47.70400 33.40200 22.90900
C  47.20200 33.42200 24.38700
C  47.64400 35.65600 21.61900
C  48.71700 32.17200 22.70600
C  49.72800 31.72500 23.86000
N  46.63200 33.07400 27.24900
C  46.25500 32.21000 26.25200
C  45.51300 31.11600 26.91600
C  45.26000 31.59400 28.21800
C  45.99700 32.73700 28.41500
C  45.01700 29.84900 26.37300
C  44.60900 31.27400 29.43600
O  43.95700 30.32900 29.76900
C  44.94300 32.47600 30.41100
C  45.26500 31.92500 31.81300
O  46.03100 31.03300 32.10700
O  44.39900 32.44800 32.70900
C  44.39200 32.11700 34.13700
H  48.56500 38.27100 29.93500
H  49.22900 36.98600 23.61500
H  46.32600 31.43900 24.37300
H  46.02800 34.76200 32.07000
H  48.06600 36.83400 31.76900
H  45.22700 37.46700 30.74300
H  46.22900 38.48600 31.64700
H  45.33100 37.06600 32.36200
H  49.14500 34.65400 31.65600
H  48.14400 33.19400 31.74400
H  49.48400 34.27500 33.82000
H  47.97800 33.38500 34.05300
H  48.90700 40.03600 29.10700
H  49.57100 40.99000 27.75000
H  50.44800 39.93200 28.88800
H  52.06200 40.70600 24.74500
H  51.82300 40.18100 26.46500
H  50.62100 41.25900 25.65500
H  49.41000 34.71700 22.51400
H  46.86000 33.15000 22.26700
H  47.10800 36.52200 22.00800
H  46.95800 35.05100 21.02500
H  48.38500 36.12400 20.97200
H  49.42300 32.41500 21.91200
H  48.01300 31.37900 22.45400
H  49.66800 30.63700 23.84300
H  49.54000 32.14300 24.85000
H  50.77400 31.96100 23.66600
H  44.85200 28.99700 27.03300
H  45.70200 29.59000 25.56600
H  44.05500 30.06800 25.91200
H  44.03900 33.08500 30.45500
H  45.39900 32.35000 34.48400
H  44.03700 31.11200 34.36600
H  43.76200 32.87500 34.60200
Mg -11.23700 39.15300 41.55900
C  -9.89600 36.05900 40.57400
C  -8.65300 40.73000 39.94400
C  -12.87600 42.09800 42.15100
C  -14.20600 37.42300 42.62500
N  -9.56700 38.42800 40.19700
C  -9.13400 37.16800 40.21100
C  -7.86100 37.06200 39.37000
C  -7.33100 38.45600 39.57100
C  -8.56200 39.31300 39.94600
C  -6.20100 38.62000 40.70000
C  -8.07000 36.57800 37.88500
C  -7.30800 35.31200 37.52600
H  -6.20100 35.64800 36.49700
N  -10.85000 41.11300 41.06900
C  -9.76800 41.52100 40.38400
C  -9.81800 42.96100 40.29800
C  -10.87900 43.44400 41.08100
C  -11.63500 42.22100 41.50800
C  -8.78600 43.70300 39.59700
C  -11.12900 44.89300 41.31500
O  -10.41400 45.75600 40.80700
C  -12.28600 45.41900 42.06000
N  -13.26500 39.70200 42.06500
C  -13.64000 40.99400 42.42300
C  -15.12500 41.06900 42.93600
C  -15.50700 39.58100 42.94200
C  -14.20800 38.86400 42.61700
C  -15.15700 41.81900 44.32900
C  -16.61000 39.28900 41.87300
C  -17.65400 38.26700 42.15500
N  -11.94800 37.17900 41.63200
C  -13.12900 36.59600 42.15000
C  -12.96700 35.08000 42.15400
C  -11.73400 34.85600 41.59100
C  -11.16900 36.16100 41.28700
C  -13.90900 34.03300 42.79500
C  -10.67000 33.88300 41.23500
O  -10.60700 32.68300 41.54900
C  -9.55200 34.61800 40.61400
C  -8.30800 34.59200 41.54200
O  -8.33400 34.87100 42.74200
O  -7.27700 33.98000 40.86400
C  -6.04200 34.14000 41.68000
H  -7.72400 41.13300 39.53500
H  -13.40700 43.02300 42.38700
H  -15.05800 36.84400 42.98900
H  -7.17600 36.37500 39.86500
H  -6.87400 38.78600 38.63800
H  -5.30300 39.03500 40.24100
H  -5.90300 37.62500 41.02900
H  -6.42000 39.28400 41.53600
H  -7.65200 37.30400 37.18700
H  -9.13700 36.44000 37.71200
H  -7.86000 34.45500 37.14100
H  -6.70500 34.99000 38.37500
H  -7.85800 43.22400 39.28400
H  -8.39700 44.46400 40.27300
H  -9.32500 44.15600 38.76400
H  -13.19900 45.16300 41.52300
H  -12.05100 46.47700 42.18100
H  -12.20700 44.85300 42.98800
H  -15.51200 41.61800 42.07700
H  -15.86400 39.22700 43.90900
H  -14.20500 41.91900 44.84900
H  -15.80200 41.26100 45.00800
H  -15.58400 42.80400 44.14200
H  -16.05700 39.07500 40.95800
H  -17.10200 40.21400 41.57100
H  -17.71900 37.80900 41.16800
H  -18.66700 38.66700 42.17800
H  -17.41900 37.55000 42.94200
H  -13.25300 33.34700 43.33000
H  -14.53600 33.51600 42.06800
H  -14.51600 34.49400 43.57400
H  -9.26500 34.34400 39.59900
H  -5.92200 35.17400 42.00400
H  -5.17700 33.95800 41.04200
H  -5.90800 33.43400 42.50000

