158

Mg -1.72400 17.30500 26.77000
C  -2.62600 14.99600 29.31600
C  -2.17300 19.75500 29.03200
C  -1.55700 19.49500 24.15700
C  -1.84300 14.68300 24.53600
N  -2.25400 17.29200 28.96200
C  -2.54900 16.27700 29.78900
C  -2.67100 16.83500 31.27500
C  -2.88200 18.34000 30.99100
C  -2.32400 18.49900 29.58100
C  -4.25500 19.09000 31.22300
C  -1.48500 16.46500 32.13600
C  -1.17700 17.27000 33.46800
H  -0.66200 16.58200 34.76300
N  -1.65400 19.34200 26.62100
C  -1.82400 20.16900 27.70400
C  -1.63700 21.52800 27.25400
C  -1.36000 21.51600 25.86300
C  -1.56100 20.02800 25.47800
C  -1.65600 22.70800 28.14600
C  -0.95500 22.54800 24.80500
O  -0.90700 22.32700 23.56000
C  -0.57200 23.96800 25.19600
N  -2.06500 17.12100 24.64700
C  -1.80700 18.15800 23.80400
C  -1.75400 17.79500 22.36900
C  -1.55600 16.17900 22.49000
C  -1.80000 15.96100 23.99600
C  -3.03300 18.19800 21.53200
C  -0.13600 15.71300 22.01700
C  1.03100 16.57000 22.55400
N  -2.22500 15.20600 26.79300
C  -2.19700 14.28700 25.86200
C  -2.64900 13.02700 26.39500
C  -2.76500 13.20900 27.77100
C  -2.56400 14.59600 27.97800
C  -2.75800 11.71100 25.59000
C  -2.93300 12.56100 29.04000
O  -3.06600 11.36000 29.23500
C  -2.88800 13.73000 30.07200
C  -1.81900 13.46300 31.14600
O  -0.59100 13.64900 30.95000
O  -2.37200 13.01900 32.36000
C  -1.42200 12.50000 33.38900
H  -2.39200 20.53900 29.76000
H  -1.50200 20.11500 23.26000
H  -1.73800 13.85000 23.83800
H  -3.53800 16.35000 31.72300
H  -2.33400 18.89200 31.75500
H  -4.86400 18.20400 31.40100
H  -4.41700 19.64900 30.30100
H  -4.35000 19.78400 32.05900
H  -0.59700 16.38100 31.50900
H  -1.67900 15.52100 32.64500
H  -1.97200 17.98300 33.68500
H  -0.27700 17.85700 33.28000
H  -0.75000 23.28300 28.33700
H  -2.23700 22.47200 29.03800
H  -2.26400 23.44100 27.61500
H  0.43800 23.99700 25.60500
H  -1.33800 24.35300 25.87000
H  -0.66800 24.54900 24.27800
H  -0.83900 18.21000 21.94600
H  -2.35100 15.60100 22.01900
H  -3.91000 18.54900 22.07600
H  -3.38100 17.30100 21.01900
H  -2.78900 19.00400 20.84000
H  -0.17600 15.85800 20.93700
H  0.08200 14.64500 22.05500
H  1.29900 17.22400 21.72400
H  1.85700 15.91300 22.82600
H  0.76100 17.21500 23.38900
H  -1.73800 11.34600 25.47000
H  -3.26600 11.77500 24.62700
H  -3.30200 11.02100 26.23500
H  -3.86300 13.70100 30.56000
H  -1.85200 11.61600 33.85900
H  -1.17100 13.20700 34.18100
H  -0.49100 12.09200 32.99400
Mg 0.25600 7.87900 26.21600
C  1.09300 9.91600 29.05900
C  0.25500 5.16500 28.33700
C  -0.33400 6.10500 23.54400
C  0.45600 10.82800 24.20300
N  0.73400 7.62900 28.51500
C  0.81900 8.60900 29.48100
C  0.75200 7.87500 30.90900
C  0.83200 6.31000 30.48600
C  0.59900 6.34100 29.00600
C  2.21300 5.58200 30.75900
C  -0.55200 8.25100 31.71700
C  -0.40000 9.03800 33.05900
H  0.85800 8.70100 33.86200
N  -0.20800 5.94200 26.02200
C  -0.03500 4.98300 26.96700
C  -0.39100 3.72700 26.35800
C  -0.76300 3.98500 25.03900
C  -0.50700 5.42400 24.79100
C  -0.39800 2.43000 27.09600
C  -1.38300 2.97400 24.00700
O  -1.94000 3.40100 23.01100
C  -1.45900 1.54100 24.22200
N  0.07000 8.46100 24.20000
C  -0.12600 7.46900 23.28200
C  -0.06000 8.04800 21.85600
C  -0.13000 9.57500 22.14100
C  0.16700 9.61800 23.59400
C  1.27100 7.50500 21.25200
C  -1.36200 10.39400 21.88600
C  -1.18100 11.73100 21.06800
N  0.76800 9.81000 26.43400
C  0.71400 10.98500 25.62800
C  1.13300 12.17400 26.30400
C  1.36700 11.69700 27.64200
C  0.99200 10.37100 27.73500
C  1.19900 13.56300 25.76500
C  1.64400 12.27000 28.84600
O  2.00300 13.40500 29.21000
C  1.45700 11.11100 29.83000
C  2.61700 10.95900 30.77200
O  3.62800 10.29800 30.54300
O  2.43600 11.83600 31.86300
C  3.67700 12.11300 32.59000
H  0.25400 4.33000 29.04100
H  -0.61700 5.60800 22.61400
H  0.60800 11.74300 23.62600
H  1.68100 8.13900 31.41500
H  0.07300 5.70700 30.98500
H  2.26400 5.15700 31.76200
H  3.09500 6.21300 30.64500
H  2.33100 4.72300 30.09900
H  -1.03200 7.31200 31.99400
H  -1.29100 8.81800 31.15200
H  -1.23300 8.76600 33.70700
H  -0.33300 10.09300 32.79300
H  -1.36900 1.93400 27.09200
H  0.01700 2.49200 28.10200
H  0.28100 1.85000 26.47200
H  -1.91400 1.10500 23.33300
H  -2.01900 1.43200 25.15100
H  -0.42500 1.19900 24.25200
H  -0.96100 7.78900 21.30100
H  0.69000 10.17100 21.73900
H  2.02900 8.23200 20.96100
H  1.02400 6.95400 20.34400
H  1.80400 6.86100 21.95100
H  -1.85900 10.76300 22.78300
H  -2.05000 9.72000 21.37500
H  -0.22500 12.25100 21.12100
H  -1.90900 12.45900 21.42500
H  -1.55700 11.52900 20.06500
H  0.45300 13.68500 24.98100
H  2.22400 13.71700 25.42600
H  0.86300 14.37200 26.41300
H  0.59500 11.45900 30.39700
H  3.58200 13.01000 33.20100
H  4.47900 12.23100 31.86100
H  4.01800 11.26000 33.17800

