158

Mg 24.82800 -6.79100 47.28300
C  27.23900 -4.51900 46.16600
C  22.74600 -5.61100 44.86700
C  22.99200 -9.51600 47.75800
C  27.40300 -8.33300 49.31600
N  25.04600 -5.37100 45.59400
C  26.02700 -4.43600 45.46600
C  25.73800 -3.41800 44.38000
C  24.22500 -3.54700 44.26800
C  23.98000 -4.90000 44.88600
C  23.40000 -2.47300 45.09500
C  26.44100 -3.72900 43.05800
C  27.33200 -2.70000 42.34300
H  27.06700 -2.32700 40.81400
N  23.05900 -7.44600 46.57200
C  22.35000 -6.79200 45.56200
C  21.05500 -7.43700 45.51600
C  21.06300 -8.58600 46.38500
C  22.39100 -8.56500 46.98100
C  19.87800 -6.95900 44.64100
C  19.91600 -9.47800 46.69400
O  18.76800 -9.27800 46.12600
C  20.04300 -10.43200 47.76900
N  25.06400 -8.48300 48.58500
C  24.11700 -9.53300 48.41600
C  24.37000 -10.59500 49.49200
C  25.81500 -10.27600 49.99000
C  26.13800 -8.97800 49.24100
C  23.26400 -10.62500 50.60900
C  26.79300 -11.50300 49.84100
C  28.04000 -11.47400 50.70800
N  26.90800 -6.42700 47.85100
C  27.77900 -7.13600 48.65000
C  29.05100 -6.50900 48.59700
C  28.83900 -5.45300 47.64200
C  27.56700 -5.45800 47.18700
C  30.27000 -6.78700 49.46600
C  29.53300 -4.36700 47.00800
O  30.63500 -3.90900 47.16000
C  28.51200 -3.72800 45.98300
C  28.35300 -2.30600 46.28800
O  27.63400 -1.87400 47.19400
O  28.83700 -1.63000 45.21900
C  28.50000 -0.19000 45.36900
H  22.03000 -5.12400 44.20300
H  22.61400 -10.54000 47.76000
H  28.28100 -8.78600 49.78000
H  26.01600 -2.40500 44.66900
H  23.83800 -3.42900 43.25600
H  23.00400 -2.92700 46.00400
H  22.52100 -2.14800 44.53800
H  23.95600 -1.58700 45.40300
H  25.61700 -4.06700 42.42900
H  27.20900 -4.48100 43.23800
H  28.35200 -3.08400 42.34700
H  27.34100 -1.77600 42.92200
H  19.78000 -7.70900 43.85600
H  20.06900 -5.96900 44.22700
H  18.96300 -6.76300 45.20000
H  20.65900 -11.24400 47.38100
H  19.06100 -10.87900 47.92500
H  20.41900 -9.92400 48.65600
H  24.18200 -11.56600 49.03400
H  25.90100 -10.00000 51.04100
H  22.39000 -10.08200 50.24700
H  23.58000 -10.26900 51.59000
H  22.93200 -11.61900 50.90700
H  27.18800 -11.38100 48.83200
H  26.32700 -12.48800 49.88800
H  28.94400 -11.38300 50.10700
H  28.00400 -12.31200 51.40500
H  27.96300 -10.58000 51.32600
H  30.97500 -5.97300 49.63700
H  30.85900 -7.61900 49.08000
H  30.05000 -7.12200 50.48000
H  29.14100 -3.81700 45.09700
H  27.45600 -0.03600 45.64200
H  28.57100 0.22200 44.36200
H  29.10400 0.32500 46.11600
Mg 36.37800 49.89800 25.72400
C  36.23500 47.98600 28.74300
C  35.12500 52.51000 27.40700
C  35.98500 51.37000 22.81800
C  37.32400 46.73800 24.09200
N  35.77300 50.22700 27.90300
C  35.95700 49.38500 28.91600
C  35.56800 50.09600 30.22900
C  35.24300 51.50300 29.82200
C  35.35500 51.42100 28.25800
C  33.88000 52.02800 30.39100
C  36.64300 49.90700 31.32500
C  36.12300 49.41000 32.68800
H  34.70300 49.65300 33.11400
N  35.77300 51.68500 25.27200
C  35.31700 52.61700 26.04500
C  34.91300 53.76700 25.22300
C  35.38300 53.54900 23.93100
C  35.74100 52.13700 23.95000
C  34.06700 54.81600 25.77000
C  35.19100 54.32800 22.62400
O  35.51100 53.99500 21.48100
C  34.50300 55.71800 22.62900
N  36.32900 48.98600 23.70700
C  36.24000 49.96000 22.67900
C  36.71300 49.24500 21.33100
C  37.12100 47.78100 21.80600
C  36.99700 47.84900 23.32000
C  35.72200 49.35300 20.23100
C  38.49900 47.31600 21.28000
C  39.76700 47.84300 21.97600
N  36.67600 47.75400 26.26000
C  37.08600 46.63700 25.48100
C  37.20600 45.49800 26.30800
C  36.86200 45.98500 27.64100
C  36.55700 47.33500 27.50000
C  37.63800 44.08300 25.87700
C  36.71100 45.61700 29.01500
O  36.75400 44.51400 29.51100
C  36.25600 46.85900 29.81200
C  34.91300 46.60400 30.47500
O  33.76600 46.66500 30.01800
O  35.19500 45.94500 31.68600
C  34.01900 45.47400 32.56300
H  34.75900 53.33600 28.02000
H  36.11700 51.89800 21.87200
H  37.68200 45.84500 23.57400
H  34.65500 49.56000 30.49000
H  36.07300 52.10800 30.18800
H  33.97600 52.83100 31.12100
H  33.30300 51.24200 30.87800
H  33.29400 52.55300 29.63600
H  37.15600 50.86100 31.44600
H  37.34600 49.13300 31.01700
H  36.75700 49.86000 33.45200
H  36.32300 48.33900 32.69800
H  34.71000 55.69400 25.69700
H  33.83600 54.77200 26.83500
H  33.14100 54.89000 25.20000
H  33.45100 55.57300 22.87500
H  34.55500 56.07100 21.59900
H  35.00300 56.32400 23.38500
H  37.61600 49.76200 21.00700
H  36.38100 47.07600 21.42700
H  34.76600 49.73200 20.59300
H  35.51500 48.42000 19.70700
H  35.98800 49.95400 19.36100
H  38.58800 47.42400 20.19900
H  38.63400 46.24700 21.44700
H  39.45000 48.77000 22.45400
H  40.60400 48.13200 21.34200
H  40.25500 47.28800 22.77800
H  36.87600 43.55700 25.30100
H  37.68100 43.39800 26.72300
H  38.61400 44.05000 25.39300
H  37.06100 46.97100 30.53800
H  33.84000 45.97100 33.51600
H  34.12500 44.39200 32.65400
H  33.01900 45.56200 32.14000

