158

Mg 0.64500 43.32800 26.59500
C  2.85900 42.69400 29.21600
C  -1.99600 42.61900 28.66700
C  -1.45000 43.58900 23.98400
C  3.49500 43.83500 24.39800
N  0.48000 42.63700 28.64800
C  1.47400 42.60400 29.58200
C  0.86900 42.44200 30.99400
C  -0.60100 42.09600 30.72200
C  -0.74700 42.45500 29.23900
C  -1.13300 40.70700 31.14900
C  1.14900 43.63200 31.89100
C  1.69800 43.37100 33.25800
H  1.35400 42.06300 34.04300
N  -1.48300 43.05800 26.35000
C  -2.37800 42.86600 27.30700
C  -3.72000 42.82700 26.74400
C  -3.54100 43.02800 25.36200
C  -2.12300 43.17600 25.16800
C  -4.91800 42.62100 27.67000
C  -4.63300 43.02200 24.26800
O  -4.26000 43.24100 23.11700
C  -6.07200 42.70300 24.58900
N  1.03000 43.47100 24.40300
C  -0.07100 43.74300 23.63000
C  0.37200 44.30300 22.26900
C  1.91700 44.66100 22.56300
C  2.18000 43.97800 23.85600
C  -0.00100 43.30500 21.10200
C  2.21000 46.19900 22.68700
C  1.55000 47.07500 21.56500
N  2.69000 43.18800 26.71800
C  3.68600 43.42100 25.76600
C  4.92600 43.28500 26.47500
C  4.67500 43.04800 27.82000
C  3.31800 42.97800 27.91800
C  6.25500 43.34200 25.77200
C  5.25300 42.68500 29.05700
O  6.40500 42.46500 29.41300
C  4.03700 42.51800 30.11500
C  4.28400 41.14900 30.77100
O  3.89100 40.04000 30.39700
O  5.05100 41.38500 31.91300
C  5.27000 40.20300 32.74000
H  -2.86600 42.43200 29.29900
H  -2.05500 43.90200 23.13000
H  4.38200 44.02200 23.79000
H  1.47300 41.58400 31.28900
H  -1.19500 42.81600 31.28500
H  -0.24200 40.20500 31.52700
H  -1.60400 40.18400 30.31600
H  -1.85500 40.78200 31.96200
H  0.27100 44.24000 32.11000
H  1.94800 44.30400 31.57700
H  1.34600 44.22500 33.83600
H  2.78700 43.42900 33.25600
H  -5.55100 43.48700 27.47500
H  -4.65500 42.51100 28.72200
H  -5.43600 41.70700 27.37600
H  -6.55400 42.22300 23.73700
H  -6.49100 43.70800 24.54800
H  -6.23700 42.15000 25.51300
H  -0.15500 45.24400 22.11200
H  2.47000 44.21300 21.73700
H  0.70200 43.41600 20.27700
H  -0.94200 43.59900 20.63700
H  -0.08100 42.33900 21.60000
H  3.25900 46.46700 22.55700
H  2.12900 46.60900 23.69300
H  0.61600 47.54100 21.87900
H  1.41100 46.44100 20.69000
H  2.16000 47.83300 21.07200
H  6.41500 44.41800 25.70200
H  6.37900 42.90600 24.78000
H  6.88500 42.92000 26.55500
H  4.06200 43.37000 30.79500
H  6.29000 40.16000 33.12200
H  5.24500 39.21100 32.28800
H  4.73500 40.17400 33.68900
Mg -1.76400 34.81600 26.86700
C  -3.04100 32.84500 29.53200
C  -0.23400 36.76500 29.07100
C  -0.97500 36.73600 24.23500
C  -3.40600 32.53800 24.59500
N  -1.81500 34.86700 29.11400
C  -2.19200 33.82600 29.99300
C  -1.72100 34.09600 31.41500
C  -0.76600 35.41200 31.19100
C  -0.97200 35.77200 29.69000
C  -1.02500 36.55600 32.18700
C  -0.98400 32.91800 32.04400
C  -1.67200 32.27800 33.25200
H  -0.82200 32.29700 34.53200
N  -0.72700 36.56500 26.69000
C  -0.13700 37.18600 27.73700
C  0.59200 38.22900 27.19900
C  0.44600 38.23400 25.76900
C  -0.46700 37.12700 25.48400
C  1.38700 39.18900 28.07900
C  1.02600 39.22200 24.72000
O  0.72900 39.25600 23.51700
C  2.02900 40.18500 25.14200
N  -2.53100 34.90300 24.68900
C  -1.80300 35.69100 23.87100
C  -1.84600 35.24300 22.40200
C  -2.35300 33.73800 22.62100
C  -2.85300 33.70300 24.02400
C  -2.85300 36.10100 21.55300
C  -1.21100 32.64000 22.35600
C  -1.74600 31.28300 21.92100
N  -3.03900 33.09100 26.95100
C  -3.55000 32.28000 25.97800
C  -4.12700 31.18000 26.64200
C  -4.08400 31.38000 28.04300
C  -3.32100 32.56000 28.16400
C  -4.88300 30.08800 25.98200
C  -4.50500 30.91700 29.31000
O  -5.27200 29.98000 29.59700
C  -3.79200 31.80800 30.33900
C  -4.93800 32.38100 31.10500
O  -5.60000 33.35600 30.81700
O  -5.13400 31.70600 32.33800
C  -5.99600 32.24700 33.36500
H  0.39500 37.28700 29.79400
H  -0.44400 37.19500 23.39800
H  -3.65700 31.76200 23.86900
H  -2.61600 34.33900 31.98800
H  0.26000 35.05800 31.29400
H  -1.55500 37.42400 31.79500
H  -0.00900 36.89500 32.38400
H  -1.45600 36.15600 33.10500
H  -0.00200 33.24400 32.38600
H  -0.85100 32.13900 31.29400
H  -1.85500 31.22500 33.04000
H  -2.68000 32.61100 33.50000
H  2.31700 39.50800 27.60800
H  1.67400 38.65700 28.98600
H  0.69000 40.02300 28.15400
H  1.65500 40.86300 25.90800
H  2.29800 40.65200 24.19400
H  2.90300 39.69700 25.57500
H  -0.81600 35.35500 22.06400
H  -3.10900 33.40600 21.91000
H  -3.15800 36.91600 22.20900
H  -3.74500 35.57000 21.22000
H  -2.48600 36.55000 20.63000
H  -0.64800 32.39100 23.25600
H  -0.55800 33.16500 21.66000
H  -1.29500 30.50000 22.53000
H  -1.44900 31.14900 20.88100
H  -2.83600 31.29100 21.94600
H  -5.07400 29.25900 26.66300
H  -4.37500 29.55400 25.17900
H  -5.83100 30.41300 25.55400
H  -3.16600 31.18900 30.98200
H  -6.73300 32.98500 33.04700
H  -5.39000 32.63200 34.18500
H  -6.45500 31.34200 33.76200

