158

Mg 54.61900 23.94300 45.03400
C  52.11100 26.26500 44.20900
C  52.67700 21.45000 43.80600
C  57.48800 22.01800 45.08800
C  56.64400 26.80000 46.09400
N  52.72300 23.95500 43.96500
C  51.82700 24.91800 43.75400
C  50.58900 24.46400 42.94500
C  50.71500 22.94100 43.37500
C  52.13800 22.74700 43.74700
C  49.83700 22.60900 44.61800
C  50.64200 24.81100 41.44400
C  49.27300 25.26800 40.88900
H  48.94500 24.70500 39.48100
N  55.00100 22.00100 44.55800
C  54.02100 21.13300 44.10400
C  54.71100 19.79400 43.91600
C  56.08200 19.94400 44.31700
C  56.29600 21.37300 44.69800
C  54.05500 18.53800 43.36900
C  57.12600 18.87200 44.11100
O  56.82800 17.75100 43.65100
C  58.58100 19.02100 44.58700
N  56.77400 24.32200 45.68700
C  57.70700 23.34500 45.54200
C  59.09100 23.94500 45.75800
C  58.86400 25.36100 46.33700
C  57.36300 25.57800 45.98400
C  60.02000 23.14700 46.69600
C  59.94500 26.40600 45.98300
C  60.90500 26.97400 47.01900
N  54.35800 26.09900 45.24400
C  55.24500 27.09200 45.71000
C  54.59500 28.35900 45.71000
C  53.36100 28.08700 45.10300
C  53.28900 26.70000 44.83000
C  55.08100 29.62100 46.27100
C  52.10200 28.67900 44.71600
O  51.71900 29.85100 44.83100
C  51.35300 27.56300 43.97600
C  51.49100 27.90400 42.49900
O  52.60900 27.91200 41.95500
O  50.31100 28.38000 41.98700
C  50.36300 29.17500 40.81400
H  52.03400 20.60900 43.53600
H  58.38000 21.41900 44.89100
H  57.20900 27.64300 46.49500
H  49.75400 25.02900 43.35800
H  50.43700 22.22600 42.59900
H  49.14500 23.39200 44.92900
H  50.58500 22.49600 45.40300
H  49.39500 21.62800 44.44500
H  51.03100 23.92200 40.94900
H  51.40500 25.58700 41.38700
H  49.20900 26.35500 40.84100
H  48.49400 24.98500 41.59700
H  54.20800 17.80600 44.16200
H  54.52400 17.94800 42.58200
H  52.98200 18.64400 43.21100
H  59.18700 19.65300 43.93800
H  59.02800 18.02700 44.61100
H  58.75100 19.42700 45.58400
H  59.46400 23.94400 44.73400
H  58.72800 25.37300 47.41800
H  60.54200 23.85300 47.34200
H  60.69000 22.44200 46.20400
H  59.40600 22.54400 47.36600
H  59.54800 27.26900 45.44700
H  60.66300 25.95300 45.29900
H  61.83000 26.48500 47.32400
H  60.23500 27.06300 47.87500
H  61.24700 27.96800 46.73100
H  54.19300 30.24800 46.34900
H  55.81800 30.14300 45.66100
H  55.64800 29.66400 47.20100
H  50.35400 27.56200 44.41300
H  51.36500 29.58400 40.68800
H  49.78700 30.06700 41.05800
H  49.89800 28.62500 39.99600
Mg 48.99900 46.69300 43.45700
C  45.75000 46.96200 42.03500
C  49.21900 43.70000 41.80200
C  52.28200 46.81400 44.01500
C  48.66200 49.96800 44.61000
N  47.67000 45.48900 41.99900
C  46.37000 45.77700 41.54300
C  45.79000 44.74000 40.58100
C  46.91300 43.66200 40.72600
C  48.02900 44.33700 41.58500
C  46.43200 42.15300 41.15700
C  45.29900 45.25400 39.17400
C  44.09000 44.64400 38.43000
H  44.30900 43.78900 37.14600
N  50.52100 45.38200 43.06200
C  50.37500 44.13400 42.45300
C  51.74500 43.49900 42.49000
C  52.57000 44.36800 43.25300
C  51.80800 45.60500 43.47400
C  51.95200 42.06100 42.04100
C  53.97200 43.91600 43.68900
O  54.48500 42.84600 43.35800
C  54.85000 44.91500 44.57000
N  50.21700 48.15800 44.36400
C  51.58200 47.96300 44.42200
C  52.32900 49.27500 44.98100
C  51.09700 50.16800 45.37600
C  49.86100 49.39400 44.71700
C  53.36300 48.96300 46.02400
C  51.20300 51.66300 44.85800
C  50.97100 52.72300 45.93000
N  47.58300 48.24000 43.27100
C  47.55500 49.42900 43.96200
C  46.19600 49.92900 44.02000
C  45.42000 49.00900 43.18700
C  46.35100 48.05400 42.75500
C  45.70500 51.17100 44.69200
C  44.10600 48.67300 42.72500
O  43.03500 49.17400 42.98600
C  44.41800 47.55700 41.66000
C  43.30700 46.54700 41.59100
O  43.09100 45.78700 42.46500
O  42.40800 46.78500 40.63100
C  41.15900 46.01500 40.57300
H  49.32500 42.69000 41.40100
H  53.36700 46.94000 44.03900
H  48.55000 50.96900 45.03100
H  44.83700 44.45400 41.02600
H  47.37200 43.54800 39.74400
H  47.00900 41.86400 42.03600
H  46.76800 41.52200 40.33400
H  45.38100 41.89200 41.27700
H  46.12300 44.98900 38.51200
H  45.26400 46.34400 39.15300
H  43.58700 45.53800 38.06000
H  43.36200 44.17200 39.08900
H  52.47800 42.09300 41.08700
H  51.07700 41.41000 42.03900
H  52.52200 41.51300 42.79100
H  54.18000 45.33400 45.32100
H  55.42300 45.55000 43.89400
H  55.49200 44.29500 45.19500
H  52.80100 49.69200 44.09100
H  51.02400 50.13000 46.46300
H  53.63200 47.90700 46.02200
H  53.02600 49.09400 47.05200
H  54.28200 49.50300 45.79400
H  50.38800 51.68700 44.13300
H  52.06600 51.87600 44.22700
H  49.90000 52.91400 45.86000
H  51.50400 53.67100 46.00600
H  51.08600 52.14100 46.84500
H  44.63600 51.17800 44.90600
H  46.01000 52.00000 44.05300
H  46.26100 51.25500 45.62600
H  44.43300 47.87300 40.61700
H  40.87500 45.60500 41.54200
H  41.11600 45.17000 39.88500
H  40.37000 46.70400 40.27300

