158

Mg 40.55000 41.49200 27.13200
C  39.98000 43.60600 29.75700
C  41.54500 39.13000 29.33800
C  41.49100 39.63200 24.53000
C  39.76600 44.02800 24.93500
N  40.59600 41.36300 29.27000
C  40.18800 42.33800 30.18300
C  40.11900 41.85500 31.63800
C  40.80200 40.37700 31.43900
C  41.00300 40.30500 29.90300
C  42.09900 40.16800 32.31800
C  38.61700 41.96500 32.14300
C  38.38600 41.17900 33.35600
H  37.62400 41.87500 34.50600
N  41.42400 39.64700 26.98600
C  41.79700 38.81000 28.02200
C  42.30600 37.58700 27.49200
C  42.29400 37.66400 26.08500
C  41.76300 39.03700 25.78500
C  42.73500 36.42300 28.34800
C  42.69500 36.68400 25.01500
O  42.56800 36.94600 23.82600
C  43.37200 35.49600 25.41000
N  40.57500 41.70600 25.01200
C  40.91900 40.77000 24.13000
C  40.75600 41.16900 22.66600
C  39.95200 42.58000 22.84600
C  40.10400 42.79700 24.35900
C  42.16800 41.46300 21.91200
C  38.42100 42.38600 22.41100
C  37.68200 41.19200 22.98400
N  40.02700 43.39600 27.24100
C  39.73100 44.36300 26.29200
C  39.46800 45.65900 26.91100
C  39.57100 45.36000 28.23400
C  39.96100 44.05100 28.40900
C  39.08500 46.89100 26.14700
C  39.49400 45.91500 29.54300
O  39.19500 47.02000 29.92100
C  39.73900 44.77800 30.61100
C  40.90600 45.16300 31.52000
O  41.89900 45.74900 31.13900
O  40.63400 44.75500 32.81300
C  41.72700 44.93600 33.75100
H  41.89500 38.44300 30.11200
H  41.67600 39.00000 23.65900
H  39.58800 44.77900 24.16400
H  40.77800 42.42600 32.29300
H  40.11900 39.55100 31.64100
H  42.84200 39.65700 31.70500
H  41.76400 39.48400 33.09700
H  42.61100 41.05400 32.69500
H  38.03700 41.48500 31.35500
H  38.25700 42.99200 32.19900
H  39.30100 40.76800 33.78200
H  37.76500 40.33100 33.06900
H  42.03700 35.60200 28.18600
H  42.81300 36.67700 29.40500
H  43.74200 36.23400 27.97500
H  42.70300 34.82900 25.95400
H  44.25600 35.71700 26.00700
H  43.83400 34.92400 24.60500
H  40.26900 40.39900 22.06800
H  40.36100 43.45700 22.34400
H  43.05900 41.11000 22.43100
H  42.31800 42.52400 21.70900
H  42.19900 41.10200 20.88400
H  38.47600 42.23200 21.33400
H  37.84700 43.30800 22.50800
H  38.25000 40.57500 23.68000
H  37.36400 40.54200 22.16900
H  36.77800 41.53800 23.48500
H  38.45500 46.73800 25.27000
H  39.99400 47.38700 25.80700
H  38.45300 47.46700 26.82400
H  38.86300 44.87400 31.25300
H  42.73900 45.11500 33.38800
H  41.71100 44.06000 34.39900
H  41.46400 45.77700 34.39200
Mg 8.64400 47.69500 25.40000
C  6.82600 47.58000 28.31900
C  11.29800 48.99500 27.03200
C  10.34900 47.55900 22.45000
C  5.76800 46.97300 23.58600
N  9.03300 48.14700 27.52800
C  8.14700 48.00600 28.51500
C  8.76700 48.54300 29.84300
C  10.08300 49.22700 29.34000
C  10.14900 48.81300 27.87100
C  10.03800 50.77500 29.45700
C  8.98200 47.39000 30.86000
C  8.50500 47.52400 32.32500
H  8.81200 46.39100 33.29200
N  10.59600 48.01300 24.94200
C  11.54000 48.59000 25.70500
C  12.87500 48.42100 25.09500
C  12.61900 48.01800 23.71300
C  11.14600 47.84600 23.65800
C  14.20900 48.83700 25.75400
C  13.57600 47.72100 22.56900
O  13.23000 47.29700 21.43100
C  15.00700 47.93800 22.75600
N  8.12000 47.57500 23.29500
C  8.97500 47.43400 22.28600
C  8.29700 47.17600 20.93700
C  6.93000 46.73000 21.37000
C  6.88900 47.21200 22.80100
C  8.30000 48.49900 20.05800
C  6.68800 45.17200 21.13200
C  5.41600 44.81500 20.34400
N  6.67100 47.48800 25.76500
C  5.62100 47.16100 24.96800
C  4.48900 46.94700 25.72900
C  4.90600 47.01000 27.06900
C  6.26800 47.34200 27.04600
C  3.16600 46.53200 25.25700
C  4.46600 47.00800 28.41600
O  3.31600 46.86500 28.80700
C  5.74300 47.32300 29.30500
C  5.92300 46.15400 30.12800
O  6.62600 45.19700 29.81500
O  5.35500 46.34100 31.36000
C  5.51600 45.19300 32.29400
H  12.22000 49.22100 27.57100
H  10.93400 47.46900 21.53200
H  4.92700 46.72500 22.93600
H  8.14800 49.31300 30.30200
H  10.92900 48.81500 29.89000
H  10.35500 51.07200 30.45700
H  8.97600 50.98000 29.32000
H  10.65500 51.23300 28.68400
H  10.04700 47.16000 30.83400
H  8.52400 46.48600 30.45800
H  7.42900 47.36200 32.25300
H  8.67100 48.55100 32.65000
H  14.85300 47.96100 25.67700
H  14.09200 49.08800 26.80800
H  14.71000 49.65000 25.23000
H  15.20200 48.98500 22.98800
H  15.59600 47.77700 21.85400
H  15.43200 47.28900 23.52100
H  8.85200 46.45700 20.33400
H  6.16000 47.25000 20.80000
H  9.05800 48.40000 19.28100
H  8.69500 49.31100 20.66900
H  7.32900 48.84900 19.70800
H  6.54200 44.86200 22.16600
H  7.55300 44.60000 20.79700
H  5.74600 44.33900 19.42000
H  4.87000 45.69100 19.99300
H  4.81200 44.16200 20.97400
H  3.11800 45.49700 25.59500
H  3.14900 46.44000 24.17100
H  2.37000 47.20000 25.58600
H  5.49900 48.19300 29.91400
H  4.56900 44.75300 32.60800
H  5.99900 45.58800 33.18800
H  6.32300 44.51100 32.02300

