158

Mg 1.31100 7.98800 25.57700
C  2.15600 9.92000 28.35500
C  1.70600 5.18700 27.29500
C  0.86700 6.25300 22.69900
C  1.45900 10.85300 23.62700
N  1.77900 7.64600 27.57600
C  1.91900 8.57000 28.60700
C  2.17000 7.91300 29.88200
C  2.11700 6.32800 29.61400
C  1.89300 6.40800 28.05200
C  3.42400 5.54200 29.95700
C  1.10900 8.38200 30.98400
C  1.51400 8.60400 32.51900
H  2.76600 7.86400 33.08200
N  1.28700 5.99300 25.09300
C  1.38500 5.00900 25.97200
C  1.25500 3.75200 25.30800
C  0.84600 4.04700 23.99300
C  0.99300 5.43500 23.81300
C  1.31700 2.40600 26.04000
C  0.35900 3.10400 22.89900
O  0.07900 3.54500 21.78400
C  0.44400 1.66800 23.04200
N  1.14100 8.51700 23.44400
C  0.95700 7.60500 22.46300
C  1.16100 8.30000 21.02100
C  1.09200 9.76700 21.38800
C  1.26000 9.73300 22.88200
C  2.53400 7.82600 20.30600
C  -0.18300 10.54200 20.95500
C  -0.04800 11.64100 19.94700
N  1.59000 10.00500 25.91700
C  1.70200 11.01400 25.00100
C  1.94800 12.21000 25.76100
C  2.15400 11.78500 27.05100
C  1.97600 10.44200 27.09700
C  2.06600 13.67700 25.18900
C  2.50600 12.25800 28.38700
O  2.75400 13.39800 28.74900
C  2.27200 11.01500 29.32800
C  3.49800 10.95300 30.25200
O  4.56500 10.40500 30.02500
O  3.16600 11.69900 31.37600
C  4.14700 11.66700 32.53600
H  2.05900 4.36600 27.92200
H  0.81800 5.64700 21.79200
H  1.57100 11.83900 23.17200
H  3.18500 8.17200 30.18300
H  1.32000 5.78400 30.12100
H  4.21300 6.14800 30.40400
H  3.89600 5.01200 29.13000
H  3.20800 4.84000 30.76200
H  0.35000 7.61500 30.83000
H  0.65900 9.34100 30.72900
H  0.65000 8.26900 33.09300
H  1.56900 9.66900 32.74600
H  0.36000 1.92100 25.84800
H  1.53800 2.61800 27.08600
H  2.12400 1.81400 25.60800
H  -0.39900 1.44200 23.69500
H  1.40500 1.32300 23.42500
H  0.28800 1.17000 22.08500
H  0.37400 7.85700 20.41100
H  1.99600 10.27300 21.05100
H  3.11600 8.68000 19.96200
H  2.32100 7.34200 19.35300
H  3.23300 7.19200 20.85100
H  -0.73600 10.91500 21.81700
H  -0.83500 9.85800 20.41200
H  -0.34300 11.30800 18.95200
H  1.01800 11.86400 19.92800
H  -0.53400 12.52700 20.35600
H  2.49000 13.78300 24.19100
H  2.67400 14.23800 25.89800
H  1.07400 14.12800 25.15900
H  1.37100 11.22800 29.90300
H  3.68200 10.99400 33.25600
H  4.35100 12.60100 33.06000
H  5.15800 11.27800 32.41100
Mg -10.53100 40.15500 43.17000
C  -9.94400 36.91500 42.29600
C  -7.63500 41.25000 41.58900
C  -11.65900 43.43600 43.21400
C  -13.87700 39.27900 44.15700
N  -9.02900 39.20300 42.01800
C  -8.91600 37.80100 41.82100
C  -7.68300 37.49700 41.02000
C  -6.87900 38.85400 41.00700
C  -7.90300 39.84100 41.60100
C  -5.47800 38.86100 41.69900
C  -7.93800 36.84400 39.59100
C  -6.90000 35.83600 39.17400
H  -5.73500 36.29200 38.35800
N  -9.68400 42.06900 42.60600
C  -8.49300 42.27600 42.00100
C  -8.34300 43.67300 41.73400
C  -9.49900 44.33100 42.14300
C  -10.32800 43.27700 42.69200
C  -7.04700 44.26000 41.08300
C  -9.75400 45.84400 42.14600
O  -8.89300 46.54500 41.64000
C  -10.92000 46.52000 42.69300
N  -12.50700 41.17200 43.78800
C  -12.62300 42.51900 43.70900
C  -14.04000 42.95700 43.98900
C  -14.82500 41.61000 44.53800
C  -13.71300 40.61600 44.10500
C  -14.26700 44.20400 44.84900
C  -16.28200 41.30000 43.91900
C  -16.37900 40.53400 42.68300
N  -11.69800 38.47200 43.32000
C  -12.96800 38.27500 43.74900
C  -13.32100 36.82200 43.62200
C  -12.11600 36.28800 43.04800
C  -11.19400 37.30500 42.81800
C  -14.62600 36.27200 44.00900
C  -11.42100 35.02200 42.72600
O  -11.87000 33.88100 42.79300
C  -10.06000 35.45400 42.00700
C  -8.98400 34.64000 42.60700
O  -8.34100 34.82800 43.62200
O  -8.80300 33.58200 41.75600
C  -7.64900 32.68100 42.02100
H  -6.79000 41.60000 40.99200
H  -12.20700 44.37900 43.16700
H  -14.88200 39.04500 44.51300
H  -7.12100 36.81300 41.65700
H  -6.69500 39.12700 39.96800
H  -4.83800 38.01800 41.43900
H  -5.42800 39.05000 42.77100
H  -5.09700 39.72500 41.15400
H  -8.02700 37.67800 38.89500
H  -8.93800 36.41200 39.64200
H  -7.40800 35.04400 38.62400
H  -6.47200 35.36100 40.05700
H  -6.25800 44.57300 41.76700
H  -7.35300 45.08300 40.43700
H  -6.59500 43.61900 40.32600
H  -10.79800 47.60300 42.68400
H  -11.09100 46.27700 43.74200
H  -11.73600 46.24000 42.02600
H  -14.50600 43.15100 43.02200
H  -14.93700 41.54800 45.62000
H  -13.40600 44.48200 45.45600
H  -14.88800 43.88700 45.68700
H  -14.75100 45.04300 44.34700
H  -16.81300 42.23200 43.72800
H  -16.98700 40.84500 44.61600
H  -17.02000 41.07500 41.98700
H  -16.75300 39.57300 43.03700
H  -15.48700 40.25700 42.12200
H  -14.87400 35.29800 43.58800
H  -15.41400 37.00700 43.84300
H  -14.58100 36.11600 45.08700
H  -10.08800 35.23800 40.93900
H  -7.53200 31.96700 41.20600
H  -7.86800 32.04100 42.87600
H  -6.69300 33.15900 42.23500

