158

Mg 24.20500 -5.19100 45.72000
C  26.05200 -2.63300 44.13000
C  21.57000 -4.29300 43.72100
C  22.74900 -8.07400 46.56600
C  27.18400 -6.20800 47.39900
N  23.94800 -3.71500 43.96600
C  24.79100 -2.74200 43.62800
C  24.19300 -1.95100 42.47000
C  22.62600 -2.16100 42.72800
C  22.70500 -3.45500 43.50900
C  22.01300 -0.90700 43.47900
C  24.72600 -2.30800 41.06300
C  24.98400 -1.06000 40.18300
H  24.96300 -1.48000 38.73400
N  22.39700 -6.09100 45.20100
C  21.40400 -5.53000 44.40000
C  20.25200 -6.41900 44.30900
C  20.58000 -7.53400 45.14000
C  21.95400 -7.27100 45.72000
C  19.04100 -6.16400 43.45800
C  19.51900 -8.64500 45.48200
O  18.37700 -8.61400 45.00500
C  19.89300 -9.65700 46.50300
N  24.87400 -6.86500 46.96200
C  23.99000 -7.98000 47.13700
C  24.68700 -9.08200 47.90300
C  26.08700 -8.46000 48.22200
C  26.07800 -7.11200 47.46800
C  23.84400 -9.59100 49.07100
C  27.38100 -9.34800 47.91300
C  28.25800 -9.67900 49.15800
N  26.21900 -4.57000 45.83600
C  27.29400 -5.02100 46.63000
C  28.31500 -4.14500 46.42700
C  27.87500 -3.17900 45.49500
C  26.58900 -3.51800 45.13000
C  29.55100 -4.13400 47.11100
C  28.28700 -2.01800 44.77400
O  29.31600 -1.44200 44.70200
C  27.14000 -1.61700 43.81100
C  26.85500 -0.21000 44.03400
O  26.21600 0.20600 44.97500
O  27.46500 0.58000 43.07300
C  27.36400 2.01200 43.21200
H  20.63100 -3.89400 43.33200
H  22.25000 -8.99000 46.88800
H  28.04200 -6.64500 47.91500
H  24.45700 -0.90300 42.61800
H  22.16800 -2.40600 41.77000
H  21.11300 -0.54400 42.98300
H  22.70700 -0.06700 43.51200
H  21.86100 -1.26000 44.49900
H  24.08300 -2.99300 40.50900
H  25.67900 -2.83600 41.06800
H  26.01200 -0.81400 40.44900
H  24.36400 -0.18000 40.35500
H  19.33900 -5.74000 42.49900
H  18.41000 -5.44300 43.97900
H  18.43300 -6.98800 43.08600
H  18.99900 -10.28000 46.54200
H  20.14500 -9.27100 47.49000
H  20.74400 -10.20000 46.09300
H  24.71400 -9.93300 47.22300
H  26.06100 -8.13000 49.26100
H  24.28100 -9.48100 50.06400
H  23.55800 -10.62900 48.90100
H  23.00900 -8.89300 49.12800
H  27.85600 -8.93200 47.02500
H  27.09800 -10.37300 47.67200
H  29.15000 -10.19900 48.80700
H  27.72000 -10.22200 49.93400
H  28.48600 -8.73300 49.64900
H  30.04200 -3.16400 47.19800
H  30.27100 -4.61900 46.45200
H  29.38100 -4.64000 48.06100
H  27.56000 -1.73100 42.81100
H  26.75400 2.37400 42.38500
H  28.35400 2.46600 43.25700
H  26.76700 2.25800 44.09000
Mg -12.20400 16.59600 41.82800
C  -9.67500 14.32600 41.04900
C  -10.34400 19.00600 40.15300
C  -14.94900 18.49600 41.62900
C  -14.31100 13.79700 42.58700
N  -10.26100 16.47500 40.55100
C  -9.36700 15.54600 40.46600
C  -8.05000 16.01900 39.82900
C  -8.28500 17.53300 39.65500
C  -9.76000 17.70800 40.14100
C  -7.26100 18.49500 40.25900
C  -7.70500 15.15700 38.60400
C  -6.16200 15.10400 38.46300
H  -5.53200 15.86700 37.28200
N  -12.55700 18.51100 41.09300
C  -11.72300 19.39500 40.45700
C  -12.33400 20.70600 40.36500
C  -13.70600 20.52100 40.75900
C  -13.77900 19.13300 41.20600
C  -11.66600 21.90100 39.79100
C  -14.78500 21.65900 40.84000
O  -14.55300 22.72300 40.31200
C  -16.21800 21.59100 41.41200
N  -14.39700 16.27100 42.24400
C  -15.29300 17.21000 42.01000
C  -16.74600 16.71300 42.29600
C  -16.50700 15.13900 42.60400
C  -14.98900 15.01700 42.51400
C  -17.48600 17.63900 43.30800
C  -17.36300 14.15000 41.69900
C  -18.70500 13.70900 42.25500
N  -12.02600 14.59000 42.11300
C  -12.98100 13.56500 42.39300
C  -12.36900 12.27400 42.43400
C  -11.05100 12.53000 42.03300
C  -10.91000 13.90700 41.71000
C  -13.04200 11.07100 42.92000
C  -9.74400 11.99600 41.88300
O  -9.29000 10.91100 42.17700
C  -8.78900 13.06200 41.20500
C  -7.59300 13.44000 41.94400
O  -7.35800 13.73700 43.10200
O  -6.56000 13.34500 41.05400
C  -5.27300 13.84900 41.53200
H  -9.67300 19.81500 39.85500
H  -15.80600 19.17000 41.56700
H  -15.01300 12.97700 42.75000
H  -7.35100 15.81000 40.63900
H  -8.41600 17.70800 38.58700
H  -7.60000 19.04700 41.13500
H  -6.79900 19.09500 39.47500
H  -6.45100 17.84800 40.59600
H  -8.09000 15.74200 37.76900
H  -8.15500 14.16400 38.58600
H  -5.76700 14.09100 38.37700
H  -5.68400 15.62000 39.29600
H  -12.25300 22.81900 39.81600
H  -11.58000 21.59400 38.74900
H  -10.70700 22.14700 40.24900
H  -16.81700 21.02000 40.70200
H  -16.51700 22.63900 41.44500
H  -16.30600 20.99300 42.32000
H  -17.30900 16.81900 41.36800
H  -16.90500 15.04000 43.61400
H  -18.25700 18.13400 42.71700
H  -16.77400 18.39400 43.63900
H  -18.03100 17.22000 44.15500
H  -16.81600 13.27400 41.34900
H  -17.57600 14.72700 40.79900
H  -19.41400 14.13200 41.54300
H  -18.83700 14.04600 43.28300
H  -18.63400 12.62300 42.31600
H  -13.92800 11.02200 42.28800
H  -13.48100 11.14000 43.91600
H  -12.45600 10.15200 42.92800
H  -8.60200 12.64000 40.21800
H  -5.15600 14.92500 41.39900
H  -4.45800 13.41700 40.95000
H  -4.90100 13.63000 42.53300

