158

Mg -12.73500 37.97700 41.74500
C  -10.56700 35.43900 40.58300
C  -10.53600 40.21400 40.19000
C  -15.09300 40.41800 41.94700
C  -15.13300 35.58900 42.36800
N  -10.73000 37.87000 40.60900
C  -10.02400 36.66500 40.33200
C  -8.71100 36.97400 39.59400
C  -8.66900 38.52600 39.70100
C  -10.00200 38.95000 40.17800
C  -7.56700 39.16000 40.59600
C  -8.60900 36.27100 38.16800
C  -7.21800 35.60200 37.93000
H  -6.30700 36.22800 36.87500
N  -12.76100 40.10200 41.29800
C  -11.75500 40.73200 40.67500
C  -12.05000 42.17200 40.78400
C  -13.32500 42.19800 41.38000
C  -13.78300 40.86500 41.55900
C  -11.19100 43.36600 40.16900
C  -14.06100 43.50100 41.74000
O  -13.62800 44.61600 41.57200
C  -15.39300 43.52400 42.41400
N  -14.84900 38.03200 41.98700
C  -15.58800 39.17300 42.23300
C  -17.00600 38.86700 42.66600
C  -17.02900 37.30300 42.65000
C  -15.56800 36.96700 42.39500
C  -17.46900 39.41200 43.98800
C  -18.16600 36.68700 41.68700
C  -17.79200 36.18300 40.25600
N  -12.83200 35.89000 41.77200
C  -13.91500 35.04000 41.98100
C  -13.40000 33.67200 41.90200
C  -12.07400 33.81900 41.41100
C  -11.81400 35.16300 41.23600
C  -14.13400 32.39700 42.20700
C  -10.95200 33.02700 40.88600
O  -10.67700 31.83100 40.72700
C  -9.86800 34.09000 40.52000
C  -8.86400 33.87300 41.56300
O  -9.04400 33.61900 42.74900
O  -7.63700 34.18300 40.98700
C  -6.51900 33.93200 41.90800
H  -9.85400 40.94900 39.75700
H  -15.90500 41.13800 42.06900
H  -15.97700 34.91100 42.51000
H  -7.90500 36.57800 40.21200
H  -8.52100 38.89400 38.68600
H  -7.23000 38.40400 41.30500
H  -7.70200 40.08600 41.15500
H  -6.76200 39.45200 39.92100
H  -8.74700 37.09000 37.46200
H  -9.36600 35.51600 37.95300
H  -7.29400 34.55900 37.62100
H  -6.67700 35.50300 38.87100
H  -10.87600 43.16700 39.14500
H  -10.29100 43.57700 40.74700
H  -11.71300 44.30900 40.01000
H  -16.16700 43.21600 41.71100
H  -15.60400 44.57400 42.61400
H  -15.41700 42.94800 43.33900
H  -17.65200 39.28800 41.89600
H  -17.21100 36.87700 43.63600
H  -18.24000 40.14900 43.76300
H  -16.68200 39.95100 44.51700
H  -18.01800 38.68500 44.58600
H  -18.96700 37.41400 41.55300
H  -18.62900 35.94200 42.33400
H  -16.72000 36.34000 40.13300
H  -18.28200 36.75800 39.47000
H  -18.00800 35.12500 40.10800
H  -14.91200 32.50400 42.96300
H  -13.43900 31.58200 42.41200
H  -14.53400 32.21200 41.21000
H  -9.39800 33.88600 39.55800
H  -5.73500 33.82400 41.15800
H  -6.60700 32.98900 42.44800
H  -6.35800 34.81700 42.52300
Mg -2.30000 35.12700 26.75300
C  -3.93900 33.13000 29.01300
C  -0.71100 36.64200 29.40300
C  -0.73300 37.24100 24.47500
C  -3.94100 33.60500 24.12900
N  -2.37400 34.96400 28.89700
C  -3.08100 34.00100 29.66600
C  -2.89900 34.08300 31.16800
C  -2.07900 35.41400 31.25300
C  -1.70700 35.70600 29.74700
C  -2.81700 36.68000 31.93200
C  -2.15400 32.84400 31.75200
C  -2.78800 32.09400 32.98500
H  -2.18700 32.20500 34.33400
N  -0.88500 36.71400 26.94500
C  -0.30500 37.16000 28.09900
C  0.75900 38.13200 27.70800
C  0.76800 38.24700 26.30300
C  -0.34200 37.41800 25.84400
C  1.62100 38.80000 28.71600
C  1.58200 39.11700 25.40900
O  1.36600 39.27400 24.22400
C  2.84800 39.74000 25.97100
N  -2.49700 35.60400 24.60400
C  -1.60100 36.30500 23.87300
C  -1.86100 36.13900 22.35000
C  -2.79800 34.85800 22.34400
C  -3.02700 34.58800 23.80500
C  -2.43700 37.44500 21.67100
C  -2.20300 33.55100 21.61300
C  -0.67900 33.37300 21.43300
N  -3.74000 33.62400 26.52300
C  -4.36500 33.15900 25.42800
C  -5.35700 32.10700 25.85300
C  -5.27200 32.13000 27.29500
C  -4.25200 33.11100 27.64300
C  -6.22100 31.21100 25.09600
C  -5.71500 31.45400 28.45400
O  -6.49000 30.42400 28.55700
C  -4.92200 32.11200 29.70200
C  -5.83600 32.74200 30.67900
O  -6.54000 33.73900 30.46900
O  -5.97400 31.92200 31.80400
C  -6.98000 32.23200 32.87100
H  -0.21100 37.11800 30.24900
H  -0.09000 37.62500 23.68000
H  -4.50800 33.03300 23.39100
H  -3.85900 34.19700 31.67200
H  -1.19100 35.19200 31.84500
H  -2.50300 36.85200 32.96200
H  -3.89700 36.55400 32.01400
H  -2.72700 37.58900 31.33700
H  -1.17900 33.22300 32.05900
H  -2.02300 32.11000 30.95600
H  -2.95700 31.08800 32.60000
H  -3.77700 32.50600 33.18000
H  2.66500 38.75000 28.40900
H  1.52300 38.32400 29.69200
H  1.21000 39.80900 28.66600
H  3.43300 40.25200 25.20700
H  3.40600 38.91800 26.42000
H  2.48100 40.47900 26.68300
H  -0.87800 35.98900 21.90300
H  -3.76900 35.09400 21.90900
H  -3.31400 37.23100 21.05900
H  -1.63700 37.83900 21.04600
H  -2.82300 38.10200 22.45100
H  -2.72000 33.44900 20.65800
H  -2.54900 32.65400 22.12700
H  -0.25100 33.83200 20.54200
H  -0.56400 32.29000 21.38700
H  -0.02300 33.73100 22.22600
H  -5.74800 31.04200 24.12900
H  -7.20000 31.69100 25.11800
H  -6.36000 30.26000 25.61100
H  -4.24200 31.41500 30.19200
H  -7.43800 33.21900 32.79500
H  -6.53200 32.42200 33.84600
H  -7.76500 31.47600 32.86000

