158

Mg -2.17100 17.12800 26.63200
C  -2.90100 14.96100 29.29000
C  -2.97500 19.81500 28.81100
C  -2.00100 19.16800 24.06000
C  -2.11000 14.38600 24.49700
N  -2.78800 17.37800 28.82000
C  -3.04800 16.27200 29.70900
C  -3.50900 16.83100 31.01900
C  -3.44600 18.35300 30.87900
C  -3.04900 18.56200 29.43000
C  -4.69900 19.14800 31.21500
C  -2.83300 15.99500 32.20300
C  -2.63800 16.78300 33.54000
H  -2.50800 15.93400 34.84200
N  -2.36800 19.25200 26.51400
C  -2.61000 20.15200 27.52800
C  -2.37900 21.46300 26.94700
C  -2.16000 21.34400 25.56200
C  -2.22000 19.89400 25.27700
C  -2.62400 22.70000 27.80000
C  -1.86600 22.32700 24.59300
O  -1.59900 22.06400 23.40500
C  -1.82000 23.82500 24.86800
N  -2.23200 16.82900 24.57700
C  -2.07300 17.82400 23.70700
C  -1.81300 17.37100 22.28400
C  -1.55600 15.86600 22.52500
C  -1.94600 15.66400 23.96500
C  -2.95800 17.64600 21.29700
C  -0.16300 15.33600 22.15200
C  0.97700 15.77400 23.12800
N  -2.37400 15.09600 26.83000
C  -2.31000 14.11300 25.84900
C  -2.67100 12.83900 26.51600
C  -2.79800 13.12100 27.86100
C  -2.63500 14.50700 27.99300
C  -2.86100 11.53000 25.92900
C  -3.09300 12.57400 29.11200
O  -3.30600 11.41000 29.41100
C  -3.00900 13.67100 30.10200
C  -1.78300 13.43400 30.90700
O  -0.62300 13.79900 30.68600
O  -2.17700 12.60400 32.03800
C  -1.14400 12.32100 33.03600
H  -3.08700 20.68100 29.46700
H  -1.93600 19.76400 23.14800
H  -1.90800 13.49400 23.90000
H  -4.56900 16.57900 31.05300
H  -2.55400 18.71300 31.39300
H  -4.61500 20.07800 31.77800
H  -5.15000 18.55400 32.00900
H  -5.38500 19.35600 30.39400
H  -1.77600 15.81900 32.00500
H  -3.37100 15.08500 32.46700
H  -3.38100 17.55700 33.73600
H  -1.63800 17.21500 33.50300
H  -1.69000 23.13200 28.16000
H  -3.24300 22.57800 28.68900
H  -3.08300 23.40500 27.10700
H  -1.75100 24.48100 24.00000
H  -1.07800 23.96900 25.65300
H  -2.80200 24.18000 25.18100
H  -0.86200 17.81100 21.98300
H  -2.19700 15.18500 21.96400
H  -2.81400 17.05500 20.39300
H  -2.78500 18.66000 20.93700
H  -3.90300 17.50100 21.82100
H  0.08100 15.54300 21.11000
H  -0.26400 14.25300 22.08900
H  0.70900 16.05200 24.14700
H  1.39200 16.65200 22.63500
H  1.62500 14.90200 23.22000
H  -2.44700 10.84200 26.66600
H  -2.43700 11.51200 24.92500
H  -3.92700 11.32700 25.82300
H  -3.85500 13.54700 30.77900
H  -1.66400 12.03100 33.94900
H  -0.43100 13.11800 33.24700
H  -0.59600 11.46500 32.64400
Mg 45.02300 5.90300 48.02400
C  42.75200 8.58500 47.17700
C  42.47000 3.66100 46.91900
C  47.17600 3.41100 48.13300
C  47.59900 8.18900 47.97000
N  42.83500 6.14400 47.21000
C  42.13800 7.33800 47.02400
C  40.63100 7.00700 46.69600
C  40.63000 5.41100 46.63300
C  42.03900 5.02100 46.89500
C  39.71200 4.75900 47.70500
C  40.00000 7.69000 45.49300
C  40.84800 8.16000 44.39100
H  40.38200 7.95700 42.96300
N  44.81400 3.81700 47.81200
C  43.78100 3.12500 47.30100
C  44.08500 1.75900 47.38400
C  45.41800 1.59000 47.88300
C  45.88300 2.96500 47.97600
C  43.11900 0.69900 46.90600
C  46.12700 0.23200 48.10500
O  45.57500 -0.82600 47.84600
C  47.59700 0.15800 48.64000
N  47.21600 5.75500 47.65500
C  47.80600 4.63000 48.03000
C  49.26400 4.82400 48.13900
C  49.39500 6.35800 48.36000
C  47.97700 6.82700 47.94400
C  50.02300 3.98900 49.17900
C  50.53600 7.13200 47.52000
C  51.45700 8.11300 48.26900
N  45.16700 7.90300 47.77000
C  46.29300 8.73300 47.83200
C  45.96100 10.13900 47.67100
C  44.55800 10.11100 47.55000
C  44.14000 8.75500 47.48800
C  46.97800 11.28600 47.71000
C  43.40000 10.99500 47.41800
O  43.38100 12.23300 47.34700
C  42.16600 10.03900 47.18700
C  41.12800 10.27500 48.30900
O  41.06800 9.59100 49.34700
O  40.17000 11.20000 47.93700
C  39.04400 11.24700 48.86700
H  41.62400 2.99200 46.74900
H  47.91300 2.64900 48.39600
H  48.42100 8.85500 48.23700
H  40.10600 7.41000 47.56200
H  40.43000 5.22800 45.57800
H  39.03400 5.45600 48.19700
H  40.34500 4.32200 48.47800
H  39.05500 4.04200 47.21300
H  39.53300 8.53400 46.00000
H  39.28800 7.02000 45.01100
H  41.88100 7.89700 44.61900
H  40.64500 9.22900 44.45700
H  42.16500 1.11200 46.57700
H  42.94400 0.06400 47.77400
H  43.56700 0.02500 46.17500
H  47.60400 -0.81200 49.13600
H  47.84300 0.93400 49.36500
H  48.29100 0.13100 47.80000
H  49.59200 4.48600 47.15600
H  49.58900 6.49800 49.42300
H  50.40300 3.15200 48.59300
H  49.27500 3.56500 49.84800
H  50.84200 4.52600 49.65700
H  50.04600 7.66100 46.70300
H  51.00900 6.32100 46.96600
H  52.46300 7.69700 48.20500
H  51.21900 7.99400 49.32600
H  51.47900 9.18400 48.06700
H  46.44200 12.22700 47.58700
H  47.56200 11.09400 46.81100
H  47.73900 11.26800 48.49000
H  41.69400 10.24600 46.22700
H  38.43100 12.14100 48.75400
H  39.36300 11.21600 49.90900
H  38.52700 10.33800 48.56100

