158

Mg 24.63600 -5.53200 46.12200
C  26.71700 -3.18300 44.37700
C  22.03400 -4.36800 44.36100
C  23.12500 -8.44000 46.80300
C  27.63700 -6.69200 47.68000
N  24.44300 -3.97900 44.62400
C  25.39800 -3.23500 43.91600
C  24.82900 -2.38300 42.83500
C  23.29400 -2.50500 43.01100
C  23.26400 -3.69900 44.09100
C  22.61800 -1.16100 43.57500
C  25.48900 -2.74300 41.45900
C  25.88000 -1.63200 40.49500
H  25.38000 -1.74400 39.03300
N  22.74200 -6.22100 45.83600
C  21.80800 -5.54600 45.12700
C  20.57300 -6.29900 45.12200
C  20.95000 -7.59600 45.66000
C  22.29900 -7.46900 46.21100
C  19.31100 -5.85500 44.43000
C  19.97800 -8.82200 45.66900
O  18.75000 -8.80500 45.37000
C  20.44000 -10.14500 46.15300
N  25.31200 -7.24800 47.13800
C  24.47300 -8.36100 47.18500
C  25.24700 -9.49000 47.84300
C  26.63600 -8.91300 48.31400
C  26.53000 -7.52600 47.69500
C  24.43300 -10.26300 49.00000
C  27.91400 -9.71500 47.93100
C  28.85400 -9.85200 49.14800
N  26.77900 -5.10300 46.07100
C  27.82200 -5.50000 46.90500
C  28.97900 -4.67800 46.73800
C  28.63500 -3.77800 45.68900
C  27.29100 -4.11900 45.31900
C  30.38200 -4.88500 47.33500
C  29.14300 -2.66600 44.91800
O  30.16700 -2.07100 44.91800
C  27.90700 -2.29500 43.95600
C  27.63200 -0.84800 44.16700
O  27.01800 -0.33000 45.07300
O  28.14600 -0.13600 43.16700
C  28.32800 1.27900 43.50700
H  21.18100 -4.14000 43.71900
H  22.81000 -9.47500 46.95100
H  28.47900 -6.94300 48.32900
H  24.95000 -1.30000 42.85600
H  22.73100 -2.78000 42.11900
H  23.16300 -0.24700 43.34100
H  22.46300 -1.16800 44.65400
H  21.67100 -0.92900 43.08800
H  24.79200 -3.41900 40.96400
H  26.34900 -3.37600 41.67900
H  26.96000 -1.54700 40.37900
H  25.69700 -0.63400 40.89500
H  18.36200 -6.38900 44.39300
H  19.50000 -5.78000 43.35900
H  19.07100 -4.84300 44.75900
H  19.64500 -10.88800 46.08400
H  20.74100 -10.00600 47.19100
H  21.25400 -10.37400 45.46500
H  25.53600 -10.25400 47.12100
H  26.58900 -8.75900 49.39200
H  24.17900 -11.28900 48.73600
H  23.49100 -9.72400 49.10600
H  25.01600 -10.14200 49.91400
H  28.46600 -9.26400 47.10700
H  27.83500 -10.77400 47.68600
H  29.72200 -9.21800 48.96900
H  29.16000 -10.89700 49.21600
H  28.42900 -9.52700 50.09800
H  30.86100 -5.85400 47.19400
H  30.18400 -4.70300 48.39100
H  30.95200 -4.14100 46.77700
H  28.28600 -2.39600 42.93900
H  29.33200 1.60400 43.23400
H  28.35800 1.49000 44.57700
H  27.55200 1.90800 43.07000
Mg 47.62500 25.98600 27.63200
C  48.55400 28.22900 30.18800
C  46.36300 23.91600 30.04800
C  47.19900 23.68000 25.27400
C  49.49600 28.05900 25.41600
N  47.59100 26.00400 29.81900
C  47.87000 27.11800 30.69200
C  47.36600 26.89200 32.10900
C  47.00200 25.33100 32.06700
C  46.86700 25.11400 30.54200
C  47.94600 24.33700 32.81800
C  46.17200 27.90900 32.54000
C  46.36700 28.65400 33.83300
H  45.36900 28.41500 34.97600
N  46.77200 24.04900 27.60700
C  46.26900 23.37500 28.71400
C  45.64700 22.11200 28.23600
C  45.86600 22.08600 26.83600
C  46.66300 23.29800 26.49100
C  44.87100 21.08100 29.10900
C  45.47500 21.02400 25.86400
O  45.83800 21.06800 24.67200
C  44.52400 19.90100 26.32500
N  48.58600 25.74400 25.70900
C  48.06800 24.70700 24.92600
C  48.47300 24.98400 23.43200
C  48.99800 26.48500 23.41500
C  49.02400 26.82100 24.96000
C  49.42800 23.96100 22.78100
C  48.07300 27.44900 22.54100
C  48.65400 27.82000 21.12300
N  48.72900 27.80400 27.70500
C  49.40000 28.51100 26.73300
C  49.98300 29.69800 27.28900
C  49.65400 29.67400 28.68400
C  48.90700 28.50600 28.88600
C  50.71200 30.78200 26.62400
C  49.74400 30.36700 30.00500
O  50.24400 31.46000 30.26400
C  48.96100 29.51500 30.97200
C  49.86700 29.15100 32.17700
O  50.89200 28.42600 32.09300
O  49.55700 29.86000 33.26900
C  50.32300 29.50100 34.47700
H  45.93800 23.28400 30.83000
H  47.03800 23.05000 24.39700
H  50.04600 28.73900 24.76200
H  48.16600 26.94900 32.84600
H  46.05100 25.06000 32.52600
H  47.54300 23.67900 33.58800
H  48.79400 24.78300 33.33800
H  48.33000 23.68200 32.03700
H  45.19300 27.43000 32.54700
H  46.03600 28.67200 31.77300
H  46.40600 29.71200 33.57200
H  47.40000 28.44200 34.10800
H  43.88000 20.95300 28.67300
H  44.75000 21.39100 30.14700
H  45.35300 20.10800 29.20100
H  45.01300 19.28500 27.08000
H  44.20500 19.23000 25.52800
H  43.67200 20.39200 26.79600
H  47.55100 25.03800 22.85400
H  50.02400 26.53000 23.05100
H  48.95100 23.32300 22.03700
H  49.75500 23.25300 23.54300
H  50.29200 24.41300 22.29600
H  48.00300 28.37300 23.11600
H  47.07500 27.02700 22.42200
H  49.39400 27.06300 20.86200
H  49.20300 28.76000 21.07500
H  47.85200 27.84100 20.38600
H  51.55900 31.15800 27.19800
H  50.17900 31.71100 26.42200
H  51.10700 30.37400 25.69300
H  48.08600 30.08400 31.28700
H  49.72900 28.83000 35.09800
H  50.57500 30.43100 34.98600
H  51.29700 29.01500 34.41500

