158

Mg 9.36300 4.93800 28.39300
C  10.75200 3.20900 31.11100
C  7.36700 6.59400 30.44200
C  8.10400 6.58900 25.75400
C  11.27400 2.97700 26.15100
N  9.32900 4.99000 30.62900
C  9.91200 4.18900 31.55700
C  9.40200 4.46500 32.96000
C  8.31700 5.59700 32.75800
C  8.26200 5.69000 31.17800
C  6.89200 5.33500 33.44500
C  10.60400 4.90300 33.82300
C  10.31500 5.88100 34.97500
H  11.01100 5.73600 36.34500
N  7.80100 6.34500 28.08700
C  7.12400 6.91000 29.08000
C  6.10600 7.76100 28.49000
C  6.42900 7.86700 27.07700
C  7.47400 6.90700 26.92200
C  5.09200 8.36400 29.41500
C  5.82700 8.71700 26.02300
O  6.22900 8.87800 24.91600
C  4.65900 9.51700 26.50900
N  9.45900 4.61300 26.18200
C  9.00500 5.61100 25.40900
C  9.35900 5.41300 23.97000
C  10.67600 4.49500 24.07600
C  10.48600 3.95300 25.54500
C  8.21300 4.98700 23.06100
C  11.99100 5.26000 23.80000
C  12.28000 6.48200 24.67400
N  10.61700 3.34200 28.55200
C  11.30700 2.62700 27.53900
C  12.06100 1.60800 28.17100
C  11.89600 1.83200 29.55500
C  11.04100 2.89900 29.71700
C  12.77200 0.37000 27.57000
C  12.24400 1.28500 30.83000
O  12.97800 0.30600 31.10100
C  11.51600 2.17500 31.95600
C  10.57900 1.23900 32.65300
O  9.85100 0.46300 32.01900
O  10.88900 1.11400 33.98200
C  10.04000 0.22100 34.66400
H  6.75600 7.28200 31.02900
H  7.92000 7.19900 24.86700
H  11.88700 2.40000 25.45500
H  9.02700 3.51300 33.33500
H  8.75100 6.53700 33.10000
H  6.15200 5.19400 32.65800
H  6.71000 6.20100 34.08200
H  6.97900 4.43300 34.05100
H  11.23200 5.46200 33.13000
H  11.12100 3.99900 34.14300
H  9.28300 6.09800 35.25000
H  10.64900 6.87600 34.68200
H  4.92700 7.80700 30.33700
H  4.12400 8.43000 28.91900
H  5.48100 9.33300 29.72800
H  4.31300 10.12400 25.67300
H  4.86700 10.27100 27.26900
H  3.85400 8.87900 26.87300
H  9.73400 6.39600 23.68600
H  10.60300 3.77200 23.26400
H  8.15100 3.98600 22.63300
H  8.18500 5.71400 22.24900
H  7.26100 5.05800 23.58600
H  11.91500 5.66500 22.79100
H  12.75500 4.48900 23.69900
H  11.48700 6.66300 25.40000
H  12.42100 7.31300 23.98300
H  13.22000 6.25700 25.17900
H  12.07800 -0.05200 26.84300
H  13.06800 -0.35000 28.33300
H  13.68200 0.65100 27.04200
H  12.25700 2.65600 32.59400
H  9.16500 0.63000 35.16800
H  10.62700 -0.19700 35.48200
H  9.82600 -0.63600 34.02600
Mg -0.42000 43.13200 26.60800
C  1.47000 43.45700 29.42000
C  -3.06300 41.89600 28.60400
C  -2.21600 42.32900 23.85800
C  2.43200 43.56100 24.66100
N  -0.66000 42.29000 28.77900
C  0.11300 42.96700 29.67400
C  -0.47400 43.15800 31.04600
C  -1.82300 42.33200 30.88500
C  -1.88200 42.08500 29.35600
C  -1.94800 41.07100 31.76400
C  -0.75100 44.65800 31.37300
C  -0.88000 45.04800 32.77900
H  -1.31300 43.93900 33.76900
N  -2.36900 42.26500 26.26900
C  -3.27300 42.02500 27.24100
C  -4.57300 41.73000 26.58000
C  -4.36900 41.81200 25.20300
C  -2.93900 42.11200 24.99200
C  -5.80100 41.64700 27.35100
C  -5.41400 41.77400 24.08200
O  -5.08800 41.89700 22.90600
C  -6.89300 41.42900 24.30800
N  0.04600 43.11900 24.66000
C  -0.90700 42.80700 23.68600
C  -0.29700 42.77800 22.22900
C  1.05200 43.58800 22.54600
C  1.21400 43.40000 24.04000
C  -0.19800 41.27600 21.69900
C  1.13300 45.11400 22.31200
C  2.37000 45.52200 21.53200
N  1.50500 43.46200 26.96500
C  2.64200 43.58800 26.07900
C  3.86300 43.74200 26.83200
C  3.41300 43.83400 28.14900
C  2.02700 43.59700 28.20800
C  5.20400 43.91300 26.37700
C  3.83200 44.03800 29.44600
O  4.92500 44.32600 29.86500
C  2.51000 43.90900 30.37700
C  2.86600 42.85700 31.34300
O  2.79100 41.66300 31.13600
O  3.21000 43.31700 32.54800
C  3.49300 42.31100 33.60700
H  -3.87500 41.53800 29.24100
H  -2.76000 42.00400 22.96900
H  3.31400 43.82700 24.07400
H  0.21100 42.72200 31.77300
H  -2.69200 42.96500 31.06200
H  -2.58800 40.35600 31.24700
H  -2.28800 41.29400 32.77500
H  -0.93700 40.66800 31.82800
H  -1.67800 45.03800 30.94300
H  0.09200 45.25200 31.02100
H  -1.61900 45.84900 32.79500
H  0.04000 45.39100 33.25300
H  -6.74200 41.94100 26.88600
H  -5.75700 42.36700 28.16800
H  -5.81700 40.64900 27.78800
H  -6.74900 40.51700 24.88800
H  -7.35100 41.26100 23.33300
H  -7.36300 42.24500 24.85700
H  -0.95400 43.27100 21.51300
H  1.79100 43.03400 21.96700
H  -1.02500 41.29300 20.98800
H  -0.43200 40.44300 22.36200
H  0.78300 41.07800 21.26800
H  1.10400 45.72900 23.21200
H  0.22200 45.36700 21.77100
H  2.98400 44.72500 21.11300
H  3.01300 46.20700 22.08500
H  1.99700 46.02100 20.63800
H  5.47000 42.89900 26.08000
H  5.94000 44.23100 27.11600
H  5.23600 44.65500 25.57900
H  2.54700 44.86000 30.90800
H  2.64100 41.75600 33.99900
H  3.88700 42.76500 34.51600
H  4.23100 41.60900 33.21800

