158

Mg -2.13500 17.14000 26.39500
C  -2.56400 14.88800 28.93000
C  -2.83600 19.69300 28.62200
C  -2.19300 19.38300 23.72300
C  -2.28900 14.49600 24.00100
N  -2.50900 17.22700 28.53400
C  -2.52200 16.21900 29.42800
C  -2.79800 16.66300 30.94500
C  -3.12200 18.19500 30.64900
C  -2.80000 18.41000 29.15800
C  -4.53000 18.69100 31.16800
C  -1.59000 16.33800 31.91800
C  -1.99100 15.70500 33.23300
H  -2.52000 16.57600 34.32700
N  -2.21000 19.22500 26.22700
C  -2.49100 20.08000 27.28400
C  -2.39300 21.41900 26.70000
C  -2.19200 21.36400 25.28200
C  -2.19900 19.94000 25.02500
C  -2.64300 22.67400 27.59300
C  -1.91800 22.56500 24.31200
O  -1.95800 22.33300 23.08900
C  -1.69700 23.96200 24.68700
N  -2.36500 16.94200 24.15800
C  -2.33800 17.99700 23.31800
C  -2.39500 17.58800 21.84800
C  -2.27300 16.04500 21.97800
C  -2.34300 15.74800 23.44500
C  -3.62300 18.05800 21.04300
C  -0.91500 15.57600 21.34900
C  0.37800 15.97700 22.14000
N  -2.37000 15.18600 26.40100
C  -2.40300 14.20100 25.36600
C  -2.64600 12.91500 25.92400
C  -2.75400 13.19000 27.32600
C  -2.47900 14.52100 27.56600
C  -2.63000 11.57800 25.20500
C  -2.92100 12.51700 28.57600
O  -3.05000 11.34500 28.99000
C  -2.91100 13.64300 29.67800
C  -1.83600 13.24800 30.69600
O  -0.63300 13.42000 30.59800
O  -2.38400 12.47700 31.71600
C  -1.55400 12.07300 32.84100
H  -3.20100 20.38900 29.38000
H  -2.03300 20.07300 22.89200
H  -2.16700 13.66000 23.30900
H  -3.73900 16.12400 31.04600
H  -2.44300 18.74700 31.29900
H  -4.49200 19.60100 31.76700
H  -4.91400 17.99000 31.90800
H  -5.26600 18.84900 30.38000
H  -1.05200 17.25000 32.17500
H  -0.87500 15.67000 31.43600
H  -1.03000 15.26100 33.49300
H  -2.75900 14.94500 33.09400
H  -3.09600 22.52400 28.57200
H  -3.34700 23.32800 27.07800
H  -1.65000 23.10600 27.71400
H  -0.68000 24.02900 25.07400
H  -2.44800 24.22200 25.43300
H  -1.75100 24.63700 23.83200
H  -1.43400 17.89700 21.43800
H  -3.11600 15.63300 21.42300
H  -3.28600 18.14800 20.01100
H  -3.97300 19.05500 21.30900
H  -4.40000 17.29300 21.03500
H  -0.85600 15.89900 20.30900
H  -0.95000 14.48900 21.41500
H  0.95800 16.78600 21.69700
H  0.99800 15.08300 22.20900
H  0.15600 16.39800 23.12100
H  -2.01900 10.90000 25.80100
H  -2.29300 11.73000 24.18000
H  -3.62200 11.15000 25.34900
H  -3.92800 13.65500 30.07000
H  -2.00400 12.40400 33.77700
H  -0.52700 12.43500 32.79100
H  -1.45000 10.98800 32.84700
Mg 43.76100 3.90500 47.60000
C  41.59100 6.55200 46.74300
C  41.18800 1.76300 47.51700
C  46.09400 1.43200 47.88200
C  46.53100 6.16300 47.06500
N  41.66000 4.12300 46.87900
C  40.89900 5.27900 46.63300
C  39.47200 4.90200 46.31700
C  39.36700 3.49700 47.11100
C  40.83000 3.07300 47.22800
C  38.75700 3.63000 48.58500
C  39.22900 4.82700 44.77800
C  38.33200 5.95200 44.24800
H  38.89800 7.04400 43.29600
N  43.60200 1.87100 47.68700
C  42.46000 1.19900 47.64600
C  42.82700 -0.18000 47.64000
C  44.19100 -0.36400 47.69000
C  44.76100 1.01000 47.80100
C  41.79900 -1.31700 47.36800
C  44.98100 -1.65800 47.65500
O  44.45400 -2.79700 47.50900
C  46.50100 -1.72800 47.65300
N  46.01700 3.73100 47.28200
C  46.64300 2.66400 47.70900
C  48.20500 2.91300 47.60000
C  48.37800 4.41300 47.31300
C  46.87000 4.77700 47.15000
C  49.01500 2.36200 48.81800
C  49.24400 4.75500 46.05800
C  50.66900 4.15100 46.02300
N  44.07000 5.97000 47.16700
C  45.24400 6.72700 46.90600
C  44.83600 8.09700 46.48300
C  43.42100 8.02400 46.63300
C  42.97500 6.74800 46.94200
C  45.76300 9.19900 46.15300
C  42.22100 8.86300 46.51000
O  42.21600 10.04300 46.28900
C  40.98000 7.88200 46.52500
C  40.16600 8.32900 47.73400
O  40.55300 8.45000 48.89400
O  38.91400 8.60600 47.18300
C  37.89600 9.18100 48.08500
H  40.43400 0.98100 47.63400
H  46.90200 0.76100 48.18000
H  47.29400 6.94400 47.06300
H  38.83000 5.70100 46.68900
H  38.78400 2.77200 46.54200
H  39.48900 3.39400 49.35700
H  37.98300 2.86400 48.63000
H  38.27600 4.59600 48.73700
H  38.78800 3.85500 44.55900
H  40.16100 4.81300 44.21400
H  37.86900 6.47500 45.08400
H  37.51400 5.48500 43.69900
H  41.94000 -1.71200 46.36200
H  40.75800 -1.00200 47.44000
H  42.02700 -2.10700 48.08400
H  46.72000 -1.44700 48.68200
H  46.91800 -1.21200 46.78800
H  46.84200 -2.76300 47.61500
H  48.47600 2.34300 46.71100
H  48.72000 5.03700 48.13900
H  49.48900 1.39700 48.63700
H  48.30900 2.20200 49.63300
H  49.81500 2.98100 49.22300
H  49.41200 5.82500 45.93200
H  48.77400 4.41600 45.13500
H  50.80900 3.66400 46.98800
H  51.46500 4.88500 45.89700
H  50.85700 3.44800 45.21100
H  46.66800 9.11800 46.75500
H  45.25300 10.14400 46.34400
H  46.17000 9.01500 45.15900
H  40.31600 7.82900 45.66200
H  37.39300 8.30900 48.50400
H  37.14500 9.76600 47.55400
H  38.33800 9.75800 48.89800

