158

Mg 0.75700 8.12600 24.97200
C  1.40800 9.68200 28.21700
C  0.91800 5.09600 26.69800
C  1.01500 6.62400 22.12100
C  1.32200 11.26600 23.52300
N  1.17100 7.53600 27.21700
C  1.29100 8.30300 28.32300
C  1.22900 7.46300 29.62900
C  1.07000 6.04300 29.09800
C  1.03700 6.21300 27.59800
C  2.20900 5.09900 29.52400
C  0.01100 7.91800 30.50600
C  0.20800 7.66600 32.07500
H  1.55800 7.32500 32.69200
N  0.75500 6.16400 24.41200
C  0.79500 5.03300 25.26300
C  0.72100 3.82500 24.43800
C  0.53300 4.25000 23.07000
C  0.78200 5.71100 23.12000
C  0.65700 2.44500 25.03000
C  0.31300 3.48400 21.80900
O  0.18100 4.04500 20.72300
C  -0.05600 1.97400 21.82600
N  1.16900 8.86200 23.11100
C  1.23500 8.00600 22.06900
C  1.21700 8.87400 20.68900
C  1.07200 10.33300 21.23700
C  1.18100 10.16600 22.75200
C  2.45500 8.67400 19.76800
C  -0.17800 11.13700 20.68300
C  -1.44000 10.99400 21.46000
N  1.09000 10.08600 25.67200
C  1.39400 11.20800 24.95900
C  1.51800 12.31600 25.84100
C  1.60900 11.76300 27.10400
C  1.35200 10.43900 26.96800
C  1.62000 13.75700 25.44100
C  1.87700 12.02600 28.54500
O  2.09900 13.15700 29.03600
C  1.63500 10.69600 29.30900
C  2.83000 10.51300 30.17300
O  3.92000 10.17000 29.88000
O  2.54800 10.94100 31.43900
C  3.67100 11.08800 32.41300
H  0.91500 4.13200 27.21100
H  1.26500 6.17000 21.16000
H  1.26100 12.24500 23.04300
H  2.08800 7.75600 30.23300
H  0.11400 5.65600 29.45000
H  1.79900 4.50400 30.34100
H  3.04200 5.67400 29.92700
H  2.63900 4.30600 28.91100
H  -0.87000 7.29900 30.34100
H  -0.19500 8.96700 30.29100
H  -0.46000 6.83100 32.28600
H  -0.24700 8.56400 32.49200
H  -0.33700 2.03000 24.86400
H  0.94200 2.37700 26.08000
H  1.34100 1.77000 24.51400
H  0.76900 1.27900 21.98600
H  -0.66300 1.80600 20.93600
H  -0.79700 1.82200 22.61100
H  0.27000 8.53700 20.26700
H  1.99200 10.83000 20.92700
H  2.93200 9.64300 19.62300
H  2.07600 8.27400 18.82800
H  3.26500 8.03100 20.11300
H  -0.39000 10.76400 19.68100
H  0.19100 12.16100 20.61500
H  -2.16800 10.45600 20.85400
H  -1.83900 11.96000 21.76800
H  -1.38400 10.44400 22.39900
H  0.96900 14.02100 24.60800
H  2.65200 14.09100 25.32700
H  1.32400 14.43800 26.23900
H  0.84800 10.84500 30.04800
H  4.31000 11.87400 32.01100
H  4.22300 10.16300 32.58200
H  3.39300 11.35000 33.43400
Mg 40.47800 9.23400 29.31600
C  42.25800 10.65000 31.83200
C  38.05600 8.13800 31.56000
C  38.66200 8.04300 26.70100
C  43.06500 10.28400 27.01300
N  40.21800 9.44200 31.44600
C  41.10300 10.02000 32.28500
C  40.54100 10.03100 33.69200
C  39.43200 9.01700 33.52900
C  39.16400 8.86100 32.06400
C  39.48600 7.66300 34.34900
C  40.06200 11.41900 34.25800
C  40.75400 11.79100 35.61100
H  39.94500 12.27200 36.81200
N  38.66000 8.11100 29.17100
C  37.79800 7.85300 30.19300
C  36.57500 7.24000 29.62000
C  36.76200 7.18900 28.21800
C  38.08200 7.79900 27.95500
C  35.45400 6.68400 30.47200
C  35.95500 6.45400 27.24300
O  36.16700 6.45000 26.02600
C  34.79500 5.62100 27.62900
N  40.88200 9.21200 27.20300
C  39.94100 8.64900 26.35100
C  40.35100 8.81600 24.86500
C  41.77000 9.45700 24.95500
C  41.93200 9.68200 26.49200
C  40.14500 7.59300 23.96800
C  41.91200 10.70400 23.97700
C  41.45200 12.10100 24.57500
N  42.25000 10.15700 29.37100
C  43.23500 10.51700 28.41100
C  44.30900 11.23800 29.00100
C  44.02500 11.33000 30.38800
C  42.73800 10.67400 30.52700
C  45.55100 11.63000 28.24900
C  44.45600 11.77100 31.61900
O  45.51600 12.32500 31.99500
C  43.33100 11.34200 32.70800
C  43.95500 10.42700 33.60700
O  44.16300 9.21700 33.45800
O  44.13000 11.06700 34.78000
C  44.78100 10.28900 35.86600
H  37.22900 7.91300 32.23700
H  38.11700 7.68900 25.82300
H  43.76400 10.75300 26.31800
H  41.25500 9.56400 34.37100
H  38.54500 9.57900 33.82000
H  40.33700 7.67900 35.03000
H  39.68900 6.80600 33.70700
H  38.63400 7.52200 35.01500
H  38.99500 11.41800 34.47800
H  40.28200 12.10300 33.43800
H  41.40700 12.65200 35.46700
H  41.33800 10.90700 35.86700
H  35.29200 5.62000 30.30000
H  34.56200 7.18900 30.10200
H  35.78300 6.94500 31.47800
H  35.05700 4.76500 28.25100
H  34.35200 5.11600 26.77000
H  34.03500 6.17900 28.17600
H  39.64000 9.58200 24.55200
H  42.53200 8.72400 24.69000
H  39.10200 7.51900 23.66100
H  40.48600 6.72400 24.53100
H  40.66100 7.66500 23.01100
H  41.23300 10.47000 23.15800
H  42.96400 10.70000 23.69400
H  41.10000 11.92900 25.59200
H  40.59300 12.54400 24.07000
H  42.31500 12.76600 24.59800
H  46.08700 12.07000 29.09000
H  45.45800 12.42800 27.51300
H  46.04700 10.73900 27.86300
H  42.86500 12.22600 33.14400
H  45.13700 9.30500 35.56100
H  44.06400 10.01000 36.63900
H  45.49600 10.96000 36.34200

