158

Mg 25.05400 1.96600 30.72900
C  27.29400 1.70100 33.33800
C  22.36900 2.19600 32.92200
C  22.92000 1.93000 28.02700
C  27.67700 1.24000 28.48900
N  24.90900 1.79700 32.93400
C  26.00100 1.98000 33.73700
C  25.58200 2.53000 35.19300
C  23.95400 2.53000 35.03800
C  23.70500 2.09300 33.54100
C  23.16200 1.64500 36.07100
C  26.23000 3.90100 35.53700
C  27.28600 3.93100 36.75400
H  26.86400 4.79800 37.95000
N  22.97300 2.02500 30.55500
C  22.03100 2.11300 31.55600
C  20.70400 2.15700 30.94500
C  20.85300 1.96900 29.55300
C  22.28000 1.97400 29.35900
C  19.41600 2.10400 31.85000
C  19.75000 1.98800 28.47400
O  19.99900 2.00300 27.22300
C  18.31600 1.97100 28.85600
N  25.31300 1.70400 28.61000
C  24.25400 1.74900 27.73600
C  24.67400 1.64000 26.31300
C  26.21600 1.31400 26.41300
C  26.44500 1.41700 27.90800
C  23.91200 0.55900 25.48000
C  27.08200 2.24400 25.45500
C  27.20600 3.71100 25.89600
N  27.09600 1.50800 30.85000
C  27.99700 1.25400 29.85300
C  29.30200 1.03700 30.48700
C  29.07300 1.20700 31.86100
C  27.71200 1.44000 32.06200
C  30.53900 0.71500 29.84800
C  29.68200 1.18500 33.17300
O  30.83600 0.82900 33.50300
C  28.60900 1.68700 34.19500
C  28.57300 0.80800 35.32300
O  27.83400 -0.14500 35.54000
O  29.38900 1.29000 36.26700
C  29.29800 0.72800 37.56100
H  21.53900 2.40000 33.60100
H  22.19400 2.13700 27.23800
H  28.51500 0.99800 27.83200
H  25.92000 1.83400 35.96100
H  23.50900 3.52400 35.08500
H  22.69500 0.80800 35.55200
H  22.39000 2.36000 36.35500
H  23.85000 1.35900 36.86600
H  25.40500 4.56700 35.79200
H  26.78000 4.23500 34.65800
H  28.27300 4.30200 36.47700
H  27.18300 2.93000 37.17400
H  18.86700 1.16300 31.90400
H  18.74000 2.84800 31.42800
H  19.63000 2.45400 32.86000
H  18.11600 1.00300 29.31500
H  17.78100 2.05500 27.91000
H  18.07000 2.81400 29.50200
H  24.63800 2.64100 25.88300
H  26.44600 0.28200 26.14700
H  23.32000 0.04400 26.23700
H  24.59400 -0.13200 24.98500
H  23.27800 1.07900 24.76300
H  26.77400 2.18900 24.41100
H  28.10400 1.86700 25.49900
H  28.23700 3.98000 26.12500
H  26.48200 3.96300 26.67000
H  26.78100 4.31800 25.09700
H  30.24600 -0.18400 29.30600
H  31.30500 0.53900 30.60300
H  30.73400 1.45700 29.07300
H  28.96100 2.65500 34.55200
H  28.27300 0.92700 37.87200
H  30.12600 1.14500 38.13400
H  29.44300 -0.34700 37.44700
Mg 1.96600 41.37900 25.38500
C  4.03900 41.62600 28.15000
C  -0.69900 40.61500 27.47300
C  -0.06800 41.19600 22.61200
C  4.72100 41.65400 23.39500
N  1.77300 41.15400 27.52600
C  2.69000 41.27500 28.46400
C  2.16000 41.26000 29.80200
C  0.69600 40.71500 29.62200
C  0.57600 40.80900 28.08700
C  0.48000 39.34200 30.21500
C  2.12800 42.63500 30.53400
C  1.99900 42.57200 32.09800
H  1.80500 41.22600 32.86800
N  -0.13200 41.02000 25.10900
C  -1.06700 40.65900 26.07700
C  -2.29900 40.36700 25.43300
C  -2.18100 40.58400 24.03800
C  -0.75600 41.02600 23.89400
C  -3.52100 39.88300 26.17900
C  -3.14200 40.36000 22.95500
O  -2.86900 40.63100 21.75700
C  -4.55500 40.04900 23.29600
N  2.29800 41.44300 23.30100
C  1.26800 41.39300 22.35500
C  1.95300 41.24600 20.93400
C  3.43300 41.77300 21.24800
C  3.49700 41.55100 22.73900
C  1.86500 39.82500 20.33900
C  3.74200 43.25700 20.72300
C  3.63100 44.47100 21.51500
N  3.97500 41.51700 25.63200
C  5.04000 41.60500 24.74700
C  6.29200 41.83600 25.44600
C  5.96900 41.80400 26.79000
C  4.56800 41.66400 26.85600
C  7.66500 42.15700 24.88700
C  6.52400 41.82000 28.14600
O  7.70600 41.94000 28.54100
C  5.24800 41.72500 29.11100
C  5.52000 40.57900 29.97500
O  5.33500 39.39100 29.76700
O  5.94600 41.12400 31.09900
C  6.10900 40.20000 32.16100
H  -1.60900 40.52700 28.07000
H  -0.65600 40.97700 21.71800
H  5.49600 41.76900 22.63400
H  2.79200 40.52700 30.30300
H  0.10100 41.43900 30.17900
H  -0.34300 39.43000 30.92400
H  1.29700 38.77200 30.65800
H  0.01300 38.74000 29.43600
H  1.38300 43.31400 30.11900
H  3.07900 43.13400 30.34700
H  1.14500 43.23500 32.23900
H  2.85900 43.07200 32.54300
H  -3.31700 39.59900 27.21100
H  -3.90500 39.04500 25.59700
H  -4.32200 40.61700 26.26000
H  -4.94900 40.79600 23.98400
H  -4.85000 39.13300 23.81000
H  -5.04600 40.06900 22.32300
H  1.45700 41.94700 20.26200
H  4.17600 41.04700 20.91700
H  2.85600 39.37300 20.36800
H  1.48900 39.77200 19.31700
H  1.15800 39.22000 20.90700
H  3.27800 43.46700 19.75900
H  4.79200 43.17400 20.44300
H  3.21000 44.21300 22.48700
H  2.96100 45.16800 21.01300
H  4.60900 44.93500 21.64600
H  7.75500 41.50900 24.01500
H  8.38400 41.96900 25.68400
H  7.87900 43.15800 24.51300
H  5.15800 42.63700 29.70100
H  6.69700 39.30900 31.94300
H  5.14900 39.90900 32.58800
H  6.61200 40.70200 32.98800

