158

Mg 35.66200 2.86900 29.30800
C  33.50900 3.81600 31.94000
C  38.37100 3.06400 31.47400
C  37.72300 2.22100 26.64500
C  32.96500 3.42600 26.98900
N  35.91400 3.50000 31.34200
C  34.90100 3.65800 32.29000
C  35.46800 3.71000 33.71000
C  36.98500 3.83600 33.50900
C  37.10300 3.37800 32.06200
C  37.50700 5.30400 33.70100
C  34.90800 2.57100 34.64900
C  34.90200 2.80200 36.20300
H  35.76200 3.96200 36.77400
N  37.70900 2.51700 29.12800
C  38.62700 2.58500 30.15100
C  39.93800 2.16700 29.64100
C  39.80700 1.96200 28.28400
C  38.35700 2.28100 27.92800
C  41.09700 2.02400 30.64000
C  40.95800 1.67300 27.28400
O  40.68900 1.57300 26.06100
C  42.40400 1.42600 27.72700
N  35.38900 2.79500 27.10900
C  36.41600 2.58300 26.24300
C  35.96400 2.71900 24.76500
C  34.44800 3.09300 24.93000
C  34.23900 3.12000 26.41600
C  36.72500 3.71600 23.97500
C  33.44700 2.12300 24.18000
C  32.93600 0.84100 24.85100
N  33.70600 3.50300 29.38000
C  32.70700 3.59400 28.40600
C  31.42500 4.03300 29.04200
C  31.68300 4.03100 30.39100
C  33.07200 3.70900 30.57500
C  30.15100 4.39000 28.27300
C  31.11700 4.27100 31.75200
O  30.01500 4.55700 32.16600
C  32.25200 4.05900 32.71400
C  32.30500 5.26700 33.49000
O  32.54400 6.34600 33.01700
O  32.07200 4.98300 34.82100
C  32.09700 6.21300 35.62600
H  39.12000 3.01300 32.26700
H  38.37200 2.07600 25.77900
H  32.04600 3.60400 26.42700
H  35.05600 4.56500 34.24500
H  37.47800 3.13400 34.18200
H  36.67800 5.96500 33.44700
H  38.39900 5.43600 33.09000
H  37.83100 5.43900 34.73300
H  35.58800 1.72100 34.59900
H  33.89000 2.31100 34.35700
H  35.10000 1.85300 36.70200
H  33.87700 3.08800 36.43800
H  41.77400 1.23000 30.32400
H  40.69400 1.73500 31.61000
H  41.66900 2.93500 30.81500
H  42.66000 2.18900 28.46300
H  43.18200 1.38100 26.96500
H  42.46800 0.45700 28.22200
H  35.97200 1.75900 24.24800
H  34.19000 4.11700 24.66300
H  36.71300 3.31400 22.96200
H  37.74600 3.79800 24.34900
H  36.24700 4.69500 24.00600
H  34.00800 1.73000 23.33200
H  32.57100 2.63100 23.77700
H  33.57400 0.03600 24.48600
H  31.92500 0.53600 24.57700
H  33.13800 0.73800 25.91700
H  29.70700 3.51800 27.79200
H  30.36500 5.09100 27.46600
H  29.46300 4.81800 29.00200
H  32.07600 3.25900 33.43200
H  33.10100 6.62500 35.51800
H  32.00300 6.04000 36.69800
H  31.24600 6.78600 35.25800
Mg 53.60500 24.19700 44.92900
C  51.35600 26.59200 44.03600
C  51.82100 21.87900 43.14500
C  56.19300 22.02800 45.12400
C  55.65900 26.66300 46.31100
N  51.97900 24.30100 43.48900
C  51.10600 25.36200 43.37600
C  49.87100 25.02200 42.59600
C  49.91500 23.42500 42.59800
C  51.31200 23.15800 43.19100
C  48.79100 22.70800 43.48500
C  49.85200 25.56300 41.13300
C  51.20600 26.01100 40.45400
H  51.96000 24.98300 39.61400
N  53.94900 22.15900 44.34600
C  53.00700 21.37900 43.68000
C  53.53600 20.02300 43.74600
C  54.81500 20.14100 44.41700
C  55.01700 21.44600 44.65600
C  52.79700 18.75000 43.25100
C  55.63100 18.93600 44.84300
O  55.43000 17.84200 44.34400
C  56.71000 18.95600 45.92900
N  55.68500 24.34100 45.40100
C  56.55500 23.29300 45.48800
C  57.92600 23.68300 46.04100
C  57.61600 25.07300 46.66200
C  56.20100 25.38000 46.10900
C  58.58400 22.74100 47.07200
C  58.59900 26.21200 46.34500
C  58.48900 26.89500 44.98500
N  53.52400 26.19500 45.20100
C  54.30600 27.03600 45.89800
C  53.65700 28.30500 46.18200
C  52.43900 28.10500 45.51800
C  52.42200 26.88700 44.89000
C  53.99000 29.40900 47.06600
C  51.18500 28.70800 45.23400
O  50.68800 29.78800 45.51500
C  50.37200 27.75000 44.24000
C  50.07000 28.53500 42.99100
O  50.79600 28.72900 42.06900
O  48.75800 28.62800 42.98100
C  48.09100 28.96100 41.72500
H  51.12300 21.15200 42.72600
H  56.93400 21.25300 45.32900
H  56.20700 27.35900 46.95000
H  49.01900 25.36500 43.18200
H  49.77200 22.96600 41.62000
H  48.86400 23.15700 44.47600
H  48.94200 21.62900 43.46400
H  47.74500 22.84000 43.20900
H  49.26900 26.47900 41.03300
H  49.29100 24.85100 40.52800
H  51.94600 26.30300 41.19900
H  51.15900 26.87500 39.79100
H  52.13900 18.94700 42.40500
H  52.14900 18.37100 44.04100
H  53.54500 18.06100 42.85800
H  56.80700 17.98300 46.41200
H  56.23900 19.63400 46.64000
H  57.60200 19.21700 45.35900
H  58.65600 23.78000 45.23700
H  57.41100 25.09400 47.73300
H  59.59200 22.43800 46.79100
H  57.99100 21.83600 47.21000
H  58.71600 23.21600 48.04300
H  59.58300 25.90500 46.70000
H  58.42100 27.00900 47.06600
H  58.01400 26.18900 44.30300
H  59.50800 27.14500 44.68900
H  57.82300 27.75600 44.92200
H  54.09600 29.18400 48.12700
H  53.24400 30.20300 47.08700
H  54.91800 29.85200 46.70400
H  49.47600 27.46200 44.79000
H  47.51000 29.86600 41.90400
H  47.50600 28.05500 41.56600
H  48.76000 29.23200 40.90800

