158

Mg 39.91500 9.05200 29.53400
C  41.68700 10.57300 32.02100
C  37.57400 8.06100 31.72800
C  38.37700 7.22800 26.95100
C  42.74300 9.42700 27.40600
N  39.77300 9.26500 31.69000
C  40.50400 9.99600 32.53700
C  39.88500 10.16000 33.97100
C  38.65800 9.24900 33.80700
C  38.65200 8.85600 32.30200
C  38.63300 7.95200 34.78800
C  39.50900 11.63000 34.42700
C  38.41500 11.82000 35.52600
H  38.81900 12.68600 36.63400
N  38.04800 8.00500 29.29400
C  37.27600 7.63600 30.37800
C  36.07800 6.99100 29.89200
C  36.21000 6.90300 28.50600
C  37.55500 7.40500 28.14900
C  34.99500 6.49000 30.78100
C  35.24700 6.28100 27.49600
O  35.49800 6.16100 26.33500
C  33.89500 5.73100 27.86800
N  40.58400 8.23500 27.56900
C  39.77900 7.54400 26.73100
C  40.41900 7.42000 25.31500
C  41.78500 8.07200 25.49300
C  41.70200 8.68800 26.90700
C  40.52500 5.94500 24.73900
C  42.11400 9.16000 24.41400
C  41.32400 10.50800 24.60200
N  41.81300 9.87500 29.65100
C  42.78600 10.05700 28.69600
C  43.84000 10.87100 29.23400
C  43.50400 11.09900 30.51400
C  42.19800 10.48600 30.75200
C  45.04700 11.28700 28.52000
C  43.90900 11.61500 31.72500
O  44.93600 12.25400 31.97500
C  42.74800 11.33000 32.73100
C  43.30700 10.52400 33.90800
O  43.86200 9.42800 33.81000
O  42.99900 11.13000 35.09200
C  42.98600 10.27800 36.24600
H  36.89000 7.80900 32.54200
H  37.88900 6.72300 26.11500
H  43.50400 9.63700 26.65100
H  40.58300 9.79400 34.72400
H  37.74700 9.78500 34.07100
H  38.67600 7.00800 34.24600
H  37.79700 7.90900 35.48600
H  39.55400 7.96900 35.37000
H  39.06700 12.11900 33.55900
H  40.33700 12.30300 34.65300
H  38.23400 10.85500 35.99900
H  37.49500 12.12900 35.03000
H  34.02300 6.80700 30.40300
H  35.12200 6.93700 31.76700
H  35.10600 5.40800 30.85600
H  34.02000 4.87900 28.53600
H  33.41000 5.28900 26.99800
H  33.18400 6.44700 28.27900
H  39.89900 8.04000 24.58500
H  42.59500 7.35900 25.64600
H  40.18600 5.23400 25.49200
H  41.59400 5.90900 24.53000
H  40.00200 5.85000 23.78700
H  41.85400 8.63600 23.49400
H  43.18700 9.35000 24.42100
H  40.85700 10.79500 23.65900
H  41.95900 11.30400 24.99200
H  40.57300 10.45300 25.38900
H  45.07600 12.37600 28.48100
H  45.13400 10.95000 27.48800
H  45.93100 10.95100 29.06200
H  42.35400 12.30000 33.03300
H  43.17800 10.90000 37.11900
H  43.85600 9.65000 36.43900
H  42.07900 9.67300 36.22800
Mg 17.61500 52.41100 26.48200
C  19.31900 50.98700 29.12800
C  15.15300 53.29300 28.75900
C  15.66900 53.39300 23.91800
C  19.88200 51.04000 24.17500
N  17.25200 52.04900 28.66200
C  18.17600 51.57400 29.56700
C  17.73800 51.79100 31.04600
C  16.24900 52.20600 30.88700
C  16.16900 52.59500 29.37200
C  15.27800 51.01400 31.32900
C  18.63500 52.70500 31.89000
C  18.95900 52.27400 33.25500
H  17.81200 51.59800 34.11700
N  15.69900 53.31000 26.32400
C  14.87000 53.54500 27.39000
C  13.61800 54.19200 26.87300
C  13.74700 54.32500 25.42800
C  15.12900 53.72100 25.13700
C  12.47100 54.57200 27.75400
C  12.75600 54.82000 24.32100
O  12.94000 54.75900 23.04600
C  11.52700 55.56300 24.68000
N  17.72700 52.18300 24.32000
C  16.85400 52.77300 23.54000
C  17.25000 52.57000 22.02300
C  18.59600 51.85400 22.07800
C  18.81100 51.74800 23.59700
C  16.20000 51.96100 21.04000
C  19.70400 52.72800 21.41600
C  20.76100 51.86200 20.66000
N  19.26800 51.26900 26.58100
C  20.09200 50.79700 25.60400
C  21.15400 49.96700 26.17000
C  20.94800 50.07400 27.57600
C  19.67900 50.80400 27.80100
C  22.17900 49.17300 25.40900
C  21.46700 49.58800 28.91000
O  22.43600 48.90600 29.23200
C  20.43300 50.28000 29.97600
C  19.88000 49.22100 30.83300
O  18.97600 48.44600 30.54500
O  20.35100 49.29200 32.12100
C  20.02300 48.20200 32.97800
H  14.40300 53.64500 29.47100
H  15.13200 53.84600 23.08200
H  20.50100 50.63900 23.36900
H  17.87300 50.78400 31.44200
H  16.12100 53.10200 31.49300
H  15.87100 50.28500 31.88200
H  14.76900 50.49400 30.51800
H  14.53700 51.38300 32.03700
H  18.17500 53.69300 31.86700
H  19.59800 52.95400 31.44500
H  19.42400 53.08700 33.81300
H  19.70700 51.48100 33.23300
H  12.69300 54.33600 28.79400
H  11.54500 54.07200 27.47000
H  12.29200 55.64700 27.79300
H  11.75400 56.22500 25.51600
H  10.81700 54.83300 25.06800
H  11.04300 56.01500 23.81500
H  17.37000 53.59300 21.66800
H  18.60400 50.86200 21.62800
H  15.64800 52.73800 20.51000
H  15.35700 51.48900 21.54500
H  16.62700 51.21100 20.37400
H  20.11300 53.38000 22.18800
H  19.21400 53.34700 20.66500
H  20.78800 50.86500 21.09900
H  21.78200 52.23900 20.72100
H  20.43300 51.81600 19.62100
H  22.54500 49.81600 24.60900
H  21.80500 48.20700 25.07200
H  22.89700 48.86300 26.16800
H  20.94300 51.14400 30.40200
H  19.16000 48.50400 33.57200
H  20.71600 47.87600 33.75400
H  19.65300 47.27100 32.54800

