158

Mg -2.31500 17.24400 27.28200
C  -2.82900 15.39700 30.15600
C  -2.82600 20.12600 29.22200
C  -2.44200 19.13700 24.53500
C  -2.29700 14.33100 25.39900
N  -2.71800 17.63400 29.50600
C  -2.77700 16.75000 30.51000
C  -2.89300 17.43200 31.79000
C  -3.11900 18.88200 31.46800
C  -2.77200 18.87200 29.99300
C  -4.39800 19.55600 31.98000
C  -1.70200 17.19300 32.76000
C  -1.50600 18.05600 34.07800
H  -1.14100 17.39100 35.42700
N  -2.49900 19.35500 26.98400
C  -2.80800 20.31100 27.84200
C  -2.91700 21.56700 27.16300
C  -2.51400 21.35400 25.77600
C  -2.43000 19.86600 25.70400
C  -3.24100 22.86200 27.98000
C  -2.42100 22.36300 24.63100
O  -2.20500 22.02400 23.50500
C  -2.61800 23.81100 24.92200
N  -2.46400 16.67900 25.24300
C  -2.48600 17.68700 24.34400
C  -2.50800 17.07600 22.89600
C  -2.11200 15.63200 23.21500
C  -2.36000 15.47900 24.65600
C  -3.96800 17.28800 22.26500
C  -0.71500 15.20700 22.83300
C  0.41600 16.11700 23.17200
N  -2.40900 15.20400 27.66300
C  -2.41300 14.18600 26.80600
C  -2.58100 12.92000 27.52500
C  -2.69500 13.35300 28.85300
C  -2.59300 14.72300 28.90400
C  -2.80800 11.50200 26.99200
C  -3.05400 12.90100 30.20000
O  -3.38000 11.83100 30.77900
C  -2.93700 14.16900 31.07900
C  -1.73000 13.86500 31.83800
O  -0.62300 14.24600 31.52300
O  -2.01300 13.43500 33.04800
C  -0.92000 13.41100 34.09900
H  -3.03700 20.99800 29.84400
H  -2.47500 19.68100 23.58900
H  -1.98700 13.45400 24.82700
H  -3.80700 17.14400 32.30900
H  -2.27400 19.42400 31.89300
H  -4.12900 20.32400 32.70600
H  -4.97400 18.83300 32.55800
H  -5.04300 19.91500 31.17900
H  -0.79800 17.29200 32.16000
H  -1.69200 16.21300 33.23700
H  -2.26600 18.82900 34.19300
H  -0.57000 18.56000 33.83800
H  -3.65000 22.68100 28.97400
H  -3.95900 23.47500 27.43500
H  -2.38900 23.52300 28.14100
H  -2.32300 24.33600 24.01300
H  -2.02300 24.09500 25.79000
H  -3.69700 23.89400 25.05200
H  -1.80500 17.61800 22.26300
H  -2.73400 14.84500 22.78800
H  -4.54100 17.97500 22.88700
H  -4.57300 16.39100 22.39200
H  -3.81400 17.50700 21.20800
H  -0.76900 15.16100 21.74600
H  -0.45700 14.17700 23.08100
H  -0.08100 16.64100 23.98800
H  0.77900 16.81100 22.41500
H  1.24300 15.54100 23.58700
H  -3.85000 11.40100 27.29400
H  -2.10400 10.92300 27.58900
H  -2.73100 11.38400 25.91100
H  -3.81700 14.24000 31.71700
H  -0.87600 14.33600 34.67300
H  0.12000 13.32300 33.78300
H  -0.86500 12.64000 34.86700
Mg 45.95700 4.72100 48.19800
C  44.23500 7.62700 47.31600
C  43.11800 2.95300 47.46700
C  47.71600 1.75100 48.48700
C  48.91900 6.63400 48.52700
N  43.99400 5.26400 47.30600
C  43.45300 6.51100 47.07700
C  41.97600 6.50800 46.57200
C  41.65200 5.01900 46.82100
C  43.01200 4.35900 47.16400
C  40.57900 4.60800 47.92900
C  41.73700 7.01000 45.12200
C  40.67100 8.05500 44.73400
H  39.54000 7.66100 43.71600
N  45.50000 2.68200 48.05600
C  44.27900 2.15900 47.73600
C  44.32700 0.73900 47.87900
C  45.68700 0.34100 48.18500
C  46.36400 1.63300 48.32200
C  43.19900 -0.25000 47.72600
C  46.29900 -1.06800 48.28400
O  45.61100 -2.06800 48.28300
C  47.77400 -1.28000 48.41900
N  48.08200 4.22100 48.51700
C  48.52700 2.94000 48.52400
C  50.02600 2.93200 48.84700
C  50.47100 4.50500 48.66400
C  49.08500 5.19000 48.63300
C  50.39300 2.43800 50.29600
C  51.31800 4.96400 47.47700
C  52.56100 5.84500 47.65300
N  46.52600 6.74700 48.15400
C  47.77400 7.40900 48.27100
C  47.57700 8.80200 48.16000
C  46.23300 8.98000 47.82200
C  45.62900 7.68000 47.80200
C  48.65200 9.80200 48.15000
C  45.23300 9.90000 47.30000
O  45.30300 11.12300 47.07100
C  43.81600 9.07500 47.03200
C  42.72500 9.53800 47.90500
O  42.53600 9.11900 49.02100
O  42.02800 10.51100 47.27700
C  40.79500 10.96700 47.95800
H  42.18700 2.38400 47.41700
H  48.34100 0.89300 48.74500
H  49.87600 7.15700 48.59000
H  41.46100 7.17400 47.26400
H  41.24100 4.58600 45.91000
H  39.74000 4.09000 47.46500
H  40.14800 5.56200 48.23400
H  41.03100 4.12800 48.79700
H  41.52000 6.18500 44.44300
H  42.74400 7.37900 44.92400
H  41.30600 8.82000 44.28700
H  40.37100 8.47300 45.69500
H  42.74900 -0.41600 48.70400
H  43.52900 -1.24900 47.44100
H  42.49500 0.08900 46.96600
H  48.02600 -2.34000 48.46500
H  47.93400 -0.88300 49.42100
H  48.22900 -0.79400 47.55600
H  50.44200 2.33300 48.03700
H  51.01200 4.76900 49.57300
H  51.31000 2.98200 50.52300
H  50.51700 1.35500 50.29100
H  49.59700 2.68200 51.00000
H  50.67700 5.65500 46.93000
H  51.54800 4.11800 46.83000
H  52.89000 5.94700 48.68700
H  52.31200 6.88800 47.45700
H  53.41200 5.51600 47.05700
H  48.39000 10.70300 48.70400
H  48.93800 10.02800 47.12300
H  49.57000 9.35500 48.53200
H  43.48800 9.16200 45.99600
H  40.68800 10.48900 48.93100
H  39.99900 10.70000 47.26300
H  40.94200 12.04400 48.04200

