158

Mg 2.02800 -1.82700 44.50700
C  5.32000 -1.06000 43.75700
C  1.06000 0.83500 42.42700
C  -1.14900 -2.73300 44.96300
C  3.04500 -4.96400 45.72000
N  3.09400 -0.32100 43.17800
C  4.43400 -0.21800 43.04600
C  4.85100 0.86800 42.00600
C  3.47200 1.47900 41.61900
C  2.45500 0.70300 42.49100
C  3.29400 3.03100 41.60900
C  5.67500 0.39700 40.75500
C  6.67400 1.47700 40.28400
H  6.30000 2.17300 39.01800
N  0.19100 -0.92400 43.96200
C  -0.03300 0.11400 43.10700
C  -1.48600 0.40800 43.02900
C  -2.11900 -0.62200 43.80100
C  -0.99300 -1.47900 44.30500
C  -1.91600 1.58400 42.26400
C  -3.64400 -0.78400 43.91600
O  -4.36200 -0.06600 43.29900
C  -4.26800 -1.86900 44.69400
N  1.07200 -3.68100 45.10600
C  -0.23900 -3.71800 45.38800
C  -0.70100 -5.07300 45.96800
C  0.70900 -5.77500 46.16200
C  1.66600 -4.82800 45.52800
C  -1.56200 -5.10700 47.23900
C  0.84100 -7.24100 45.53500
C  1.19000 -8.35500 46.51800
N  3.78500 -2.86300 44.80300
C  4.11100 -4.06500 45.38800
C  5.54500 -4.13400 45.56500
C  6.02900 -2.97000 44.94200
C  4.92700 -2.26800 44.45300
C  6.34300 -5.25100 46.09100
C  7.28800 -2.25700 44.60900
O  8.40100 -2.58100 44.97400
C  6.86900 -0.96500 43.76000
C  7.38700 0.17600 44.46200
O  7.00000 0.59700 45.53600
O  8.36400 0.74900 43.70300
C  9.07800 1.83100 44.38400
H  0.69700 1.62900 41.77100
H  -2.19200 -3.01700 45.11900
H  3.39600 -5.85100 46.25100
H  5.49600 1.54700 42.56400
H  3.27000 1.34200 40.55700
H  2.74300 3.46200 42.44500
H  3.09500 3.37800 40.59500
H  4.29200 3.37900 41.87400
H  5.03500 0.23400 39.88800
H  6.16200 -0.54600 41.00300
H  7.61500 0.94600 40.14000
H  6.73100 2.22600 41.07400
H  -2.06400 1.33600 41.21400
H  -1.23200 2.43100 42.32400
H  -2.88900 1.85000 42.67700
H  -5.35700 -1.84700 44.75100
H  -3.80700 -1.76900 45.67700
H  -3.97700 -2.80400 44.21600
H  -1.33100 -5.48200 45.17800
H  0.92100 -5.82200 47.23000
H  -1.75000 -4.08600 47.57000
H  -1.04700 -5.64700 48.03300
H  -2.58800 -5.35200 46.96200
H  1.63800 -7.17000 44.79500
H  0.01500 -7.44200 44.85200
H  1.44100 -7.98400 47.51200
H  2.13200 -8.76100 46.15000
H  0.40600 -9.11000 46.56700
H  7.40200 -5.04000 46.24200
H  6.23700 -6.09800 45.41300
H  6.04700 -5.36000 47.13400
H  7.40700 -1.10600 42.82300
H  8.39800 2.50600 44.90300
H  9.55200 2.46300 43.63300
H  9.77400 1.44000 45.12700
Mg 26.36100 50.28400 26.02800
C  24.81300 51.34500 28.97200
C  29.03600 49.23000 27.92700
C  27.93800 49.48200 23.21100
C  23.74400 51.62500 24.24400
N  26.86600 50.29600 28.28900
C  26.02700 50.70200 29.27100
C  26.62100 50.30200 30.64600
C  28.09100 49.88400 30.31600
C  28.03600 49.73300 28.77800
C  29.12800 51.02300 30.69600
C  25.78400 49.22200 31.43200
C  25.05400 49.63200 32.72900
H  25.88400 50.14900 33.92500
N  28.22500 49.50400 25.62100
C  29.17200 49.09900 26.56800
C  30.21200 48.25200 25.95300
C  29.87200 48.26200 24.54600
C  28.69600 49.18500 24.39600
C  31.31400 47.44700 26.65400
C  30.46000 47.45700 23.39600
O  29.96400 47.46400 22.29500
C  31.64800 46.55600 23.67500
N  25.87600 50.63700 24.04000
C  26.69400 50.09100 23.03800
C  26.07700 50.32300 21.69600
C  24.67600 50.92700 22.06700
C  24.76000 51.16100 23.53000
C  26.95200 51.10000 20.70900
C  23.45600 49.96600 21.65800
C  22.33300 50.65100 20.86800
N  24.59100 51.25100 26.39200
C  23.60600 51.67000 25.62900
C  22.58000 52.25800 26.41300
C  23.00500 52.13500 27.75800
C  24.21800 51.47400 27.66800
C  21.25600 52.91200 26.02100
C  22.66000 52.40700 29.12500
O  21.66400 52.94800 29.62200
C  23.77900 51.79200 30.00600
C  24.28400 52.87200 30.94500
O  25.38100 53.37300 30.82600
O  23.38400 53.02800 31.92500
C  24.01300 53.54500 33.15800
H  29.95600 48.94300 28.44200
H  28.51200 49.14600 22.34400
H  22.94500 52.03200 23.62100
H  26.65900 51.20200 31.25900
H  28.31000 48.89900 30.72700
H  28.68600 51.77700 31.34700
H  29.52800 51.53800 29.82200
H  29.97900 50.47300 31.09600
H  26.38300 48.34000 31.65600
H  25.01200 48.85900 30.75400
H  24.50700 48.74700 33.05400
H  24.44900 50.52600 32.58100
H  31.12300 46.38200 26.52600
H  31.34200 47.71000 27.71200
H  32.26200 47.78000 26.23100
H  31.48600 45.77600 24.41900
H  32.45500 47.21700 23.99300
H  32.02900 46.18700 22.72300
H  26.05400 49.30100 21.32000
H  24.40800 51.92300 21.71300
H  27.69300 51.63700 21.30000
H  26.48500 51.88800 20.11800
H  27.39500 50.36900 20.03200
H  22.95300 49.49200 22.50100
H  23.80900 49.11900 21.07100
H  21.44200 50.67000 21.49700
H  22.02500 50.16100 19.94400
H  22.47200 51.69700 20.59600
H  20.91500 52.63500 25.02400
H  21.35600 53.98800 26.16600
H  20.55300 52.51000 26.75000
H  23.19000 51.02000 30.50100
H  24.00200 54.63100 33.07500
H  24.99000 53.10800 33.37000
H  23.39300 53.23100 33.99800

