158

Mg 26.11500 0.89800 29.21600
C  28.14900 0.77700 32.05800
C  23.32900 1.37000 31.39000
C  24.05400 1.07200 26.59000
C  28.73200 -0.04000 27.30500
N  25.83400 1.09000 31.48600
C  26.85200 1.14100 32.41000
C  26.19500 1.55100 33.78700
C  24.58000 1.50200 33.52700
C  24.60700 1.31700 31.99000
C  23.76500 0.47800 34.34800
C  26.73000 2.86000 34.28400
C  27.75400 2.78200 35.44000
H  27.57300 3.74100 36.60000
N  23.99800 1.28800 28.99600
C  23.06000 1.36600 29.98700
C  21.77800 1.42100 29.37300
C  21.92200 1.46900 27.94700
C  23.36800 1.27300 27.75900
C  20.48100 1.42000 30.13200
C  20.97200 1.72300 26.83300
O  21.28100 1.74000 25.61800
C  19.51400 2.04800 27.06600
N  26.37900 0.71100 27.20600
C  25.40000 0.78900 26.27100
C  26.01700 0.60400 24.87000
C  27.49800 0.21000 25.10500
C  27.56100 0.32300 26.64600
C  25.24900 -0.44500 24.05000
C  28.57100 1.07300 24.41400
C  28.54500 1.07600 22.87200
N  28.02400 0.33700 29.53500
C  29.04700 0.04500 28.66500
C  30.23300 -0.26400 29.36500
C  29.93600 0.00100 30.76500
C  28.62500 0.49500 30.77700
C  31.54100 -0.74800 28.79300
C  30.46100 0.06000 32.11200
O  31.56000 -0.31500 32.50500
C  29.38700 0.60100 32.95200
C  29.25100 -0.37800 34.04800
O  28.65500 -1.43800 34.06700
O  29.87500 0.16800 35.17900
C  29.61700 -0.48300 36.44800
H  22.48200 1.60000 32.04000
H  23.41400 1.11000 25.70700
H  29.59600 -0.32000 26.70000
H  26.46000 0.75000 34.47800
H  24.06900 2.46000 33.61500
H  24.38400 0.16000 35.18700
H  23.57900 -0.39800 33.72700
H  22.85600 0.98200 34.67700
H  25.98800 3.60300 34.57800
H  27.32800 3.23700 33.45400
H  28.75200 2.97100 35.04500
H  27.82900 1.76100 35.81400
H  20.63300 0.92800 31.09300
H  19.73700 0.81900 29.60900
H  20.32900 2.48900 30.27500
H  19.04300 1.16500 27.49900
H  19.02300 2.31200 26.12900
H  19.44200 2.82200 27.83000
H  25.93000 1.58800 24.40900
H  27.61900 -0.85500 24.90400
H  24.64300 0.15100 23.36800
H  24.63200 -1.06000 24.70500
H  25.83400 -1.05700 23.36300
H  29.55800 0.74200 24.73700
H  28.32800 2.05500 24.82000
H  29.54700 0.98700 22.45100
H  28.05400 1.93600 22.41700
H  27.88700 0.27200 22.54200
H  32.34800 -0.34700 29.40600
H  31.62100 -0.44600 27.74900
H  31.58600 -1.82200 28.97800
H  29.65500 1.53100 33.45300
H  29.57200 -1.56700 36.33500
H  28.75900 0.00200 36.91300
H  30.52600 -0.37100 37.03900
Mg 0.90000 43.56000 25.78100
C  2.99800 43.78000 28.63600
C  -1.68700 42.77700 27.83100
C  -0.87600 42.91700 23.11600
C  3.73100 44.06400 23.82400
N  0.78200 43.10800 27.95500
C  1.64900 43.44500 28.99100
C  0.97400 43.27600 30.36400
C  -0.45500 42.84900 30.00500
C  -0.43500 42.83200 28.48100
C  -0.98700 41.57000 30.71600
C  1.14000 44.47300 31.24000
C  1.55100 44.20800 32.73700
H  1.04400 42.85800 33.27800
N  -1.03700 43.15600 25.50800
C  -1.94500 42.90600 26.51500
C  -3.23600 42.64500 25.93400
C  -3.05300 42.52900 24.47800
C  -1.60900 42.87600 24.29600
C  -4.53600 42.55300 26.76400
C  -4.07100 42.34300 23.32400
O  -3.77400 42.15100 22.16000
C  -5.54900 42.11300 23.62400
N  1.32800 43.62800 23.73400
C  0.45600 43.20900 22.83700
C  1.00900 43.13400 21.44200
C  2.37300 43.94100 21.60300
C  2.52300 43.88100 23.16900
C  1.10400 41.63800 20.83700
C  2.37700 45.39400 21.00600
C  2.57000 45.52900 19.49500
N  2.94300 43.87100 26.12800
C  3.92400 44.14100 25.21600
C  5.21500 44.29900 25.84500
C  4.86700 44.09300 27.21400
C  3.49400 43.92000 27.30500
C  6.47900 44.55800 25.22700
C  5.41700 44.02400 28.53900
O  6.56600 44.11400 28.95200
C  4.23200 44.00100 29.52200
C  4.35200 42.81800 30.39700
O  4.22500 41.67000 29.95600
O  4.86600 43.04800 31.67800
C  5.43800 41.95000 32.45500
H  -2.49700 42.64300 28.55100
H  -1.50100 42.62800 22.26800
H  4.53400 44.39700 23.16400
H  1.51900 42.40300 30.72400
H  -1.16200 43.65800 30.18200
H  -1.22800 40.72700 30.07000
H  -1.82400 41.76400 31.38700
H  -0.19800 41.20200 31.37200
H  0.18900 44.98700 31.38000
H  1.72900 45.30500 30.85500
H  1.15800 45.08200 33.25800
H  2.63900 44.15100 32.72600
H  -4.37000 43.14600 27.66300
H  -4.72300 41.51600 27.04100
H  -5.39100 42.97200 26.23300
H  -5.64200 41.28700 24.32900
H  -6.16600 41.89400 22.75300
H  -5.74800 43.06100 24.12500
H  0.25700 43.66500 20.85700
H  3.19700 43.47300 21.06500
H  0.58200 40.84500 21.37300
H  2.16600 41.40500 20.92100
H  0.70600 41.62800 19.82300
H  3.16800 45.99300 21.45800
H  1.38800 45.76200 21.27900
H  1.66600 45.93300 19.04000
H  2.64200 44.56800 18.98500
H  3.41000 46.16700 19.22200
H  7.36900 44.17900 25.72800
H  6.61400 45.63900 25.19400
H  6.49700 44.09800 24.23900
H  4.21000 44.91600 30.11400
H  5.92500 42.36900 33.33600
H  6.20200 41.45700 31.85400
H  4.65900 41.36200 32.94000

