158

Mg 41.94600 41.86100 27.59100
C  40.83000 44.30900 29.89100
C  42.80000 39.83800 30.17700
C  43.24100 39.74400 25.35100
C  41.39300 44.28200 25.03300
N  41.69100 42.01800 29.76500
C  41.18800 43.12200 30.53000
C  41.21700 42.75800 32.05900
C  42.07200 41.38600 32.06600
C  42.31000 41.07200 30.62100
C  43.34500 41.54500 32.98300
C  39.79000 42.63900 32.73900
C  39.84100 43.17900 34.15900
H  39.39200 42.17500 35.24700
N  42.88600 40.08700 27.67500
C  43.09600 39.32500 28.84800
C  43.43500 37.93800 28.50900
C  43.55400 37.89900 27.10900
C  43.25300 39.28200 26.60700
C  43.69000 36.88700 29.54900
C  43.82300 36.70100 26.19900
O  43.91900 36.77700 24.97000
C  44.14400 35.33300 26.73500
N  42.27000 42.08400 25.54400
C  42.80800 41.04900 24.83200
C  42.80000 41.25500 23.30300
C  41.93200 42.57100 23.24800
C  41.96000 43.06000 24.68900
C  44.23000 41.36400 22.67400
C  40.48700 42.48400 22.62800
C  39.46000 41.82400 23.59400
N  41.37500 43.95100 27.48000
C  41.06000 44.73800 26.34400
C  40.43500 45.93300 26.78200
C  40.33600 45.82300 28.14900
C  40.96700 44.65600 28.53500
C  40.08200 47.18900 25.99100
C  39.87400 46.45700 29.30700
O  39.23800 47.53100 29.42800
C  40.22100 45.48800 30.51700
C  41.15600 46.16700 31.44900
O  42.36100 46.27200 31.31400
O  40.59000 46.51500 32.68200
C  41.53500 46.99200 33.77000
H  42.97500 39.19700 31.04400
H  43.31900 38.99100 24.56400
H  41.04200 45.01000 24.29900
H  41.71400 43.65300 32.43200
H  41.48900 40.58600 32.52200
H  44.08600 40.78700 32.72900
H  43.03400 41.33600 34.00700
H  43.80700 42.53200 32.96600
H  39.37900 41.62900 32.72400
H  38.93300 43.04300 32.20000
H  39.27400 44.11000 34.17800
H  40.85800 43.40500 34.48200
H  43.20000 35.95400 29.27000
H  43.37200 37.23800 30.53000
H  44.75800 36.67500 29.58500
H  45.05400 35.33800 27.33500
H  44.20700 34.59700 25.93400
H  43.21300 35.07700 27.24100
H  42.26400 40.42100 22.85000
H  42.38200 43.33700 22.61700
H  44.85200 41.93300 23.36500
H  44.15500 41.84400 21.69800
H  44.57200 40.34700 22.48400
H  40.55700 41.96200 21.67300
H  40.21700 43.50700 22.36900
H  39.75000 41.83300 24.64400
H  39.29300 40.80300 23.25200
H  38.50100 42.32600 23.46500
H  39.27400 47.05700 25.27100
H  40.92900 47.31200 25.31600
H  40.00100 48.04200 26.66500
H  39.40300 45.11900 31.13500
H  41.13100 47.62000 34.56400
H  42.41000 47.54400 33.42700
H  41.81200 46.13200 34.38000
Mg 16.59500 51.91900 26.23300
C  18.16200 50.23200 28.92300
C  14.21900 52.96900 28.20800
C  15.39900 53.34500 23.53200
C  19.16100 50.28300 24.21500
N  16.17600 51.44000 28.31600
C  16.92700 50.90200 29.26300
C  16.38700 51.18900 30.68100
C  14.95000 51.64900 30.35400
C  15.12300 52.14100 28.89000
C  13.91000 50.51300 30.50900
C  17.21600 52.32000 31.37300
C  17.62500 52.01500 32.81100
H  16.56900 52.43500 33.86800
N  14.94400 52.89100 25.96400
C  14.05100 53.30500 26.84800
C  13.17300 54.28100 26.33000
C  13.51300 54.44300 24.97100
C  14.64800 53.53300 24.76200
C  12.22300 55.02600 27.33300
C  13.05900 55.42700 23.91400
O  13.36600 55.50000 22.71700
C  11.99700 56.40700 24.37400
N  17.25000 51.89600 24.23200
C  16.47500 52.56300 23.28400
C  17.15300 52.50500 21.92900
C  18.42000 51.65000 22.14300
C  18.34500 51.29300 23.61400
C  16.20600 52.09900 20.77400
C  19.81400 52.20200 21.58400
C  20.69800 53.18300 22.54600
N  18.34100 50.50600 26.47300
C  19.17900 49.93400 25.60300
C  20.20100 49.17400 26.26500
C  19.82700 49.23100 27.61400
C  18.72700 50.03400 27.63100
C  21.14200 48.30500 25.60000
C  20.15600 48.75900 28.91200
O  21.01300 47.96900 29.26600
C  19.18700 49.54900 29.82700
C  18.52700 48.74600 30.80200
O  17.58500 48.06500 30.60400
O  19.15800 48.79000 31.97600
C  18.53800 48.06800 33.08700
H  13.38900 53.42600 28.75100
H  15.12400 53.91900 22.64500
H  19.83100 49.73800 23.54700
H  16.39700 50.29700 31.30600
H  14.64100 52.53200 30.91300
H  14.17900 49.84900 31.33000
H  13.78700 50.04100 29.53400
H  13.01000 51.06100 30.79000
H  16.60200 53.21900 31.41300
H  18.12900 52.65000 30.87700
H  18.58900 52.50200 32.96100
H  17.80800 50.94600 32.92400
H  11.58700 55.82000 26.94400
H  12.76100 55.38500 28.21000
H  11.63900 54.26200 27.84700
H  12.47700 57.05400 25.10800
H  11.07100 55.92500 24.68600
H  11.70700 56.99000 23.50000
H  17.57200 53.50900 21.86700
H  18.12200 50.68500 21.73400
H  16.82800 52.09900 19.87900
H  15.46000 52.87800 20.61400
H  15.70900 51.13100 20.83800
H  19.53500 52.68500 20.64800
H  20.49100 51.40600 21.27400
H  20.99200 54.13200 22.09700
H  21.58500 52.60000 22.79500
H  20.09600 53.33900 23.44100
H  20.60100 47.73500 24.84500
H  21.72300 47.79600 26.37000
H  21.94200 48.88900 25.14400
H  19.66000 50.32300 30.43200
H  17.48100 48.29400 33.23000
H  19.12700 48.32000 33.96900
H  18.62100 46.98300 33.02500

