158

Mg -1.93100 17.51100 27.32100
C  -2.10300 15.47900 30.18000
C  -2.39700 20.24500 29.34200
C  -2.00300 19.36200 24.52200
C  -2.09900 14.61600 25.42200
N  -2.21300 17.79800 29.49500
C  -2.14800 16.83800 30.41600
C  -2.27500 17.46000 31.82000
C  -2.78300 18.94300 31.52200
C  -2.38400 19.04200 30.00400
C  -4.28900 19.15800 31.82400
C  -0.93900 17.45200 32.63300
C  -1.12500 16.83900 34.07200
H  -0.07500 17.16700 35.19100
N  -1.94800 19.47900 26.98500
C  -2.12900 20.43100 27.96600
C  -2.20200 21.69400 27.34200
C  -2.02300 21.52600 25.96800
C  -2.02700 20.02400 25.73400
C  -2.21300 23.01300 28.08100
C  -1.83300 22.54000 24.88200
O  -1.67500 22.22400 23.70400
C  -1.72100 23.98500 25.18600
N  -1.93200 17.02700 25.23000
C  -1.95700 18.00800 24.29600
C  -1.86000 17.30200 22.85800
C  -1.64300 15.82900 23.12700
C  -1.93300 15.78700 24.68300
C  -2.94900 17.60100 21.85100
C  -0.25600 15.20400 22.80400
C  1.08100 15.92900 23.08600
N  -2.19600 15.44500 27.71900
C  -2.27000 14.42400 26.80800
C  -2.25000 13.16900 27.51900
C  -2.17900 13.52100 28.87000
C  -2.10000 14.93500 28.91200
C  -2.23100 11.79100 26.93500
C  -2.11000 13.04300 30.22600
O  -2.14000 11.90800 30.69400
C  -2.12500 14.31800 31.12200
C  -0.86900 14.16000 31.90700
O  0.22400 14.55400 31.46800
O  -1.00500 13.56000 33.13900
C  0.18900 13.35500 33.94000
H  -2.42200 21.05900 30.07000
H  -1.96600 19.91100 23.57900
H  -1.93600 13.74700 24.78100
H  -2.97600 16.83800 32.37600
H  -2.19100 19.68900 32.05300
H  -4.59400 18.44800 32.59300
H  -4.79000 19.13300 30.85700
H  -4.35100 20.16000 32.25000
H  -0.46400 18.41900 32.79900
H  -0.17300 16.93800 32.05200
H  -1.26400 15.75800 34.07200
H  -2.00900 17.26100 34.55000
H  -3.10100 23.54500 27.74100
H  -1.35700 23.60800 27.76200
H  -2.13000 23.01800 29.16700
H  -0.79600 24.10700 25.74900
H  -2.56500 24.30700 25.79600
H  -1.67000 24.46300 24.20700
H  -0.91400 17.67200 22.46300
H  -2.37400 15.21500 22.60100
H  -3.68800 18.27800 22.28000
H  -3.56200 16.71200 21.70100
H  -2.59600 18.07400 20.93400
H  -0.25500 14.92800 21.75000
H  -0.28500 14.25600 23.34100
H  1.77500 15.25200 23.58300
H  1.02200 16.86400 23.64400
H  1.63400 16.05600 22.15500
H  -1.45800 11.72100 26.16900
H  -3.20200 11.47500 26.55500
H  -1.84900 11.13700 27.71900
H  -2.93300 14.36900 31.85200
H  -0.20300 12.71500 34.73100
H  0.69100 14.26200 34.27700
H  0.88700 12.77700 33.33600
Mg 47.63400 16.71700 29.07900
C  45.55800 16.22200 31.93700
C  49.95200 18.16300 31.04800
C  49.31700 17.39900 26.24000
C  44.78600 15.68200 27.13000
N  47.62200 17.12800 31.21600
C  46.73800 16.86500 32.23500
C  47.32500 17.20500 33.58900
C  48.46300 18.17800 33.16200
C  48.75700 17.78700 31.73100
C  48.21000 19.69300 33.35500
C  47.70900 15.85900 34.25100
C  47.49500 15.87100 35.71800
H  47.31000 17.26200 36.35400
N  49.33700 17.67300 28.73100
C  50.20300 18.21500 29.64800
C  51.32700 18.86100 29.00900
C  51.06600 18.65800 27.58600
C  49.83200 17.94700 27.45100
C  52.44200 19.38200 29.84600
C  51.88200 19.13200 26.40200
O  51.58400 19.09500 25.25700
C  53.22100 19.77500 26.68700
N  47.16900 16.54000 27.01800
C  48.06200 16.82300 26.06200
C  47.49400 16.54700 24.69600
C  46.04500 16.07100 24.95600
C  45.98200 16.06100 26.45600
C  47.57000 17.76000 23.75500
C  45.71200 14.73500 24.30600
C  44.53100 14.77200 23.28000
N  45.62300 15.90000 29.41000
C  44.63400 15.56100 28.59000
C  43.43600 15.13900 29.38400
C  43.81300 15.37000 30.68300
C  45.07600 15.91700 30.64000
C  42.15600 14.54300 28.93900
C  43.33900 15.21300 32.05200
O  42.37800 14.66500 32.46200
C  44.40200 15.89500 32.91700
C  43.69100 17.02600 33.62400
O  43.36300 18.08700 33.09000
O  43.66400 16.86200 35.01200
C  42.98300 17.96100 35.74600
H  50.75000 18.60800 31.64600
H  49.89600 17.45600 25.31600
H  43.90400 15.38700 26.55800
H  46.48000 17.62700 34.13300
H  49.42200 17.92000 33.61100
H  48.99900 20.09600 33.99100
H  47.25700 19.90800 33.83900
H  48.34700 20.25800 32.43300
H  48.73400 15.55000 34.04400
H  47.16800 14.97900 33.90300
H  48.33500 15.34800 36.17400
H  46.75900 15.16700 36.10500
H  52.08600 20.20800 30.46100
H  53.29100 19.71800 29.25200
H  52.70200 18.72100 30.67300
H  53.97700 19.08900 27.06600
H  53.22600 20.57000 27.43300
H  53.49600 20.20800 25.72500
H  48.09500 15.73900 24.28100
H  45.33900 16.81200 24.58200
H  48.38500 17.63400 23.04300
H  47.77100 18.66400 24.32900
H  46.65500 17.94400 23.19100
H  45.49500 14.02900 25.10700
H  46.60300 14.38800 23.78300
H  44.83200 15.11800 22.29100
H  43.82000 15.52000 23.63000
H  44.19600 13.74200 23.15200
H  42.26900 13.46100 28.87300
H  41.92100 14.79800 27.90600
H  41.33400 14.87100 29.57500
H  44.73000 15.24300 33.72600
H  41.91800 17.95600 35.51700
H  43.36400 18.97200 35.60700
H  43.12500 17.67300 36.78800

