158

Mg 1.65900 -2.48000 44.65600
C  4.87400 -1.35000 43.95200
C  0.36100 -0.03600 42.50200
C  -1.34200 -4.10200 44.83900
C  3.15700 -5.42300 46.11000
N  2.48500 -0.83900 43.40800
C  3.87200 -0.56300 43.27100
C  4.15000 0.45900 42.19200
C  2.75800 1.03600 41.98800
C  1.79900 0.07600 42.69900
C  2.69400 2.49800 42.32900
C  4.73000 -0.23800 40.95700
C  6.00900 0.38400 40.44200
H  5.82200 1.22100 39.12700
N  -0.23600 -2.10900 43.80000
C  -0.57600 -1.03200 43.00100
C  -1.99900 -1.04600 42.74100
C  -2.57100 -2.20200 43.40600
C  -1.32800 -2.89100 44.01000
C  -2.76500 0.05300 42.02700
C  -4.08100 -2.57900 43.59300
O  -4.95400 -1.82000 43.21800
C  -4.49400 -3.86000 44.31000
N  1.03100 -4.39300 45.51700
C  -0.28500 -4.75000 45.44000
C  -0.51100 -6.15500 45.98900
C  0.86000 -6.59500 46.50200
C  1.73600 -5.38500 46.02100
C  -1.65900 -6.21200 47.07100
C  1.37900 -8.00100 46.04000
C  1.96100 -8.92300 47.08300
N  3.62500 -3.24500 45.10900
C  4.07000 -4.39400 45.73400
C  5.49600 -4.39300 45.78200
C  5.89500 -3.10900 45.19500
C  4.69000 -2.50600 44.71300
C  6.29800 -5.46900 46.33800
C  6.93100 -2.13600 44.86000
O  8.09400 -2.14000 45.15700
C  6.38500 -1.13700 43.88800
C  6.75200 0.22700 44.15800
O  7.57000 0.88500 43.57200
O  6.06800 0.74500 45.21500
C  6.55300 2.10700 45.56100
H  0.05900 0.61500 41.67900
H  -2.27000 -4.51200 45.24200
H  3.69300 -6.09600 46.78200
H  4.82700 1.21000 42.59700
H  2.49600 0.90400 40.93800
H  2.26100 2.71000 43.30700
H  1.97300 3.02300 41.70300
H  3.68600 2.94600 42.29000
H  4.04000 -0.21500 40.11400
H  5.00000 -1.27100 41.17700
H  6.76700 -0.39600 40.36400
H  6.46000 1.11100 41.11800
H  -2.22600 0.97900 42.22400
H  -3.79400 0.10100 42.38400
H  -2.79300 -0.21300 40.97000
H  -3.79000 -4.64100 44.02300
H  -5.56000 -3.96000 44.10400
H  -4.57800 -3.72700 45.38900
H  -0.86000 -6.85900 45.23300
H  0.87200 -6.53900 47.59000
H  -1.25400 -6.61200 48.00100
H  -2.37700 -6.95200 46.71700
H  -2.10800 -5.24000 47.27400
H  1.98800 -7.88000 45.14400
H  0.60700 -8.51300 45.46500
H  2.95700 -9.27400 46.81500
H  1.24800 -9.74600 47.14100
H  2.14700 -8.44700 48.04600
H  6.00300 -6.28800 45.68300
H  5.93800 -5.58300 47.36100
H  7.36100 -5.23100 46.35600
H  6.73900 -1.48200 42.91600
H  6.33000 2.09200 46.62800
H  5.89700 2.84800 45.10500
H  7.59200 2.39400 45.40000
Mg 48.53400 35.98900 28.79800
C  46.32600 34.55600 31.10900
C  48.89900 38.64500 30.86200
C  50.07900 37.65800 26.23700
C  47.71100 33.31400 26.58000
N  47.81200 36.44800 30.74200
C  47.06500 35.67100 31.56500
C  47.27900 36.06800 32.97600
C  47.49300 37.60000 32.70900
C  48.15900 37.59100 31.35600
C  46.22100 38.59700 32.90800
C  48.53900 35.37700 33.58800
C  48.68700 35.33200 35.07100
H  47.87800 36.13700 36.04100
N  49.45400 37.90200 28.61100
C  49.53700 38.77700 29.60000
C  50.27300 39.93800 29.12900
C  50.78900 39.52300 27.83600
C  50.08900 38.34100 27.47200
C  50.45400 41.22300 29.90200
C  51.83400 40.23700 26.98300
O  52.22000 39.86800 25.88200
C  52.51300 41.52100 27.51000
N  48.98100 35.43200 26.81400
C  49.48200 36.33800 25.92100
C  49.55100 35.89100 24.52300
C  49.00200 34.40500 24.60500
C  48.54300 34.33500 26.05600
C  48.71700 36.75100 23.47300
C  50.00800 33.17700 24.29000
C  50.00800 32.79400 22.76400
N  47.30500 34.21200 28.77200
C  47.01400 33.30100 27.78800
C  46.14500 32.37800 28.26600
C  45.82200 32.80800 29.55100
C  46.55800 33.94500 29.84000
C  45.70300 31.06800 27.57900
C  45.01700 32.50500 30.74400
O  44.14600 31.64600 30.89300
C  45.32200 33.62300 31.75900
C  45.70200 33.06700 33.13000
O  46.77200 32.53400 33.40000
O  44.66000 33.33600 34.05100
C  44.83100 32.79600 35.34600
H  49.01800 39.50400 31.52600
H  50.66500 38.14400 25.45500
H  47.52000 32.58100 25.79300
H  46.41100 35.96500 33.62800
H  48.23400 37.96800 33.41800
H  46.36200 39.28000 33.74600
H  45.35100 38.00900 33.20300
H  45.91000 39.11600 32.00200
H  49.39000 35.90300 33.15500
H  48.61200 34.46400 32.99700
H  49.70300 35.69900 35.21800
H  48.65700 34.26000 35.26800
H  50.23600 41.95100 29.12000
H  51.47100 41.27700 30.29200
H  49.69000 41.42600 30.65100
H  51.80200 42.28800 27.81500
H  53.06900 41.85800 26.63500
H  53.12300 41.38400 28.40300
H  50.62200 35.96700 24.33600
H  48.15100 34.34600 23.92600
H  48.72200 37.80000 23.76800
H  47.67400 36.44200 23.55100
H  48.97600 36.67300 22.41700
H  49.82500 32.29800 24.90900
H  51.03200 33.45200 24.54200
H  49.49000 31.85100 22.59100
H  50.98000 32.60900 22.30800
H  49.44200 33.58300 22.26700
H  44.92900 30.55300 28.14900
H  46.65900 30.54400 27.55600
H  45.29800 31.08100 26.56700
H  44.42900 34.15000 32.09600
H  45.22800 33.63700 35.91500
H  45.49200 31.93100 35.38400
H  43.87900 32.41000 35.71100

