158

Mg 26.50400 1.04600 29.70300
C  28.44600 0.84700 32.44800
C  23.73900 1.77000 31.79600
C  24.42800 0.93500 27.09600
C  29.06800 -0.02600 27.73300
N  26.18700 1.41800 31.89000
C  27.14200 1.24700 32.83600
C  26.62600 1.56700 34.25100
C  25.11200 1.64500 34.01500
C  24.95100 1.55600 32.46000
C  24.26800 0.61800 34.83300
C  27.30300 2.90800 34.73400
C  28.08800 2.98900 36.08800
H  27.44100 3.85300 37.12800
N  24.43600 1.33400 29.45300
C  23.54300 1.80400 30.40800
C  22.21700 1.88100 29.74500
C  22.41900 1.65700 28.38900
C  23.84400 1.28800 28.25900
C  20.96200 2.12600 30.50200
C  21.41200 1.75700 27.29100
O  21.63100 1.73600 26.06700
C  19.89700 1.89600 27.61600
N  26.69800 0.50600 27.70900
C  25.74000 0.56100 26.81200
C  26.18600 0.16700 25.38700
C  27.69300 0.02500 25.57200
C  27.82100 0.15700 27.10400
C  25.40100 -1.04900 24.85800
C  28.44200 1.07200 24.92400
C  28.71300 2.45700 25.63500
N  28.43100 0.68900 29.96600
C  29.43900 0.23500 29.06500
C  30.68900 0.06700 29.73700
C  30.35200 0.18300 31.14100
C  28.97800 0.63100 31.16800
C  32.00200 -0.36600 29.06800
C  30.79300 0.06300 32.50300
O  31.90800 -0.15200 32.87300
C  29.56700 0.51200 33.39400
C  29.33900 -0.56800 34.39600
O  28.56400 -1.46700 34.31000
O  30.19400 -0.39200 35.44900
C  30.03800 -1.19400 36.73400
H  22.97000 2.12000 32.48700
H  23.95600 1.00400 26.11400
H  29.95200 -0.29600 27.15200
H  26.91200 0.66200 34.78600
H  24.75200 2.62600 34.32400
H  23.49100 1.20300 35.32500
H  24.79900 0.01100 35.56700
H  23.70300 -0.00500 34.14000
H  26.61800 3.74900 34.62000
H  28.05100 3.21900 34.00400
H  29.09800 3.32200 35.85100
H  27.97600 1.97300 36.46800
H  20.40900 3.01200 30.19100
H  21.18300 2.19000 31.56700
H  20.42000 1.19800 30.32300
H  19.32200 1.81100 26.69400
H  19.85300 2.86900 28.10500
H  19.63700 1.23500 28.44300
H  25.85900 1.05900 24.85300
H  28.07600 -0.94300 25.24900
H  26.08600 -1.74900 24.38000
H  24.65400 -0.80200 24.10300
H  25.08400 -1.58300 25.75400
H  28.16000 1.21100 23.88000
H  29.46300 0.71900 24.77900
H  28.17700 2.61200 26.57100
H  28.43600 3.26000 24.95200
H  29.78200 2.57400 25.81400
H  32.04200 0.03400 28.05500
H  32.03500 -1.45500 29.02800
H  32.85000 0.05400 29.60900
H  29.84300 1.40200 33.95900
H  30.42600 -2.20500 36.61500
H  29.00400 -1.11200 37.06900
H  30.68400 -0.82800 37.53200
Mg 54.55000 24.43100 44.87100
C  52.16500 26.76200 43.77900
C  52.62400 21.89200 43.80300
C  57.28000 22.40000 45.18600
C  56.48900 27.18900 46.04500
N  52.67400 24.42300 43.84200
C  51.87400 25.41800 43.41100
C  50.71200 24.84900 42.66800
C  50.64600 23.41700 43.23100
C  52.08800 23.21000 43.63600
C  49.56700 23.20100 44.34300
C  50.75600 25.00900 41.11400
C  49.30600 24.75200 40.39800
H  49.39600 24.41800 38.91500
N  54.90700 22.43500 44.48700
C  53.96400 21.54500 44.08200
C  54.54600 20.28900 43.98600
C  55.88300 20.33500 44.37400
C  56.10500 21.76500 44.70300
C  53.69600 19.08200 43.70700
C  56.80000 19.18600 44.55800
O  56.43700 18.10500 44.23000
C  58.23900 19.29600 45.05600
N  56.60200 24.75400 45.48000
C  57.53000 23.77300 45.45300
C  58.87500 24.32300 45.97600
C  58.58800 25.76700 46.36000
C  57.12200 25.94900 45.91500
C  59.58300 23.53600 47.11000
C  59.51300 26.82300 45.63800
C  60.08700 27.83600 46.52800
N  54.34400 26.51200 45.08600
C  55.16000 27.48000 45.70000
C  54.51400 28.73800 45.59500
C  53.35900 28.51000 44.88200
C  53.27200 27.12600 44.58900
C  54.95400 30.06400 46.21800
C  52.16400 29.16400 44.38200
O  51.78900 30.31100 44.41200
C  51.40500 27.97900 43.61300
C  51.26800 28.30400 42.17000
O  52.22900 28.62800 41.50000
O  50.02700 28.04100 41.64400
C  49.97000 28.34900 40.18300
H  52.01100 21.02400 43.55000
H  58.25500 21.90800 45.22100
H  57.00200 27.99900 46.56900
H  49.81000 25.37600 42.98000
H  50.42200 22.75100 42.39800
H  50.13100 22.81000 45.19000
H  48.81000 22.46600 44.07200
H  49.06400 24.09900 44.70300
H  51.41700 24.29500 40.62400
H  51.26800 25.94900 40.90800
H  48.73000 25.67400 40.47400
H  48.68300 24.00600 40.89200
H  54.20300 18.30700 43.13400
H  52.86900 19.37600 43.06000
H  53.30400 18.74300 44.66600
H  58.67800 19.90800 44.26700
H  58.58000 18.26500 45.14500
H  58.38100 19.85300 45.98200
H  59.48100 24.21500 45.07600
H  58.50700 25.82000 47.44500
H  60.02400 24.19900 47.85300
H  60.32000 22.93300 46.57800
H  58.93800 22.78900 47.57300
H  59.02400 27.29800 44.78700
H  60.39100 26.23500 45.37200
H  60.11400 28.72400 45.89700
H  61.02900 27.53700 46.98800
H  59.42000 27.99500 47.37500
H  54.47300 30.12400 47.19400
H  54.41000 30.73400 45.55300
H  56.00600 30.31400 46.35900
H  50.39000 27.80200 43.96900
H  50.67200 27.70400 39.65400
H  50.36000 29.33100 39.91200
H  48.93600 28.28900 39.84500

