158

Mg 2.19400 -1.47800 43.30400
C  5.63900 -1.09800 43.09700
C  1.77200 1.20400 41.23800
C  -1.12800 -2.30400 42.97500
C  2.66900 -4.60400 44.75700
N  3.62900 -0.12700 42.27300
C  5.02600 -0.08100 42.33900
C  5.58500 1.02900 41.47900
C  4.32800 1.72300 40.90500
C  3.10800 0.86900 41.47100
C  4.08200 3.24500 41.23700
C  6.50800 0.38900 40.45600
C  8.01400 0.83100 40.45600
H  8.52500 1.20300 39.06400
N  0.53700 -0.55500 42.35200
C  0.55200 0.51300 41.62000
C  -0.82100 0.79300 41.08200
C  -1.62700 -0.11100 41.73900
C  -0.74000 -1.09100 42.38800
C  -1.13400 2.07000 40.34400
C  -3.11200 -0.17700 41.65500
O  -3.71200 0.63700 40.96000
C  -3.97800 -0.94000 42.54000
N  0.94800 -3.28300 43.85800
C  -0.40600 -3.31300 43.51000
C  -1.09300 -4.53400 44.22500
C  0.13900 -5.29200 44.76900
C  1.33500 -4.40200 44.42000
C  -2.19600 -4.11300 45.24800
C  0.34700 -6.73600 44.35300
C  -0.04400 -7.81100 45.43700
N  3.74200 -2.64700 43.86400
C  3.78100 -3.82400 44.52900
C  5.19200 -4.11600 44.86700
C  5.91700 -3.07700 44.30300
C  4.98900 -2.23000 43.74500
C  5.73900 -5.35300 45.47400
C  7.24200 -2.59800 44.16000
O  8.25400 -2.96600 44.57000
C  7.10700 -1.27100 43.36600
C  7.49800 -0.18100 44.16900
O  7.37300 -0.17900 45.37300
O  8.11800 0.78800 43.49900
C  8.33500 2.08200 44.08600
H  1.71500 2.02600 40.52000
H  -2.18100 -2.52300 42.79000
H  2.95400 -5.44300 45.39600
H  6.11100 1.68700 42.17100
H  4.39400 1.64200 39.82000
H  4.09200 3.79400 40.29500
H  4.91100 3.65700 41.81200
H  3.11700 3.41800 41.71500
H  6.10900 0.62100 39.46900
H  6.48100 -0.69500 40.56100
H  8.60200 0.00900 40.86500
H  8.20800 1.64800 41.15100
H  -0.22200 2.31200 39.79800
H  -1.50800 2.93700 40.89000
H  -1.70000 1.80700 39.45100
H  -5.02600 -0.64100 42.53500
H  -3.62500 -0.92200 43.57100
H  -4.12200 -2.00200 42.33900
H  -1.46100 -5.08700 43.36100
H  -0.02200 -5.17300 45.84100
H  -2.17700 -3.03500 45.40600
H  -2.20800 -4.54100 46.25000
H  -3.13900 -4.19100 44.70700
H  1.37900 -6.87500 44.03000
H  -0.15500 -7.01400 43.42600
H  0.91300 -8.19600 45.78900
H  -0.65000 -8.61800 45.02500
H  -0.54200 -7.44700 46.33600
H  5.34900 -5.54700 46.47300
H  6.82700 -5.38200 45.40900
H  5.43500 -6.22600 44.89700
H  7.75300 -1.34800 42.49100
H  7.61400 2.88200 43.91600
H  9.24900 2.44300 43.61300
H  8.64600 1.98200 45.12600
Mg 44.22500 3.19500 47.75500
C  42.54600 6.34400 47.55900
C  41.16400 1.66400 47.54900
C  45.85500 0.39600 47.23000
C  47.22500 4.95500 47.76100
N  42.06300 4.01900 47.39200
C  41.66900 5.29300 47.50000
C  40.16800 5.35800 47.57900
C  39.72100 3.82600 47.63400
C  41.03500 3.08000 47.53100
C  38.89800 3.39900 48.93000
C  39.48300 6.08500 46.36600
C  39.82600 5.60000 44.94800
H  40.60200 6.59200 44.08600
N  43.59400 1.27100 47.59700
C  42.32200 0.79800 47.49500
C  42.37600 -0.55200 47.28000
C  43.77000 -0.97800 47.29900
C  44.46200 0.21600 47.45800
C  41.09200 -1.52800 47.16900
C  44.20700 -2.45900 47.25500
O  43.40700 -3.39200 47.16200
C  45.68700 -2.90200 47.22800
N  46.30900 2.70100 47.46100
C  46.70900 1.46900 47.35200
C  48.15500 1.33200 47.05300
C  48.71100 2.75800 47.34100
C  47.38600 3.55000 47.57400
C  48.81800 0.26300 47.85700
C  49.69300 3.32600 46.38200
C  49.06500 4.04800 45.20400
N  44.83000 5.20400 47.52400
C  46.09700 5.74400 47.72200
C  46.00600 7.24000 47.71800
C  44.61800 7.51400 47.69600
C  43.96200 6.24900 47.55500
C  47.09700 8.26100 48.09400
C  43.61900 8.51900 47.63700
O  43.79000 9.73100 47.66000
C  42.19600 7.78100 47.56900
C  41.34000 8.25500 48.74300
O  41.40900 7.71400 49.84100
O  40.47300 9.24200 48.37100
C  39.29500 9.36900 49.30400
H  40.20600 1.14100 47.50600
H  46.33100 -0.51400 46.85900
H  48.11000 5.57600 47.91100
H  39.96000 5.82400 48.54200
H  39.07800 3.60400 46.78200
H  39.63200 2.75600 49.41500
H  38.09100 2.74400 48.60000
H  38.63900 4.20000 49.62200
H  39.76100 7.13900 46.39500
H  38.42200 5.88300 46.50900
H  38.83900 5.34900 44.55800
H  40.41000 4.68000 44.98700
H  40.23100 -0.91900 46.89300
H  40.97900 -2.14000 48.06400
H  41.21700 -2.27300 46.38300
H  46.33400 -2.37100 47.92700
H  46.18400 -2.77500 46.26700
H  45.67900 -3.95800 47.50100
H  48.33500 1.23800 45.98200
H  49.24600 2.76800 48.29000
H  49.69200 0.60400 48.41100
H  49.02300 -0.56300 47.17700
H  48.14000 -0.14200 48.60900
H  50.24500 2.52100 45.89600
H  50.43800 3.94500 46.88200
H  49.07800 5.13400 45.29400
H  48.04200 3.69200 45.07600
H  49.70000 3.86800 44.33600
H  46.90000 9.16800 47.52300
H  48.06800 7.78000 47.97200
H  47.03900 8.43100 49.16900
H  41.63200 8.16200 46.71800
H  38.96400 8.38500 49.63700
H  38.44500 9.84700 48.81900
H  39.56900 9.90700 50.21200

