158

Mg 0.88200 7.83400 27.39200
C  1.58500 10.09500 30.11600
C  1.01200 5.35200 29.85200
C  0.60700 5.58600 25.00700
C  1.47000 10.39600 25.33300
N  1.20500 7.79800 29.74900
C  1.29000 8.83000 30.56800
C  1.17400 8.48500 32.03700
C  1.38000 6.92400 31.89500
C  1.19200 6.62800 30.42200
C  2.63700 6.34400 32.47800
C  -0.13900 8.77400 32.83100
C  -0.04400 8.86800 34.37700
H  1.09900 8.13200 35.09100
N  0.75900 5.73500 27.44000
C  0.75800 4.92200 28.48500
C  0.53400 3.53600 28.03500
C  0.36300 3.61700 26.62000
C  0.47300 5.00100 26.31100
C  0.48500 2.30800 29.03600
C  0.21900 2.55200 25.58100
O  0.17900 2.73700 24.37700
C  0.13000 1.15900 26.11700
N  1.52000 7.91300 25.39900
C  1.01800 6.87300 24.57300
C  1.03800 7.28200 23.13100
C  1.05900 8.83800 23.26900
C  1.34800 9.07000 24.79600
C  2.31300 6.77100 22.39600
C  -0.12700 9.62800 22.59200
C  -1.38400 9.79600 23.49500
N  1.44200 9.83100 27.62600
C  1.64200 10.80600 26.68500
C  1.95800 12.09300 27.25200
C  1.98600 11.82100 28.68200
C  1.72200 10.45400 28.79100
C  2.05100 13.42800 26.64000
C  2.19200 12.41500 29.98400
O  2.41300 13.53900 30.33300
C  1.83900 11.28100 30.98000
C  2.92500 11.23800 31.92700
O  4.08500 11.07000 31.64300
O  2.42700 11.46800 33.20000
C  3.40200 11.25700 34.24600
H  1.16700 4.45700 30.45800
H  0.25600 5.04400 24.12600
H  1.38700 11.26300 24.67500
H  2.03700 8.83600 32.60300
H  0.65600 6.39700 32.51700
H  3.34100 7.12200 32.77600
H  3.10000 5.76400 31.68000
H  2.37900 5.65200 33.27900
H  -0.96300 8.09000 32.62900
H  -0.51300 9.76000 32.55500
H  -0.94800 8.41500 34.78500
H  -0.17300 9.91300 34.65600
H  -0.17800 2.59600 29.85200
H  1.42800 2.11600 29.54800
H  0.24300 1.33400 28.61100
H  -0.65400 1.10000 26.87100
H  1.14700 0.91600 26.42400
H  -0.22400 0.53600 25.29600
H  0.04500 6.98000 22.79600
H  1.90600 9.21000 22.69300
H  2.90800 7.51200 21.86300
H  2.21700 6.03900 21.59500
H  2.96500 6.36200 23.16800
H  -0.35400 9.06800 21.68500
H  0.11000 10.62700 22.22700
H  -2.29300 9.74600 22.89500
H  -1.59600 10.80900 23.83800
H  -1.45100 9.20500 24.40800
H  2.92600 13.46200 25.99000
H  2.07000 14.27800 27.32300
H  1.19500 13.70800 26.02700
H  0.89300 11.54600 31.45200
H  4.16600 10.54200 33.94100
H  2.85400 10.97900 35.14500
H  3.92900 12.18600 34.46500
Mg 6.46200 54.06300 41.50100
C  5.94400 50.53600 41.16400
C  9.71500 53.43800 40.40300
C  6.93300 57.42100 41.12700
C  3.24100 54.45800 42.37600
N  7.66400 52.15600 40.84000
C  7.24500 50.86000 40.70700
C  8.35500 49.99200 40.21700
C  9.58700 50.84300 40.53100
C  8.98300 52.28100 40.57300
C  10.39300 50.66800 41.83000
C  8.34600 49.56000 38.73600
C  7.81500 50.56100 37.73300
H  6.81600 50.10900 36.63000
N  8.08500 55.25400 40.80400
C  9.31300 54.78000 40.45100
C  10.16900 55.94800 40.27600
C  9.45300 57.15100 40.53000
C  8.05700 56.64600 40.74000
C  11.73800 55.88100 40.06100
C  9.92300 58.54400 40.41800
O  11.14300 58.68300 40.21500
C  9.01600 59.66900 40.50000
N  5.26700 55.71900 41.62000
C  5.65800 56.97200 41.54900
C  4.59500 57.95800 41.99800
C  3.41000 56.98000 42.26400
C  3.99800 55.60000 42.10900
C  5.07800 58.91100 43.14300
C  2.05500 57.18600 41.45500
C  2.05800 56.45900 40.04500
N  4.87400 52.75900 41.71500
C  3.57100 53.09000 42.10600
C  2.78100 51.93900 42.31900
C  3.68400 50.86200 41.94000
C  4.93100 51.43700 41.58800
C  1.45800 51.76900 42.92800
C  3.79800 49.40900 41.83600
O  3.00800 48.55600 42.12400
C  5.29000 49.19100 41.43200
C  5.37200 48.40400 40.15900
O  5.12500 48.84300 39.03600
O  5.72800 47.15300 40.51900
C  5.61900 46.15500 39.39400
H  10.79400 53.35300 40.26000
H  6.99600 58.51100 41.08800
H  2.22200 54.67500 42.70400
H  8.33800 49.03400 40.73600
H  10.35300 50.78400 39.75800
H  9.87700 50.00100 42.52000
H  10.53000 51.63800 42.30800
H  11.39000 50.25000 41.68700
H  7.88200 48.57600 38.80300
H  9.41500 49.47300 38.53900
H  8.71100 50.86100 37.18900
H  7.44000 51.46700 38.20900
H  12.00500 56.41000 39.14700
H  12.17000 54.89700 39.87600
H  12.14600 56.21100 41.01600
H  9.49200 60.59200 40.16800
H  8.73300 59.87700 41.53200
H  8.16600 59.46500 39.84900
H  4.37500 58.64000 41.17600
H  3.23800 57.07100 43.33600
H  5.99700 58.53600 43.59300
H  4.19800 59.02000 43.77700
H  5.36400 59.88900 42.75700
H  1.94900 58.25500 41.27000
H  1.12100 56.97900 41.97800
H  2.29600 57.09300 39.19000
H  1.06100 56.08600 39.81400
H  2.66100 55.55200 39.99300
H  1.51800 51.44100 43.96500
H  0.80500 51.04100 42.44700
H  0.84300 52.66600 42.85000
H  5.90100 48.65600 42.15900
H  5.86300 45.16400 39.77800
H  6.29700 46.38200 38.57100
H  4.59200 46.11300 39.03200

