158

Mg 40.79300 8.98700 28.11100
C  42.36200 10.41000 30.80200
C  38.28300 7.92900 30.21600
C  39.46400 7.32700 25.51800
C  43.39500 10.04100 26.01700
N  40.48100 9.04600 30.26800
C  41.20700 9.81000 31.19400
C  40.57600 9.72200 32.60300
C  39.29200 8.93100 32.34000
C  39.30000 8.66600 30.83500
C  39.08700 7.63100 33.14900
C  40.26100 11.10400 33.25300
C  39.78500 11.02000 34.69900
H  40.65000 11.56700 35.85200
N  39.05000 7.76300 27.87500
C  38.25600 7.38400 28.91300
C  37.16500 6.59600 28.34400
C  37.45700 6.43000 26.93300
C  38.73300 7.13900 26.68200
C  36.08500 6.00000 29.17600
C  36.62900 5.78100 25.80500
O  37.09900 5.67700 24.65600
C  35.29200 5.32300 26.04800
N  41.48000 8.58400 26.17200
C  40.60800 8.00000 25.25700
C  41.16500 7.96600 23.80400
C  42.30800 9.00200 24.00600
C  42.44200 9.23300 25.45500
C  41.57900 6.57400 23.24900
C  42.09600 10.27200 23.10000
C  41.26800 11.36000 23.78300
N  42.56300 9.90700 28.27900
C  43.59300 10.32100 27.36200
C  44.64100 11.05200 28.04600
C  44.17600 10.95900 29.34400
C  42.88300 10.35400 29.49100
C  45.84300 11.64100 27.38800
C  44.52000 11.49500 30.65000
O  45.52000 12.09800 31.03000
C  43.38200 11.12600 31.64800
C  44.00000 10.32300 32.74100
O  44.10100 9.09500 32.89600
O  44.41500 11.11800 33.70100
C  44.90500 10.57800 35.03400
H  37.51400 7.62600 30.93000
H  39.23200 6.67700 24.67100
H  44.23900 10.39200 25.41800
H  41.29100 9.18400 33.22500
H  38.36300 9.47800 32.50100
H  38.90600 6.75100 32.53100
H  38.32300 7.67500 33.92500
H  40.04600 7.31400 33.55900
H  39.56700 11.62700 32.59500
H  41.23500 11.59300 33.28400
H  39.65500 9.94700 34.83600
H  38.89900 11.64400 34.80900
H  35.99500 4.91600 29.12000
H  35.15300 6.49200 28.89800
H  36.14500 6.23800 30.23800
H  35.58800 4.67500 26.87300
H  34.83000 4.80200 25.21000
H  34.74400 6.24400 26.24600
H  40.43100 8.42900 23.14400
H  43.24400 8.52700 23.71400
H  40.91800 6.26000 22.44100
H  41.54100 5.86300 24.07400
H  42.62200 6.50900 22.93700
H  41.72100 9.92000 22.13900
H  43.10600 10.67800 23.04500
H  41.94000 12.09100 24.23000
H  40.58100 10.87000 24.47300
H  40.69500 11.75900 22.94500
H  46.53100 11.99500 28.15500
H  45.52400 12.57200 26.91700
H  46.32500 10.89500 26.75600
H  42.94800 12.03500 32.06500
H  44.75300 9.50000 35.08700
H  44.30200 11.03300 35.82000
H  45.95300 10.85700 35.14000
Mg 6.79600 55.08400 42.56500
C  6.20000 51.49900 42.00600
C  9.50100 54.73800 40.61300
C  6.79400 58.38800 42.45200
C  3.33100 55.08400 43.70700
N  7.70100 53.20700 41.51000
C  7.25100 51.97400 41.30600
C  8.23200 51.20800 40.45500
C  9.49100 52.11800 40.37700
C  8.89000 53.45500 40.86100
C  10.66200 51.61200 41.18100
C  7.59400 50.89100 39.08600
C  8.05500 49.57300 38.39400
H  7.09600 49.13300 37.27400
N  8.13600 56.39500 41.91200
C  9.15500 56.08200 41.08100
C  9.83000 57.27000 40.75900
C  9.16300 58.34400 41.33200
C  7.97600 57.74000 41.95900
C  11.10300 57.27300 39.93400
C  9.56100 59.83400 41.29800
O  10.48500 60.25900 40.63400
C  8.87400 60.82900 42.26300
N  5.26200 56.51500 42.93800
C  5.57600 57.85400 42.95900
C  4.30000 58.69800 43.17600
C  3.24100 57.67000 43.51200
C  3.96800 56.32100 43.47300
C  4.53100 59.84300 44.24500
C  1.97400 57.64600 42.60000
C  0.65800 57.57600 43.33500
N  5.15900 53.65700 42.99700
C  3.91400 53.79700 43.54800
C  3.44500 52.55800 43.92000
C  4.27800 51.61500 43.33400
C  5.29300 52.32000 42.72600
C  2.15500 52.26000 44.67600
C  4.45800 50.20700 43.11200
O  3.82000 49.26900 43.49600
C  5.74000 50.08200 42.21000
C  5.37900 49.30600 40.99800
O  4.86200 49.66500 40.00300
O  5.77800 48.04900 41.24300
C  5.68200 47.06000 40.23500
H  10.32800 54.75200 39.90000
H  6.76700 59.47700 42.38000
H  2.27800 55.11500 43.99400
H  8.51300 50.23200 40.85200
H  9.90300 52.25200 39.37600
H  11.55800 51.55400 40.56300
H  10.48400 50.72100 41.78300
H  10.95300 52.37900 41.89800
H  7.95000 51.72700 38.48400
H  6.51200 51.01900 39.09900
H  8.15600 48.73100 39.07800
H  9.04400 49.71700 37.96100
H  10.72800 57.36500 38.91500
H  11.68500 56.35700 40.02900
H  11.69700 58.15000 40.19300
H  8.58300 60.39800 43.22000
H  7.96100 61.10800 41.73800
H  9.44700 61.70300 42.57300
H  4.00200 59.10900 42.21200
H  3.02000 57.91500 44.55100
H  5.41600 59.66600 44.85600
H  3.68400 60.01400 44.90900
H  4.51700 60.77000 43.67100
H  2.05800 56.79000 41.93100
H  1.94800 58.62900 42.12900
H  0.10400 58.45500 43.00400
H  0.61800 57.56800 44.42400
H  0.11100 56.67900 43.04400
H  2.12400 51.46200 45.41700
H  1.53700 51.90000 43.85300
H  1.61500 53.12900 45.05200
H  6.39600 49.47100 42.83000
H  6.61000 47.03800 39.66600
H  4.92800 47.29200 39.48200
H  5.50700 46.05100 40.60900

