158

Mg 35.74600 1.28300 29.70700
C  33.41500 2.51100 32.03800
C  38.18800 1.44400 32.24200
C  38.07800 0.76600 27.44300
C  33.35000 1.53300 27.25500
N  35.80900 1.84600 31.77900
C  34.70200 2.23700 32.59500
C  35.12100 2.44800 34.07900
C  36.67800 2.26400 34.07000
C  36.91000 1.82900 32.55600
C  37.41000 3.56300 34.35700
C  34.30300 1.46300 35.00400
C  33.75600 1.97700 36.32000
H  34.47100 3.16200 36.99000
N  37.75200 1.04700 29.82400
C  38.58100 1.02400 30.94900
C  39.96600 0.62000 30.59500
C  39.94300 0.42900 29.18200
C  38.54600 0.76800 28.75600
C  41.03700 0.21700 31.58900
C  41.06500 -0.03700 28.28000
O  40.94900 0.07300 27.05300
C  42.43500 -0.46700 28.82200
N  35.73100 1.28200 27.58600
C  36.77300 0.95500 26.88500
C  36.51800 0.84500 25.37400
C  34.94900 0.93700 25.37500
C  34.65900 1.24800 26.80500
C  37.32100 1.99700 24.61900
C  34.27200 -0.35600 24.85200
C  33.34500 -0.20500 23.70300
N  33.81800 1.85400 29.55900
C  32.89100 1.82100 28.55000
C  31.58100 2.27300 29.02200
C  31.73400 2.55400 30.41200
C  33.07400 2.24800 30.68000
C  30.31100 2.37300 28.22300
C  31.07700 3.07200 31.61100
O  29.91000 3.44200 31.83400
C  32.16200 3.04300 32.74200
C  32.15400 4.40500 33.32500
O  32.93500 5.28800 33.07700
O  31.18600 4.41100 34.30700
C  31.33000 5.32200 35.42200
H  38.95200 1.58100 33.01000
H  38.77800 0.64400 26.61300
H  32.62500 1.55900 26.43800
H  34.73500 3.45200 34.25800
H  37.08300 1.55900 34.79600
H  36.66700 4.26800 34.72800
H  37.98800 3.93800 33.51100
H  38.11100 3.26700 35.13800
H  34.88000 0.56900 35.24300
H  33.48400 1.09200 34.38800
H  33.58400 1.22400 37.08900
H  32.77400 2.36800 36.05300
H  41.45400 -0.75900 31.33800
H  40.64700 0.04400 32.59200
H  41.87200 0.90800 31.71000
H  42.77000 0.32900 29.48600
H  43.15900 -0.54500 28.01000
H  42.28900 -1.48400 29.18600
H  36.78800 -0.14700 25.01300
H  34.51900 1.71100 24.73900
H  36.59400 2.77200 24.37600
H  37.96600 1.61700 23.82600
H  37.97600 2.44300 25.36700
H  33.58600 -0.74200 25.60600
H  35.01300 -1.12100 24.62100
H  33.45800 -1.15300 23.17700
H  33.58400 0.59000 22.99700
H  32.30100 -0.31700 23.99600
H  29.71200 3.14400 28.70800
H  29.72300 1.46100 28.32800
H  30.50800 2.66300 27.19100
H  31.91100 2.35500 33.54900
H  30.43100 5.93600 35.37300
H  32.23800 5.90100 35.25400
H  31.43900 4.77200 36.35600
Mg 16.39900 52.45800 25.21800
C  18.09700 51.00100 27.98100
C  13.67100 52.94900 27.29700
C  14.55200 53.27800 22.54000
C  19.02600 51.21700 23.20600
N  15.96500 52.09000 27.33400
C  16.85900 51.53100 28.30400
C  16.24500 51.71200 29.77400
C  14.79900 52.23400 29.52300
C  14.80700 52.45300 27.96600
C  13.59000 51.33900 29.90200
C  17.14100 52.69400 30.66000
C  17.32800 52.27600 32.09600
H  16.25000 51.30600 32.61400
N  14.36600 53.12600 24.95600
C  13.39400 53.21800 25.95000
C  12.18600 53.81800 25.26300
C  12.44800 53.83900 23.85400
C  13.82800 53.40800 23.74500
C  10.94200 54.12500 26.01900
C  11.53400 54.29900 22.71900
O  11.87000 54.33700 21.55900
C  10.13400 54.79300 22.97500
N  16.70400 52.17400 23.24100
C  15.82800 52.67000 22.33200
C  16.37400 52.76600 20.95800
C  17.79100 52.06200 21.03600
C  17.90500 51.85800 22.58100
C  15.49900 52.39100 19.71700
C  18.98200 52.89500 20.34900
C  19.86300 52.12100 19.37200
N  18.19800 51.37100 25.45200
C  19.16700 50.92400 24.57900
C  20.15400 50.15000 25.21800
C  19.75900 50.14300 26.55900
C  18.57100 50.87300 26.65400
C  21.28200 49.29300 24.57400
C  20.11700 49.70400 27.89400
O  21.04000 49.02300 28.36600
C  19.11500 50.32100 28.81200
C  18.45000 49.16800 29.58700
O  17.50200 48.45200 29.17500
O  18.99400 49.05500 30.90200
C  18.65400 47.93600 31.69600
H  12.79200 53.20000 27.89400
H  14.06600 53.64000 21.63200
H  19.89800 50.96000 22.60100
H  16.26100 50.72300 30.23200
H  14.60500 53.22000 29.94700
H  13.96300 50.37300 30.24200
H  12.95700 51.23800 29.02000
H  13.03300 51.77500 30.73200
H  16.62300 53.64300 30.79300
H  18.07100 52.84000 30.11000
H  17.38800 53.17000 32.71800
H  18.26600 51.72300 32.14400
H  10.17500 53.49000 25.57600
H  10.78900 55.17100 25.75400
H  11.04800 54.09500 27.10300
H  10.16200 55.69900 23.58200
H  9.50500 53.96700 23.30300
H  9.68700 55.12200 22.03700
H  16.74400 53.78900 20.88600
H  17.87600 51.03800 20.67300
H  14.57300 51.90800 20.03000
H  15.99800 51.79500 18.95300
H  15.13000 53.27000 19.18900
H  19.57400 53.32300 21.15800
H  18.63400 53.78200 19.81900
H  19.77800 51.03900 19.46800
H  20.88700 52.43500 19.57300
H  19.67100 52.38700 18.33300
H  22.11700 49.94100 24.30600
H  21.10000 48.84900 23.59500
H  21.62600 48.65700 25.38900
H  19.70700 50.90800 29.51300
H  17.57000 47.84300 31.75800
H  19.00500 48.08100 32.71800
H  19.13300 47.05100 31.27800

