158

Mg 29.45400 58.00500 39.41400
C  26.93600 55.77200 38.23500
C  31.72500 55.43500 38.34500
C  31.87400 60.15000 40.01900
C  27.10800 60.42800 39.67600
N  29.29300 55.88000 38.34200
C  28.17500 55.20300 38.05500
C  28.44900 53.69600 37.65200
C  29.96900 53.62600 37.82200
C  30.37100 55.13500 38.13100
C  30.65400 52.65800 38.90000
C  28.04900 53.31500 36.22600
C  28.42800 54.36000 35.02200
H  27.32100 54.80800 34.02800
N  31.49500 57.89500 39.24300
C  32.25300 56.66800 38.86200
C  33.67200 57.02600 38.97400
C  33.75200 58.33800 39.56200
C  32.33700 58.87000 39.60800
C  34.70100 56.12200 38.45100
C  35.07200 59.01100 39.91600
O  36.12500 58.50900 39.77700
C  35.06800 60.34300 40.42900
N  29.54700 60.19800 39.41900
C  30.59500 60.80700 40.01100
C  30.24400 62.25000 40.42900
C  28.73900 62.06600 40.61600
C  28.39200 60.82900 39.83500
C  31.01300 62.91400 41.63900
C  28.01800 63.28500 40.01900
C  27.00700 64.02100 40.99800
N  27.35400 58.08400 39.11600
C  26.58500 59.14800 39.29200
C  25.20400 58.83000 39.07900
C  25.29600 57.46700 38.65900
C  26.63600 57.05500 38.66800
C  24.00400 59.78700 39.15000
C  24.44800 56.36200 38.28900
O  23.21400 56.27400 38.19100
C  25.50000 55.16100 38.09500
C  25.17000 54.06300 39.10000
O  25.73700 53.82600 40.13000
O  23.95900 53.42100 38.75300
C  23.44500 52.34100 39.57800
H  32.45900 54.62800 38.39300
H  32.66600 60.84000 40.31600
H  26.33800 61.16300 39.92000
H  27.96300 53.03300 38.36700
H  30.49000 53.45700 36.88000
H  29.98300 51.80200 38.97500
H  30.81700 53.11400 39.87600
H  31.61400 52.25600 38.57700
H  27.00500 53.01000 36.30500
H  28.71000 52.49100 35.95800
H  29.26600 53.89400 34.50300
H  28.81500 55.30500 35.40400
H  35.42700 55.93800 39.24200
H  35.14800 56.57300 37.56500
H  34.33700 55.11400 38.25300
H  36.05700 60.77100 40.59100
H  34.68300 60.19500 41.43800
H  34.62600 61.08700 39.76600
H  30.63700 62.87100 39.62400
H  28.55800 61.86100 41.67200
H  30.29200 63.32100 42.34800
H  31.79800 63.57300 41.26900
H  31.54400 62.15400 42.21100
H  27.42100 63.03800 39.14100
H  28.71200 64.08400 39.75600
H  26.98300 65.05200 40.64700
H  27.21800 64.02200 42.06700
H  26.01300 63.64900 40.74800
H  24.30200 60.80100 38.88400
H  23.56200 59.67000 40.14000
H  23.31300 59.44500 38.37900
H  25.41100 54.95500 37.02800
H  24.08600 51.46000 39.61100
H  22.46500 51.99400 39.24900
H  23.25600 52.50600 40.63800
Mg 34.98800 48.21800 26.24100
C  35.80100 46.18500 29.07900
C  33.71000 50.48500 28.38100
C  34.46800 50.25700 23.59000
C  35.95100 45.58500 24.22200
N  34.78900 48.32200 28.48700
C  35.22200 47.42600 29.45100
C  35.23800 48.03300 30.79200
C  34.13200 49.18300 30.59600
C  34.17600 49.35900 29.08100
C  32.71700 48.81400 31.15500
C  36.63900 48.52700 31.24500
C  36.86200 48.55100 32.73200
H  35.75300 48.85700 33.64700
N  34.22200 50.18400 26.01700
C  33.70300 50.91300 27.03000
C  33.41000 52.25800 26.46000
C  33.60900 52.18800 25.02500
C  34.13300 50.85900 24.80200
C  32.84700 53.35200 27.34500
C  33.43000 53.26200 23.99200
O  33.87500 53.14400 22.83000
C  32.78600 54.52500 24.47900
N  35.18000 48.01700 24.19900
C  34.88800 48.95200 23.26200
C  35.12800 48.35500 21.89300
C  35.64700 46.88400 22.10100
C  35.55900 46.79500 23.61300
C  33.90500 48.63500 20.97000
C  37.08200 46.65600 21.50100
C  37.16700 46.20800 20.05400
N  35.57100 46.16000 26.51900
C  36.06900 45.32600 25.59000
C  36.66700 44.16100 26.30900
C  36.56500 44.47700 27.63000
C  35.84300 45.70600 27.76400
C  37.22400 42.81500 25.74700
C  36.80500 43.97400 28.98700
O  37.27000 42.86700 29.36700
C  36.40000 45.12600 29.98600
C  35.46300 44.73700 31.06700
O  34.39000 44.18900 30.96200
O  35.95200 45.07900 32.30500
C  35.12300 44.53500 33.42200
H  33.15500 51.13000 29.06500
H  34.13700 50.80800 22.70700
H  36.23300 44.72400 23.61200
H  34.77000 47.36700 31.51700
H  34.49500 49.98600 31.23700
H  32.82200 47.77300 31.46000
H  31.98600 48.77100 30.34700
H  32.31700 49.56000 31.84200
H  36.83000 49.50000 30.79000
H  37.41100 47.97500 30.70800
H  37.66900 49.23800 32.98600
H  37.32000 47.60100 33.00900
H  32.73800 52.91600 28.33800
H  31.80900 53.60000 27.12500
H  33.50600 54.21500 27.44100
H  33.32000 54.83300 25.37800
H  31.76300 54.39400 24.83300
H  32.86900 55.24300 23.66400
H  35.86800 48.96700 21.37900
H  34.98100 46.14600 21.65500
H  33.75000 49.70500 20.83300
H  33.01900 48.14100 21.36900
H  34.07500 48.15600 20.00600
H  37.46100 45.85700 22.13900
H  37.72900 47.52900 21.58100
H  36.25200 46.40100 19.49500
H  37.39200 45.15300 20.20800
H  38.00700 46.71700 19.58100
H  37.75700 42.26800 26.52500
H  37.80500 42.92900 24.83200
H  36.33700 42.19600 25.61200
H  37.33500 45.48700 30.41600
H  34.89500 43.49800 33.17500
H  34.21300 45.13000 33.49700
H  35.76200 44.60000 34.30300

