158

Mg 41.14800 7.93200 29.81100
C  42.87900 9.39600 32.56400
C  38.82800 6.78200 32.03600
C  39.47500 6.75500 27.23600
C  43.90400 8.74700 27.77900
N  40.77200 8.29300 32.04800
C  41.60000 8.89400 32.91700
C  41.07100 8.68700 34.36700
C  39.66900 7.94400 34.13300
C  39.71500 7.62800 32.63000
C  39.35600 6.71700 35.02100
C  40.89000 10.10000 35.00000
C  39.85600 10.16700 36.16100
H  40.10200 11.00300 37.39800
N  39.36000 6.97200 29.59200
C  38.62400 6.52700 30.66100
C  37.44900 5.77400 30.18900
C  37.54700 5.76100 28.72300
C  38.85200 6.52800 28.46100
C  36.43700 5.22400 31.14600
C  36.66400 5.12100 27.67300
O  36.92200 5.16700 26.47500
C  35.33700 4.35800 28.14700
N  41.69600 7.57800 27.75700
C  40.73200 7.30800 26.92300
C  41.36300 7.16200 25.47500
C  42.67000 8.03400 25.58600
C  42.81700 8.06400 27.10800
C  41.63400 5.71300 25.22100
C  42.64100 9.43400 24.91100
C  41.36000 10.25200 25.20300
N  42.93800 8.81000 30.06100
C  43.94200 9.07000 29.15500
C  44.99800 9.86300 29.82100
C  44.68800 9.97700 31.13600
C  43.43700 9.32300 31.23400
C  46.22800 10.33500 29.09800
C  45.03300 10.42400 32.50100
O  45.99800 11.10500 32.88500
C  43.83400 10.07900 33.47500
C  44.41600 9.30700 34.62800
O  44.80500 8.14600 34.59400
O  44.32900 9.97900 35.79500
C  44.55400 9.34700 37.05400
H  38.13500 6.37900 32.77700
H  38.85700 6.45000 26.38900
H  44.74100 9.07600 27.16000
H  41.72200 8.06000 34.97700
H  38.81600 8.59300 34.33000
H  39.46200 5.72400 34.58500
H  38.30100 6.90000 35.22800
H  39.83500 6.68400 35.99900
H  40.76100 10.86800 34.23700
H  41.87800 10.21300 35.44600
H  39.80700 9.13800 36.51600
H  38.86800 10.51700 35.86200
H  35.63200 4.60600 30.74900
H  35.87000 6.07700 31.51800
H  36.88900 4.63800 31.94500
H  34.82400 3.98800 27.26000
H  34.68600 5.10600 28.60000
H  35.47700 3.49000 28.79100
H  40.70400 7.55500 24.70100
H  43.35400 7.41500 25.00500
H  41.14300 5.02800 25.91300
H  42.65900 5.37200 25.37100
H  41.47700 5.45400 24.17400
H  42.57400 9.23400 23.84200
H  43.57700 9.96200 25.09200
H  40.84700 9.72800 26.00800
H  40.69700 10.37200 24.34600
H  41.75700 11.21300 25.53100
H  45.84000 10.75100 28.16800
H  46.90600 9.50100 28.91700
H  46.70900 11.16500 29.61700
H  43.46100 11.04000 33.83000
H  43.97300 9.97800 37.72700
H  45.59300 9.52500 37.33300
H  44.37800 8.27200 37.10900
Mg 47.51700 34.73100 27.15400
C  45.48400 33.46500 29.57500
C  47.99200 37.57300 29.05600
C  48.84400 36.24600 24.56000
C  46.55400 32.10900 25.01000
N  46.91000 35.37200 29.11000
C  46.16400 34.63000 29.98000
C  46.15700 35.24100 31.38400
C  46.65600 36.72800 31.14000
C  47.23800 36.56900 29.73200
C  45.54200 37.82900 31.19900
C  47.16400 34.52100 32.31500
C  46.84300 34.38900 33.81000
H  47.72900 34.96200 34.77200
N  48.49300 36.60600 26.91400
C  48.55200 37.61300 27.76300
C  49.26500 38.77700 27.20700
C  49.66800 38.31500 25.90600
C  49.01100 37.00000 25.75200
C  49.59400 39.96600 27.95000
C  50.48600 39.00900 24.84100
O  50.63800 38.49800 23.76500
C  51.11400 40.39100 25.15600
N  47.74400 34.23900 25.13500
C  48.41400 35.02500 24.30800
C  48.48500 34.32300 22.92100
C  47.72400 33.02800 23.04000
C  47.32100 33.10800 24.49200
C  48.22600 35.21600 21.69400
C  48.49300 31.68300 22.66100
C  47.89300 30.80800 21.55000
N  46.29400 33.07400 27.25300
C  46.07200 32.05600 26.33100
C  45.21100 31.07700 26.97300
C  44.97700 31.60000 28.27100
C  45.60300 32.82000 28.37300
C  44.79800 29.73600 26.44400
C  44.38700 31.26400 29.47000
O  43.82100 30.30100 29.78600
C  44.47000 32.54300 30.35700
C  44.67400 32.26000 31.81000
O  45.53700 31.59800 32.33400
O  43.71500 32.95300 32.56400
C  43.41900 32.54100 33.93700
H  48.22300 38.39300 29.73900
H  49.16000 36.73500 23.63600
H  46.37400 31.26100 24.34600
H  45.15400 35.28900 31.80700
H  47.49400 36.95200 31.80100
H  45.44200 38.29200 30.21700
H  45.69700 38.52100 32.02700
H  44.53900 37.42600 31.33500
H  48.12800 35.03000 32.32600
H  47.31400 33.56300 31.81800
H  46.82000 33.34400 34.12100
H  45.84700 34.65800 34.16200
H  50.67700 40.01200 27.84000
H  49.41900 39.81800 29.01500
H  49.09900 40.80100 27.45400
H  50.32300 40.97800 25.62300
H  51.34400 40.83800 24.18800
H  51.96100 40.17600 25.80800
H  49.53200 34.08900 22.72600
H  46.78600 33.10200 22.49000
H  47.55200 34.72500 20.99100
H  49.08500 35.47000 21.07400
H  47.68100 36.10100 22.02200
H  48.51100 31.07700 23.56800
H  49.49600 31.97100 22.34800
H  48.71000 30.70200 20.83600
H  47.02300 31.32700 21.14800
H  47.60600 29.84000 21.96100
H  45.19000 29.00500 27.15100
H  45.45000 29.67000 25.57400
H  43.73500 29.51900 26.33800
H  43.50500 33.04500 30.28400
H  43.45300 31.45400 34.00700
H  42.39900 32.87700 34.12600
H  44.12900 32.98100 34.63800

