158

Mg 15.98800 -2.08400 28.68400
C  14.84500 0.06200 31.20900
C  18.08700 -3.52300 31.16700
C  17.81500 -3.60700 26.33200
C  14.20400 -0.25300 26.32000
N  16.43000 -1.69900 30.79500
C  15.81800 -0.82100 31.63300
C  16.23600 -1.01900 33.07100
C  17.38800 -1.94500 32.98400
C  17.29100 -2.46400 31.57400
C  18.85600 -1.37400 33.41000
C  15.08800 -1.37800 33.99400
C  15.06900 -0.81800 35.46100
H  16.34600 -0.12700 36.00300
N  17.65500 -3.48500 28.78100
C  18.33900 -3.94400 29.81400
C  19.33000 -4.97000 29.46000
C  19.15600 -5.12100 28.00000
C  18.21200 -4.05000 27.65000
C  20.17400 -5.71500 30.43600
C  19.88000 -6.13900 27.07000
O  19.60700 -6.02900 25.91500
C  20.92700 -7.10200 27.54400
N  15.96000 -1.98900 26.71000
C  16.83400 -2.72100 25.90200
C  16.63300 -2.36500 24.36000
C  15.40000 -1.40600 24.38900
C  15.14700 -1.23800 25.93000
C  17.90600 -1.81400 23.68900
C  14.18800 -1.98100 23.58700
C  13.49800 -0.93400 22.68600
N  14.62100 -0.51100 28.66200
C  13.95300 0.13700 27.66400
C  13.19600 1.24800 28.20800
C  13.44800 1.20400 29.60800
C  14.37100 0.18200 29.83900
C  12.39900 2.20300 27.41000
C  13.13200 1.85800 30.93400
O  12.36300 2.77700 31.17200
C  14.05400 1.13700 32.03400
C  14.86400 2.18000 32.78600
O  16.03200 2.42500 32.61200
O  14.04800 2.76400 33.72100
C  14.68300 3.86900 34.51700
H  18.69700 -3.94100 31.97100
H  18.28700 -4.10700 25.48300
H  13.72800 0.32200 25.52300
H  16.55700 -0.03300 33.40900
H  17.31600 -2.80000 33.65500
H  19.05500 -1.90500 34.34100
H  18.71300 -0.32500 33.67000
H  19.60700 -1.45600 32.62500
H  14.89200 -2.45000 33.97300
H  14.15000 -0.97600 33.61200
H  14.88700 -1.62600 36.16900
H  14.16900 -0.23000 35.64000
H  21.11500 -6.00700 29.96900
H  19.65100 -6.63100 30.70800
H  20.41000 -5.12500 31.32100
H  20.52500 -7.86000 28.21500
H  21.74600 -6.58000 28.03900
H  21.34000 -7.64800 26.69600
H  16.32900 -3.30700 23.90400
H  15.78400 -0.44000 24.06100
H  18.63100 -1.49300 24.43600
H  17.59900 -1.07000 22.95300
H  18.34300 -2.65600 23.15200
H  13.42100 -2.43400 24.21600
H  14.44200 -2.87600 23.01900
H  13.41300 -1.44000 21.72500
H  14.18700 -0.09100 22.62700
H  12.57300 -0.58600 23.14700
H  11.66500 1.74500 26.74800
H  13.00500 2.79700 26.72600
H  11.86600 2.72300 28.20600
H  13.29200 0.79200 32.73300
H  15.19200 4.55900 33.84500
H  15.35800 3.50600 35.29200
H  13.88200 4.35500 35.07500
Mg 16.52100 51.75500 25.91000
C  18.36100 50.27400 28.43300
C  14.18100 52.63600 28.12000
C  14.80000 53.21900 23.35800
C  19.02000 50.90600 23.67700
N  16.32300 51.40400 27.99700
C  17.15900 50.76500 28.89300
C  16.70200 50.92600 30.38800
C  15.21300 51.43000 30.16300
C  15.26800 51.91500 28.65600
C  14.10600 50.29500 30.35800
C  17.58400 51.97700 31.15200
C  17.99200 51.49900 32.58000
H  17.26200 52.22600 33.75800
N  14.69400 52.75000 25.73000
C  13.91300 52.97700 26.77900
C  12.79500 53.75900 26.34700
C  13.01400 54.12600 24.99200
C  14.15800 53.32000 24.60200
C  11.72900 54.20300 27.24700
C  12.26700 55.08200 24.07800
O  12.63300 55.38800 22.97200
C  11.07600 55.96000 24.59600
N  16.89800 51.96100 23.77700
C  15.99300 52.53500 22.96300
C  16.52100 52.69800 21.49300
C  17.88600 51.98200 21.54100
C  17.98400 51.60700 23.08400
C  15.58000 52.10600 20.39800
C  19.03500 52.87400 21.03400
C  19.48000 54.01900 21.97100
N  18.18600 50.64300 25.90800
C  19.17300 50.37700 24.97300
C  20.29100 49.63800 25.47200
C  19.98000 49.61700 26.85200
C  18.75900 50.24000 27.09100
C  21.52100 49.16600 24.83300
C  20.46100 49.09600 28.11500
O  21.44600 48.40700 28.39300
C  19.46800 49.61900 29.24800
C  19.06000 48.61300 30.23700
O  18.23500 47.72500 30.17600
O  19.93600 48.68500 31.36300
C  19.48600 47.78300 32.53500
H  13.45800 52.71700 28.93500
H  14.29700 53.66100 22.49500
H  19.81500 50.59100 22.99700
H  16.79600 49.98000 30.92200
H  14.97600 52.31700 30.75100
H  14.45800 49.49200 31.00500
H  13.84400 49.89200 29.38000
H  13.24800 50.77600 30.82800
H  16.90800 52.82600 31.25900
H  18.47700 52.08400 30.53600
H  19.06400 51.64200 32.72200
H  17.87800 50.43700 32.79600
H  12.00600 53.93900 28.26800
H  10.74100 53.82500 26.98200
H  11.62200 55.28500 27.17300
H  10.64300 56.50000 23.75500
H  11.41400 56.63600 25.38200
H  10.32800 55.24400 24.93700
H  16.59300 53.76100 21.26300
H  18.01100 51.08000 20.94200
H  16.09200 51.53600 19.62200
H  15.07500 52.93000 19.89500
H  14.83300 51.47600 20.88000
H  18.82400 53.32500 20.06400
H  19.90300 52.22600 20.91700
H  20.17500 53.59600 22.69600
H  18.64000 54.50900 22.46300
H  19.92900 54.80400 21.36300
H  22.25000 49.04200 25.63300
H  21.89100 49.90100 24.11800
H  21.19900 48.24100 24.35500
H  19.98300 50.44900 29.73100
H  19.82600 46.76400 32.35100
H  18.44300 47.76200 32.85100
H  20.02700 48.20300 33.38400

