158

Mg 49.46300 35.43000 26.77600
C  47.43900 33.98700 29.17200
C  49.22300 38.52500 28.53000
C  50.93900 37.05100 24.15300
C  49.06400 32.61900 24.91300
N  48.47000 36.18600 28.56800
C  47.84700 35.29900 29.49500
C  47.85300 35.99900 30.88600
C  48.12800 37.44000 30.60700
C  48.63600 37.37600 29.15200
C  46.93300 38.43500 30.82200
C  49.08600 35.43700 31.62500
C  49.09600 35.30900 33.18800
H  47.95300 36.14800 33.76200
N  50.10800 37.42800 26.52100
C  49.92500 38.48300 27.34600
C  50.72500 39.62900 26.79300
C  51.30300 39.17500 25.62200
C  50.77100 37.85600 25.41600
C  50.76800 40.91100 27.53500
C  52.26100 39.92800 24.67500
O  52.74400 39.39200 23.66300
C  52.82300 41.27800 25.07500
N  49.90800 34.91900 24.81700
C  50.65300 35.70400 23.92900
C  50.87600 35.03600 22.54700
C  50.58800 33.54000 22.97100
C  49.73600 33.64200 24.26300
C  50.12500 35.59400 21.43100
C  51.86900 32.56300 23.16500
C  51.76500 31.14700 22.62500
N  48.49400 33.61800 26.97500
C  48.48500 32.54400 26.14600
C  47.52400 31.60000 26.57600
C  47.12600 32.10600 27.85000
C  47.71700 33.34700 27.98800
C  47.12400 30.25600 26.00600
C  46.29800 31.82000 29.01700
O  45.64600 30.84200 29.36100
C  46.41000 33.09700 29.95100
C  46.81800 32.69700 31.28300
O  47.90900 32.39100 31.71800
O  45.67700 32.68600 32.00600
C  45.69400 32.32000 33.40500
H  49.29300 39.45300 29.10100
H  51.35200 37.42700 23.21500
H  48.92500 31.78300 24.22400
H  46.90900 35.85500 31.41000
H  48.92300 37.78800 31.26600
H  47.15000 38.91300 31.77700
H  45.97100 37.93500 30.70800
H  46.88300 39.21800 30.06500
H  49.96400 36.05800 31.44400
H  49.31000 34.46100 31.19300
H  50.05400 35.64100 33.58700
H  48.89300 34.29900 33.54400
H  50.68400 41.78800 26.89400
H  51.76900 40.84900 27.96300
H  50.01200 41.06100 28.30600
H  53.47200 41.64600 24.28000
H  53.35800 41.01000 25.98600
H  52.07100 42.06100 25.17600
H  51.94400 35.09400 22.33500
H  49.89800 33.14400 22.22600
H  49.62600 36.51700 21.72600
H  49.38200 34.89600 21.04500
H  50.81600 35.97400 20.67800
H  52.15200 32.41500 24.20700
H  52.57000 33.12700 22.55000
H  50.72800 30.92500 22.37400
H  52.17000 30.49400 23.39800
H  52.26400 31.07400 21.65800
H  47.96100 29.81400 25.46600
H  46.24900 30.51100 25.40900
H  46.83400 29.57600 26.80700
H  45.39900 33.49400 30.03700
H  45.64300 31.23300 33.34200
H  44.85800 32.73500 33.96700
H  46.65200 32.62200 33.82900
Mg 9.46400 47.97900 26.14200
C  7.51400 47.92500 29.08000
C  12.07400 49.30100 28.02800
C  11.18100 48.36500 23.33400
C  6.60900 47.42300 24.26800
N  9.67900 48.86700 28.27400
C  8.77800 48.52800 29.27700
C  9.45100 48.88700 30.68200
C  10.82600 49.56900 30.28700
C  10.88700 49.26500 28.79000
C  11.07300 51.04600 30.68700
C  9.58900 47.67900 31.57700
C  10.13900 47.87600 32.98100
H  9.78900 46.94100 34.11100
N  11.38300 48.56400 25.71900
C  12.35900 49.01200 26.64900
C  13.62100 49.16700 25.98900
C  13.32300 48.82500 24.61400
C  11.92800 48.65900 24.48200
C  14.91000 49.69800 26.63400
C  14.33400 48.87400 23.46600
O  14.05800 48.49200 22.33000
C  15.71300 49.14900 23.81200
N  8.94800 48.07500 24.16300
C  9.84000 48.14500 23.17900
C  9.20300 48.00500 21.78500
C  7.95100 47.25300 22.14300
C  7.78600 47.62100 23.61200
C  8.81600 49.38800 21.03400
C  8.01100 45.71700 21.80400
C  7.69300 44.61400 22.83100
N  7.48900 47.68200 26.49300
C  6.43200 47.40800 25.67700
C  5.18300 47.19800 26.44100
C  5.58700 47.34900 27.77800
C  6.98500 47.57300 27.77500
C  3.82800 46.89600 25.96800
C  5.12200 47.43400 29.14800
O  3.99800 47.39400 29.66400
C  6.43100 47.60100 30.01900
C  6.69500 46.26200 30.65700
O  6.99800 45.24200 30.11000
O  6.44100 46.42900 31.99300
C  6.74700 45.19200 32.75000
H  12.87500 49.66500 28.67500
H  11.78100 48.29800 22.42400
H  5.76600 47.07700 23.66600
H  8.92500 49.69700 31.18800
H  11.58400 48.94300 30.75700
H  11.78600 51.01100 31.51100
H  10.17800 51.54300 31.06100
H  11.56100 51.60300 29.88700
H  10.25700 46.96700 31.09200
H  8.57400 47.33400 31.77600
H  10.02900 48.92700 33.24700
H  11.20200 47.63700 32.95600
H  15.22700 50.62000 26.14700
H  15.77600 49.04500 26.53000
H  14.73800 49.81800 27.70400
H  16.29100 49.17500 22.88800
H  16.15100 48.48500 24.55800
H  15.69900 50.19000 24.13700
H  9.79700 47.47600 21.04100
H  7.13000 47.65800 21.55100
H  8.61600 50.12600 21.81000
H  7.89300 49.33700 20.45800
H  9.65200 49.74900 20.43400
H  9.05800 45.42400 21.72800
H  7.42600 45.56500 20.89700
H  7.06900 43.85900 22.35200
H  7.20000 45.08700 23.68100
H  8.65800 44.18600 23.10300
H  3.05100 47.23700 26.65200
H  3.80100 45.82700 25.75900
H  3.69500 47.43600 25.03000
H  6.18900 48.35300 30.77100
H  6.95100 45.65900 33.71300
H  7.72600 44.73100 32.61800
H  5.90300 44.50400 32.78300

