158

Mg 24.56900 -6.11400 46.25300
C  26.38400 -3.51300 44.69000
C  22.05900 -5.52600 44.32200
C  23.33500 -9.00200 47.50500
C  27.75000 -6.94300 47.91000
N  24.25500 -4.66700 44.61500
C  25.15500 -3.71800 44.11900
C  24.53100 -2.95800 42.93900
C  23.07000 -3.42000 42.93100
C  23.09700 -4.59600 44.01900
C  22.02300 -2.25200 43.04900
C  25.41500 -3.21200 41.61000
C  25.96000 -1.90100 40.99900
H  25.41000 -1.62100 39.64100
N  22.83000 -7.02200 46.11100
C  21.86500 -6.61100 45.25600
C  20.71900 -7.43000 45.39200
C  20.99000 -8.49500 46.31700
C  22.40600 -8.19100 46.73900
C  19.49700 -7.03400 44.64700
C  20.06700 -9.56400 46.74300
O  18.88800 -9.66200 46.31800
C  20.51500 -10.66900 47.75100
N  25.47000 -7.76300 47.40000
C  24.67700 -8.83500 47.82300
C  25.59000 -9.97700 48.35600
C  26.94200 -9.30400 48.63700
C  26.76200 -7.92100 47.91500
C  25.13400 -10.72400 49.58700
C  28.24200 -10.10300 48.22800
C  29.52400 -9.91000 49.12800
N  26.61900 -5.37900 46.34100
C  27.71500 -5.79500 47.11900
C  28.70300 -4.78200 47.06800
C  28.24600 -3.88400 46.06100
C  26.90500 -4.26500 45.69900
C  29.98500 -4.83600 47.79400
C  28.68000 -2.80400 45.25300
O  29.74700 -2.22400 45.26700
C  27.48900 -2.45600 44.29600
C  26.96700 -1.08500 44.52400
O  26.22800 -0.72700 45.41800
O  27.51100 -0.23500 43.50800
C  26.90700 1.13200 43.51200
H  21.26900 -5.14800 43.66900
H  22.90200 -9.94400 47.84800
H  28.68400 -7.27400 48.36700
H  24.67600 -1.91600 43.22400
H  22.65600 -3.84000 42.01500
H  22.52800 -1.35900 42.67900
H  21.71800 -2.13100 44.08800
H  21.11200 -2.50100 42.50500
H  24.76900 -3.69200 40.87500
H  26.19300 -3.96000 41.76700
H  27.04300 -1.88500 40.87900
H  25.76400 -0.98300 41.55200
H  18.77000 -7.84500 44.60500
H  19.74600 -6.67100 43.65000
H  19.03300 -6.23900 45.23000
H  19.68600 -11.27600 48.11500
H  21.03500 -10.09500 48.51800
H  21.19000 -11.37700 47.27000
H  25.75800 -10.73800 47.59400
H  27.03100 -8.97800 49.67300
H  24.10300 -10.84400 49.92000
H  25.68600 -10.26800 50.41000
H  25.46900 -11.75100 49.44600
H  28.54400 -9.85000 47.21200
H  28.00300 -11.16600 48.26000
H  30.34800 -9.68800 48.45000
H  29.74800 -10.83900 49.65200
H  29.42300 -9.09500 49.84600
H  30.69000 -5.57600 47.41600
H  29.72200 -5.08600 48.82200
H  30.30600 -3.79700 47.73200
H  27.75700 -2.64700 43.25700
H  27.44800 1.71400 42.76600
H  27.06500 1.56700 44.49900
H  25.83400 1.22100 43.34300
Mg 30.36900 58.07900 39.26100
C  27.47700 56.37700 38.15400
C  32.15900 55.14000 38.63800
C  33.22500 59.78900 39.55700
C  28.43500 60.89600 39.83900
N  29.91300 56.09600 38.21600
C  28.67300 55.61000 38.02100
C  28.69300 54.10200 37.68100
C  30.07400 53.66700 38.14400
C  30.79100 55.05400 38.44000
C  30.06000 52.77500 39.41200
C  28.45900 53.67000 36.19100
C  29.27000 54.49200 35.06200
H  28.36100 55.41800 34.27500
N  32.39800 57.54400 39.12700
C  32.95300 56.31700 38.85100
C  34.41300 56.35500 38.92700
C  34.76300 57.65800 39.22800
C  33.44800 58.41900 39.36800
C  35.25500 55.11500 38.60200
C  36.11200 58.13700 39.36500
O  37.07500 57.50200 38.89900
C  36.37600 59.44100 40.08600
N  30.70300 60.06400 39.68900
C  32.01300 60.50700 39.84100
C  32.00400 61.96900 40.05600
C  30.56600 62.27000 40.43400
C  29.82400 61.03100 39.93800
C  33.15900 62.51600 40.97200
C  29.83700 63.57400 39.89300
C  28.88900 64.11000 40.97600
N  28.36700 58.58200 39.12900
C  27.73300 59.74600 39.40900
C  26.30200 59.66900 38.96600
C  26.15300 58.36400 38.54700
C  27.41000 57.73800 38.63000
C  25.30700 60.82500 38.92500
C  25.25600 57.31900 37.99600
O  24.08200 57.46900 37.85400
C  26.00200 56.04200 37.82600
C  25.45800 54.90300 38.67000
O  25.64100 54.81100 39.83400
O  24.66700 54.00900 37.92800
C  24.18300 52.84400 38.55400
H  32.61300 54.14700 38.66400
H  34.11300 60.41900 39.46800
H  27.80300 61.74400 40.11200
H  27.88900 53.76200 38.33400
H  30.71800 53.16200 37.42300
H  30.89900 52.86800 40.10100
H  30.14100 51.76900 39.00100
H  29.09500 52.73700 39.91800
H  27.37700 53.75100 36.09000
H  28.73200 52.62900 36.01700
H  29.56300 53.71500 34.35600
H  30.13800 55.01600 35.46200
H  35.58700 55.14400 37.56400
H  34.76700 54.14800 38.72000
H  36.12200 54.93700 39.23900
H  35.68200 59.68700 40.89000
H  36.43000 60.27900 39.39100
H  37.29100 59.34500 40.67000
H  32.16200 62.38800 39.06200
H  30.64900 62.25200 41.52000
H  34.02900 62.74700 40.35800
H  33.44800 61.75900 41.70200
H  32.86700 63.41300 41.51800
H  29.32200 63.21400 39.00200
H  30.46500 64.40800 39.58100
H  29.20900 65.11000 41.26700
H  28.81100 63.47600 41.85900
H  27.89300 64.09700 40.53300
H  24.99200 61.25300 39.87600
H  24.42400 60.65200 38.31000
H  25.86800 61.59600 38.39700
H  26.05100 55.67300 36.80100
H  23.49100 53.23900 39.29800
H  25.12500 52.37700 38.83900
H  23.66800 52.20300 37.83800

