158

Mg 44.84200 3.72400 46.84400
C  42.90100 6.60500 46.41300
C  42.17300 1.82300 46.00900
C  47.01500 0.99400 46.45400
C  47.71400 5.88000 46.83300
N  42.76700 4.20700 46.34700
C  42.17400 5.46400 46.25100
C  40.70800 5.37900 45.84500
C  40.42100 3.78400 46.02100
C  41.85900 3.21500 46.22200
C  39.44700 3.43200 47.24600
C  40.51000 5.82100 44.35300
C  39.47200 6.87700 44.27600
H  39.63700 7.95200 43.16700
N  44.59300 1.59800 46.35400
C  43.35800 1.03600 46.07500
C  43.60600 -0.36600 45.87400
C  44.98200 -0.63700 46.20600
C  45.60700 0.68400 46.33800
C  42.55200 -1.27600 45.35900
C  45.58400 -2.03300 46.35100
O  44.83700 -3.00700 46.25500
C  46.94900 -2.24300 46.78800
N  47.01400 3.43200 46.66300
C  47.59200 2.21200 46.61600
C  49.12400 2.31200 46.81500
C  49.33700 3.89100 46.81000
C  47.91800 4.47400 46.69200
C  49.68600 1.48900 48.02900
C  50.32600 4.28100 45.69700
C  51.55500 5.15800 46.04100
N  45.23900 5.78900 46.78300
C  46.44000 6.49600 46.80400
C  46.18100 7.94800 46.79300
C  44.76200 8.04800 46.78000
C  44.28400 6.70300 46.72400
C  47.12400 9.00200 46.46900
C  43.62200 8.90500 46.65700
O  43.59500 10.09600 46.69900
C  42.38000 8.02000 46.37000
C  41.39300 8.28700 47.45200
O  41.44600 7.85000 48.60800
O  40.31400 8.94500 46.93500
C  39.17900 9.19300 47.79200
H  41.26700 1.24000 45.83100
H  47.72500 0.16500 46.44400
H  48.46000 6.66500 46.97300
H  39.99400 5.82900 46.53500
H  39.96400 3.30100 45.15700
H  39.86300 2.77900 48.01400
H  38.59900 2.94300 46.76700
H  39.04000 4.35300 47.66200
H  40.07700 4.96200 43.84000
H  41.46100 6.15000 43.93500
H  39.47900 7.38500 45.24100
H  38.50200 6.40600 44.11300
H  42.68500 -1.73300 44.37900
H  41.55700 -0.83700 45.42300
H  42.50800 -2.03900 46.13700
H  46.97700 -3.27300 47.14400
H  47.17100 -1.56000 47.60700
H  47.51100 -2.11700 45.86200
H  49.61500 1.97800 45.90100
H  49.76700 4.21500 47.75800
H  50.09000 0.55400 47.64200
H  48.73200 1.42600 48.55200
H  50.43700 2.13100 48.49100
H  49.74200 4.82000 44.95100
H  50.86300 3.42800 45.28100
H  51.99700 4.95500 47.01700
H  51.39300 6.22000 45.86100
H  52.34400 4.79200 45.38400
H  46.87600 9.89000 47.05100
H  46.91400 9.20400 45.41900
H  48.14000 8.67500 46.69100
H  41.92600 8.40700 45.45700
H  39.13500 10.28100 47.73600
H  39.32000 8.92600 48.83900
H  38.30700 8.66500 47.40500
Mg -2.32900 34.08100 27.72400
C  -4.16900 31.90100 29.98300
C  -1.02500 35.55100 30.48000
C  -1.13700 36.29600 25.65400
C  -3.92500 32.29200 25.15500
N  -2.70100 33.84600 29.97700
C  -3.40000 32.86800 30.59500
C  -3.06700 32.87900 32.12000
C  -2.14600 34.11000 32.30800
C  -1.87800 34.46200 30.85000
C  -2.74500 35.39500 33.02500
C  -2.38400 31.56500 32.70900
C  -2.98000 30.90600 33.98400
H  -2.13100 30.95200 35.26900
N  -1.32600 35.80300 28.04600
C  -0.72700 36.23300 29.19900
C  0.04000 37.37900 28.92300
C  0.05400 37.59500 27.49700
C  -0.82600 36.55900 26.99700
C  0.66400 38.11700 30.06900
C  0.75400 38.64200 26.69400
O  0.54400 38.75200 25.48600
C  1.59300 39.67500 27.38200
N  -2.29200 34.08300 25.64900
C  -1.78900 35.23500 25.01200
C  -2.04900 35.20600 23.49200
C  -2.81200 33.86400 23.32500
C  -3.09400 33.37800 24.74900
C  -2.73400 36.46000 22.90200
C  -2.10300 32.80000 22.36900
C  -1.60600 31.49900 23.01400
N  -3.73000 32.43200 27.53000
C  -4.22400 31.80500 26.43000
C  -5.06700 30.70000 26.70900
C  -5.07100 30.69700 28.11400
C  -4.26800 31.74800 28.58900
C  -5.72300 29.78000 25.67000
C  -5.52900 30.02400 29.31500
O  -6.13700 29.05400 29.42700
C  -4.95500 30.80900 30.61900
C  -6.04000 31.21100 31.55900
O  -6.97600 32.05500 31.39300
O  -5.86000 30.50700 32.73100
C  -6.79500 30.71400 33.83200
H  -0.41200 35.88700 31.31800
H  -0.83100 37.03800 24.91300
H  -4.44200 31.88400 24.28300
H  -4.04200 32.96600 32.59900
H  -1.31900 33.83800 32.96300
H  -3.66100 35.17600 33.57300
H  -3.04500 36.13300 32.28100
H  -2.03600 35.89700 33.68500
H  -1.34600 31.84000 32.90000
H  -2.33700 30.87500 31.86600
H  -3.39300 29.90800 33.83100
H  -3.84300 31.53600 34.20200
H  0.49800 39.19000 29.96700
H  1.74800 38.11300 29.95700
H  0.45300 37.81500 31.09500
H  0.91000 40.44400 27.74300
H  2.35600 40.03500 26.69200
H  2.15100 39.14600 28.15400
H  -1.03200 35.07700 23.12000
H  -3.82900 33.96200 22.94600
H  -3.04100 37.10600 23.72500
H  -3.64300 36.20400 22.35700
H  -2.05700 36.99600 22.23700
H  -1.23200 33.32000 21.97200
H  -2.78300 32.39000 21.62200
H  -2.34900 30.70200 23.01200
H  -1.29300 31.63700 24.04900
H  -0.74400 31.15000 22.44600
H  -5.09700 29.38900 24.86900
H  -6.59700 30.28000 25.25200
H  -6.03100 28.91600 26.25900
H  -4.24000 30.16800 31.13400
H  -6.31700 31.33400 34.59100
H  -6.88800 29.66400 34.10700
H  -7.81100 31.00500 33.56300

