158

Mg 49.82400 47.41400 42.42300
C  46.39300 47.97800 41.44900
C  49.75000 44.40400 40.72400
C  53.15900 47.16200 42.86000
C  49.99200 50.87100 43.33500
N  48.25200 46.38700 41.07300
C  46.88700 46.74900 40.96500
C  46.21300 45.68600 40.10700
C  47.30100 44.51100 40.00700
C  48.52100 45.17300 40.67100
C  46.85300 43.05500 40.47500
C  45.56000 46.18500 38.77700
C  44.03200 45.95500 38.63700
H  43.49600 45.81400 37.23700
N  51.24600 45.93800 41.97000
C  51.00300 44.73800 41.30500
C  52.14400 43.88600 41.33500
C  53.22200 44.78200 41.86400
C  52.57100 46.05600 42.26100
C  52.25500 42.48100 40.61700
C  54.64100 44.28900 41.92500
O  54.96100 43.16500 41.64500
C  55.63000 45.15600 42.55600
N  51.37900 48.93800 42.86800
C  52.64500 48.47900 43.19800
C  53.59200 49.75800 43.52200
C  52.53200 50.94000 43.72300
C  51.21600 50.21700 43.35700
C  54.50100 49.56100 44.82000
C  52.82300 52.21300 42.76700
C  54.11200 52.90700 42.95000
N  48.45600 49.08300 42.44100
C  48.70000 50.38800 42.91600
C  47.42700 51.11700 42.85100
C  46.41600 50.17600 42.46000
C  47.15500 48.96300 42.07500
C  47.32900 52.56700 43.18600
C  45.04100 50.02800 42.11600
O  44.10600 50.83100 42.13300
C  44.95500 48.60900 41.44700
C  44.00300 47.77000 42.30000
O  43.97600 47.77200 43.50900
O  43.24000 46.85800 41.56200
C  42.36900 45.88700 42.27600
H  49.68000 43.38500 40.33700
H  54.23900 47.19300 43.01800
H  50.05500 51.89200 43.71500
H  45.39800 45.23700 40.67400
H  47.53000 44.49100 38.94200
H  46.61800 42.42100 39.62000
H  45.96300 43.15500 41.09800
H  47.63100 42.71500 41.15800
H  46.04800 45.71400 37.92300
H  45.78900 47.24900 38.72800
H  43.41300 46.76000 39.03200
H  43.85400 45.02000 39.16900
H  51.36100 42.28800 40.02400
H  52.18000 41.66700 41.33800
H  53.19200 42.24600 40.11100
H  55.70100 45.94800 41.81000
H  56.59700 44.65500 42.61500
H  55.43800 45.46000 43.58500
H  54.14700 50.03100 42.62500
H  52.22200 51.14100 44.74800
H  54.58100 48.49000 45.01000
H  54.17200 50.08600 45.71700
H  55.46600 49.91800 44.46000
H  52.00000 52.91900 42.87700
H  52.67800 51.96100 41.71700
H  54.96100 52.31800 43.29600
H  53.98300 53.81500 43.53800
H  54.46400 53.13100 41.94300
H  47.59000 53.20200 42.33900
H  47.95600 52.92100 44.00500
H  46.30500 52.92100 43.30000
H  44.45600 48.80100 40.49700
H  43.01100 45.15600 42.76900
H  41.63800 45.42100 41.61500
H  41.75900 46.39300 43.02400
Mg -5.62100 24.32500 26.24900
C  -4.20600 25.95400 28.91400
C  -7.58100 22.47700 28.23000
C  -6.73300 22.52900 23.49400
C  -3.48000 26.12400 24.16400
N  -5.73700 24.24100 28.34800
C  -5.08200 25.03400 29.31800
C  -5.61000 24.65500 30.73900
C  -6.42800 23.31900 30.43500
C  -6.61300 23.33900 28.91700
C  -5.62800 22.01900 30.88600
C  -6.46700 25.81300 31.41400
C  -6.38400 26.02700 33.01300
H  -5.67500 24.94800 33.80500
N  -6.98700 22.71200 25.89300
C  -7.74000 22.19700 26.85300
C  -8.72600 21.31500 26.22100
C  -8.58200 21.36700 24.82000
C  -7.40000 22.21700 24.69200
C  -9.75700 20.47700 27.01700
C  -9.32700 20.64500 23.63500
O  -9.05300 20.76100 22.49900
C  -10.50100 19.67000 23.90000
N  -5.07400 24.24400 24.18300
C  -5.68100 23.39700 23.27600
C  -4.92800 23.33800 21.98700
C  -4.12200 24.66600 22.11800
C  -4.24800 25.10500 23.55200
C  -4.08400 22.09300 21.90100
C  -4.47800 25.78100 21.08700
C  -3.37400 26.62300 20.38800
N  -4.10500 25.76800 26.37900
C  -3.29500 26.39400 25.49600
C  -2.42300 27.33000 26.19700
C  -2.79200 27.20900 27.50900
C  -3.80300 26.22200 27.56500
C  -1.38400 28.10100 25.54800
C  -2.50700 27.71000 28.81600
O  -1.78300 28.63300 29.22400
C  -3.41900 26.87900 29.76800
C  -2.53100 26.08700 30.70600
O  -2.11800 24.96800 30.51300
O  -2.52000 26.77400 31.88200
C  -1.70400 26.09200 32.94300
H  -8.12100 21.83300 28.92600
H  -6.98200 21.95100 22.60100
H  -2.84400 26.70200 23.49100
H  -4.76700 24.35000 31.35900
H  -7.43200 23.18200 30.83600
H  -5.19500 21.57300 29.99100
H  -6.17700 21.27800 31.46800
H  -4.74500 22.28100 31.46800
H  -7.51900 25.62100 31.20400
H  -6.17600 26.77400 30.98900
H  -7.39100 26.20200 33.39400
H  -5.84400 26.95100 33.21700
H  -9.55200 19.41100 26.92100
H  -10.71400 20.65500 26.52600
H  -9.77700 20.60100 28.10000
H  -11.06300 19.34200 23.02500
H  -11.20500 20.12300 24.59800
H  -10.15900 18.75600 24.38400
H  -5.58900 23.31500 21.12100
H  -3.08300 24.37100 21.97500
H  -3.17200 22.44000 21.41500
H  -4.46900 21.26500 21.30500
H  -3.74200 21.74700 22.87600
H  -5.15200 26.50400 21.54700
H  -4.97600 25.32400 20.23300
H  -3.69400 26.89200 19.38200
H  -2.42400 26.09800 20.29600
H  -3.27000 27.55600 20.94200
H  -1.54100 29.17900 25.51900
H  -1.24700 27.76900 24.51800
H  -0.45700 27.80600 26.04000
H  -4.04400 27.59600 30.30100
H  -0.75700 26.63000 32.97200
H  -1.55200 25.02400 32.79200
H  -2.19900 26.11100 33.91400

