158

Mg -1.54200 17.22000 26.59000
C  -1.55800 14.85200 29.26600
C  -2.46500 19.51900 29.01600
C  -2.33200 19.30100 24.13800
C  -1.51600 14.65700 24.36400
N  -1.92600 17.20400 28.95800
C  -1.81900 16.11200 29.78800
C  -2.30300 16.47200 31.24400
C  -2.78600 17.95000 31.06400
C  -2.38800 18.27000 29.60500
C  -4.39400 18.06000 31.25800
C  -1.11900 16.23400 32.19000
C  -0.61300 17.40800 33.11400
H  0.29700 17.00500 34.26100
N  -2.11600 19.14100 26.62500
C  -2.35100 19.98300 27.71200
C  -2.65300 21.28300 27.24800
C  -2.56000 21.26900 25.87700
C  -2.35400 19.85500 25.49400
C  -2.82200 22.48100 28.29600
C  -2.72600 22.41500 24.84100
O  -2.57700 22.28100 23.63300
C  -3.05800 23.81200 25.34100
N  -1.71600 17.04400 24.58600
C  -2.14200 18.01500 23.75400
C  -2.45100 17.47800 22.33400
C  -1.59300 16.14500 22.41900
C  -1.49600 15.96000 23.88400
C  -3.92700 17.28600 21.91900
C  -0.12400 16.26000 21.77800
C  0.05700 15.56600 20.44100
N  -1.44400 15.23200 26.75700
C  -1.46500 14.31700 25.72500
C  -1.32800 12.99200 26.29100
C  -1.29800 13.18900 27.64200
C  -1.45200 14.50500 27.90000
C  -1.28200 11.64600 25.55500
C  -1.20800 12.44100 28.80100
O  -0.98100 11.24600 29.00000
C  -1.53300 13.41300 29.87500
C  -0.59000 13.29400 30.99700
O  0.61500 13.46700 30.96800
O  -1.25600 12.92800 32.15200
C  -0.45800 12.65200 33.34000
H  -2.76800 20.26700 29.75200
H  -2.61800 19.94700 23.30500
H  -1.36200 13.91600 23.57600
H  -3.17300 15.89000 31.54900
H  -2.16000 18.65300 31.61200
H  -4.87800 17.18200 31.68600
H  -4.78700 18.13900 30.24400
H  -4.77300 18.92100 31.80800
H  -0.22900 15.98800 31.61100
H  -1.40100 15.33000 32.73000
H  -1.47400 17.91900 33.54500
H  -0.18600 18.13100 32.41800
H  -2.40500 23.41800 27.92800
H  -2.39300 22.33900 29.28800
H  -3.89300 22.67000 28.37500
H  -3.96700 23.78000 25.94100
H  -3.34600 24.38500 24.45900
H  -2.17700 24.26700 25.79300
H  -2.12300 18.12200 21.51800
H  -2.06700 15.35000 21.84300
H  -4.42200 17.49600 22.86700
H  -4.14600 16.26100 21.62100
H  -4.26800 18.12100 21.30600
H  0.62400 15.82400 22.44000
H  0.11100 17.29500 21.53200
H  1.03400 15.79900 20.01800
H  -0.72500 15.80300 19.72000
H  0.05700 14.47700 20.49700
H  -0.54100 11.40000 24.79500
H  -2.25200 11.49300 25.08100
H  -1.29000 10.76100 26.19100
H  -2.48700 13.05300 30.25800
H  -0.34300 11.58200 33.51800
H  -0.91800 13.04300 34.24800
H  0.50100 13.16100 33.43800
Mg 26.24900 -0.64300 29.59700
C  28.00500 -0.85100 32.57000
C  23.38400 -0.53900 31.32100
C  24.54500 -0.60800 26.61700
C  29.11700 -1.40400 27.85200
N  25.72700 -0.74000 31.66900
C  26.64200 -0.64400 32.72100
C  25.86700 -0.36600 34.07400
C  24.40200 -0.47100 33.64800
C  24.48800 -0.62800 32.11900
C  23.45200 -1.57200 34.36500
C  26.29100 1.05500 34.66900
C  27.04200 1.12000 35.97800
H  26.55800 2.01800 37.11300
N  24.18800 -0.62900 29.05000
C  23.17300 -0.55100 29.93600
C  21.93100 -0.54000 29.18000
C  22.28500 -0.45800 27.85000
C  23.71500 -0.64500 27.75900
C  20.59700 -0.66700 29.87800
C  21.35000 -0.36400 26.68200
O  21.83400 -0.32700 25.52800
C  19.86200 -0.12600 26.86500
N  26.69400 -1.26700 27.52100
C  25.89800 -0.89600 26.50700
C  26.65000 -0.71000 25.13700
C  27.99100 -1.31100 25.51500
C  27.94600 -1.26700 27.06300
C  26.00200 -1.50700 23.97600
C  29.22900 -0.67600 24.88000
C  29.61300 0.72400 25.33400
N  28.20000 -1.06300 30.06100
C  29.30600 -1.27100 29.25400
C  30.48400 -1.48200 30.05900
C  30.07800 -1.25700 31.34800
C  28.65700 -1.07000 31.32100
C  31.81100 -1.97800 29.56700
C  30.46700 -1.16900 32.75400
O  31.58600 -1.37000 33.21800
C  29.16400 -0.79700 33.66100
C  29.11800 -1.85100 34.70900
O  28.87500 -3.07700 34.57600
O  29.38400 -1.27100 35.92100
C  29.58400 -2.21800 37.03500
H  22.47200 -0.21800 31.82900
H  24.16500 -0.48000 25.60100
H  30.01500 -1.70300 27.30600
H  26.12600 -1.21300 34.70900
H  23.85600 0.46200 33.78700
H  22.82600 -1.99600 33.58000
H  22.72200 -1.11200 35.03200
H  24.00800 -2.39600 34.81000
H  25.46200 1.76000 34.73700
H  26.97300 1.35300 33.87200
H  28.07700 1.38100 35.76000
H  26.95000 0.08200 36.29600
H  19.97700 -1.37900 29.33300
H  20.16300 0.32900 29.96700
H  20.63200 -1.05100 30.89800
H  19.23700 0.01800 25.98400
H  19.82800 0.68800 27.58800
H  19.43800 -0.91100 27.49100
H  26.76500 0.36400 24.99200
H  27.99700 -2.39100 25.36800
H  25.35200 -0.80800 23.45100
H  25.32700 -2.30100 24.29600
H  26.72600 -1.87000 23.24700
H  29.02600 -0.55500 23.81600
H  30.14800 -1.25800 24.94900
H  30.59500 0.54500 25.77100
H  28.89900 1.02600 26.10000
H  29.62000 1.44300 24.51400
H  31.84000 -2.11700 28.48700
H  31.89500 -2.97800 29.99300
H  32.58100 -1.35400 30.02100
H  29.23400 0.20000 34.09800
H  29.73600 -3.24800 36.71300
H  28.71100 -2.19800 37.68700
H  30.42900 -1.77000 37.55800

