158

Mg 1.51800 9.10200 26.78300
C  1.74200 11.34000 29.57100
C  1.70700 6.51400 29.00300
C  2.13200 7.02800 24.09400
C  1.78600 11.76000 24.64400
N  1.74800 8.98300 29.00600
C  1.45300 9.98300 29.84100
C  1.23600 9.43700 31.25400
C  1.53500 7.93900 31.16600
C  1.63300 7.77200 29.62700
C  2.79500 7.37000 31.90200
C  -0.26100 9.75500 31.68700
C  -0.47400 9.57500 33.20000
H  0.70700 9.01400 34.10900
N  1.76200 6.96300 26.54900
C  1.83500 6.15100 27.64900
C  1.99500 4.77700 27.12300
C  2.00800 4.84900 25.66500
C  1.96100 6.30000 25.35200
C  1.98900 3.52600 28.11300
C  1.98500 3.85700 24.53600
O  1.86700 4.16400 23.33500
C  2.20500 2.44500 24.87500
N  1.68200 9.32900 24.73700
C  1.98100 8.37500 23.84400
C  2.01500 8.94800 22.44200
C  1.41900 10.35100 22.65800
C  1.66600 10.47700 24.11300
C  3.47900 9.01500 21.86000
C  -0.14600 10.45200 22.32100
C  -0.46200 11.46900 21.18400
N  1.76900 11.18800 26.95700
C  1.89100 12.16000 25.99500
C  2.12000 13.44400 26.69100
C  2.08000 13.13800 28.09800
C  1.91000 11.74800 28.21000
C  2.38900 14.80800 26.03400
C  2.16800 13.67700 29.42400
O  2.51700 14.80000 29.64500
C  1.83100 12.52900 30.46700
C  2.93000 12.48100 31.44700
O  4.08700 12.37800 31.16200
O  2.45000 12.57200 32.69500
C  3.40300 12.44100 33.74000
H  1.73900 5.73700 29.77000
H  2.28400 6.52300 23.13800
H  1.71300 12.61000 23.96200
H  1.97500 9.95300 31.86800
H  0.67000 7.37200 31.51000
H  3.21500 7.89900 32.75800
H  3.63800 7.17600 31.23900
H  2.51600 6.42800 32.37400
H  -0.86000 9.12100 31.03400
H  -0.60400 10.76800 31.47900
H  -1.29200 8.86900 33.33800
H  -0.57200 10.58300 33.60200
H  2.70400 3.73300 28.90900
H  2.24700 2.57600 27.64700
H  1.01200 3.46800 28.59300
H  1.27300 2.10900 25.33000
H  2.90100 2.35000 25.70800
H  2.54200 1.87600 24.00900
H  1.39200 8.35300 21.77400
H  1.92300 11.13800 22.09600
H  3.85400 10.03800 21.85500
H  3.27300 8.64000 20.85700
H  4.17600 8.47500 22.50100
H  -0.71900 10.76100 23.19500
H  -0.38600 9.48800 21.87200
H  0.45500 11.37900 20.60100
H  -0.45200 12.50900 21.51100
H  -1.39300 11.36200 20.62700
H  1.56400 15.50000 26.20600
H  2.58200 14.74800 24.96300
H  3.40500 15.00500 26.37600
H  0.91700 12.81900 30.98600
H  4.16900 11.68300 33.57700
H  2.78300 12.16500 34.59200
H  3.74000 13.46400 33.90100
Mg 8.48300 48.10300 26.29300
C  6.15200 48.15700 28.96300
C  10.93800 48.66200 28.60500
C  10.71100 48.38300 23.78100
C  5.84000 47.59500 24.05300
N  8.53500 48.20600 28.58800
C  7.43800 48.16000 29.44500
C  7.94500 48.13100 30.86000
C  9.44300 48.66600 30.71500
C  9.72600 48.49000 29.21800
C  9.62800 50.10800 31.19800
C  7.84000 46.71700 31.62000
C  7.34000 46.90400 33.03200
H  8.02700 46.28800 34.31400
N  10.55700 48.45600 26.16500
C  11.39100 48.77100 27.25800
C  12.68900 49.15800 26.77100
C  12.66700 48.91700 25.38400
C  11.28200 48.53600 25.03200
C  13.77500 49.54800 27.73000
C  13.77300 48.94500 24.33700
O  13.61400 48.65800 23.12500
C  15.18700 49.18200 24.81700
N  8.33200 48.05000 24.19700
C  9.42100 48.13500 23.31200
C  9.01200 47.71800 21.86600
C  7.43400 47.48100 22.02000
C  7.17600 47.67400 23.52600
C  9.44900 48.70200 20.75500
C  6.96300 46.12300 21.46300
C  5.66900 46.12100 20.66300
N  6.46000 48.00600 26.35700
C  5.51500 47.82400 25.35000
C  4.22400 47.84000 25.89300
C  4.36900 47.96100 27.31000
C  5.78600 48.00800 27.56700
C  2.89800 47.65300 25.28100
C  3.63300 47.99500 28.62800
O  2.44700 47.85900 28.89300
C  4.80000 48.46900 29.67200
C  4.46900 47.84700 30.94500
O  4.55800 46.64900 31.18800
O  4.17600 48.69300 31.89700
C  3.77700 48.26300 33.20800
H  11.71200 48.90100 29.33800
H  11.38400 48.32700 22.92300
H  5.07600 47.20000 23.38100
H  7.48100 48.91300 31.46100
H  10.16200 48.16600 31.36400
H  8.72700 50.55500 31.61800
H  9.99500 50.76000 30.40500
H  10.37400 50.15300 31.99200
H  8.84200 46.28900 31.65600
H  7.11600 46.14400 31.04000
H  6.37400 46.40600 32.94300
H  7.27000 47.95300 33.32000
H  13.68700 48.81100 28.52800
H  13.47300 50.55900 28.00200
H  14.78400 49.49200 27.32100
H  15.42900 48.31200 25.42800
H  15.21400 50.16600 25.28400
H  15.92200 49.28100 24.01700
H  9.41100 46.72400 21.66400
H  6.86200 48.24200 21.49000
H  10.33100 49.29400 20.99900
H  8.63600 49.41300 20.60600
H  9.68400 48.21300 19.81000
H  6.69900 45.50800 22.32400
H  7.77800 45.74400 20.84700
H  5.29600 45.17000 20.28200
H  5.84300 46.79300 19.82300
H  4.86600 46.52200 21.28200
H  2.55200 48.66000 25.05000
H  2.19100 47.12700 25.92300
H  3.02400 47.23600 24.28200
H  4.83700 49.55800 29.69100
H  3.24300 49.14900 33.55000
H  4.69900 48.19700 33.78500
H  3.18600 47.35000 33.28700

