158

Mg 10.23900 46.74400 25.54500
C  7.96800 46.90000 28.18200
C  12.66800 48.08200 27.59200
C  12.28600 46.68500 22.94600
C  7.53300 46.22600 23.40000
N  10.33200 47.45700 27.62400
C  9.28300 47.21200 28.54600
C  9.79400 47.55200 29.95100
C  11.17800 48.24800 29.74400
C  11.46300 47.87200 28.28800
C  11.15600 49.87800 29.84200
C  9.73500 46.28200 30.92500
C  9.35300 46.55500 32.39200
H  9.65900 45.55800 33.42200
N  12.18900 47.21400 25.31200
C  13.00500 47.71800 26.30400
C  14.35800 47.96300 25.75500
C  14.33200 47.43000 24.38400
C  12.87900 47.14500 24.16800
C  15.50700 48.58600 26.57100
C  15.54900 47.20500 23.44100
O  15.45200 46.68700 22.36700
C  16.97100 47.53200 23.84600
N  10.00500 46.49100 23.38100
C  10.98200 46.43500 22.52000
C  10.41900 46.09500 21.06100
C  8.86500 45.79900 21.40200
C  8.81500 46.19700 22.85900
C  10.76700 47.22300 20.05100
C  8.40600 44.31100 20.98100
C  7.50400 44.34400 19.75000
N  8.19000 46.61200 25.64300
C  7.20900 46.47300 24.71400
C  5.89500 46.54100 25.33600
C  6.18100 46.65100 26.72900
C  7.53000 46.70600 26.85900
C  4.64200 46.43600 24.62600
C  5.57000 46.72900 28.04000
O  4.38100 46.77900 28.31800
C  6.73200 46.79400 29.01900
C  6.53600 45.50900 29.80200
O  6.89200 44.38800 29.49200
O  5.89300 45.73800 30.93600
C  5.55000 44.58300 31.77000
H  13.49000 48.43700 28.21700
H  13.04500 46.51200 22.18000
H  6.71700 46.10800 22.68400
H  9.02800 48.24700 30.29500
H  11.99200 47.78800 30.30400
H  11.58700 50.29500 28.93200
H  11.84800 50.15500 30.63700
H  10.15000 50.23900 30.05400
H  10.75700 45.91100 30.83600
H  9.04700 45.56600 30.47600
H  8.26500 46.60500 32.41200
H  9.78200 47.50500 32.71200
H  15.27900 48.91700 27.58400
H  15.81400 49.52900 26.11800
H  16.36200 47.91100 26.62100
H  17.74800 47.58400 23.08300
H  17.11800 46.78100 24.62300
H  16.95600 48.45700 24.42300
H  10.92100 45.17800 20.75300
H  8.17700 46.44400 20.85500
H  11.51700 46.86700 19.34500
H  11.13100 48.20200 20.36000
H  9.86300 47.34900 19.45500
H  7.87400 43.86800 21.82400
H  9.32500 43.72900 20.91100
H  8.13600 43.86100 19.00500
H  7.08700 45.31700 19.48800
H  6.62100 43.76000 20.01100
H  4.45800 45.41100 24.30300
H  4.60300 47.11500 23.77400
H  3.84800 46.76200 25.29700
H  6.69400 47.64200 29.70300
H  6.53200 44.37500 32.19300
H  5.25200 43.65600 31.28100
H  4.84000 44.91200 32.52900
Mg -12.06000 15.58200 41.58400
C  -8.97000 14.00900 41.01900
C  -10.71400 18.51500 40.25000
C  -15.15300 16.65400 41.13400
C  -13.26700 12.40400 42.56100
N  -10.21300 16.05500 40.42800
C  -9.02700 15.25500 40.40200
C  -7.84800 16.01200 39.81600
C  -8.36500 17.48500 39.70800
C  -9.89500 17.35300 40.19600
C  -7.68300 18.58700 40.48100
C  -7.25200 15.36700 38.48100
C  -5.66300 15.28000 38.47100
H  -4.91000 15.55400 37.20600
N  -12.88900 17.35700 40.85300
C  -12.15000 18.40900 40.32200
C  -13.06500 19.48100 40.06100
C  -14.36600 19.08500 40.39300
C  -14.20800 17.69100 40.80000
C  -12.53400 20.81800 39.47700
C  -15.63400 19.95100 40.41400
O  -15.62400 21.13000 40.03400
C  -16.98300 19.43500 40.90300
N  -13.95700 14.70600 41.98000
C  -15.08800 15.36100 41.58800
C  -16.30200 14.50500 41.71300
C  -15.70000 13.16100 42.14100
C  -14.22600 13.43900 42.23300
C  -17.32000 15.14300 42.68800
C  -16.00400 11.95000 41.22200
C  -16.15400 10.60300 41.92300
N  -11.29600 13.56800 41.92300
C  -11.85600 12.46500 42.40100
C  -10.91000 11.47300 42.54200
C  -9.61700 11.97800 42.16800
C  -9.97800 13.29800 41.68200
C  -11.25900 10.06900 42.95500
C  -8.19700 11.79400 41.93200
O  -7.46800 10.86800 42.15100
C  -7.78600 13.10600 41.11600
C  -6.67500 13.72800 41.90200
O  -6.86900 14.30500 42.96200
O  -5.40300 13.51100 41.32700
C  -4.24400 13.98800 42.04400
H  -10.25300 19.47000 39.98800
H  -16.16700 16.87300 40.79300
H  -13.70100 11.42300 42.76100
H  -7.12400 16.11800 40.62400
H  -8.41900 17.80300 38.66700
H  -7.26100 19.31200 39.78500
H  -6.92400 18.15200 41.13200
H  -8.40400 19.18900 41.03300
H  -7.52800 15.99900 37.63700
H  -7.68800 14.37900 38.33200
H  -5.40300 14.24500 38.69300
H  -5.22100 15.92200 39.23300
H  -13.39600 21.40800 39.16700
H  -11.75900 20.73500 38.71600
H  -12.17400 21.41400 40.31600
H  -17.83000 20.12100 40.91000
H  -16.91600 18.77500 41.76900
H  -17.08900 18.76300 40.05100
H  -16.69600 14.33200 40.71200
H  -15.74900 12.99000 43.21600
H  -16.84100 15.49200 43.60300
H  -18.03500 14.37400 42.98000
H  -17.79900 16.02000 42.25400
H  -15.22700 11.92800 40.45800
H  -16.95700 12.07800 40.70900
H  -16.44100 10.84600 42.94600
H  -15.16000 10.16400 42.00500
H  -16.90800 9.98400 41.43600
H  -10.35100 9.49000 42.79200
H  -12.12700 9.63900 42.45300
H  -11.43600 10.13400 44.02800
H  -7.28600 12.76400 40.20900
H  -4.28400 15.06200 42.22800
H  -3.42400 13.66900 41.40100
H  -4.21500 13.47700 43.00600

