158

Mg 8.78400 3.61500 27.48000
C  9.97200 2.13800 30.36000
C  7.15000 6.03700 29.30900
C  7.69200 5.07700 24.60500
C  10.16700 1.01300 25.61800
N  8.47900 3.94100 29.61900
C  9.16800 3.28300 30.59100
C  8.97700 4.03600 31.97100
C  7.94200 5.14300 31.63100
C  7.82000 5.03300 30.05300
C  6.60800 5.08100 32.43800
C  10.32400 4.55500 32.55300
C  10.62100 4.11600 34.02500
H  11.08700 5.15400 35.10900
N  7.52900 5.35800 27.00500
C  7.05900 6.21500 27.91800
C  6.48600 7.30300 27.20900
C  6.53400 7.07500 25.83300
C  7.19600 5.77500 25.75800
C  5.85000 8.46900 27.93600
C  5.99300 7.73900 24.63800
O  6.16100 7.25400 23.53300
C  5.38400 9.03100 24.75100
N  8.76400 2.98000 25.45400
C  8.47800 3.90800 24.52100
C  8.75000 3.40200 23.06200
C  9.48900 2.08000 23.38600
C  9.49800 1.98900 24.90100
C  7.55900 3.30400 22.12800
C  10.82200 1.79300 22.70100
C  10.78200 1.36400 21.21500
N  9.78700 1.82000 27.84600
C  10.32100 0.85400 26.95400
C  11.05500 -0.10700 27.67800
C  10.93600 0.35300 29.05100
C  10.11400 1.48300 29.05800
C  11.71600 -1.36100 27.18900
C  11.37300 0.13400 30.37000
O  12.10400 -0.68300 30.82000
C  10.77600 1.25600 31.31900
C  9.93500 0.61700 32.33200
O  9.08400 -0.27500 32.08300
O  10.38700 0.92000 33.60900
C  9.87000 0.09700 34.69800
H  6.84000 6.85900 29.95800
H  7.46200 5.50700 23.62800
H  10.71800 0.30000 25.00100
H  8.62200 3.28800 32.67900
H  8.35900 6.13900 31.77800
H  5.81500 4.55100 31.91000
H  6.22600 6.09100 32.58500
H  6.84600 4.67600 33.42100
H  10.22500 5.64000 32.57600
H  11.18100 4.27400 31.94100
H  11.40000 3.39600 33.77500
H  9.72400 3.55300 34.28200
H  5.79800 8.31600 29.01400
H  4.78100 8.50700 27.72700
H  6.09600 9.51200 27.73700
H  5.22200 9.51800 23.78900
H  6.04500 9.71900 25.27800
H  4.49500 8.92500 25.37200
H  9.46000 4.12800 22.66600
H  8.74700 1.33600 23.09600
H  6.62900 3.54400 22.64300
H  7.34900 2.26800 21.86300
H  7.77800 3.95700 21.28200
H  11.54400 1.13100 23.17900
H  11.29300 2.77000 22.59900
H  9.72500 1.25800 20.97400
H  11.26400 0.40700 21.01700
H  11.22300 2.08500 20.52700
H  12.26400 -1.12800 26.27600
H  10.97700 -2.13800 26.99200
H  12.35400 -1.78200 27.96600
H  11.56100 1.82600 31.81700
H  10.11900 -0.96000 34.79100
H  8.78800 0.18700 34.79400
H  10.18900 0.48500 35.66500
Mg 35.82900 0.79000 29.40900
C  33.55200 2.03400 31.97100
C  38.20500 0.65600 31.88100
C  38.06300 -0.09100 27.05900
C  33.51400 1.70900 26.98900
N  35.80600 0.98500 31.75800
C  34.82600 1.61300 32.50500
C  35.28300 1.70100 33.96900
C  36.84200 1.60600 33.84400
C  36.96500 1.08500 32.39700
C  37.52700 2.97100 34.11200
C  34.57400 0.68500 34.84900
C  34.38600 1.01200 36.36800
H  35.16400 2.21600 36.98300
N  37.80600 0.22300 29.48400
C  38.53900 0.17000 30.60200
C  39.82100 -0.38000 30.29500
C  39.85600 -0.54500 28.84700
C  38.50600 -0.18000 28.40400
C  40.89200 -0.63900 31.36600
C  40.95200 -1.15800 27.94800
O  40.87800 -1.25800 26.68900
C  42.20100 -1.73300 28.67000
N  35.92500 1.07200 27.35300
C  36.84900 0.53500 26.59100
C  36.50400 0.60100 25.01400
C  34.97200 1.00000 25.06700
C  34.81500 1.33600 26.56400
C  37.44400 1.58000 24.14200
C  34.03200 -0.22300 24.72400
C  32.81800 0.14700 23.87300
N  34.00900 1.63100 29.41000
C  33.18700 2.03700 28.37600
C  31.91100 2.55800 28.84800
C  32.08700 2.62600 30.23500
C  33.35300 2.11400 30.55200
C  30.66800 2.89600 28.16300
C  31.37600 2.90200 31.43000
O  30.21300 3.29000 31.55300
C  32.36100 2.66600 32.67500
C  32.60100 4.07600 33.21800
O  33.45600 4.82900 32.82000
O  31.62400 4.44100 34.11900
C  31.72700 5.62700 34.80900
H  38.83900 0.51400 32.75900
H  38.73100 -0.50100 26.29900
H  32.75700 1.96200 26.24400
H  35.07300 2.74300 34.21200
H  37.26500 0.83900 34.49300
H  38.15600 3.30000 33.28500
H  38.19200 2.77000 34.95200
H  36.94800 3.81900 34.47800
H  35.16300 -0.20600 34.63100
H  33.60100 0.44300 34.42100
H  34.59300 0.06200 36.86000
H  33.35100 1.35200 36.37300
H  41.72000 -0.01700 31.02500
H  41.35300 -1.62600 31.40800
H  40.80300 -0.40400 32.42600
H  42.78000 -0.86800 28.99200
H  42.74800 -2.41100 28.01400
H  41.81900 -2.21900 29.56800
H  36.67000 -0.41500 24.65800
H  34.80000 1.87200 24.43600
H  37.14000 2.60500 23.92800
H  37.58900 1.18100 23.13900
H  38.44700 1.76100 24.52900
H  33.66800 -0.53500 25.70300
H  34.59800 -0.98700 24.19100
H  33.02100 0.99500 23.21900
H  32.03000 0.49700 24.54000
H  32.48300 -0.68500 23.25300
H  29.90600 2.12600 28.03700
H  30.77300 3.41500 27.21100
H  30.17000 3.66700 28.75100
H  31.87500 1.97600 33.36400
H  31.07700 5.54000 35.67900
H  31.30900 6.48200 34.27800
H  32.71800 5.98700 35.08400

