158

Mg 35.47400 2.94100 30.49000
C  33.00400 3.92100 32.86600
C  37.85800 2.92600 32.82000
C  37.49500 2.43200 27.99300
C  32.80300 3.46000 27.99400
N  35.42400 3.42800 32.62900
C  34.29400 3.68800 33.39000
C  34.70600 3.64400 34.89200
C  36.28600 3.46500 34.85400
C  36.58200 3.30000 33.31600
C  37.04600 4.48200 35.61700
C  34.09200 2.33700 35.51600
C  33.37300 2.59100 36.85600
H  34.18400 3.45700 37.83700
N  37.47100 2.62300 30.40400
C  38.34800 2.53600 31.47300
C  39.59500 2.10000 31.02500
C  39.55400 2.06200 29.63200
C  38.14300 2.35000 29.26000
C  40.76700 1.99400 32.05600
C  40.57200 1.76000 28.57300
O  40.43200 1.82100 27.34500
C  41.90100 1.34100 29.06100
N  35.23000 3.02900 28.31500
C  36.20600 2.64100 27.56400
C  35.90300 2.74600 26.04600
C  34.30000 2.91500 26.04300
C  34.06700 3.12900 27.56500
C  36.60900 3.99100 25.40400
C  33.61700 1.61900 25.51000
C  32.27500 1.79800 24.81200
N  33.37100 3.51800 30.43700
C  32.43300 3.74300 29.37400
C  31.10200 4.20500 29.76700
C  31.29600 4.24000 31.19700
C  32.66800 3.86900 31.50400
C  29.90700 4.57600 28.96900
C  30.62000 4.44200 32.43300
O  29.41100 4.70200 32.60000
C  31.68900 4.17300 33.58600
C  31.75500 5.28100 34.56400
O  32.38100 6.35700 34.44100
O  30.94900 4.93000 35.62300
C  30.84600 5.91900 36.76200
H  38.58100 2.88700 33.63700
H  38.26200 2.17700 27.25800
H  32.04000 3.73800 27.26500
H  34.32800 4.50700 35.44100
H  36.57200 2.55700 35.38500
H  36.40600 5.12100 36.22600
H  37.64200 5.06100 34.91200
H  37.65500 3.91200 36.31800
H  34.83200 1.57400 35.75600
H  33.42200 1.88100 34.78700
H  33.01900 1.70100 37.37700
H  32.49900 3.19600 36.61200
H  40.47800 2.52600 32.96300
H  41.71600 2.43200 31.74700
H  40.88600 0.91300 32.13700
H  42.29600 2.22100 29.56800
H  42.54700 0.87200 28.32000
H  41.75500 0.60600 29.85300
H  36.19900 1.79600 25.60100
H  34.00300 3.76400 25.42500
H  36.46800 4.93800 25.92700
H  36.35400 4.11900 24.35200
H  37.67400 3.80000 25.53400
H  33.33700 0.97800 26.34700
H  34.17900 1.05600 24.76500
H  32.28100 2.71800 24.22800
H  31.39800 1.73900 25.45600
H  32.27600 1.10700 23.96900
H  29.35100 3.67000 28.72900
H  30.32200 5.08900 28.10100
H  29.33900 5.28800 29.56900
H  31.46700 3.28000 34.17000
H  30.37000 5.28400 37.51000
H  30.32200 6.86400 36.61700
H  31.89400 6.01700 37.04400
Mg -12.34700 16.73100 41.60200
C  -9.41700 14.79200 41.34200
C  -10.82300 19.25800 39.96700
C  -15.32000 18.15300 41.22900
C  -13.93900 13.62300 42.63700
N  -10.44600 16.94000 40.53300
C  -9.38800 16.08400 40.73400
C  -8.10400 16.66500 40.00400
C  -8.54000 18.11200 39.68400
C  -10.02000 18.11500 40.19100
C  -7.65800 19.27600 40.26100
C  -7.62500 15.84900 38.79500
C  -6.13700 16.16100 38.34600
H  -6.03000 16.55700 36.87500
N  -13.00200 18.58000 40.91900
C  -12.21500 19.49100 40.24500
C  -12.93400 20.66000 39.93100
C  -14.27400 20.37400 40.31500
C  -14.21800 19.01700 40.87400
C  -12.38100 21.97000 39.41200
C  -15.48300 21.29100 40.14200
O  -15.39200 22.45700 39.78600
C  -16.81200 20.81900 40.60100
N  -14.26800 15.91600 41.92100
C  -15.33700 16.81200 41.76200
C  -16.70300 16.11700 41.87500
C  -16.26500 14.72500 42.22900
C  -14.72700 14.72900 42.24500
C  -17.52900 16.87900 43.00400
C  -16.90100 13.59100 41.38100
C  -17.99500 12.80600 42.11500
N  -11.80300 14.63000 42.04300
C  -12.52200 13.54900 42.43600
C  -11.69500 12.39800 42.57600
C  -10.40000 12.84100 42.19800
C  -10.51200 14.23300 41.88500
C  -12.13100 10.99400 43.12200
C  -9.06600 12.46100 42.02400
O  -8.55000 11.41500 42.23600
C  -8.31800 13.65000 41.42900
C  -7.12900 14.03200 42.23400
O  -7.13900 14.42100 43.42300
O  -5.92700 13.85800 41.46900
C  -4.70200 14.30700 42.17800
H  -10.31200 20.12300 39.53800
H  -16.32700 18.44400 40.92300
H  -14.43800 12.66500 42.79800
H  -7.20600 16.64400 40.62200
H  -8.70000 18.29500 38.62100
H  -6.74400 18.87100 40.69500
H  -8.06800 19.77500 41.13800
H  -7.36800 20.03200 39.53100
H  -8.11900 16.11100 37.85900
H  -7.79500 14.78400 38.94800
H  -5.53900 15.26500 38.51000
H  -5.65400 16.82500 39.06400
H  -13.08800 22.49600 38.77100
H  -11.49000 21.68300 38.85500
H  -12.12700 22.67600 40.20200
H  -16.62000 20.54000 41.63700
H  -17.10100 19.96300 39.99200
H  -17.71900 21.41300 40.70800
H  -17.17900 16.16400 40.89600
H  -16.47800 14.56400 43.28600
H  -17.82600 16.21300 43.81400
H  -18.42900 17.11100 42.43300
H  -17.07800 17.74700 43.48300
H  -16.06000 12.91400 41.22900
H  -17.31400 13.89400 40.41800
H  -17.67300 11.82100 42.45400
H  -18.95300 12.74400 41.59800
H  -18.38600 13.27700 43.01600
H  -11.74500 10.28000 42.39400
H  -13.21500 10.97300 43.22900
H  -11.61600 10.78100 44.05900
H  -7.98400 13.22600 40.48200
H  -4.31700 13.46700 42.75600
H  -4.78800 15.23500 42.74200
H  -3.98000 14.47700 41.38000

