158

Mg 44.65100 3.05100 47.20600
C  42.26800 5.60400 46.80400
C  41.95300 0.84000 47.21400
C  46.72100 0.42000 46.76500
C  47.19700 5.23600 46.71200
N  42.30400 3.24200 46.79900
C  41.57800 4.41100 46.82500
C  40.10500 4.20100 46.77200
C  40.03900 2.65400 47.06900
C  41.48800 2.17900 47.09700
C  39.24700 2.30600 48.34500
C  39.62700 4.47600 45.33600
C  38.37100 5.43200 45.27200
H  37.83900 5.59700 43.76300
N  44.39000 0.87600 46.94100
C  43.22500 0.21500 47.04500
C  43.48400 -1.21600 46.92200
C  44.89300 -1.37000 46.65000
C  45.40700 0.03800 46.78600
C  42.36200 -2.26600 47.02000
C  45.60100 -2.68400 46.30700
O  45.03600 -3.76100 46.39300
C  47.01100 -2.73000 45.78100
N  46.68000 2.85700 46.67000
C  47.36900 1.68700 46.69700
C  48.87800 1.83100 46.66400
C  49.00100 3.37800 46.32600
C  47.52800 3.89900 46.54800
C  49.66100 1.25200 47.85500
C  49.56800 3.80000 44.95400
C  51.05700 3.55000 44.69200
N  44.81600 5.03200 46.79400
C  45.88900 5.79700 46.61600
C  45.50400 7.18500 46.50000
C  44.08100 7.10100 46.53200
C  43.69200 5.78900 46.68700
C  46.39300 8.40000 46.42100
C  42.91700 7.89300 46.58900
O  42.92900 9.07600 46.59600
C  41.71800 6.99600 46.68800
C  40.88700 7.30700 47.89100
O  40.90800 6.71700 49.00800
O  39.93800 8.40100 47.57600
C  38.91800 8.66800 48.62000
H  41.15100 0.11900 47.38900
H  47.52000 -0.32500 46.77200
H  48.02900 5.94000 46.63900
H  39.58000 4.78500 47.52800
H  39.51100 2.20400 46.22800
H  38.90700 3.21700 48.83900
H  39.82800 1.72800 49.06300
H  38.37900 1.80100 47.92200
H  39.48000 3.58300 44.72900
H  40.25000 5.08900 44.68500
H  38.70200 6.33600 45.78400
H  37.60200 4.89700 45.82900
H  42.68000 -3.14800 46.46400
H  41.53800 -1.67400 46.62100
H  42.08400 -2.39000 48.06700
H  47.80800 -2.55500 46.50300
H  47.10000 -1.89900 45.08100
H  47.20400 -3.68100 45.28400
H  49.17800 1.28000 45.77300
H  49.69500 3.77100 47.06900
H  49.03000 0.93100 48.68400
H  50.39700 1.91600 48.30900
H  50.12900 0.37900 47.39800
H  49.17700 4.79900 44.76200
H  48.93900 3.25800 44.24800
H  51.41800 4.41500 44.13500
H  51.18800 2.61100 44.15400
H  51.53100 3.42600 45.66600
H  47.32400 8.37800 46.98700
H  45.80700 9.25500 46.75800
H  46.65800 8.51500 45.36900
H  40.98000 7.12500 45.89600
H  37.99100 8.40800 48.10900
H  39.00100 9.70300 48.95300
H  38.99100 8.04600 49.51300
Mg 35.71500 48.97000 25.43000
C  35.90700 46.89200 28.30600
C  34.38000 51.39400 27.30400
C  34.91400 50.55700 22.59200
C  36.91900 46.11000 23.51900
N  35.33200 49.12500 27.58000
C  35.48800 48.22900 28.50400
C  35.15100 48.79000 29.93800
C  34.45900 50.15700 29.57600
C  34.80600 50.27200 28.07600
C  32.98400 50.21900 29.95900
C  36.52600 48.82300 30.62400
C  36.49300 48.33900 32.08300
H  35.14900 48.29000 32.88900
N  34.89100 50.73200 25.04000
C  34.49300 51.66300 25.95200
C  34.14500 52.95300 25.32700
C  34.25300 52.67200 23.96500
C  34.68000 51.24400 23.82600
C  33.98900 54.24400 26.11400
C  34.06400 53.65300 22.74600
O  34.21900 53.34800 21.58400
C  33.75600 55.07700 23.02100
N  35.87200 48.38500 23.35800
C  35.50700 49.25600 22.38400
C  35.84100 48.71300 20.99100
C  36.66600 47.40800 21.26200
C  36.49400 47.33100 22.84300
C  34.52900 48.45700 20.17200
C  38.16400 47.48300 20.76900
C  39.22800 47.87300 21.83100
N  36.26100 46.91800 25.73300
C  36.67600 45.94900 24.90400
C  36.87800 44.70800 25.66700
C  36.65300 45.06400 27.02700
C  36.27300 46.42500 26.98600
C  37.43300 43.41100 25.22200
C  36.63000 44.55600 28.31500
O  36.96400 43.41100 28.75800
C  36.13500 45.69200 29.25900
C  34.84300 45.27600 29.84000
O  33.73400 45.41000 29.32900
O  35.03500 44.67900 31.09300
C  33.82000 44.22900 31.79600
H  33.86200 52.12200 27.93300
H  34.90100 51.08100 21.63400
H  37.18300 45.13600 23.10200
H  34.51200 48.15000 30.54600
H  34.93400 50.96700 30.12900
H  32.41300 50.42300 29.05300
H  32.79600 50.84300 30.83300
H  32.61100 49.23400 30.24000
H  36.71700 49.88100 30.80700
H  37.37500 48.47300 30.03700
H  37.10100 49.04500 32.64800
H  36.87300 47.31800 32.10400
H  33.70600 54.07400 27.15200
H  33.23700 54.89900 25.67400
H  35.01000 54.62100 26.05100
H  32.87200 55.27600 23.62700
H  33.54000 55.55500 22.06500
H  34.59200 55.60100 23.48400
H  36.55800 49.31700 20.43400
H  36.28600 46.48200 20.83100
H  34.28300 49.40900 19.70200
H  33.69200 48.20200 20.82100
H  34.57900 47.64200 19.44900
H  38.32000 48.16400 19.93300
H  38.37400 46.48700 20.37900
H  39.78000 48.61100 21.24900
H  39.81400 46.96200 21.95000
H  39.08100 48.31900 22.81500
H  38.28900 43.57700 24.56800
H  36.55700 43.01400 24.70900
H  37.70600 42.71700 26.01700
H  36.86600 45.85000 30.05200
H  33.47400 43.42000 31.15300
H  33.05200 44.98900 31.93900
H  34.13000 43.80500 32.75100

