158

Mg 44.25500 5.01800 47.63300
C  42.25100 7.64100 46.78100
C  41.42100 2.88700 47.29200
C  46.31800 2.30500 47.40900
C  47.08100 7.15400 47.30600
N  42.07600 5.29900 47.16800
C  41.52600 6.48000 46.80000
C  40.03100 6.36600 46.51700
C  39.72300 4.90400 46.92700
C  41.20900 4.31000 47.07600
C  38.77600 4.67600 48.12100
C  39.62300 6.54800 44.98100
C  38.78100 7.84900 44.70800
H  38.70000 8.47400 43.29900
N  43.93100 2.97000 47.44100
C  42.75600 2.29000 47.39500
C  43.03300 0.85300 47.17500
C  44.40700 0.70100 47.16900
C  44.93000 1.99900 47.37300
C  41.99100 -0.17100 46.93800
C  45.17100 -0.69100 46.95400
O  44.49600 -1.72100 46.63800
C  46.64300 -0.85500 47.09600
N  46.38400 4.76700 47.38600
C  46.97500 3.54600 47.46000
C  48.51900 3.69100 47.63500
C  48.63200 5.20500 47.95800
C  47.29500 5.78700 47.58400
C  49.29700 2.81700 48.65200
C  49.88600 5.86100 47.30700
C  50.67000 7.03300 47.99600
N  44.65000 6.96200 47.29200
C  45.82300 7.72800 47.18300
C  45.51900 9.08700 46.88700
C  44.11900 9.10800 46.70700
C  43.67600 7.80400 46.92500
C  46.48800 10.21900 46.84700
C  43.03800 9.99600 46.53400
O  42.85400 11.17200 46.36600
C  41.74100 9.09000 46.62700
C  40.81000 9.54500 47.71800
O  40.63700 9.01600 48.83200
O  40.01000 10.58700 47.23100
C  39.06400 11.05900 48.27000
H  40.56900 2.26000 47.02300
H  47.07500 1.51900 47.42500
H  47.93300 7.83800 47.32100
H  39.53300 7.17500 47.05100
H  39.27100 4.27900 46.15700
H  38.27800 5.55700 48.52800
H  39.43300 4.28700 48.89800
H  38.05500 3.89700 47.87600
H  39.12800 5.69300 44.51900
H  40.54000 6.61500 44.39500
H  39.29400 8.62700 45.27200
H  37.81100 7.73900 45.19300
H  42.00200 -0.88100 47.76500
H  42.21000 -0.81000 46.08100
H  41.01500 0.27700 46.75200
H  47.28900 -0.45400 46.31600
H  46.81700 -1.92700 47.18700
H  46.98200 -0.37100 48.01200
H  48.83300 3.52100 46.60500
H  48.78000 5.26900 49.03600
H  49.69800 1.97300 48.09000
H  48.58500 2.38900 49.35800
H  50.08500 3.36300 49.17000
H  49.68600 6.07000 46.25600
H  50.54500 4.99300 47.29600
H  50.99400 7.74500 47.23700
H  51.55800 6.62900 48.48200
H  50.00600 7.54100 48.69600
H  46.95900 10.31200 45.86800
H  47.36800 10.05800 47.47000
H  46.05800 11.09400 47.33500
H  41.29700 9.15700 45.63300
H  38.72100 12.05300 47.98200
H  39.49000 11.19400 49.26400
H  38.22900 10.36200 48.34300
Mg 6.57200 54.24300 41.36800
C  5.89000 50.89100 40.60200
C  9.58100 53.89800 39.79500
C  6.68700 57.65500 41.33900
C  3.24100 54.50200 42.67600
N  7.59200 52.59600 40.29300
C  7.10400 51.35800 40.04200
C  8.19900 50.61300 39.25200
C  9.50500 51.37000 39.48500
C  8.87600 52.72300 39.93000
C  10.40400 50.86300 40.68500
C  7.79900 50.59900 37.73700
C  8.09300 49.25700 37.02700
H  7.36400 49.20100 35.68900
N  8.02400 55.61100 40.83600
C  9.20600 55.22200 40.18600
C  9.95600 56.47400 40.09900
C  9.04500 57.56200 40.36200
C  7.87100 56.95400 40.87000
C  11.40600 56.49000 39.55700
C  9.40700 59.03800 40.11700
O  10.54600 59.37200 39.78900
C  8.41000 60.10900 40.17200
N  5.12000 55.85400 42.12100
C  5.46900 57.12400 41.89400
C  4.34600 58.05500 42.26400
C  3.28400 57.10500 42.81200
C  3.84700 55.73100 42.46700
C  4.83600 59.13400 43.26900
C  1.87800 57.31900 42.27300
C  0.73700 56.97600 43.18300
N  4.93500 53.01300 41.57100
C  3.69700 53.23100 42.20200
C  3.02500 51.97500 42.43200
C  3.85900 51.02800 41.74800
C  4.97100 51.65800 41.27900
C  1.84900 51.72800 43.25600
C  4.05600 49.60100 41.47200
O  3.30700 48.68100 41.78400
C  5.37800 49.43300 40.52900
C  4.90900 48.93400 39.13600
O  4.25700 49.65100 38.36800
O  5.20800 47.58800 39.03800
C  4.55600 46.98500 37.86700
H  10.60900 53.84300 39.43000
H  6.53900 58.72600 41.18700
H  2.25500 54.49700 43.14600
H  8.34000 49.57200 39.54000
H  10.10400 51.38100 38.57500
H  10.12500 49.86800 41.03200
H  10.37000 51.40300 41.63100
H  11.42700 50.89200 40.31100
H  8.42400 51.31700 37.20700
H  6.76700 50.92000 37.60000
H  7.71500 48.57000 37.78400
H  9.14000 49.07400 36.78500
H  12.05500 57.14700 40.13700
H  11.58900 56.99800 38.61000
H  11.81500 55.48000 39.56900
H  8.88000 61.05500 39.90300
H  7.98800 60.23500 41.16900
H  7.53400 59.99300 39.53400
H  3.98100 58.60800 41.39800
H  3.33200 57.22100 43.89500
H  4.25800 59.21900 44.18900
H  4.70200 60.12100 42.82700
H  5.88600 59.14000 43.55900
H  1.60600 56.72800 41.39800
H  1.81900 58.36600 41.97400
H  1.05700 56.58700 44.15000
H  0.18600 56.16900 42.70000
H  0.00500 57.77200 43.04500
H  0.95500 52.20700 42.85700
H  2.01200 52.04000 44.28800
H  1.50600 50.69500 43.31500
H  6.10600 48.71100 40.89700
H  3.60800 47.44900 37.59400
H  4.49100 45.90600 38.01200
H  5.26900 47.19300 37.06900

