158

Mg 5.50900 53.48300 41.70500
C  4.56700 50.17700 41.34400
C  8.74600 52.72700 40.91600
C  6.12200 56.77900 41.57600
C  2.17500 54.17200 42.46900
N  6.51000 51.66000 41.14100
C  5.94900 50.44200 40.88200
C  7.02600 49.36800 40.46600
C  8.36000 50.25600 40.73800
C  7.85100 51.68900 41.01700
C  9.27800 49.70200 41.92100
C  6.88200 48.99300 38.89000
C  6.93100 50.17700 37.95300
H  6.76700 49.68100 36.47100
N  7.25900 54.60500 41.25200
C  8.48000 54.09900 40.94000
C  9.39400 55.17700 40.70900
C  8.63500 56.39600 40.85500
C  7.26000 55.96000 41.24200
C  10.76800 54.94900 40.10200
C  9.18500 57.75500 40.57100
O  10.37500 57.87800 40.20200
C  8.40000 59.02900 40.73700
N  4.33100 55.29400 41.93100
C  4.84200 56.52700 42.00600
C  3.71500 57.59600 42.12600
C  2.47900 56.76200 42.62600
C  3.02300 55.30100 42.20400
C  4.03800 58.90000 42.97300
C  1.14700 56.95500 41.87800
C  -0.08000 57.41800 42.74500
N  3.70600 52.38000 41.88800
C  2.49000 52.82000 42.33400
C  1.67900 51.62900 42.63500
C  2.39900 50.54500 42.19900
C  3.62800 51.06700 41.80500
C  0.26300 51.82700 43.07600
C  2.39500 49.14800 41.99300
O  1.47600 48.36000 42.10200
C  3.91900 48.74000 41.57800
C  4.00700 47.90700 40.35600
O  3.71300 48.22200 39.25600
O  4.53100 46.70100 40.67700
C  4.63700 45.74600 39.57700
H  9.72000 52.32500 40.62900
H  6.37300 57.84200 41.54900
H  1.18300 54.39900 42.86600
H  7.01700 48.47500 41.09100
H  9.00000 50.25800 39.85600
H  8.88900 48.73700 42.24400
H  9.29500 50.28700 42.84100
H  10.28100 49.41400 41.60700
H  6.01500 48.37700 38.64700
H  7.73900 48.36400 38.64900
H  7.90800 50.65100 38.04600
H  6.05800 50.80000 38.15100
H  10.71300 55.11100 39.02600
H  11.15000 53.95400 40.32900
H  11.54800 55.56200 40.55500
H  8.96000 59.93300 40.49900
H  8.00700 59.06900 41.75300
H  7.56800 59.07400 40.03400
H  3.58400 57.84000 41.07200
H  2.33900 56.91500 43.69600
H  5.04600 58.82300 43.38100
H  3.35800 59.03700 43.81400
H  3.96000 59.75800 42.30600
H  0.81600 56.10800 41.27800
H  1.36700 57.84400 41.28600
H  0.09200 57.18500 43.79500
H  -0.92600 56.85500 42.35300
H  -0.14100 58.50600 42.76900
H  -0.29000 52.51400 42.43600
H  0.26100 52.28800 44.06400
H  -0.32500 50.92800 43.26100
H  4.33600 48.22600 42.44400
H  5.26800 44.93200 39.93300
H  4.97400 46.10700 38.60500
H  3.61900 45.38800 39.42400
Mg 17.04900 52.06700 26.47700
C  19.08800 50.63100 28.89100
C  14.91300 53.06900 28.89400
C  15.09800 53.38000 24.09600
C  19.26700 50.84500 24.00500
N  17.06400 51.87900 28.67600
C  18.03300 51.32600 29.50700
C  17.61600 51.44200 31.00600
C  16.15200 51.96800 30.90100
C  16.03400 52.40300 29.41700
C  15.03300 51.01400 31.32800
C  18.70200 52.29700 31.76300
C  18.82500 52.10800 33.28100
H  17.69000 51.34000 33.96500
N  15.23000 53.12200 26.54700
C  14.49900 53.49900 27.65100
C  13.29800 54.17900 27.31900
C  13.37900 54.37600 25.87300
C  14.63200 53.61000 25.41400
C  12.26700 54.72900 28.17600
C  12.52700 55.22200 24.95200
O  12.76600 55.41700 23.75600
C  11.26500 55.93600 25.52300
N  17.27900 52.27600 24.32100
C  16.31600 52.84100 23.57200
C  16.49400 52.45700 22.12900
C  17.98200 51.82900 22.16400
C  18.19200 51.58700 23.60100
C  15.40400 51.50100 21.70300
C  19.09500 52.77300 21.74000
C  19.19000 54.18900 22.29000
N  18.85200 50.94700 26.34800
C  19.67300 50.54500 25.29200
C  20.72500 49.71900 25.85600
C  20.51600 49.65700 27.23800
C  19.40700 50.48500 27.51200
C  21.77100 49.17400 25.01000
C  20.97600 49.09800 28.48300
O  21.86300 48.31100 28.66400
C  20.07800 49.73700 29.64500
C  19.42400 48.58900 30.26900
O  18.57000 47.84100 29.76700
O  19.80200 48.51500 31.55400
C  19.04000 47.61200 32.39600
H  14.27800 53.37600 29.72800
H  14.39700 53.72400 23.33300
H  20.04800 50.58100 23.28900
H  17.64300 50.44700 31.45000
H  16.01700 52.87000 31.49700
H  14.08500 51.51800 31.51400
H  15.44300 50.47300 32.18100
H  14.85700 50.25900 30.56200
H  18.40200 53.32500 31.56200
H  19.63400 52.26600 31.19700
H  18.72900 53.11000 33.69900
H  19.79800 51.71400 33.57500
H  11.25900 54.51600 27.81800
H  12.40300 55.80900 28.22800
H  12.33400 54.30800 29.17900
H  11.45700 56.60300 26.36300
H  10.60800 55.14800 25.89000
H  10.74900 56.41300 24.69000
H  16.55200 53.34000 21.49200
H  18.03300 50.83600 21.71700
H  14.60000 51.50700 22.43900
H  15.89100 50.53500 21.56300
H  15.08200 51.73400 20.68800
H  19.09800 52.65300 20.65700
H  20.02200 52.27000 22.01600
H  20.07000 54.34700 22.91400
H  18.30000 54.57000 22.79000
H  19.27600 54.75900 21.36500
H  22.37300 48.49300 25.61000
H  22.35800 49.95200 24.52000
H  21.20000 48.72700 24.19600
H  20.68100 50.29300 30.36300
H  18.01900 47.53900 32.02100
H  18.95100 47.90200 33.44300
H  19.47800 46.62000 32.29300

