158

Mg 6.85100 53.21300 42.02900
C  6.25200 49.66000 41.54500
C  10.06000 52.62000 40.71200
C  7.36100 56.48200 41.81500
C  3.47300 53.51800 42.48500
N  7.94700 51.28100 41.02400
C  7.56800 49.96000 41.17500
C  8.78200 49.11200 40.73200
C  9.92500 50.04800 40.62500
C  9.33600 51.42000 40.91000
C  11.13400 49.76500 41.56500
C  8.67900 48.09200 39.60100
C  8.67100 48.65300 38.21200
H  7.35100 48.49800 37.54100
N  8.54400 54.35000 41.47000
C  9.76600 53.96800 40.98000
C  10.65400 55.16000 40.88000
C  9.87500 56.23100 41.34600
C  8.49500 55.71900 41.49900
C  12.11700 55.02300 40.51100
C  10.40300 57.59500 41.60000
O  11.55500 57.83200 41.46100
C  9.62100 58.78100 42.08100
N  5.59000 54.74100 42.04300
C  6.09000 56.01000 42.12600
C  5.04000 56.94400 42.61600
C  3.75200 56.00600 42.63200
C  4.29000 54.65600 42.43000
C  5.21300 57.80300 43.94200
C  2.65400 56.41900 41.63100
C  2.47800 55.58700 40.34600
N  5.17000 51.90200 42.11100
C  3.89800 52.20300 42.39200
C  3.07300 51.08200 42.48600
C  3.99000 50.03800 42.25700
C  5.23000 50.61800 41.98100
C  1.57800 51.01000 42.80800
C  4.15300 48.61900 42.22200
O  3.29900 47.80200 42.60100
C  5.60500 48.22900 41.76100
C  5.23100 47.57500 40.43800
O  4.62200 48.07500 39.48000
O  5.66200 46.26700 40.37900
C  5.14900 45.24400 39.42100
H  11.08100 52.44700 40.36700
H  7.64600 57.51800 42.01100
H  2.45000 53.72100 42.80800
H  8.80800 48.59600 41.69200
H  10.37000 50.01100 39.63100
H  10.65200 49.28200 42.41500
H  11.49800 50.72100 41.94000
H  11.97100 49.29100 41.05300
H  7.76000 47.51100 39.68000
H  9.60100 47.55000 39.81200
H  9.26100 47.98500 37.58400
H  8.78800 49.73500 38.15000
H  12.65800 54.94300 41.45400
H  12.36000 55.94400 39.98200
H  12.42600 54.24700 39.81000
H  8.98000 59.12500 41.26900
H  10.32500 59.58500 42.29200
H  9.10600 58.49700 42.99900
H  5.02000 57.67600 41.80800
H  3.19000 56.17200 43.55100
H  6.23200 58.00700 44.27000
H  4.54300 57.39200 44.69600
H  4.88800 58.83900 43.84000
H  2.78200 57.45700 41.32600
H  1.78300 56.28700 42.27300
H  3.44500 55.17700 40.05700
H  2.12000 56.18300 39.50600
H  1.79200 54.75500 40.50500
H  1.17300 50.81300 41.81600
H  1.24500 51.97200 43.20000
H  1.29400 50.17300 43.44500
H  6.08700 47.45500 42.35800
H  4.95300 45.62500 38.41900
H  4.25500 44.82900 39.88600
H  5.89000 44.44600 39.37700
Mg -11.17500 16.08100 42.17800
C  -7.82000 16.91700 41.67000
C  -12.00000 19.16100 41.10500
C  -14.23500 14.91900 41.82500
C  -10.10300 12.77600 43.05700
N  -9.98200 17.85700 41.48000
C  -8.68200 18.03000 41.45200
C  -8.36000 19.55700 41.04600
C  -9.66100 20.26100 41.44300
C  -10.60900 19.04500 41.33800
C  -9.60900 20.88900 42.83800
C  -7.92700 19.85900 39.61900
C  -6.98600 21.06900 39.38700
H  -5.74400 20.72200 38.55900
N  -12.87500 16.91700 41.29800
C  -13.02400 18.18000 41.01800
C  -14.34400 18.38100 40.54400
C  -15.03800 17.16500 40.74700
C  -14.06500 16.24500 41.29500
C  -14.83900 19.68100 40.01600
C  -16.44000 16.90200 40.27800
O  -17.19700 17.86100 40.00800
C  -16.84600 15.48700 40.07200
N  -12.09300 14.14600 42.47600
C  -13.41400 13.97600 42.37700
C  -13.80400 12.48300 42.88000
C  -12.38700 11.79700 43.16600
C  -11.50900 12.96700 42.89200
C  -14.81000 12.46400 44.13300
C  -12.16500 10.58000 42.22900
C  -11.77500 9.22800 42.82500
N  -9.35000 14.99100 42.38600
C  -9.08500 13.68500 42.80500
C  -7.60900 13.54500 42.74900
C  -7.09400 14.78700 42.42400
C  -8.21600 15.62900 42.14000
C  -6.94900 12.27100 42.98700
C  -5.81000 15.51700 42.26500
O  -4.64800 15.11500 42.39900
C  -6.26400 16.95000 41.70900
C  -5.70300 17.92500 42.68600
O  -6.07300 17.94800 43.83800
O  -4.92000 18.81500 42.06000
C  -4.28000 19.84100 42.83700
H  -12.33300 20.19500 40.98800
H  -15.26900 14.57700 41.90900
H  -9.95700 11.72600 43.31700
H  -7.54700 19.93800 41.66400
H  -9.98700 20.96100 40.67400
H  -9.78100 21.96200 42.76000
H  -8.70000 20.66800 43.39800
H  -10.39600 20.45400 43.45400
H  -8.81300 20.03700 39.01000
H  -7.39500 18.95800 39.31200
H  -6.59700 21.49600 40.31200
H  -7.40700 21.91400 38.84300
H  -14.39300 20.58400 40.43200
H  -15.84600 19.77000 40.42500
H  -14.86000 19.69800 38.92600
H  -17.63600 15.45500 39.32100
H  -17.22800 14.92700 40.92600
H  -16.01000 14.91200 39.67400
H  -14.28900 11.96300 42.05500
H  -12.32600 11.53900 44.22400
H  -15.10100 13.42000 44.57000
H  -14.62600 11.79800 44.97600
H  -15.77100 12.08300 43.78700
H  -11.56400 10.94300 41.39500
H  -13.10500 10.41000 41.70200
H  -11.88000 9.30000 43.90800
H  -10.74300 8.91200 42.67200
H  -12.33700 8.35200 42.50100
H  -7.15700 11.52900 42.21600
H  -7.22500 11.85000 43.95300
H  -5.87900 12.47300 43.04800
H  -5.94100 17.12200 40.68300
H  -3.85400 19.30500 43.68500
H  -4.86900 20.70100 43.15600
H  -3.50100 20.15200 42.14000

