158

Mg 44.23700 4.14500 47.13300
C  42.23100 7.00900 47.44700
C  41.44400 2.13600 47.33100
C  46.20800 1.52600 47.04200
C  46.97100 6.23100 46.44800
N  42.14600 4.58900 47.20900
C  41.57600 5.84200 47.34200
C  40.05200 5.74900 47.54400
C  39.87800 4.21400 47.87000
C  41.21400 3.59300 47.38500
C  39.56300 3.85000 49.35200
C  39.11900 6.36700 46.44000
C  39.32300 6.17700 44.93300
H  39.62100 7.34500 44.00600
N  43.89400 2.08400 46.89300
C  42.69400 1.51200 47.12400
C  42.84500 0.13500 46.97200
C  44.30000 -0.11300 46.91600
C  44.89700 1.18100 46.87800
C  41.72300 -0.90600 46.70300
C  44.97400 -1.44600 46.66900
O  44.28600 -2.47400 46.62400
C  46.43400 -1.60100 46.55000
N  46.25300 3.92400 46.44300
C  46.80200 2.76700 46.76000
C  48.36600 2.86900 46.64500
C  48.58400 4.40300 46.36800
C  47.18000 4.92900 46.43900
C  49.11200 2.27800 47.91900
C  49.25000 4.62900 44.96900
C  50.39600 5.63100 44.92900
N  44.59600 6.12900 46.96600
C  45.77500 6.83200 46.67900
C  45.54000 8.29000 46.83300
C  44.16800 8.36200 47.24300
C  43.61200 7.07000 47.24700
C  46.56300 9.43900 46.55400
C  43.09100 9.34100 47.52300
O  43.19800 10.56600 47.55500
C  41.78700 8.46200 47.66900
C  41.02700 8.76100 48.99400
O  41.10500 8.06200 50.04700
O  40.18800 9.84400 48.91000
C  39.23200 10.11300 50.06200
H  40.64700 1.43800 47.59400
H  46.95900 0.73400 47.06400
H  47.77800 6.88000 46.10200
H  39.80500 6.38300 48.39600
H  39.12800 3.74000 47.23800
H  39.27700 4.71200 49.95500
H  40.42800 3.39900 49.83700
H  38.74700 3.12900 49.30300
H  39.20600 7.42800 46.67600
H  38.12600 5.99200 46.69000
H  38.46600 5.68400 44.47400
H  40.14800 5.46400 44.92800
H  41.77800 -1.19200 45.65300
H  40.73800 -0.54900 47.00300
H  42.02700 -1.71400 47.36900
H  46.88700 -1.47800 47.53400
H  46.84600 -0.91000 45.81400
H  46.47500 -2.62000 46.16500
H  48.67700 2.18700 45.85400
H  49.15500 4.87000 47.17100
H  48.49800 1.79900 48.68200
H  49.50400 3.12900 48.47700
H  49.85400 1.50700 47.71200
H  48.57200 4.99300 44.19600
H  49.69500 3.73700 44.52900
H  50.21600 6.34400 44.12400
H  51.35300 5.11900 44.82800
H  50.42800 6.23800 45.83300
H  47.24000 9.15500 45.74800
H  47.13500 9.40800 47.48100
H  46.06600 10.37600 46.30000
H  41.09300 8.78800 46.89400
H  39.62100 10.93600 50.66200
H  39.09900 9.30000 50.77600
H  38.21800 10.35800 49.74500
Mg 10.22300 46.58800 25.27500
C  7.90200 46.74400 27.83800
C  12.54300 47.93000 27.34600
C  12.37500 46.87000 22.67800
C  7.57000 46.26700 22.91100
N  10.20500 47.21700 27.36100
C  9.16200 47.07800 28.24000
C  9.60300 47.54800 29.61400
C  10.94500 48.35500 29.32500
C  11.30500 47.75200 27.96100
C  10.77800 49.86400 29.28900
C  9.47200 46.48600 30.82300
C  10.35700 46.70000 31.98200
H  10.29400 45.77300 33.16100
N  12.20500 47.18200 25.07400
C  13.04900 47.65300 26.07200
C  14.42300 47.65600 25.66600
C  14.37500 47.20600 24.26600
C  12.94000 47.13700 23.93800
C  15.55600 48.11700 26.48600
C  15.51200 46.92900 23.33800
O  15.37200 46.60500 22.14200
C  17.00400 47.07800 23.79100
N  9.99000 46.59200 23.04500
C  11.09300 46.60800 22.22900
C  10.62800 46.45000 20.79200
C  9.05500 46.27300 20.87100
C  8.83900 46.27300 22.37500
C  11.13300 47.56000 19.82300
C  8.47900 45.01300 20.08000
C  7.54000 45.40700 18.89300
N  8.13500 46.45000 25.27200
C  7.17900 46.41900 24.26600
C  5.78200 46.34400 24.86400
C  6.06400 46.44200 26.25700
C  7.50400 46.57400 26.47100
C  4.43400 46.22500 24.22900
C  5.42400 46.50000 27.59400
O  4.24900 46.39600 27.98200
C  6.57400 46.64500 28.64900
C  6.49000 45.67300 29.81000
O  7.06400 44.61700 29.89700
O  5.75600 46.16700 30.79000
C  5.77400 45.43500 32.05600
H  13.22300 48.35800 28.08500
H  13.11500 46.77000 21.88100
H  6.73200 46.11100 22.22900
H  8.86200 48.27300 29.95000
H  11.71800 47.96600 29.98800
H  11.50600 50.26700 29.99400
H  9.82300 50.26600 29.62500
H  11.16200 50.31800 28.37600
H  9.66600 45.44800 30.55300
H  8.45000 46.62800 31.17400
H  10.18000 47.69800 32.38400
H  11.38300 46.60400 31.62700
H  15.17400 48.22600 27.50100
H  15.86600 49.09900 26.12800
H  16.47000 47.52400 26.45400
H  17.61500 46.68400 22.97900
H  17.32000 46.57300 24.70400
H  17.16900 48.15500 23.76100
H  11.14400 45.52900 20.52000
H  8.59300 47.17700 20.47500
H  10.28900 48.15400 19.47000
H  11.59800 46.98000 19.02600
H  11.91500 48.26500 20.10300
H  8.06200 44.29900 20.79000
H  9.34500 44.56500 19.59300
H  6.92800 44.57300 18.55000
H  8.22900 45.58500 18.06700
H  6.95500 46.29300 19.14100
H  3.66300 46.71500 24.82400
H  4.14300 45.17500 24.22200
H  4.50700 46.49200 23.17400
H  6.45500 47.59400 29.17400
H  5.06000 44.62500 31.90800
H  5.47600 46.05700 32.90000
H  6.76500 45.07200 32.33000

