158

Mg 24.16900 -7.64000 47.09400
C  26.82800 -5.67700 46.25600
C  22.35700 -6.49100 44.48600
C  21.80600 -9.87400 47.80800
C  26.43500 -9.52500 49.28500
N  24.61600 -6.29800 45.56100
C  25.65000 -5.41100 45.46800
C  25.53700 -4.49500 44.22800
C  23.98500 -4.64700 43.87100
C  23.66400 -5.99600 44.66700
C  23.08300 -3.40800 44.12300
C  26.47900 -4.75700 43.00900
C  27.23300 -3.46300 42.53600
H  26.99500 -3.05500 41.10800
N  22.34200 -8.03000 46.30700
C  21.76500 -7.45900 45.21900
C  20.40300 -7.82100 45.14100
C  20.19600 -8.77400 46.17000
C  21.50200 -8.97300 46.82100
C  19.46200 -7.20900 44.10800
C  18.91800 -9.53800 46.42500
O  17.87600 -9.34900 45.73300
C  18.67800 -10.51300 47.62800
N  24.16100 -9.55000 48.28200
C  23.01500 -10.27900 48.37100
C  23.22000 -11.46500 49.38000
C  24.62900 -11.20800 49.96000
C  25.13600 -10.04600 49.13900
C  22.12300 -11.72300 50.40200
C  25.55900 -12.44600 49.99000
C  26.33000 -12.71200 51.36500
N  26.26500 -7.63900 47.74100
C  26.99100 -8.40000 48.56500
C  28.29300 -7.79100 48.68100
C  28.29100 -6.71900 47.81900
C  27.02700 -6.70100 47.24000
C  29.34600 -8.37400 49.55500
C  29.00500 -5.57100 47.25800
O  30.10600 -5.14600 47.47000
C  28.09600 -4.89900 46.14600
C  27.78900 -3.51900 46.55400
O  27.36200 -3.12600 47.63100
O  28.05100 -2.75500 45.52000
C  27.76000 -1.31300 45.55000
H  21.81800 -5.92900 43.72000
H  21.00700 -10.53800 48.14500
H  27.13500 -10.14800 49.84700
H  25.80500 -3.50600 44.59900
H  23.86100 -4.69600 42.78900
H  23.75500 -2.64300 44.51300
H  22.25700 -3.72500 44.75900
H  22.60100 -3.05900 43.20900
H  25.87100 -5.28500 42.27600
H  27.13900 -5.57100 43.30800
H  28.30600 -3.59200 42.68000
H  26.98100 -2.57300 43.11100
H  19.40600 -7.94200 43.30300
H  19.86400 -6.25600 43.76400
H  18.52300 -7.15300 44.65700
H  19.04700 -10.18500 48.60000
H  19.27100 -11.39600 47.38800
H  17.62700 -10.79800 47.58400
H  23.37500 -12.36100 48.78000
H  24.54600 -10.77800 50.95800
H  22.38100 -11.34400 51.39100
H  21.89800 -12.78700 50.47000
H  21.21600 -11.20800 50.08500
H  26.32600 -12.20900 49.25200
H  25.06100 -13.34700 49.63200
H  26.44400 -13.77100 51.59700
H  25.75500 -12.32300 52.20600
H  27.30900 -12.23500 51.35000
H  30.32300 -7.89000 49.52800
H  29.44700 -9.41500 49.25100
H  28.76100 -8.22600 50.46300
H  28.59600 -4.99800 45.18300
H  27.98200 -0.84700 44.59100
H  28.20800 -0.86900 46.43900
H  26.68700 -1.15400 45.44100
Mg -5.97900 25.34000 25.70000
C  -3.97100 26.69800 28.17700
C  -7.40900 23.31800 27.94000
C  -7.56800 23.85800 23.15300
C  -3.72900 26.97500 23.32800
N  -5.67900 25.01700 27.78300
C  -4.95500 25.81900 28.68200
C  -5.31300 25.40900 30.15800
C  -6.03100 24.10400 30.02700
C  -6.39900 24.13100 28.52500
C  -5.16500 22.82100 30.33200
C  -6.04100 26.54100 30.89000
C  -5.64000 26.69300 32.33300
H  -5.22900 25.46100 33.08800
N  -7.31100 23.81900 25.57300
C  -7.86200 23.13000 26.61600
C  -8.94700 22.27500 26.12300
C  -9.00300 22.47700 24.72800
C  -7.93000 23.36700 24.41400
C  -9.87600 21.47800 26.99500
C  -9.89100 21.80000 23.62700
O  -9.68000 21.90700 22.37900
C  -11.07600 20.88400 23.91900
N  -5.44900 25.20300 23.54100
C  -6.43500 24.64700 22.77000
C  -6.03000 24.82000 21.30800
C  -4.93000 25.97300 21.27100
C  -4.63700 26.02800 22.79100
C  -5.60600 23.46000 20.74800
C  -5.29600 27.34200 20.67600
C  -4.71800 27.58000 19.22300
N  -4.34400 26.67100 25.67200
C  -3.57400 27.27600 24.68000
C  -2.62400 28.18700 25.23200
C  -2.69500 28.01000 26.62100
C  -3.68500 27.00000 26.79700
C  -1.73500 29.15000 24.52400
C  -2.20600 28.36700 27.90100
O  -1.31800 29.18300 28.12100
C  -2.98800 27.57900 28.93300
C  -2.07200 26.72100 29.75500
O  -1.68900 25.62100 29.59300
O  -1.74900 27.48800 30.84300
C  -1.00800 26.88900 31.97100
H  -7.86100 22.59500 28.62300
H  -8.18000 23.48400 22.32900
H  -3.16400 27.51900 22.56800
H  -4.33100 25.30700 30.62000
H  -6.88300 24.00700 30.70000
H  -5.03200 22.60500 31.39200
H  -4.32000 22.83300 29.64400
H  -5.79900 22.02700 29.93900
H  -7.12800 26.46700 30.89800
H  -5.83200 27.46900 30.35900
H  -6.42000 27.15400 32.93800
H  -4.74100 27.29500 32.20100
H  -9.63300 21.41300 28.05600
H  -9.76300 20.48700 26.55500
H  -10.88000 21.88800 26.88800
H  -11.93800 21.39200 24.35100
H  -10.73700 20.11800 24.61600
H  -11.31900 20.35100 22.99900
H  -6.92800 25.32000 20.94600
H  -3.97000 25.62000 20.89600
H  -5.62000 22.71300 21.54200
H  -4.61100 23.59200 20.32400
H  -6.29800 23.27000 19.92700
H  -5.01100 28.22100 21.25500
H  -6.38600 27.37300 20.70100
H  -5.36700 27.69700 18.35400
H  -4.14800 26.70300 18.91800
H  -4.00000 28.39500 19.31200
H  -0.76900 29.03500 25.01600
H  -2.05800 30.19100 24.54600
H  -1.55900 28.89900 23.47800
H  -3.51900 28.22900 29.62900
H  -0.66500 25.85700 31.90000
H  -1.70600 27.01500 32.79900
H  -0.14300 27.47300 32.28400

