158

Mg 30.07300 59.48400 39.34400
C  27.09400 58.00000 38.15800
C  31.82000 56.82800 37.99400
C  32.97000 61.13200 39.65300
C  28.18500 62.45900 39.76900
N  29.53000 57.67200 38.16300
C  28.25400 57.26400 37.85100
C  28.21800 55.91900 37.07900
C  29.74400 55.47900 37.34900
C  30.42000 56.74000 37.88600
C  29.96900 54.23600 38.09700
C  27.88500 56.08700 35.48800
C  26.82900 55.14100 34.96800
H  25.89100 55.76900 33.95700
N  32.19500 58.91600 39.03000
C  32.69200 57.84400 38.47700
C  34.16300 57.82200 38.56400
C  34.55500 59.11600 39.18100
C  33.21100 59.79800 39.35000
C  35.00200 56.73900 38.02200
C  35.85900 59.58100 39.46400
O  36.79400 58.79000 39.49200
C  36.19600 61.05300 39.81800
N  30.43000 61.47000 39.71300
C  31.73500 61.92800 39.73700
C  31.84800 63.47400 39.71200
C  30.34800 63.88800 39.98200
C  29.56300 62.56900 39.73800
C  32.85800 63.96500 40.76500
C  29.80800 65.07800 39.17900
C  29.34900 66.32600 39.96100
N  28.01000 60.10900 39.29800
C  27.40000 61.34100 39.45000
C  25.99400 61.21300 39.26200
C  25.81400 59.88500 38.78500
C  27.12600 59.26100 38.71800
C  24.92200 62.31700 39.34000
C  24.78600 58.91900 38.31200
O  23.59300 59.01100 38.08600
C  25.64100 57.56600 37.95100
C  25.34500 56.33200 38.78700
O  25.69200 56.24800 39.97200
O  24.59600 55.38400 38.13600
C  24.21800 54.11400 38.88100
H  32.34900 55.93500 37.65600
H  33.84100 61.79000 39.63200
H  27.55900 63.34400 39.63900
H  27.50400 55.26400 37.57800
H  30.29800 55.46100 36.41000
H  29.04600 53.67000 37.97100
H  30.05500 54.40000 39.17200
H  30.86300 53.72800 37.73500
H  28.85700 55.85100 35.05700
H  27.59400 57.10800 35.23800
H  26.24900 54.70800 35.78200
H  27.25800 54.24400 34.52000
H  34.53800 56.44900 37.07900
H  34.88600 55.87900 38.68200
H  36.03800 57.00100 37.80700
H  37.22100 61.06500 40.18700
H  35.52300 61.16400 40.66800
H  36.00400 61.74100 38.99400
H  32.19200 63.81000 38.73400
H  30.35200 64.12800 41.04500
H  33.26300 63.11300 41.31100
H  32.42500 64.64500 41.50000
H  33.58000 64.62900 40.29100
H  29.00300 64.70200 38.54700
H  30.61000 65.33900 38.48900
H  29.97500 67.19700 39.77000
H  29.40900 66.15000 41.03500
H  28.36100 66.64700 39.62900
H  24.66900 62.49900 38.29600
H  25.32300 63.23400 39.77200
H  24.03500 62.11200 39.94000
H  25.50100 57.31800 36.89900
H  25.05900 53.74100 39.46600
H  23.74900 53.40600 38.19800
H  23.45000 54.36400 39.61200
Mg 9.09500 47.29900 27.71400
C  7.37900 46.83500 30.71500
C  11.92800 47.87000 29.58200
C  10.70000 48.07500 24.86000
C  6.02900 47.68200 26.05500
N  9.56300 47.43200 29.84500
C  8.69200 47.13400 30.87700
C  9.34500 47.43800 32.24600
C  10.73500 47.92300 31.88700
C  10.77200 47.75200 30.36900
C  10.99100 49.40600 32.42300
C  9.40800 46.18800 33.22100
C  9.18800 46.49300 34.70400
H  9.67700 45.39700 35.64600
N  11.08300 47.65800 27.29500
C  12.15000 47.78500 28.16100
C  13.34200 48.02100 27.39300
C  12.99700 47.95000 26.02100
C  11.50800 47.89400 25.99000
C  14.62200 48.26100 27.96800
C  13.83500 47.80200 24.77900
O  13.36300 47.80500 23.65200
C  15.30700 47.64900 24.94900
N  8.44500 47.86800 25.74300
C  9.34300 48.08300 24.75600
C  8.69900 48.53200 23.41500
C  7.15600 48.29300 23.76800
C  7.17300 47.87200 25.23400
C  8.95900 49.99900 23.11300
C  6.54200 47.28400 22.78600
C  6.63000 47.57000 21.26000
N  7.07600 47.18300 28.22500
C  5.95100 47.35200 27.44700
C  4.72200 47.09700 28.30900
C  5.23900 46.91000 29.59300
C  6.69900 46.90700 29.49800
C  3.30300 47.10600 27.89600
C  4.92500 46.63800 30.95900
O  3.81300 46.50200 31.42700
C  6.28600 46.63600 31.76200
C  6.34300 45.28800 32.33700
O  6.76300 44.24900 31.82000
O  5.97600 45.45200 33.66300
C  6.33300 44.25000 34.52600
H  12.78100 47.99100 30.25300
H  11.10600 48.27800 23.86700
H  5.07900 47.91200 25.56700
H  8.79700 48.27700 32.67300
H  11.56800 47.31300 32.23700
H  10.22300 50.08300 32.04900
H  11.96900 49.64900 32.00800
H  10.95900 49.39900 33.51300
H  10.40000 45.74500 33.30400
H  8.93500 45.32800 32.74600
H  8.16900 46.72100 35.01600
H  9.65800 47.46500 34.85300
H  15.20000 47.33700 27.93300
H  14.32200 48.54100 28.97800
H  15.03800 49.09400 27.40100
H  15.82500 48.58300 25.16900
H  15.71000 47.12300 24.08300
H  15.37100 46.92300 25.75900
H  8.96800 47.91600 22.55700
H  6.60200 49.23100 23.79800
H  9.61800 50.09400 22.25000
H  9.37200 50.50700 23.98400
H  8.06700 50.55500 22.82300
H  5.47800 47.26900 23.02200
H  7.03700 46.34700 23.04100
H  5.67700 47.57800 20.73300
H  7.30300 46.84400 20.80500
H  7.01100 48.59200 21.26100
H  2.62300 47.53700 28.63200
H  2.92200 46.08800 27.81900
H  3.10700 47.65100 26.97200
H  6.29000 47.43100 32.50900
H  6.36000 44.53800 35.57700
H  7.34800 43.93100 34.29200
H  5.67600 43.39900 34.34700

