158

Mg -0.28000 6.86700 25.42900
C  0.58300 9.10600 28.03200
C  0.21900 4.19000 27.70000
C  -0.76400 4.66500 22.93800
C  0.42500 9.39600 23.20700
N  0.38100 6.64400 27.59400
C  0.47300 7.74100 28.47000
C  0.38100 7.25000 29.89800
C  0.71800 5.71500 29.79400
C  0.40200 5.47700 28.31000
C  2.19200 5.32300 30.18600
C  -1.01000 7.59400 30.65500
C  -1.01100 7.41400 32.20300
H  0.24400 7.13300 33.06400
N  -0.41600 4.75000 25.32400
C  -0.22200 3.87200 26.34100
C  -0.42200 2.47600 25.88800
C  -0.76000 2.61800 24.51300
C  -0.66200 4.04400 24.24300
C  -0.43700 1.32000 26.87000
C  -0.92300 1.58800 23.47500
O  -1.00800 1.88300 22.29000
C  -0.84500 0.15600 23.88300
N  -0.01100 7.04500 23.38000
C  -0.46100 6.05100 22.52200
C  -0.78800 6.53200 21.08100
C  -0.21800 7.96100 21.20900
C  0.11500 8.16200 22.70000
C  -0.12800 5.60700 19.99300
C  -1.05600 9.06400 20.48900
C  -2.10300 9.74900 21.35700
N  0.16300 8.94600 25.54500
C  0.43100 9.84700 24.53100
C  0.91200 11.09200 25.13900
C  0.79800 10.87400 26.55300
C  0.40800 9.56100 26.70200
C  1.30000 12.38400 24.42800
C  0.97800 11.50300 27.81400
O  1.35500 12.67300 28.11400
C  0.80100 10.40500 28.87800
C  2.06900 10.23300 29.64200
O  3.02300 9.53000 29.33700
O  1.95300 11.04100 30.71600
C  2.99200 10.92000 31.77500
H  0.41500 3.25900 28.23600
H  -1.18000 4.11300 22.09200
H  0.57300 10.18400 22.46600
H  1.22000 7.66100 30.46000
H  0.05200 5.25600 30.52400
H  2.18000 4.93800 31.20600
H  2.84900 6.14600 29.90300
H  2.49300 4.57800 29.45000
H  -1.85400 7.02300 30.26700
H  -1.31900 8.57100 30.28200
H  -1.64900 6.54600 32.36500
H  -1.51900 8.26200 32.66400
H  0.32300 0.57900 26.62300
H  -1.38200 0.82900 26.63600
H  -0.53800 1.57100 27.92600
H  -1.61900 -0.15400 24.58500
H  0.14400 -0.27900 24.02600
H  -1.10700 -0.30700 22.93100
H  -1.87600 6.47200 21.05000
H  0.72900 7.91700 20.67000
H  0.55400 4.87100 20.41900
H  0.38500 6.27100 19.29700
H  -0.85200 5.01000 19.43800
H  -1.54900 8.60900 19.63000
H  -0.29900 9.82200 20.28500
H  -1.90000 10.78400 21.63200
H  -2.14000 9.21400 22.30600
H  -3.15300 9.72200 21.06800
H  1.45800 12.17800 23.37000
H  2.23200 12.82200 24.78500
H  0.52300 13.11000 24.67100
H  0.07700 10.55400 29.67900
H  3.74000 11.68400 31.56000
H  3.48900 9.95200 31.71400
H  2.54700 11.26600 32.70800
Mg 54.64200 23.99800 45.57400
C  52.23000 26.40800 44.64400
C  52.34200 21.50000 44.54900
C  57.05900 21.66400 45.67700
C  56.72900 26.47000 46.47400
N  52.60600 23.93300 44.51200
C  51.77700 25.08500 44.37800
C  50.45900 24.62500 43.74500
C  50.42600 23.12900 44.16400
C  51.87800 22.77900 44.42400
C  49.52800 22.75400 45.39600
C  50.47100 24.93100 42.22000
C  50.63800 23.76900 41.16300
H  51.85400 22.79900 41.17300
N  54.72100 21.82600 45.16200
C  53.67300 21.07500 44.76000
C  54.14300 19.68400 44.57500
C  55.54800 19.72500 44.87300
C  55.85800 21.08500 45.30400
C  53.25600 18.52400 44.15900
C  56.60400 18.53600 44.72100
O  56.31200 17.39700 44.29000
C  58.06000 18.64900 45.08100
N  56.61000 24.10500 45.77400
C  57.38400 23.02000 45.91300
C  58.87700 23.43400 46.21300
C  58.74400 24.93100 46.66400
C  57.26400 25.21400 46.24800
C  59.59300 22.60100 47.21900
C  59.76200 25.87400 45.88300
C  59.78600 25.99000 44.34000
N  54.48200 26.07600 45.75900
C  55.46900 26.99800 46.12900
C  54.83100 28.28800 46.23400
C  53.59500 28.14500 45.55900
C  53.44000 26.76700 45.32900
C  55.40500 29.54600 46.86800
C  52.37600 28.78300 45.11400
O  52.12200 29.97300 45.12500
C  51.55100 27.75500 44.42800
C  51.45800 28.04300 43.02200
O  52.43200 28.23900 42.27700
O  50.18400 28.08200 42.58800
C  49.95300 28.30100 41.11200
H  51.60200 20.73100 44.31800
H  57.98400 21.11200 45.85700
H  57.38200 27.20700 46.94700
H  49.72100 25.18900 44.31600
H  49.96700 22.35600 43.54700
H  49.07400 23.58900 45.93000
H  50.19700 22.18000 46.03700
H  48.75600 22.05200 45.08000
H  51.36600 25.55300 42.21600
H  49.57900 25.51300 41.99000
H  50.59500 24.26000 40.19100
H  49.73600 23.16400 41.25800
H  52.94100 18.69800 43.13000
H  52.44100 18.30300 44.84700
H  53.87400 17.62900 44.09000
H  58.55900 17.70500 44.86300
H  58.12200 18.89300 46.14100
H  58.52500 19.47800 44.54600
H  59.31100 23.45500 45.21300
H  58.77400 25.06900 47.74500
H  60.05600 21.74900 46.72100
H  59.07700 22.50000 48.17400
H  60.49300 23.11600 47.55400
H  60.73800 25.50700 46.19800
H  59.68800 26.87700 46.30300
H  60.74800 25.74700 43.88800
H  59.50200 27.02700 44.16100
H  59.12100 25.22900 43.93300
H  54.99300 29.69000 47.86700
H  55.15200 30.36300 46.19200
H  56.48800 29.48000 46.97400
H  50.58400 27.66000 44.92100
H  50.37700 29.28900 40.93300
H  48.89200 28.26600 40.86600
H  50.47200 27.54200 40.52700

