158

Mg 30.93200 59.94700 40.57500
C  27.92700 58.46300 39.22200
C  32.65500 57.29700 39.06700
C  33.73500 61.51600 41.08800
C  29.01600 62.80200 41.37400
N  30.32500 58.12300 39.22900
C  29.08600 57.65300 38.91600
C  29.12200 56.38800 38.00800
C  30.64900 56.02100 38.15600
C  31.30600 57.21600 38.90700
C  31.06500 54.66000 38.79500
C  28.61200 56.70600 36.55200
C  27.62000 55.73800 35.91200
H  26.62200 56.28900 34.85000
N  32.87200 59.45800 40.31600
C  33.40100 58.32400 39.74100
C  34.83300 58.30100 39.82600
C  35.26000 59.49200 40.45800
C  33.91500 60.18100 40.65300
C  35.61800 57.25000 39.07500
C  36.76500 59.99900 40.81400
O  37.78100 59.37500 40.52800
C  36.98800 61.24300 41.64700
N  31.24500 61.86900 41.19400
C  32.59800 62.26800 41.29400
C  32.58500 63.80700 41.55600
C  31.10700 64.12500 41.90400
C  30.40100 62.87900 41.41800
C  33.71800 64.22000 42.60300
C  30.59200 65.49300 41.24200
C  29.73200 66.35900 42.16900
N  28.84900 60.57300 40.28600
C  28.23300 61.72600 40.77100
C  26.73500 61.60300 40.55800
C  26.65200 60.36200 39.88500
C  27.91200 59.74600 39.80300
C  25.71900 62.66400 40.74900
C  25.70400 59.46500 39.15700
O  24.55500 59.70000 38.77900
C  26.51500 58.18900 38.85400
C  25.92800 57.06500 39.57200
O  26.28900 56.64900 40.64200
O  24.92100 56.51400 38.82100
C  24.34500 55.23300 39.23200
H  33.27500 56.54800 38.56900
H  34.62600 62.14200 41.01100
H  28.52200 63.75500 41.57400
H  28.60200 55.58200 38.52500
H  31.05800 56.01600 37.14600
H  31.58700 54.08400 38.03100
H  30.26600 53.98800 39.11000
H  31.74800 54.70700 39.64400
H  29.45100 56.65700 35.85700
H  28.27100 57.73700 36.46200
H  27.06500 55.18700 36.67100
H  28.26100 54.97300 35.47300
H  35.53200 57.38500 37.99700
H  35.17500 56.28400 39.31700
H  36.66600 57.12700 39.35000
H  37.79900 61.18100 42.37200
H  36.10200 61.38700 42.26500
H  37.03900 62.11700 40.99800
H  32.89700 64.11900 40.55900
H  31.03100 64.23600 42.98500
H  34.12100 63.34400 43.11100
H  33.27400 64.84500 43.37900
H  34.54400 64.78900 42.17800
H  30.13900 65.25900 40.27800
H  31.44400 66.15400 41.08600
H  30.18700 67.32700 42.37600
H  29.44200 66.01600 43.16200
H  28.81600 66.62000 41.63800
H  25.94800 63.28700 41.61400
H  24.75500 62.19300 40.94400
H  25.79200 63.26400 39.84200
H  26.37100 58.01000 37.78900
H  23.32000 55.28400 39.60100
H  24.91100 54.67800 39.97900
H  24.36100 54.60300 38.34300
Mg -2.06500 34.57400 26.89400
C  -3.18400 32.47600 29.51800
C  -0.33800 36.54300 29.27600
C  -1.15400 36.75200 24.42700
C  -4.12700 32.91700 24.71400
N  -1.90600 34.54400 29.05500
C  -2.38600 33.55100 29.94100
C  -2.00300 33.84300 31.46200
C  -1.14500 35.16500 31.33000
C  -1.15000 35.51600 29.77700
C  -1.47700 36.28700 32.35000
C  -1.43400 32.58700 32.20700
C  -0.61100 32.81100 33.48500
H  -1.03500 32.12800 34.81200
N  -0.84300 36.26300 26.86100
C  -0.20100 36.86200 27.91500
C  0.73900 37.86700 27.43300
C  0.50300 37.99200 26.00000
C  -0.51400 36.96000 25.70700
C  1.72300 38.68900 28.34200
C  1.13400 38.89800 24.96500
O  0.89000 38.95600 23.75100
C  2.12600 39.89000 25.42700
N  -2.72500 34.96300 24.99600
C  -2.10400 35.78600 24.08900
C  -2.77400 35.79000 22.69100
C  -3.63700 34.49500 22.75300
C  -3.47900 34.06800 24.28000
C  -3.46200 37.13200 22.29300
C  -3.33100 33.50600 21.63500
C  -2.06800 32.69300 21.73400
N  -3.34100 32.96300 27.00600
C  -4.03900 32.35500 26.01000
C  -4.53300 31.12300 26.48600
C  -4.38800 31.10900 27.90300
C  -3.58100 32.26500 28.13200
C  -5.15100 30.05900 25.69600
C  -4.60700 30.49800 29.23300
O  -5.26500 29.44000 29.58100
C  -3.83100 31.36300 30.19000
C  -4.84100 31.68700 31.25300
O  -5.59800 32.63600 31.27100
O  -4.98400 30.69000 32.18800
C  -5.99900 30.81400 33.21400
H  0.08900 37.22400 30.01600
H  -0.95600 37.49500 23.65100
H  -4.70300 32.35600 23.97500
H  -2.92100 34.13500 31.97100
H  -0.12900 34.87800 31.60200
H  -2.10400 36.04800 33.20900
H  -1.98500 37.04900 31.75900
H  -0.56600 36.70700 32.77600
H  -0.78300 32.02900 31.53400
H  -2.24900 31.90800 32.45400
H  -0.60200 33.88200 33.68900
H  0.43400 32.55500 33.31100
H  2.76400 38.68400 28.01900
H  1.62900 38.20000 29.31200
H  1.44500 39.74000 28.42400
H  1.72400 40.67300 26.07000
H  2.62800 40.47000 24.65400
H  2.87900 39.28500 25.93300
H  -1.89200 35.59600 22.08100
H  -4.67800 34.78200 22.60000
H  -2.71000 37.62800 21.67800
H  -3.59800 37.77700 23.16100
H  -4.38500 36.91200 21.75700
H  -3.46100 34.02900 20.68800
H  -4.21600 32.87000 21.67200
H  -1.75400 32.95200 22.74600
H  -1.31500 33.04000 21.02700
H  -2.26200 31.62600 21.62300
H  -4.67200 29.95000 24.72300
H  -6.22800 30.21800 25.63800
H  -4.97600 29.11800 26.21700
H  -3.08600 30.71200 30.65000
H  -6.87800 31.43100 33.03200
H  -5.45000 31.31400 34.01200
H  -6.24400 29.83200 33.61900

