158

Mg 35.60400 1.84300 30.12300
C  33.03600 3.07700 32.41500
C  37.72400 1.87400 32.70800
C  37.85500 1.31500 27.92400
C  33.29500 2.59400 27.41500
N  35.32600 2.47700 32.31000
C  34.23200 2.85900 33.01900
C  34.51200 2.96100 34.47000
C  36.07900 2.88200 34.51000
C  36.44000 2.34000 33.10900
C  36.72300 4.26200 34.76500
C  33.78600 1.86300 35.27600
C  33.25700 2.20700 36.71700
H  34.07200 3.32500 37.49900
N  37.55500 1.37600 30.33700
C  38.22100 1.41600 31.47100
C  39.56700 0.93200 31.15300
C  39.66500 0.97500 29.73100
C  38.37000 1.27500 29.28100
C  40.49600 0.51400 32.26500
C  40.95800 0.81100 28.86400
O  40.95900 0.86900 27.63900
C  42.24400 0.60600 29.52000
N  35.47300 1.75300 27.95000
C  36.59000 1.50800 27.30200
C  36.46600 1.84100 25.78800
C  34.89000 1.88900 25.62500
C  34.53100 2.08400 27.07000
C  37.29200 3.05700 25.26200
C  34.10700 0.79300 24.94400
C  33.70000 -0.44500 25.65500
N  33.66500 2.63700 29.86100
C  32.89400 2.86200 28.76400
C  31.52900 3.28900 29.24600
C  31.58500 3.37300 30.61000
C  32.85300 3.00300 30.99400
C  30.30300 3.56800 28.47400
C  30.79300 3.70600 31.76600
O  29.66200 4.16600 31.85800
C  31.74500 3.47900 33.01500
C  31.91200 4.78700 33.67600
O  32.60300 5.74500 33.27100
O  31.00900 4.91000 34.72100
C  30.91300 6.22300 35.37800
H  38.42600 1.79400 33.54100
H  38.56600 1.00100 27.15700
H  32.47300 2.90400 26.76600
H  34.15700 3.95000 34.76000
H  36.50900 2.22700 35.26800
H  35.97500 5.05300 34.70900
H  37.51600 4.51600 34.06200
H  37.31600 4.28600 35.68000
H  34.52200 1.06100 35.21900
H  32.87700 1.47100 34.81900
H  33.21000 1.32300 37.35300
H  32.19700 2.43900 36.61400
H  41.14100 -0.29800 31.92900
H  39.91500 0.19700 33.13100
H  41.09500 1.31600 32.69600
H  42.58100 1.43800 30.13700
H  42.89600 0.49400 28.65400
H  42.27700 -0.29900 30.12700
H  36.77400 0.92800 25.27800
H  34.77600 2.84100 25.10500
H  37.69800 2.76200 24.29400
H  38.11800 3.31500 25.92400
H  36.68800 3.92800 25.00900
H  34.76400 0.50600 24.12200
H  33.21000 1.07500 24.39300
H  33.96300 -1.34200 25.09500
H  32.62700 -0.46300 25.84700
H  34.28200 -0.53400 26.57200
H  30.22800 2.75000 27.75600
H  30.49500 4.47600 27.90300
H  29.34700 3.62800 28.99400
H  31.15200 2.76100 33.58200
H  31.78000 6.43300 36.00500
H  30.09800 6.07100 36.08500
H  30.67000 7.08800 34.76100
Mg 1.03900 43.09500 26.32100
C  3.26300 42.78700 29.01000
C  -1.43900 41.83200 28.43900
C  -0.93800 43.25100 23.72500
C  3.81200 43.71400 24.19000
N  0.97200 42.40000 28.51000
C  1.95100 42.57900 29.41800
C  1.39400 42.50000 30.85400
C  -0.10900 41.97100 30.65800
C  -0.23700 42.10400 29.11400
C  -0.46600 40.42300 31.15700
C  1.41900 43.92400 31.53800
C  1.62800 43.77800 33.14300
H  1.23500 42.50200 33.96100
N  -0.87100 42.66900 26.11900
C  -1.77100 42.12900 27.06100
C  -3.05300 41.94200 26.45600
C  -2.96900 42.47600 25.16200
C  -1.58900 42.78000 24.92900
C  -4.19500 41.20500 27.06700
C  -3.95000 42.60100 24.09700
O  -3.69200 43.22100 23.07100
C  -5.31800 42.05600 24.24000
N  1.41200 43.38600 24.21800
C  0.41300 43.54200 23.39500
C  0.83400 43.79600 21.95500
C  2.38700 44.11400 22.12100
C  2.60500 43.68600 23.58300
C  0.50300 42.59300 20.95300
C  2.76600 45.60200 21.79200
C  1.81200 46.69800 22.15100
N  3.11300 43.25700 26.49900
C  4.08500 43.54300 25.57200
C  5.41500 43.46600 26.14100
C  5.12500 43.19000 27.50500
C  3.73000 43.05700 27.64700
C  6.72900 43.79300 25.52500
C  5.70500 42.98400 28.86500
O  6.88200 42.97500 29.13700
C  4.50500 42.86300 29.92100
C  4.76500 41.67600 30.78300
O  4.80200 40.47400 30.46500
O  4.93300 42.24400 32.07200
C  5.09400 41.31100 33.19200
H  -2.28700 41.67400 29.10900
H  -1.50900 43.23400 22.79400
H  4.69500 44.05800 23.64800
H  2.01200 41.79000 31.40400
H  -0.94600 42.49900 31.11400
H  -1.30300 40.54800 31.84400
H  0.39000 39.94100 31.63000
H  -0.73300 39.86800 30.25800
H  0.54100 44.53900 31.34000
H  2.28700 44.42500 31.10800
H  0.98100 44.57500 33.51100
H  2.68600 43.97700 33.31200
H  -5.01700 41.92000 27.05700
H  -4.07900 40.91500 28.11100
H  -4.36100 40.27700 26.52100
H  -5.83800 42.38900 25.13800
H  -5.30100 40.97400 24.10500
H  -6.05200 42.44200 23.53300
H  0.22200 44.66200 21.70400
H  2.96800 43.40900 21.52600
H  0.00100 41.72600 21.38200
H  1.33600 42.35300 20.29300
H  -0.24800 43.05400 20.31000
H  2.87400 45.64500 20.70800
H  3.75000 45.85900 22.18600
H  0.80800 46.39700 22.44900
H  1.65500 47.35800 21.29800
H  2.24200 47.22400 23.00300
H  7.59500 43.47400 26.10500
H  6.92000 44.85300 25.36000
H  6.78700 43.25800 24.57700
H  4.53900 43.79400 30.48900
H  4.94500 41.90000 34.09700
H  6.08100 40.86100 33.29600
H  4.35100 40.51700 33.25800

