158

Mg 30.22200 58.18400 40.10300
C  27.62400 55.67300 39.50600
C  32.39800 55.68500 39.36900
C  32.50300 60.58900 40.07900
C  27.65600 60.43200 40.74500
N  30.00000 55.83200 39.62300
C  28.88400 55.17500 39.21800
C  29.27000 53.75300 38.69200
C  30.83600 53.63600 39.10900
C  31.11000 55.09600 39.40700
C  31.10200 52.60600 40.27800
C  29.17400 53.59600 37.13500
C  27.75100 53.17500 36.66800
H  27.00500 54.13400 35.65600
N  32.19000 58.15200 39.72300
C  32.93600 57.03200 39.50300
C  34.29400 57.40900 39.35600
C  34.37300 58.83000 39.41000
C  33.01700 59.28400 39.69400
C  35.49100 56.43500 39.34700
C  35.66100 59.66600 39.29800
O  36.75400 59.15400 39.09100
C  35.67500 61.12100 39.52000
N  30.05300 60.31000 40.17800
C  31.18400 61.06300 40.27200
C  30.79300 62.48100 40.77800
C  29.24400 62.42600 41.07200
C  28.96600 60.94800 40.68400
C  31.73600 63.06800 41.89800
C  28.33400 63.42800 40.19600
C  27.21700 64.11200 40.97800
N  28.10700 58.14300 40.13800
C  27.25100 59.16300 40.44900
C  25.87900 58.62400 40.34600
C  26.00300 57.22600 40.06700
C  27.34600 57.00100 39.91800
C  24.66200 59.44700 40.62600
C  25.32200 55.93300 39.90000
O  24.11500 55.76000 39.96800
C  26.28400 54.84500 39.42400
C  26.18700 53.71400 40.48200
O  26.66200 53.70800 41.54900
O  25.47800 52.61900 40.00600
C  25.44300 51.48800 40.94700
H  33.13400 54.91700 39.12500
H  33.19600 61.38200 40.36600
H  26.90900 61.16800 41.04700
H  28.58600 53.07600 39.20400
H  31.47700 53.33500 38.28100
H  31.92900 51.95700 39.99000
H  30.21800 52.00400 40.48800
H  31.53200 53.01300 41.19300
H  29.81500 52.76100 36.85200
H  29.47000 54.55900 36.72000
H  27.10800 52.94600 37.51800
H  27.77200 52.20700 36.16800
H  36.04400 56.53700 38.41400
H  35.31600 55.39300 39.61500
H  36.12400 56.81100 40.15100
H  34.92500 61.58700 38.88200
H  36.68600 61.49700 39.36200
H  35.47900 61.45600 40.53800
H  30.83800 63.08800 39.87400
H  28.99200 62.59700 42.11800
H  32.33200 62.23700 42.27600
H  31.28700 63.50600 42.78900
H  32.31000 63.84500 41.39400
H  27.92300 62.91200 39.32800
H  29.06200 64.16000 39.84600
H  27.42500 65.17700 41.07700
H  27.22900 63.61300 41.94700
H  26.38500 63.88600 40.31100
H  23.80700 58.87300 40.98200
H  24.45100 59.75900 39.60300
H  24.88400 60.24500 41.33400
H  25.95400 54.40700 38.48200
H  25.57900 50.50800 40.49000
H  24.43400 51.31800 41.32300
H  26.05000 51.53000 41.85200
Mg 27.20700 50.24200 26.61500
C  25.17400 51.18900 29.30300
C  29.70400 49.35800 28.94300
C  29.15700 49.37700 23.95700
C  24.55600 51.21000 24.42800
N  27.35900 50.20000 28.90200
C  26.39700 50.56300 29.78800
C  26.84200 50.31900 31.25600
C  28.35100 50.03200 31.08800
C  28.47000 49.89000 29.54500
C  29.31100 50.99800 31.75200
C  25.90400 49.21300 31.97700
C  24.94800 49.71300 33.13800
H  25.00900 48.95100 34.39900
N  29.20200 49.44400 26.48500
C  29.99100 49.14200 27.54000
C  31.18600 48.70200 26.96000
C  31.16800 48.79700 25.54800
C  29.81500 49.22100 25.26100
C  32.31800 48.18100 27.85100
C  32.27200 48.44300 24.52300
O  32.09700 48.59000 23.32300
C  33.57500 47.67200 24.96600
N  26.87300 50.24800 24.45500
C  27.87800 49.89600 23.58500
C  27.30900 49.98000 22.15800
C  25.80900 50.46800 22.31300
C  25.74300 50.64600 23.82700
C  28.15900 50.87500 21.19600
C  24.65500 49.48400 21.87400
C  24.55000 48.16200 22.58500
N  25.28300 51.10500 26.77300
C  24.33800 51.44200 25.81600
C  23.26200 52.05100 26.47900
C  23.49300 51.94200 27.81000
C  24.78600 51.33300 27.96900
C  21.97100 52.57200 25.82100
C  22.99000 52.19900 29.18600
O  21.98600 52.67700 29.62500
C  24.02200 51.65600 30.15500
C  24.29900 52.85400 30.98300
O  25.21800 53.62500 30.83500
O  23.45400 52.77600 32.11100
C  23.48700 53.92000 33.04900
H  30.49500 49.12000 29.65800
H  29.73200 49.20400 23.04500
H  23.86500 51.66200 23.71400
H  26.62900 51.24100 31.79700
H  28.62100 49.07200 31.52800
H  30.12900 50.41000 32.16900
H  28.75800 51.60000 32.47300
H  29.79700 51.56200 30.95500
H  26.49400 48.41600 32.43000
H  25.23700 48.73200 31.26200
H  23.93200 49.68400 32.74500
H  25.14900 50.76700 33.32800
H  32.73100 47.28100 27.39400
H  32.01500 47.83600 28.84000
H  32.97200 49.05200 27.88400
H  34.21200 48.22400 25.65700
H  34.13100 47.35700 24.08300
H  33.24000 46.77400 25.48500
H  27.19600 48.99400 21.70800
H  25.71000 51.30900 21.62800
H  28.78600 50.23300 20.57700
H  28.80700 51.50600 21.80500
H  27.60700 51.52200 20.51400
H  24.82700 49.35200 20.80600
H  23.70600 50.01900 21.89500
H  25.32200 48.03000 23.34400
H  24.52400 47.39100 21.81500
H  23.55800 48.11700 23.03600
H  21.10800 52.16300 26.34500
H  21.85200 52.31100 24.76900
H  21.99200 53.66200 25.83300
H  23.59900 50.87100 30.78100
H  23.66500 54.85400 32.51600
H  24.18600 53.88400 33.88400
H  22.54700 54.09200 33.57300

