158

Mg 35.38300 2.67800 29.99000
C  33.07800 3.76400 32.32200
C  37.82200 2.75700 32.69400
C  37.78600 1.64400 27.98300
C  32.96400 2.77200 27.52400
N  35.47800 3.21700 32.26000
C  34.32600 3.61700 32.93200
C  34.61300 3.72200 34.47100
C  36.20600 3.91800 34.51900
C  36.60200 3.30900 33.08200
C  36.95300 5.24000 34.86300
C  33.96300 2.48400 35.27100
C  33.32700 2.91900 36.63400
H  34.09200 4.03700 37.36200
N  37.49100 2.26200 30.25400
C  38.23900 2.28600 31.45300
C  39.50200 1.68900 31.19100
C  39.58700 1.41600 29.73200
C  38.24100 1.79300 29.23800
C  40.56100 1.50900 32.27600
C  40.76700 0.94300 28.84400
O  40.71000 0.73300 27.62900
C  42.03400 0.60500 29.50600
N  35.36400 2.32100 28.05200
C  36.52000 1.83500 27.48800
C  36.24200 1.56000 25.94600
C  34.65100 1.82300 25.82100
C  34.27800 2.37000 27.19800
C  37.09500 2.46100 24.96700
C  33.77500 0.64500 25.38400
C  33.24500 0.65500 23.90400
N  33.49900 3.24400 29.86400
C  32.56300 3.14700 28.85800
C  31.23500 3.54100 29.33800
C  31.37100 3.79800 30.65600
C  32.77900 3.59400 30.97700
C  30.09700 3.69400 28.43200
C  30.70000 4.18000 31.85700
O  29.54000 4.47700 32.10900
C  31.74000 4.08400 33.02500
C  31.80300 5.39800 33.68100
O  32.25200 6.39300 33.14400
O  31.34300 5.29800 34.96300
C  31.10600 6.59400 35.54200
H  38.58200 2.86700 33.47100
H  38.36500 1.07700 27.25100
H  32.13600 2.64400 26.82400
H  34.11200 4.63700 34.78800
H  36.54400 3.21700 35.28200
H  37.96300 5.31000 34.45900
H  36.96900 5.35100 35.94700
H  36.40500 6.04800 34.37700
H  34.70400 1.69400 35.39600
H  33.19600 2.10200 34.59700
H  33.21000 2.04200 37.27000
H  32.34000 3.25800 36.32100
H  40.12500 1.55100 33.27400
H  41.35200 2.25500 32.20900
H  41.06700 0.54800 32.18800
H  41.89400 -0.25900 30.15700
H  42.18500 1.59500 29.93600
H  42.73900 0.31100 28.72800
H  36.44400 0.51300 25.71800
H  34.56600 2.58600 25.04700
H  37.40800 3.44100 25.32800
H  36.44600 2.63900 24.11000
H  37.98200 1.92100 24.63400
H  32.90900 0.51700 26.03400
H  34.37900 -0.23800 25.59400
H  33.08600 -0.36300 23.54700
H  34.01100 1.07300 23.25100
H  32.42900 1.37600 23.85600
H  29.24300 3.98400 29.04400
H  29.95300 2.67300 28.08100
H  30.26400 4.36200 27.58700
H  31.39300 3.29000 33.68600
H  30.57100 7.16700 34.78500
H  32.08700 7.01900 35.75400
H  30.54800 6.50300 36.47400
Mg 10.03900 49.16500 26.11800
C  8.03400 49.04600 28.91100
C  12.52600 50.74400 27.93000
C  11.92500 49.36800 23.24000
C  7.46000 47.86800 24.23900
N  10.18400 49.85500 28.22500
C  9.28300 49.61500 29.16800
C  9.93800 50.10300 30.56100
C  11.32200 50.77700 30.21900
C  11.40800 50.42300 28.71400
C  11.13400 52.38900 30.59600
C  10.13400 48.85000 31.53300
C  9.21800 48.89900 32.83200
H  9.89000 49.72200 34.01900
N  11.93900 49.76600 25.73600
C  12.86000 50.25600 26.62900
C  14.14500 50.32100 25.98700
C  13.97100 50.00200 24.56000
C  12.53300 49.63300 24.43700
C  15.41700 50.68400 26.75900
C  15.01300 49.89400 23.49000
O  14.72600 49.63800 22.31800
C  16.46100 50.28800 23.73200
N  9.70000 48.64500 24.00900
C  10.59900 48.91000 23.03000
C  10.12300 48.35100 21.71300
C  8.70700 47.71500 22.08800
C  8.64600 48.01100 23.56700
C  10.12800 49.46600 20.70800
C  8.61900 46.14200 21.80800
C  9.46400 45.15900 22.64300
N  8.06800 48.81400 26.46000
C  7.15600 48.22500 25.59300
C  5.89000 48.21300 26.28600
C  6.17100 48.37000 27.61500
C  7.57100 48.71900 27.62800
C  4.56700 47.87100 25.63200
C  5.68000 48.44400 29.00400
O  4.57100 48.24600 29.50900
C  6.91800 48.61400 29.87800
C  7.04700 47.36300 30.56900
O  7.79500 46.50600 30.17500
O  6.31800 47.30000 31.78600
C  6.50700 46.22900 32.78600
H  13.27900 51.21400 28.56600
H  12.53500 49.37900 22.33400
H  6.65000 47.45000 23.63800
H  9.18300 50.74400 31.01600
H  12.23600 50.40000 30.67700
H  12.01600 52.76900 31.11200
H  10.19400 52.56300 31.11900
H  11.14300 52.90700 29.63700
H  11.11200 48.67800 31.98300
H  10.10600 47.84800 31.10600
H  9.01000 47.85000 33.04300
H  8.28600 49.45100 32.71500
H  15.37300 50.52800 27.83700
H  15.66200 51.72400 26.54400
H  16.15300 50.00400 26.33100
H  16.82400 49.58300 24.48000
H  16.48100 51.16500 24.37900
H  17.11600 50.29400 22.86100
H  10.73400 47.48000 21.47200
H  7.90300 48.25900 21.59100
H  10.19200 50.48200 21.09800
H  9.17700 49.38500 20.18100
H  10.97700 49.34100 20.03500
H  8.78100 45.97200 20.74400
H  7.56500 45.86800 21.86700
H  10.15600 45.56500 23.38200
H  9.98000 44.56900 21.88600
H  8.76100 44.59000 23.25100
H  3.81400 47.92100 26.41900
H  4.59000 46.89500 25.14800
H  4.35800 48.63200 24.88000
H  6.74200 49.36000 30.65300
H  6.77600 46.57200 33.78500
H  7.37000 45.62200 32.51300
H  5.62600 45.59200 32.85800

