158

Mg -2.58800 17.28800 26.36500
C  -2.76000 14.90100 29.02900
C  -3.23500 19.65300 28.67900
C  -2.64200 19.44300 23.92100
C  -2.46600 14.65500 24.06700
N  -2.76800 17.26300 28.73000
C  -2.85600 16.18700 29.52400
C  -3.41000 16.58000 30.87600
C  -3.72600 18.11300 30.73100
C  -3.24600 18.36500 29.30400
C  -5.22600 18.53100 30.92100
C  -2.46400 16.25500 32.12600
C  -2.56300 16.99600 33.42600
H  -2.59100 16.25000 34.72300
N  -2.79200 19.33100 26.28400
C  -3.04600 20.12500 27.33100
C  -3.24900 21.51400 26.83600
C  -3.02500 21.44200 25.41500
C  -2.76900 20.02100 25.17100
C  -3.44900 22.75100 27.70100
C  -2.86700 22.57100 24.44100
O  -2.41100 22.34200 23.31700
C  -3.06400 24.02500 24.72700
N  -2.85600 17.05800 24.32300
C  -2.71100 18.11400 23.53700
C  -2.48300 17.67100 22.08800
C  -2.30200 16.15100 22.13000
C  -2.44300 15.94300 23.62200
C  -3.56400 18.04800 21.05500
C  -1.04300 15.59100 21.41700
C  0.27800 15.57400 22.20700
N  -2.55900 15.22100 26.42200
C  -2.51600 14.29500 25.39700
C  -2.47500 12.93700 25.96300
C  -2.61200 13.17300 27.32800
C  -2.66500 14.58800 27.59200
C  -2.47900 11.66200 25.19200
C  -2.76700 12.47800 28.59500
O  -2.76100 11.25600 28.74900
C  -2.81000 13.55200 29.69300
C  -1.66200 13.32500 30.62600
O  -0.59900 13.91400 30.59500
O  -2.07000 12.56400 31.63100
C  -0.93500 12.17500 32.47800
H  -3.29800 20.49600 29.37000
H  -2.51400 20.05500 23.02600
H  -2.41400 13.83600 23.34700
H  -4.32700 15.99100 30.86700
H  -3.05000 18.72600 31.32600
H  -5.75700 18.08300 31.76100
H  -5.81800 18.46300 30.00800
H  -5.22100 19.57300 31.24200
H  -1.44600 16.21300 31.73800
H  -2.77000 15.25900 32.44300
H  -3.43400 17.63200 33.27100
H  -1.71800 17.68300 33.47100
H  -3.64600 22.53200 28.75100
H  -4.35900 23.26400 27.39100
H  -2.67600 23.51400 27.61400
H  -4.08200 24.29800 25.00600
H  -3.00200 24.49300 23.74400
H  -2.35000 24.37200 25.47300
H  -1.48400 18.06600 21.90800
H  -3.14300 15.61300 21.69200
H  -3.41800 17.42600 20.17200
H  -3.39800 19.06700 20.70600
H  -4.55300 17.86600 21.47500
H  -0.86500 16.34100 20.64700
H  -1.30500 14.62400 20.98800
H  0.23000 15.80000 23.27200
H  0.91200 16.27300 21.66200
H  0.68400 14.56900 22.09400
H  -1.42800 11.43000 25.02400
H  -2.90100 11.78600 24.19400
H  -3.06700 10.91900 25.73100
H  -3.70000 13.50000 30.32100
H  0.04700 11.94900 32.06300
H  -1.22100 11.28200 33.03300
H  -0.84700 12.95800 33.23200
Mg 46.95500 24.84500 28.00800
C  47.75900 26.93300 30.71000
C  46.17800 22.27400 30.34600
C  47.09000 22.52300 25.58800
C  48.19900 27.20700 25.86600
N  46.89100 24.63800 30.21500
C  47.23500 25.62300 31.11600
C  46.96200 25.15100 32.62400
C  46.70300 23.60300 32.39100
C  46.60200 23.48400 30.85600
C  47.86400 22.66100 32.92200
C  45.78800 25.95800 33.39100
C  46.27100 26.68000 34.67800
H  45.28100 27.00400 35.76600
N  46.51700 22.75800 27.93600
C  46.15000 21.91700 28.97800
C  45.91200 20.52500 28.44300
C  46.27500 20.54800 27.08600
C  46.61800 21.98500 26.78000
C  45.40900 19.35300 29.31800
C  46.45000 19.42800 26.03500
O  46.93700 19.57700 24.92300
C  46.12000 18.00900 26.52500
N  47.39500 24.84900 26.00200
C  47.44700 23.80700 25.19200
C  47.97100 24.24100 23.79700
C  47.84300 25.83100 23.91400
C  47.81200 25.99300 25.35400
C  49.43000 23.66600 23.60500
C  46.50800 26.34600 23.32600
C  46.72600 27.35600 22.09700
N  47.73300 26.76300 28.18000
C  48.28100 27.60500 27.24900
C  48.64500 28.88500 27.80600
C  48.40900 28.64900 29.21700
C  47.97900 27.34400 29.37900
C  49.17000 29.95600 27.05000
C  48.46400 29.24000 30.48300
O  48.79900 30.34700 30.84700
C  48.13100 28.10300 31.53000
C  49.28300 27.76800 32.37700
O  50.33800 27.21800 31.97900
O  49.07500 28.27500 33.59300
C  50.03700 27.88800 34.67300
H  45.87600 21.42900 30.96700
H  47.24800 21.89900 24.70600
H  48.61600 27.94600 25.18000
H  47.89200 25.18500 33.19100
H  45.73200 23.28400 32.76900
H  47.44000 21.83700 33.49600
H  48.62600 23.15500 33.52600
H  48.26900 22.15700 32.04400
H  45.05800 25.22400 33.73200
H  45.35000 26.65600 32.67800
H  46.85300 27.49800 34.25300
H  47.11200 26.07500 35.01700
H  44.67500 18.82700 28.70800
H  45.10200 19.72400 30.29600
H  46.24800 18.69300 29.53700
H  46.63200 17.77700 27.45900
H  46.60000 17.36900 25.78500
H  45.05300 17.83300 26.66600
H  47.32500 23.76400 23.06000
H  48.69000 26.28200 23.39600
H  49.92700 23.52200 24.56400
H  50.12300 24.30700 23.06000
H  49.39700 22.67200 23.16000
H  45.89200 26.90500 24.03100
H  45.84200 25.52200 23.07000
H  47.77000 27.65500 22.00300
H  46.15400 28.21700 22.44200
H  46.28500 26.90800 21.20700
H  48.71300 29.98500 26.06100
H  50.25500 29.90300 26.96200
H  48.98500 30.85300 27.64100
H  47.30100 28.61100 32.02100
H  50.40700 28.75000 35.22900
H  50.84500 27.34800 34.17800
H  49.57100 27.16600 35.34400

