158

Mg 8.32100 3.27700 28.50500
C  9.62700 1.75800 31.18400
C  6.24700 5.01800 30.65100
C  6.77400 4.50900 25.71400
C  10.18500 1.01800 26.42900
N  7.98000 3.36500 30.63800
C  8.78400 2.79300 31.56100
C  8.56200 3.28800 33.02900
C  7.25500 4.08200 32.81300
C  7.09700 4.12300 31.26700
C  5.94800 3.40300 33.35700
C  9.74200 4.15300 33.47200
C  10.43400 3.80400 34.83900
H  9.54900 3.12200 35.88400
N  6.80300 4.65000 28.18200
C  6.05300 5.21200 29.29300
C  5.07800 6.09300 28.71700
C  5.18300 6.00100 27.30200
C  6.24700 4.96100 26.96700
C  4.26500 7.11300 29.49000
C  4.29700 6.69900 26.22700
O  4.45700 6.51600 25.04500
C  3.25200 7.58200 26.72100
N  8.24300 2.55200 26.32900
C  7.67100 3.40900 25.41100
C  8.28300 3.19600 23.97500
C  9.37800 2.12000 24.20500
C  9.31500 1.92100 25.76300
C  7.19400 2.60200 23.01800
C  10.78200 2.60600 23.63800
C  11.51900 3.72100 24.44400
N  9.51600 1.65500 28.69500
C  10.24500 0.81300 27.80500
C  11.18600 -0.02000 28.53700
C  10.95400 0.36700 29.82900
C  9.95200 1.31800 29.88100
C  12.04800 -1.08500 28.04400
C  11.39900 0.10900 31.11600
O  12.36200 -0.62100 31.51200
C  10.55200 1.02600 32.07200
C  9.80700 0.17400 32.94700
O  8.80500 -0.42200 32.62300
O  10.35100 -0.07900 34.14700
C  9.63900 -0.80700 35.11800
H  5.65900 5.64400 31.32500
H  6.34400 4.97200 24.82300
H  11.06800 0.48700 26.06800
H  8.34400 2.46700 33.71100
H  7.33000 5.05500 33.29900
H  5.71800 2.69300 32.56300
H  5.12500 4.11600 33.30700
H  6.02100 2.96500 34.35300
H  9.54800 5.22300 33.40400
H  10.56200 3.98000 32.77500
H  10.76300 4.74600 35.27700
H  11.29200 3.18300 34.58100
H  4.53300 8.16600 29.39800
H  4.29200 6.95400 30.56800
H  3.23800 6.88700 29.20300
H  2.71000 7.96800 25.85700
H  3.75200 8.36200 27.29500
H  2.52500 7.06600 27.34900
H  8.59500 4.21000 23.72800
H  9.16300 1.10800 23.86200
H  6.29100 2.97800 23.49900
H  7.29500 1.52600 22.87400
H  7.29700 3.15400 22.08400
H  10.69500 2.96100 22.61200
H  11.39200 1.70800 23.53300
H  11.13400 3.92100 25.44400
H  11.32600 4.66900 23.94200
H  12.60800 3.67600 24.43100
H  13.03600 -0.79000 28.39700
H  12.09300 -1.13100 26.95600
H  11.73400 -1.99800 28.55100
H  11.16400 1.65200 32.72200
H  9.54500 -1.81900 34.72200
H  8.67200 -0.34400 35.31400
H  10.29200 -0.68300 35.98100
Mg 35.23100 2.86900 29.93900
C  32.90400 3.78000 32.55800
C  37.69200 2.97800 32.28100
C  37.37300 2.12600 27.51700
C  32.62600 3.02300 27.67400
N  35.31200 3.45000 32.14900
C  34.26200 3.72600 32.99500
C  34.76900 3.83200 34.47800
C  36.32000 3.98700 34.27800
C  36.49100 3.48600 32.82100
C  36.83300 5.51500 34.38200
C  34.39800 2.69500 35.44300
C  34.04400 3.17500 36.91200
H  35.01900 4.03100 37.65400
N  37.22500 2.63300 29.92200
C  38.07600 2.57100 30.99700
C  39.38500 2.14700 30.57900
C  39.35400 2.09200 29.17700
C  37.92100 2.34700 28.80300
C  40.53900 1.90900 31.57000
C  40.50300 1.77000 28.18100
O  40.35500 1.77300 26.97900
C  41.87300 1.50400 28.79800
N  34.98100 2.44900 27.96700
C  36.04500 2.17700 27.14500
C  35.62200 1.98000 25.63400
C  34.09100 2.21700 25.79600
C  33.85600 2.60400 27.26400
C  36.37400 2.98800 24.63300
C  33.25900 1.01400 25.42700
C  32.62800 1.01200 23.98400
N  33.15300 3.41900 30.04500
C  32.20600 3.48600 28.99500
C  30.93000 3.92500 29.56500
C  31.19900 4.09700 30.91600
C  32.55200 3.72500 31.16800
C  29.59500 3.95600 28.78600
C  30.55400 4.29400 32.20400
O  29.36700 4.41000 32.36500
C  31.65200 4.08500 33.31400
C  31.83000 5.41000 34.01700
O  32.31300 6.38700 33.42100
O  31.45700 5.30700 35.31700
C  31.64900 6.52700 36.16900
H  38.46500 3.05100 33.04900
H  38.00000 1.84900 26.66700
H  31.68100 2.93200 27.13400
H  34.42600 4.75300 34.95100
H  36.84500 3.31200 34.95500
H  37.54300 5.53600 35.20900
H  36.12800 6.32200 34.58100
H  37.40300 5.79400 33.49600
H  35.29100 2.09500 35.61900
H  33.59300 2.21000 34.89100
H  34.03500 2.26900 37.51800
H  33.08100 3.67700 36.82000
H  41.36600 2.59400 31.38300
H  40.95500 0.91100 31.43900
H  40.31600 1.89200 32.63700
H  42.13900 2.36100 29.41700
H  42.59900 1.42000 27.98900
H  41.92200 0.56400 29.34800
H  36.00700 0.98200 25.42300
H  33.74100 3.05900 25.19900
H  36.40000 3.95600 25.13400
H  35.73600 2.94400 23.75000
H  37.34300 2.53500 24.42100
H  32.47000 0.70400 26.11300
H  33.94100 0.16500 25.38900
H  31.58300 0.70700 24.03600
H  33.24600 0.32000 23.41200
H  32.55000 1.97800 23.48400
H  29.17800 2.94900 28.80500
H  29.72800 4.33300 27.77200
H  28.97300 4.64500 29.35700
H  31.39400 3.29800 34.02300
H  32.27600 7.30100 35.72600
H  32.15700 6.22500 37.08600
H  30.74000 7.01200 36.52400

