158

Mg 2.11700 -1.75900 43.27600
C  5.34300 -0.82200 43.02800
C  1.15400 1.00600 41.44200
C  -1.02600 -3.05800 43.13600
C  3.24000 -4.90300 44.60700
N  3.20800 -0.22500 42.11300
C  4.53300 0.01100 42.20400
C  4.93300 1.20200 41.34100
C  3.56400 1.97200 41.23200
C  2.54600 0.85000 41.63200
C  3.43200 3.29700 42.12300
C  5.60300 0.90800 39.96900
C  6.47900 2.08200 39.46800
H  6.05000 2.68400 38.07100
N  0.33300 -1.07100 42.46900
C  0.07100 0.11100 41.78300
C  -1.35100 0.37500 41.63800
C  -2.01700 -0.76200 42.22000
C  -0.91900 -1.70200 42.60100
C  -1.94700 1.61800 40.96900
C  -3.55900 -0.90300 42.32900
O  -4.23500 0.02500 41.81600
C  -4.19500 -1.93700 43.21800
N  1.17200 -3.66400 43.91800
C  -0.12000 -3.93600 43.75100
C  -0.52800 -5.29400 44.24700
C  0.91200 -5.96600 44.64100
C  1.86500 -4.78300 44.32300
C  -1.43800 -5.32500 45.52200
C  1.30400 -7.28800 43.95900
C  0.40300 -8.51200 44.32300
N  3.82100 -2.65400 43.83500
C  4.14700 -3.84900 44.44000
C  5.54700 -3.87200 44.81100
C  6.09700 -2.72700 44.33000
C  4.99800 -2.02800 43.72900
C  6.39400 -4.93900 45.46200
C  7.29100 -1.92500 44.15200
O  8.45400 -2.08100 44.45300
C  6.84500 -0.63900 43.24700
C  7.28500 0.58500 43.99600
O  7.03900 0.73400 45.15700
O  7.88600 1.58400 43.24500
C  8.47600 2.72800 43.99800
H  0.89500 1.97800 41.01700
H  -2.04400 -3.44200 43.04200
H  3.50300 -5.81900 45.14000
H  5.72700 1.77800 41.81600
H  3.44400 2.35800 40.21900
H  4.24500 3.44100 42.83500
H  2.47000 3.21900 42.62800
H  3.43500 4.15100 41.44500
H  4.87200 0.69100 39.18900
H  6.16100 -0.01800 40.11000
H  7.41700 1.54500 39.32300
H  6.48900 2.94000 40.14000
H  -2.18400 1.49200 39.91300
H  -1.33500 2.50200 41.14600
H  -2.79700 1.87000 41.60300
H  -4.57300 -2.82300 42.70700
H  -4.94600 -1.39100 43.78900
H  -3.49600 -2.16900 44.02100
H  -0.98600 -5.75100 43.37000
H  0.99200 -6.24800 45.69100
H  -1.38700 -4.27000 45.79400
H  -1.08300 -6.01800 46.28500
H  -2.48200 -5.50400 45.26400
H  2.29500 -7.57300 44.31400
H  1.40800 -7.16200 42.88100
H  0.92400 -9.22200 44.96500
H  0.19900 -8.99900 43.37000
H  -0.53100 -8.27700 44.83400
H  6.38200 -5.76600 44.75300
H  6.05200 -5.23100 46.45500
H  7.39300 -4.55400 45.67100
H  7.24100 -0.74600 42.23700
H  7.75600 3.53100 43.84200
H  9.35800 3.12700 43.49700
H  8.72300 2.41300 45.01200
Mg 24.42900 -5.18200 45.58300
C  26.21400 -2.48300 44.15500
C  21.72900 -4.42100 43.32500
C  23.04600 -8.14000 46.32800
C  27.32100 -6.00400 47.30000
N  24.05800 -3.57500 43.99600
C  24.89300 -2.57700 43.61200
C  24.29600 -1.73500 42.46500
C  22.84200 -2.24700 42.38500
C  22.79100 -3.48100 43.29600
C  21.75800 -1.18200 42.84400
C  25.10200 -1.93500 41.08100
C  25.49600 -0.66400 40.34200
H  25.39800 -0.80100 38.79200
N  22.55400 -6.10200 45.05100
C  21.61700 -5.64800 44.14200
C  20.57100 -6.62400 44.06500
C  20.80300 -7.61300 45.05300
C  22.17400 -7.33700 45.59200
C  19.37400 -6.40800 43.12000
C  19.84900 -8.73100 45.37700
O  18.66000 -8.67800 45.01700
C  20.14700 -9.83200 46.41300
N  25.07300 -6.87000 46.59700
C  24.33200 -7.92000 46.82400
C  25.00700 -8.90600 47.79200
C  26.45100 -8.35900 47.89500
C  26.34600 -6.96100 47.28500
C  24.21800 -9.00100 49.14800
C  27.62400 -9.27100 47.37600
C  28.87200 -9.49700 48.35500
N  26.35900 -4.32700 45.80600
C  27.37700 -4.85900 46.55200
C  28.55600 -3.90800 46.38800
C  28.14100 -2.99100 45.40500
C  26.78900 -3.29300 45.12600
C  29.90100 -4.05300 47.01200
C  28.53200 -1.89600 44.61100
O  29.63100 -1.34000 44.49500
C  27.32700 -1.51200 43.75300
C  27.06600 -0.05500 43.97300
O  26.41500 0.54100 44.80600
O  27.84200 0.65300 43.06000
C  27.77700 2.09900 43.13400
H  20.85300 -4.21900 42.70400
H  22.78200 -9.19200 46.45500
H  28.22000 -6.17300 47.89700
H  24.22900 -0.66100 42.64000
H  22.63600 -2.54700 41.35800
H  22.09600 -0.89500 43.83900
H  20.78000 -1.65400 42.94200
H  21.72300 -0.28600 42.22300
H  24.60300 -2.68000 40.46100
H  26.04000 -2.39100 41.39800
H  26.49200 -0.35900 40.66300
H  24.71600 0.05900 40.58300
H  19.58900 -6.98500 42.22000
H  19.16400 -5.37800 42.83100
H  18.45900 -6.81700 43.54800
H  20.81000 -9.43500 47.18200
H  20.83400 -10.52800 45.93100
H  19.23200 -10.26200 46.82000
H  24.91500 -9.83100 47.22300
H  26.64100 -8.32100 48.96800
H  23.25700 -8.50600 49.00800
H  24.74200 -8.76100 50.07300
H  24.00900 -10.06500 49.25900
H  28.04600 -8.81100 46.48300
H  27.28000 -10.23200 46.99400
H  28.84800 -10.47200 48.84200
H  28.83300 -8.67500 49.06900
H  29.76000 -9.48500 47.72200
H  30.06200 -3.68500 48.02600
H  30.59100 -3.44000 46.43100
H  30.29700 -5.06400 46.91700
H  27.60700 -1.62900 42.70600
H  27.02400 2.47400 42.44000
H  28.71600 2.51800 42.77200
H  27.56200 2.46800 44.13700

