158

Mg 26.70900 0.16100 29.46700
C  28.72200 -0.04100 32.45400
C  23.94100 0.65700 31.25400
C  25.09000 0.25300 26.50400
C  29.78700 -0.50100 27.75000
N  26.43500 0.29900 31.51300
C  27.33000 0.28600 32.63000
C  26.57500 0.57900 33.90600
C  25.10900 0.57400 33.48500
C  25.14700 0.49200 31.98400
C  24.14400 -0.46500 34.06900
C  27.12100 1.75500 34.76800
C  26.41800 1.80200 36.23000
H  27.18600 1.35100 37.49800
N  24.86000 0.23400 28.94900
C  23.77900 0.48600 29.84200
C  22.52100 0.62800 29.10800
C  22.82700 0.54600 27.72200
C  24.30100 0.32300 27.69600
C  21.19400 1.04300 29.79800
C  21.85300 0.40200 26.52100
O  22.22400 0.38800 25.36100
C  20.36600 0.28200 26.76900
N  27.39300 -0.11800 27.46700
C  26.47100 0.00700 26.43400
C  27.22000 0.09500 25.02000
C  28.70600 -0.10400 25.47000
C  28.65000 -0.25700 27.00400
C  26.86500 -0.94400 23.92100
C  29.73500 1.01300 25.16600
C  31.07500 0.60100 24.51100
N  28.77700 -0.28600 29.96500
C  29.81800 -0.61700 29.08200
C  30.92700 -1.07000 29.80200
C  30.55800 -0.76200 31.14200
C  29.28300 -0.29400 31.20900
C  32.17500 -1.70500 29.21400
C  31.10100 -0.68300 32.47400
O  32.27400 -0.89300 32.79300
C  29.86600 -0.22500 33.43300
C  29.67700 -1.21600 34.47800
O  28.95400 -2.17800 34.32400
O  30.43000 -0.93700 35.60700
C  30.29200 -1.93600 36.68400
H  23.07700 1.01600 31.81700
H  24.55500 0.44900 25.57200
H  30.74500 -0.66700 27.25300
H  26.64300 -0.32800 34.50700
H  24.75000 1.50800 33.91900
H  24.51700 -1.02300 34.92700
H  23.87000 -1.17300 33.28600
H  23.20100 -0.00900 34.37000
H  26.87300 2.74800 34.39200
H  28.21000 1.70100 34.76400
H  25.43600 1.32900 36.20800
H  26.30400 2.87300 36.39900
H  21.04800 2.11400 29.66200
H  21.17400 0.86200 30.87200
H  20.36600 0.50600 29.33400
H  20.12400 -0.60400 27.35600
H  19.79900 0.18700 25.84300
H  19.94400 1.19000 27.20100
H  26.87700 1.02900 24.57500
H  29.08800 -1.02400 25.02700
H  26.49300 -1.86300 24.37500
H  27.68000 -1.26700 23.27400
H  26.15200 -0.49600 23.22900
H  29.99500 1.66000 26.00400
H  29.36600 1.77000 24.47400
H  31.29000 1.41400 23.81700
H  31.10300 -0.23900 23.81800
H  31.88300 0.47100 25.23100
H  31.99700 -2.12600 28.22500
H  32.54200 -2.39100 29.97700
H  32.89900 -0.90800 29.04700
H  30.33500 0.70300 33.76000
H  30.51400 -2.96600 36.40600
H  29.39000 -1.79600 37.28100
H  31.17900 -1.77200 37.29600
Mg 8.63500 48.04600 26.05800
C  6.57600 48.04000 28.83500
C  11.35000 48.44500 28.32700
C  10.78100 48.75200 23.44100
C  5.93700 48.33500 24.01000
N  8.88200 48.19400 28.37100
C  7.91800 48.18700 29.28400
C  8.42900 48.38200 30.72400
C  9.96500 48.75300 30.45700
C  10.08600 48.39600 28.95700
C  10.16000 50.18500 30.78500
C  8.19900 47.11900 31.60900
C  9.23300 46.84300 32.71000
H  8.91400 45.82400 33.74000
N  10.79100 48.54300 25.85800
C  11.72800 48.47700 26.90000
C  13.04600 48.40300 26.36500
C  12.86100 48.55800 24.93500
C  11.41500 48.71300 24.70900
C  14.40400 48.33100 27.16300
C  13.90400 48.49800 23.74300
O  13.55000 48.72400 22.58600
C  15.34600 48.11300 23.99300
N  8.44700 48.39200 23.99500
C  9.41000 48.68400 23.14500
C  8.87700 48.74600 21.72300
C  7.31900 48.60300 21.88000
C  7.18600 48.37900 23.38000
C  9.29900 50.00700 20.89000
C  6.70800 47.38300 21.15900
C  5.25900 47.67100 20.74400
N  6.73300 48.03200 26.28900
C  5.71000 48.20200 25.39200
C  4.47700 48.03300 25.99500
C  4.75900 47.92400 27.39700
C  6.12800 47.98500 27.52300
C  3.19500 48.17800 25.28700
C  4.11600 47.92700 28.66800
O  2.90400 48.01300 28.90000
C  5.21700 47.98000 29.64200
C  5.06200 46.99100 30.71500
O  5.34300 45.80100 30.71500
O  4.61700 47.61300 31.79500
C  4.57600 46.74800 33.02200
H  12.20000 48.64500 28.98200
H  11.33500 48.79200 22.50000
H  5.06200 48.57800 23.40300
H  7.91400 49.25300 31.13000
H  10.76400 48.20800 30.96000
H  9.36100 50.80900 31.18800
H  10.39400 50.71900 29.86400
H  10.99700 50.30700 31.47200
H  8.02500 46.24000 30.98800
H  7.22900 47.16200 32.10600
H  9.61500 47.72900 33.21700
H  10.05200 46.38200 32.15800
H  14.86000 49.30100 26.96700
H  15.01200 47.45200 26.94600
H  14.18900 48.40600 28.22900
H  15.72700 48.83600 24.71400
H  15.92500 48.10500 23.07000
H  15.33400 47.16300 24.52800
H  9.29300 47.88000 21.20800
H  6.94200 49.57800 21.57000
H  9.99600 50.55500 21.52400
H  8.46500 50.60000 20.51600
H  9.83200 49.60700 20.02800
H  6.75900 46.50100 21.79700
H  7.22400 47.11100 20.23900
H  5.17500 47.63400 19.65800
H  4.97400 48.68700 21.01800
H  4.56400 47.00600 21.25600
H  2.86300 47.38300 24.61900
H  3.15800 49.10100 24.70800
H  2.42800 48.17800 26.06200
H  5.01000 48.97300 30.04200
H  3.53600 46.42600 33.07700
H  4.82500 47.42800 33.83600
H  5.30000 45.93600 33.08800

