158

Mg 7.55700 2.65300 27.40100
C  9.22800 1.16400 30.15800
C  5.89600 4.74100 29.65600
C  6.12200 3.94700 24.78600
C  8.75000 0.01200 25.46400
N  7.42700 2.72200 29.67600
C  8.29800 2.14600 30.54800
C  8.17000 2.74700 31.98200
C  6.93000 3.77300 31.91900
C  6.76700 3.78300 30.29900
C  5.60700 3.30700 32.54200
C  9.45200 3.44600 32.50300
C  9.25000 4.32700 33.79200
H  10.27900 4.16000 34.87400
N  6.11100 4.17000 27.20800
C  5.53000 4.89500 28.22500
C  4.65400 5.91700 27.67400
C  4.79400 5.72100 26.25700
C  5.72100 4.57800 25.98200
C  3.84900 6.83500 28.43000
C  4.04800 6.41100 25.05400
O  4.29200 6.18100 23.85500
C  3.31600 7.55300 25.36500
N  7.33300 1.92600 25.45900
C  6.77700 2.73100 24.55200
C  6.94000 2.29700 23.06700
C  7.75600 1.02200 23.31000
C  8.01600 0.98200 24.80600
C  5.51100 1.92600 22.50400
C  9.15800 0.91900 22.60800
C  9.49600 -0.48000 21.95200
N  8.63600 0.93400 27.67600
C  9.02500 -0.08900 26.85600
C  9.88600 -1.04000 27.40800
C  10.01600 -0.54300 28.73200
C  9.25600 0.64400 28.87600
C  10.45800 -2.19700 26.73600
C  10.66000 -0.81400 29.98200
O  11.52200 -1.63300 30.40600
C  10.26500 0.39100 30.93200
C  9.74300 -0.16900 32.21600
O  8.71700 -0.86900 32.33800
O  10.70700 0.03500 33.22400
C  10.48000 -0.69300 34.46300
H  5.49000 5.58300 30.22100
H  5.67300 4.26800 23.84400
H  9.24000 -0.82500 24.96200
H  8.05700 1.96300 32.73100
H  7.15700 4.80300 32.19500
H  5.57600 2.25500 32.82700
H  4.92200 3.30400 31.69400
H  5.30400 4.04600 33.28400
H  9.85200 4.06800 31.70300
H  10.16400 2.63400 32.65200
H  8.29700 3.96900 34.18300
H  9.20000 5.37900 33.51400
H  3.80600 6.60000 29.49400
H  2.82100 6.66900 28.11100
H  4.30100 7.80100 28.20400
H  3.93500 8.35100 25.77600
H  2.44300 7.27200 25.95400
H  2.90400 8.02500 24.47300
H  7.46600 3.05800 22.49100
H  7.13300 0.17900 23.01200
H  4.76100 2.06200 23.28300
H  5.37400 0.89700 22.17200
H  5.38500 2.63500 21.68600
H  9.95700 1.16700 23.30700
H  9.18000 1.74700 21.90000
H  9.82000 -0.35100 20.91900
H  8.61700 -1.10700 22.10600
H  10.37100 -0.96900 22.38100
H  11.22100 -1.87200 26.02800
H  9.67800 -2.77300 26.23800
H  10.90700 -2.89100 27.44700
H  11.12600 1.03900 31.09800
H  9.88200 -1.59000 34.29600
H  9.87500 -0.13100 35.17400
H  11.47400 -0.76400 34.90400
Mg 6.65200 53.06500 41.60500
C  5.74100 49.77400 41.15700
C  9.73400 52.41000 40.16900
C  7.23700 56.44800 41.27800
C  3.32200 53.78100 42.72400
N  7.60200 51.33000 40.83400
C  7.08600 50.02100 40.78200
C  8.01100 49.06600 40.21000
C  9.40400 49.88400 40.23300
C  8.88700 51.31200 40.47300
C  10.47600 49.44100 41.40400
C  7.67700 48.48200 38.82900
C  7.28400 49.38000 37.67000
H  6.64300 48.81500 36.36000
N  8.32400 54.22600 41.02700
C  9.48500 53.76500 40.41300
C  10.41000 54.89200 40.24700
C  9.71600 56.16100 40.61800
C  8.38700 55.60200 40.99100
C  11.80400 54.70900 39.70400
C  10.27500 57.58100 40.48400
O  11.39300 57.68600 40.07400
C  9.54100 58.78800 40.95000
N  5.44100 54.89900 41.97100
C  5.94700 56.12200 41.76100
C  4.92700 57.24900 42.02300
C  3.59300 56.40400 42.51500
C  4.10000 54.95900 42.47400
C  5.33000 58.28100 43.10500
C  2.34300 56.61400 41.54500
C  1.10600 57.28200 42.06500
N  4.99600 52.02400 41.98500
C  3.73200 52.43700 42.49200
C  2.94700 51.34200 42.61000
C  3.67300 50.21500 42.10800
C  4.90400 50.67700 41.70100
C  1.48500 51.36300 43.10900
C  3.53600 48.81900 41.84800
O  2.62400 48.03100 41.98400
C  4.96500 48.49500 41.21100
C  4.59000 47.82400 39.97500
O  4.14700 48.36400 38.98200
O  4.82200 46.48400 40.06900
C  4.75200 45.62200 38.92000
H  10.66100 52.03400 39.73200
H  7.42300 57.51600 41.14400
H  2.27200 53.79000 43.02600
H  8.06300 48.20900 40.88200
H  9.93400 49.66700 39.30500
H  10.50200 50.15600 42.22600
H  11.47400 49.44600 40.96600
H  10.22600 48.45800 41.80400
H  6.93800 47.69300 38.96800
H  8.63700 48.03400 38.57200
H  8.19600 49.90800 37.39200
H  6.51900 50.03400 38.08700
H  12.47500 55.13100 40.45300
H  11.94500 55.15000 38.71700
H  12.10100 53.66700 39.81800
H  10.26900 59.59800 41.00100
H  9.29900 58.56900 41.99000
H  8.61000 59.01600 40.43100
H  4.71000 57.74500 41.07600
H  3.29000 56.58600 43.54600
H  6.21700 57.89400 43.60700
H  4.57800 58.40600 43.88400
H  5.55700 59.21800 42.59500
H  2.15000 55.63400 41.10800
H  2.72300 57.34200 40.82800
H  0.85200 58.19000 41.51900
H  1.13000 57.60500 43.10500
H  0.35600 56.49200 42.02400
H  1.57400 51.55500 44.17900
H  1.02000 50.39100 42.94300
H  0.89900 52.14300 42.62300
H  5.57400 47.84900 41.84400
H  3.90900 44.94900 39.07800
H  5.67400 45.03900 38.91400
H  4.70900 46.12900 37.95600

