158

Mg 8.60400 3.56100 27.71600
C  10.15400 2.12600 30.57500
C  7.12000 5.78300 29.71200
C  7.05000 4.70900 24.99700
C  9.88200 0.89300 25.87700
N  8.62300 3.83700 29.89800
C  9.29400 3.12700 30.83600
C  9.04600 3.72100 32.29100
C  8.08600 4.91800 31.91700
C  7.91600 4.87500 30.43800
C  6.69900 4.83000 32.65100
C  10.30300 4.23700 32.97900
C  10.08400 4.99100 34.33800
H  10.76200 4.38600 35.61800
N  7.38600 5.00600 27.36900
C  6.91300 5.87200 28.34000
C  6.22000 6.94300 27.65300
C  6.11900 6.54600 26.31600
C  6.89900 5.35700 26.22400
C  5.60300 8.16800 28.34000
C  5.36300 7.25800 25.12300
O  5.54700 7.08300 23.91300
C  4.44900 8.45000 25.52300
N  8.37100 2.82300 25.68200
C  7.78000 3.54000 24.72300
C  7.87800 2.89200 23.36500
C  8.76600 1.68400 23.62300
C  9.07000 1.78700 25.14800
C  6.51200 2.58100 22.60900
C  10.00100 1.74700 22.67100
C  10.00000 0.57400 21.62900
N  9.85300 1.85700 28.05100
C  10.34400 0.91500 27.19000
C  11.15300 -0.01300 27.90600
C  11.14400 0.49600 29.19900
C  10.34600 1.61500 29.26400
C  11.91900 -1.10100 27.37700
C  11.62400 0.20100 30.58400
O  12.36300 -0.64900 30.95200
C  10.92400 1.24200 31.51200
C  10.09500 0.69500 32.54700
O  9.17300 -0.13000 32.42300
O  10.51900 1.22800 33.76600
C  10.11100 0.37700 34.95600
H  6.68800 6.49300 30.42000
H  6.58600 5.05600 24.07100
H  10.22500 0.08800 25.22500
H  8.48100 3.07100 32.95900
H  8.46200 5.88900 32.23900
H  6.52800 5.78600 33.14600
H  6.80100 4.14000 33.48900
H  5.92600 4.64600 31.90500
H  10.86000 4.85100 32.27100
H  10.89800 3.35300 33.20700
H  9.00600 5.02900 34.49800
H  10.32000 6.05000 34.23700
H  4.53600 8.28900 28.15000
H  6.15800 8.95100 27.82300
H  5.77700 8.18900 29.41500
H  3.78400 8.74000 24.70900
H  5.15200 9.17500 25.93300
H  3.78400 7.99800 26.25900
H  8.29100 3.65500 22.70500
H  8.30700 0.71700 23.41600
H  5.65400 2.84600 23.22800
H  6.34200 1.50500 22.57700
H  6.39900 3.05000 21.63200
H  10.90900 1.68600 23.27000
H  10.01800 2.69300 22.13000
H  9.31200 -0.23800 21.86400
H  11.02900 0.21600 21.58800
H  9.62000 0.85000 20.64600
H  12.69100 -1.43500 28.07000
H  12.23300 -0.96600 26.34200
H  11.18200 -1.89800 27.47300
H  11.75800 1.71200 32.03300
H  10.68300 -0.55100 34.95300
H  9.06000 0.09300 34.91500
H  10.19400 0.80100 35.95700
Mg 24.68400 -7.11000 46.30100
C  26.83600 -4.81100 44.82000
C  22.18300 -6.22900 44.16600
C  23.06100 -9.70900 47.61200
C  27.82200 -8.42900 47.85000
N  24.67300 -5.77900 44.71300
C  25.58100 -4.83300 44.29400
C  24.98700 -3.86300 43.31800
C  23.43200 -4.30100 43.29700
C  23.40600 -5.52900 44.14700
C  22.54700 -3.20200 43.87900
C  25.77200 -4.00000 41.88900
C  26.04500 -2.62500 41.19900
H  24.96900 -2.25100 40.21700
N  22.86300 -7.84100 45.94200
C  21.96600 -7.37000 45.01300
C  20.73000 -8.04800 45.15400
C  20.91600 -9.06500 46.12800
C  22.32600 -8.91900 46.65800
C  19.44300 -7.78500 44.31300
C  19.81400 -9.99600 46.63000
O  18.67800 -9.88700 46.20600
C  20.07300 -11.07500 47.67300
N  25.31000 -8.72000 47.64900
C  24.44200 -9.67800 48.02200
C  25.11000 -10.83000 48.84100
C  26.63900 -10.58700 48.58000
C  26.59600 -9.06700 48.13500
C  24.57700 -10.95200 50.31700
C  27.21200 -11.48300 47.49000
C  27.68200 -12.92100 47.84000
N  26.84300 -6.69500 46.41800
C  27.92800 -7.30800 47.02300
C  29.11600 -6.52600 46.87800
C  28.71500 -5.43400 46.07500
C  27.37100 -5.61900 45.82500
C  30.40800 -6.74800 47.50500
C  29.14100 -4.24100 45.41200
O  30.25300 -3.71200 45.36100
C  27.97300 -3.72300 44.59300
C  27.55400 -2.35500 45.03700
O  27.34900 -1.37400 44.32600
O  27.37900 -2.26100 46.43000
C  27.20700 -0.92100 47.06500
H  21.34400 -5.78500 43.62600
H  22.62900 -10.59500 48.08200
H  28.62700 -8.93800 48.38400
H  25.15700 -2.85200 43.68800
H  23.12500 -4.44100 42.26000
H  23.10800 -2.27500 44.00300
H  22.09000 -3.52100 44.81600
H  21.78300 -2.96400 43.13900
H  24.98700 -4.48200 41.30600
H  26.60200 -4.70400 41.83500
H  26.99100 -2.60800 40.65800
H  26.05100 -1.89200 42.00600
H  19.79600 -7.59700 43.29900
H  19.00300 -6.85500 44.67200
H  18.81400 -8.65100 44.10300
H  20.21200 -10.59700 48.64300
H  20.88200 -11.70100 47.29900
H  19.18600 -11.70200 47.76100
H  24.94900 -11.83200 48.44300
H  27.21200 -10.53300 49.50600
H  23.54100 -11.29000 50.32700
H  24.54700 -10.02300 50.88600
H  25.24500 -11.61000 50.87400
H  27.96900 -10.89100 46.97700
H  26.42800 -11.63600 46.74800
H  28.34600 -13.40200 47.12100
H  26.86100 -13.60900 48.04100
H  28.33200 -12.90500 48.71400
H  30.98000 -7.52600 46.99900
H  30.23300 -7.05900 48.53500
H  31.04000 -5.86000 47.46300
H  28.25000 -3.73900 43.53900
H  26.50400 -0.98900 47.89600
H  26.72900 -0.18600 46.41800
H  28.22300 -0.69900 47.39000

