158

Mg 8.27700 3.94500 28.07900
C  9.58400 2.49600 30.90600
C  6.43900 6.13100 29.94000
C  7.16200 5.33500 25.23700
C  9.99800 1.55500 26.22400
N  8.11300 4.30200 30.18800
C  8.72300 3.61300 31.15900
C  8.39400 4.29900 32.52500
C  7.25600 5.30300 32.19600
C  7.21100 5.19500 30.64500
C  5.91500 5.14100 32.85700
C  9.62100 4.85700 33.17600
C  9.46700 5.81400 34.36000
H  10.35200 5.62400 35.57100
N  6.99400 5.52700 27.63200
C  6.35600 6.31600 28.56200
C  5.59700 7.37800 27.86600
C  5.74600 7.10300 26.44500
C  6.63000 5.94800 26.35500
C  4.96300 8.53200 28.60200
C  5.13200 7.76300 25.20800
O  5.26700 7.38500 24.02400
C  4.12400 8.88800 25.39900
N  8.51800 3.53400 26.01200
C  7.92300 4.19300 24.99000
C  8.34700 3.69200 23.60100
C  9.35300 2.60300 23.97800
C  9.27800 2.50800 25.50400
C  7.16700 3.31100 22.75800
C  10.81300 2.87400 23.46000
C  11.34200 1.82700 22.39400
N  9.45500 2.23600 28.40200
C  10.15700 1.42400 27.58800
C  10.99600 0.49100 28.35300
C  10.86300 0.94200 29.66400
C  9.90900 1.98300 29.61400
C  11.82300 -0.57700 27.75500
C  11.31400 0.73600 31.09300
O  12.22900 0.08200 31.62000
C  10.46600 1.72500 31.88100
C  9.67200 0.85600 32.79000
O  8.60700 0.29100 32.48700
O  10.29700 0.75900 33.97000
C  9.56500 -0.05200 34.89000
H  5.86900 6.80100 30.58800
H  7.07700 5.93100 24.32600
H  10.56700 0.83000 25.63800
H  7.99100 3.52700 33.18100
H  7.75900 6.23900 32.43900
H  5.05100 5.24300 32.20100
H  5.84100 6.03000 33.48400
H  5.75700 4.40800 33.64900
H  10.15000 5.53000 32.50100
H  10.30600 4.06500 33.48000
H  8.43300 5.70500 34.68700
H  9.69000 6.79100 33.93200
H  5.12300 8.46800 29.67900
H  3.87400 8.48100 28.63300
H  5.42900 9.48200 28.34100
H  3.36200 8.58300 26.11700
H  3.61600 9.05100 24.44800
H  4.60000 9.81900 25.70600
H  8.89800 4.48500 23.09400
H  9.00800 1.62600 23.63900
H  6.15500 3.62300 23.02100
H  7.11000 2.23500 22.59700
H  7.32400 3.64800 21.73400
H  11.49700 2.88500 24.30900
H  10.86300 3.93000 23.19200
H  11.22700 2.19800 21.37600
H  10.85500 0.86100 22.52800
H  12.41500 1.66600 22.49700
H  12.46700 -0.16700 26.97600
H  11.16200 -1.38200 27.43300
H  12.46000 -0.93200 28.56500
H  11.15300 2.36700 32.43100
H  9.20900 -1.01500 34.52500
H  8.63300 0.37200 35.26300
H  10.12300 -0.23500 35.80800
Mg -10.27800 17.63500 40.61300
C  -6.71400 17.21800 40.88000
C  -9.82600 20.93800 39.79300
C  -13.38400 17.72700 39.56200
C  -10.47600 14.08100 40.70300
N  -8.45600 18.83600 40.31300
C  -7.13800 18.49900 40.44100
C  -6.22400 19.59600 39.87500
C  -7.20000 20.81800 40.16300
C  -8.61700 20.16200 40.03800
C  -7.12000 21.40700 41.60800
C  -5.89000 19.36200 38.38600
C  -4.48700 18.85300 38.04000
H  -4.30200 17.45500 37.32000
N  -11.50000 19.13300 39.98500
C  -11.10900 20.45800 39.77400
C  -12.27800 21.27000 39.51500
C  -13.32700 20.30900 39.58300
C  -12.80000 18.98700 39.79000
C  -12.04900 22.77200 39.30100
C  -14.75100 20.74500 39.31700
O  -15.09000 21.88400 39.04800
C  -15.80200 19.84200 39.50500
N  -11.64800 16.06200 39.83900
C  -12.88000 16.43200 39.58900
C  -13.77200 15.18700 39.39800
C  -12.76400 14.01500 39.68800
C  -11.52500 14.75000 40.11200
C  -15.06700 15.11800 40.32900
C  -12.59400 13.14400 38.29900
C  -12.70600 11.61800 38.44900
N  -8.96200 15.99400 40.96300
C  -9.22600 14.61600 41.03500
C  -7.96400 13.93100 41.19300
C  -6.96700 14.89200 41.17200
C  -7.60700 16.20900 40.99300
C  -7.67100 12.43700 41.30400
C  -5.52400 15.07500 41.23600
O  -4.60000 14.20100 41.23400
C  -5.27400 16.61900 41.09500
C  -4.60000 17.03700 42.33500
O  -4.77200 16.63400 43.46000
O  -3.82600 18.18900 42.01400
C  -3.31300 19.02700 43.09000
H  -9.58400 21.98600 39.60300
H  -14.41900 17.74700 39.21600
H  -10.47600 12.99300 40.61400
H  -5.31600 19.63400 40.47800
H  -6.97000 21.62800 39.47000
H  -6.45100 22.25700 41.47700
H  -6.52200 20.77000 42.26000
H  -8.10100 21.55000 42.06300
H  -5.98100 20.31800 37.87100
H  -6.68600 18.74300 37.97200
H  -3.93000 18.82900 38.97700
H  -3.98200 19.64300 37.48500
H  -11.22300 22.91500 38.60300
H  -11.68400 23.11000 40.27100
H  -12.95700 23.28700 38.98600
H  -16.79700 20.27400 39.61400
H  -15.52000 19.35000 40.43600
H  -15.65200 19.21000 38.63000
H  -14.15400 15.16600 38.37800
H  -13.18000 13.40500 40.48900
H  -15.89800 14.86300 39.67200
H  -15.45100 16.07500 40.68100
H  -15.06400 14.35000 41.10300
H  -11.59100 13.37900 37.94300
H  -13.36300 13.41500 37.57600
H  -11.75600 11.14200 38.20700
H  -13.48900 11.25300 37.78500
H  -12.82900 11.32300 39.49100
H  -8.11300 11.82900 40.51400
H  -8.35400 12.08800 42.07800
H  -6.64200 12.21500 41.58500
H  -4.72400 16.94100 40.21000
H  -2.86000 19.90500 42.62900
H  -2.44800 18.51400 43.51200
H  -4.13900 19.32700 43.73500

