158

Mg 34.81300 3.50600 29.72800
C  32.85900 4.52800 32.36900
C  37.49400 3.22000 31.80800
C  36.82600 3.02100 27.07900
C  32.04500 3.83400 27.53500
N  35.17800 4.08400 31.91800
C  34.14000 4.15800 32.84400
C  34.76100 4.06000 34.23500
C  36.33100 3.84200 34.01000
C  36.36700 3.74600 32.43200
C  37.30900 4.98800 34.45200
C  34.09600 2.80900 34.94200
C  33.60300 3.07600 36.42600
H  34.27300 4.21400 37.15000
N  36.92700 3.08800 29.53000
C  37.82700 2.94200 30.49500
C  39.08800 2.42200 29.89000
C  38.88700 2.38700 28.46400
C  37.52700 2.86200 28.28500
C  40.28300 2.05500 30.70500
C  39.78700 1.90800 27.34200
O  39.49500 2.00200 26.12700
C  41.08000 1.23000 27.76800
N  34.42600 3.19200 27.62100
C  35.44500 3.17800 26.74300
C  34.93200 3.04100 25.32900
C  33.41800 2.98600 25.49800
C  33.25800 3.40400 26.96000
C  35.33100 4.32800 24.48600
C  32.76300 1.58800 25.19800
C  31.96600 1.47000 23.85900
N  32.89300 4.13300 29.88600
C  31.86700 4.24700 28.92100
C  30.64400 4.63800 29.58700
C  31.06400 4.84700 30.95500
C  32.41300 4.58800 31.03200
C  29.30500 4.71500 29.03000
C  30.52100 5.13700 32.26600
O  29.33500 5.32400 32.57700
C  31.66300 4.95300 33.25700
C  31.97800 6.16900 33.96300
O  32.52800 7.18300 33.60400
O  31.28100 6.06900 35.14000
C  31.09400 7.30000 35.90300
H  38.30000 3.02600 32.51900
H  37.34900 2.80900 26.14400
H  31.15000 3.68100 26.92800
H  34.61600 5.01000 34.75000
H  36.76900 2.92800 34.41000
H  38.13600 4.56600 35.02400
H  36.89400 5.81000 35.03400
H  37.78100 5.43100 33.57500
H  34.88100 2.05300 34.93400
H  33.29400 2.40000 34.32800
H  33.64600 2.17700 37.04100
H  32.56800 3.39900 36.31600
H  41.16400 2.47600 30.21900
H  40.44500 0.97800 30.66600
H  40.11900 2.42600 31.71600
H  41.39600 0.66900 26.88800
H  41.09900 0.57600 28.63900
H  41.81600 2.02500 27.88800
H  35.24100 2.17900 24.73800
H  32.95500 3.73200 24.85200
H  36.07400 4.83500 25.10200
H  34.55200 5.05900 24.26900
H  35.67700 4.05400 23.48900
H  32.19000 1.23600 26.05600
H  33.59000 0.88200 25.11900
H  30.96100 1.37700 24.27000
H  32.20900 0.63400 23.20200
H  31.99100 2.31400 23.16900
H  28.83500 5.68100 29.21000
H  28.64800 3.97800 29.49300
H  29.29500 4.64800 27.94200
H  31.61000 4.25600 34.09400
H  30.97300 7.13500 36.97400
H  30.38600 7.90400 35.33700
H  31.99900 7.90700 35.88800
Mg -11.34400 36.93100 41.73200
C  -9.05200 34.67300 40.47400
C  -9.54100 39.49700 40.32700
C  -14.11000 38.98600 41.88300
C  -13.25700 34.27100 42.80800
N  -9.63700 37.04300 40.42200
C  -8.80100 36.00500 40.13800
C  -7.53700 36.46400 39.36500
C  -7.54800 38.00900 39.54200
C  -8.98100 38.20500 40.13100
C  -6.38900 38.76100 40.28000
C  -7.41100 35.92600 37.92800
C  -6.12500 35.18500 37.49800
H  -5.32800 35.70200 36.31200
N  -11.73500 39.00300 41.29300
C  -10.78400 39.91200 40.87000
C  -11.27900 41.22800 40.92800
C  -12.65000 41.11000 41.36800
C  -12.88000 39.63500 41.57000
C  -10.64700 42.44600 40.24800
C  -13.67000 42.23900 41.44000
O  -13.23600 43.39300 41.33600
C  -15.12000 42.07600 41.63000
N  -13.37600 36.56600 42.14100
C  -14.37100 37.63100 42.11900
C  -15.69600 37.19600 42.73800
C  -15.45100 35.68100 43.10700
C  -13.96600 35.49600 42.71700
C  -16.18600 38.12800 43.94000
C  -16.46400 34.69300 42.44000
C  -17.45200 33.92300 43.38700
N  -11.26800 34.88600 41.58200
C  -12.05500 33.97000 42.21100
C  -11.40000 32.65200 42.15800
C  -10.22400 32.90300 41.44700
C  -10.16400 34.28300 41.16400
C  -11.89700 31.35300 42.80200
C  -9.05600 32.30100 40.89800
O  -8.75800 31.11000 40.77600
C  -8.24300 33.41700 40.26200
C  -6.95000 33.32800 41.01200
O  -5.86500 33.10600 40.48300
O  -7.06000 33.76300 42.28900
C  -5.77300 33.63300 43.00100
H  -8.97700 40.37500 40.00500
H  -15.03500 39.56700 41.89600
H  -13.74400 33.41400 43.28000
H  -6.70000 36.08700 39.95300
H  -7.42800 38.40800 38.53500
H  -5.99200 39.44400 39.52900
H  -5.69700 37.99400 40.62700
H  -6.79700 39.37900 41.08000
H  -7.43500 36.74300 37.20700
H  -8.29100 35.28700 37.85200
H  -6.32600 34.12800 37.32600
H  -5.41900 35.23500 38.32800
H  -11.02500 42.51700 39.22800
H  -9.55900 42.39800 40.29000
H  -10.89900 43.41000 40.69200
H  -15.12200 41.59300 42.60700
H  -15.55400 41.35700 40.93500
H  -15.66100 43.02300 41.65200
H  -16.40700 37.37300 41.93100
H  -15.50200 35.61700 44.19300
H  -16.50500 37.43500 44.71900
H  -17.08100 38.64200 43.58800
H  -15.40400 38.81200 44.27000
H  -15.93200 33.93300 41.86800
H  -17.14600 35.25100 41.79900
H  -18.43700 34.31500 43.13200
H  -17.30400 34.16000 44.44000
H  -17.32000 32.85000 43.25300
H  -11.23800 30.52700 42.53100
H  -12.88700 31.12900 42.40400
H  -11.96600 31.29800 43.88900
H  -8.02500 33.19900 39.21700
H  -6.07000 33.80800 44.03500
H  -5.02300 34.28700 42.55700
H  -5.38800 32.61400 42.96900

