158

Mg 23.45500 -7.18700 47.33500
C  25.64400 -4.73000 45.78900
C  21.07100 -5.80100 45.43500
C  21.56300 -9.65300 48.40300
C  26.28800 -8.64400 48.62600
N  23.37800 -5.45100 45.79300
C  24.35100 -4.61900 45.38600
C  23.88000 -3.58300 44.35900
C  22.30600 -3.74300 44.41400
C  22.18700 -5.00700 45.28200
C  21.54800 -2.47900 45.05200
C  24.43000 -3.64100 42.98200
C  25.35100 -2.46600 42.47800
H  24.99900 -1.82600 41.11800
N  21.53000 -7.70000 46.83800
C  20.73400 -7.01700 46.06600
C  19.38800 -7.63800 46.15200
C  19.47700 -8.82300 46.96000
C  20.86000 -8.77500 47.47100
C  18.20600 -7.16400 45.41700
C  18.40000 -9.80600 47.28200
O  17.25200 -9.60100 46.91700
C  18.65000 -11.01200 48.08000
N  23.89600 -8.92800 48.30000
C  22.92600 -9.76800 48.82600
C  23.52300 -10.95100 49.49600
C  25.01300 -10.52400 49.69000
C  25.09400 -9.31200 48.77500
C  22.76800 -11.37600 50.77000
C  26.06900 -11.65400 49.24300
C  27.08100 -12.09100 50.28300
N  25.57700 -6.71700 47.41200
C  26.60600 -7.45300 47.96800
C  27.86000 -6.69400 47.87200
C  27.55000 -5.59900 47.02000
C  26.17400 -5.70100 46.73900
C  29.15800 -7.06200 48.37400
C  28.09100 -4.46100 46.38500
O  29.19900 -3.93000 46.35800
C  26.91500 -3.85400 45.50200
C  26.82200 -2.41100 45.99300
O  26.29200 -2.08900 47.06300
O  27.44700 -1.59700 45.07600
C  27.73900 -0.32800 45.81100
H  20.21400 -5.28300 45.00000
H  20.84600 -10.39400 48.76200
H  27.24300 -8.95500 49.05400
H  23.99200 -2.64400 44.90100
H  21.81100 -3.86400 43.45100
H  21.55300 -2.60800 46.13500
H  20.55800 -2.34600 44.61500
H  22.16500 -1.67000 44.66300
H  23.67600 -3.62200 42.19500
H  24.97100 -4.57000 42.80000
H  26.41700 -2.68800 42.52900
H  25.25900 -1.67500 43.22200
H  17.73800 -6.30300 45.89300
H  17.40800 -7.84500 45.12000
H  18.48400 -6.62900 44.50900
H  17.69000 -11.52200 48.16200
H  18.76900 -10.84600 49.15000
H  19.32700 -11.70100 47.57600
H  23.46900 -11.74700 48.75400
H  25.26000 -10.25100 50.71600
H  21.92100 -10.77900 51.10700
H  23.52300 -11.45400 51.55200
H  22.40500 -12.39100 50.60600
H  26.62100 -11.50200 48.31500
H  25.46900 -12.54400 49.05500
H  28.03400 -11.73700 49.89000
H  27.10900 -13.17600 50.38300
H  26.92200 -11.57700 51.23100
H  28.97700 -7.65600 49.26900
H  29.81200 -6.25800 48.71300
H  29.67500 -7.67500 47.63500
H  27.27100 -3.88700 44.47300
H  26.79600 0.17300 46.02700
H  28.22900 0.45600 45.23300
H  28.31200 -0.51100 46.72000
Mg 48.65300 44.86400 43.14400
C  45.47400 44.89700 41.63000
C  48.61100 41.37800 42.47200
C  52.03300 44.86100 43.11200
C  48.64400 48.28600 43.46400
N  47.19600 43.36500 42.08700
C  45.92400 43.57900 41.72300
C  45.27600 42.29800 41.14100
C  46.11900 41.22100 41.85800
C  47.37700 41.99900 42.13200
C  45.44700 40.64200 43.12300
C  45.35800 42.30400 39.53300
C  44.37600 41.32500 38.85200
H  44.07100 41.37400 37.28800
N  50.07900 43.24500 42.97900
C  49.90400 41.94100 42.68700
C  51.10700 41.21100 42.81000
C  52.09000 42.21700 43.09300
C  51.43800 43.52200 43.05700
C  51.26700 39.76000 42.52500
C  53.49700 41.82100 43.39400
O  53.88000 40.60200 43.53000
C  54.55600 42.83400 43.78200
N  50.11900 46.34400 43.26400
C  51.47400 46.10600 43.28900
C  52.27100 47.38300 43.47400
C  51.17800 48.30100 44.06000
C  49.88100 47.64000 43.57700
C  53.58800 47.31400 44.23000
C  51.41100 49.84900 43.92900
C  51.44200 50.56100 45.32700
N  47.26200 46.34500 42.89500
C  47.36400 47.69000 43.08800
C  46.13400 48.32800 42.67800
C  45.36500 47.26500 42.05700
C  46.12000 46.05900 42.19000
C  45.89900 49.84100 42.78500
C  44.06000 46.97800 41.37300
O  43.16800 47.73800 40.97700
C  44.17500 45.41700 41.00700
C  43.04300 44.69500 41.51900
O  42.23200 44.18100 40.78500
O  42.89400 44.85800 42.86400
C  41.79600 44.14400 43.45200
H  48.34900 40.31900 42.45300
H  53.10100 44.84400 42.88300
H  48.51600 49.28900 43.87700
H  44.24400 42.16200 41.46300
H  46.31300 40.40400 41.16200
H  46.20700 40.52100 43.89500
H  45.15600 39.67400 42.71500
H  44.46400 41.00100 43.42800
H  46.38100 42.11300 39.20900
H  45.08400 43.30500 39.20100
H  43.38500 41.46100 39.28400
H  44.56700 40.29200 39.14300
H  51.15200 39.31100 43.51200
H  52.19500 39.52700 42.00300
H  50.44700 39.48900 41.86000
H  55.40800 42.33700 44.24600
H  54.23300 43.49600 44.58600
H  54.76600 43.40100 42.87500
H  52.58100 47.78500 42.51000
H  51.25700 47.94400 45.08700
H  53.62400 46.39200 44.81100
H  53.71600 48.16000 44.90500
H  54.45600 47.21800 43.57700
H  50.60400 50.20200 43.28700
H  52.32600 50.08500 43.38400
H  50.78000 51.42500 45.27200
H  52.42900 51.02200 45.36700
H  51.25600 49.87100 46.15000
H  46.45200 50.19900 43.65300
H  44.83500 50.00500 42.95500
H  46.30800 50.32700 41.89900
H  44.17800 45.40800 39.91700
H  40.81900 44.48500 43.11000
H  41.78000 44.34900 44.52200
H  41.83600 43.09200 43.16600

