158

Mg 16.47000 -1.95000 28.30100
C  15.72000 0.14900 30.99900
C  18.54000 -3.79400 30.23400
C  17.86500 -3.55700 25.43300
C  14.99300 0.30900 26.15100
N  17.16900 -1.66700 30.35400
C  16.60700 -0.84800 31.28400
C  17.12200 -1.27500 32.68900
C  18.13300 -2.42600 32.42800
C  17.94800 -2.70900 30.92000
C  19.60900 -2.43300 32.87800
C  16.00700 -1.63600 33.68500
C  16.05400 -1.02800 35.12100
H  17.33200 -0.47900 35.64800
N  17.93900 -3.55300 27.87200
C  18.63900 -4.15500 28.90500
C  19.32800 -5.32500 28.35300
C  19.01100 -5.39500 26.94400
C  18.20300 -4.17000 26.68100
C  20.12200 -6.30700 29.23300
C  19.36200 -6.51600 26.02900
O  18.98500 -6.50800 24.86400
C  20.22700 -7.68000 26.51000
N  16.36000 -1.76000 26.11600
C  17.06900 -2.40700 25.20700
C  16.87500 -1.82400 23.77100
C  15.93100 -0.71100 23.99300
C  15.71100 -0.72400 25.49700
C  18.17900 -1.57700 22.89300
C  14.60100 -0.71000 23.12200
C  13.43000 -1.31700 23.78900
N  15.44100 -0.20800 28.50000
C  14.81100 0.58100 27.53700
C  14.01700 1.58100 28.16900
C  14.37900 1.48100 29.53600
C  15.26400 0.39100 29.68000
C  13.17300 2.65700 27.50400
C  14.15300 1.99100 30.91900
O  13.42200 2.89500 31.30600
C  15.06200 1.17500 31.88000
C  15.99700 2.13400 32.61600
O  16.93900 2.76400 32.20200
O  15.58000 2.15300 33.90900
C  16.16300 3.23700 34.75400
H  19.06700 -4.44400 30.93700
H  18.41100 -3.96900 24.58200
H  14.63000 1.16400 25.57600
H  17.76400 -0.47500 33.05900
H  17.71200 -3.33000 32.86700
H  20.25900 -2.12500 32.05900
H  19.94100 -3.37000 33.32500
H  19.63600 -1.66100 33.64700
H  15.88700 -2.71600 33.76300
H  15.02300 -1.30000 33.35700
H  15.73000 -1.83300 35.78200
H  15.28200 -0.27700 35.28500
H  21.14200 -6.27900 28.85100
H  19.76200 -7.33000 29.12600
H  20.22300 -6.03000 30.28200
H  20.31600 -8.39500 25.69200
H  19.95900 -8.21300 27.42200
H  21.21900 -7.33200 26.80100
H  16.37800 -2.70900 23.37400
H  16.44800 0.23500 23.83200
H  18.30300 -0.52700 22.62800
H  18.12500 -2.16200 21.97400
H  19.11900 -1.81100 23.39300
H  14.84500 -1.19900 22.17900
H  14.41400 0.32400 22.83200
H  13.62500 -2.19600 24.40200
H  12.74400 -1.63400 23.00400
H  12.97600 -0.56800 24.43800
H  12.13500 2.32300 27.47500
H  13.62200 2.82500 26.52500
H  13.22900 3.52400 28.16200
H  14.34700 0.67000 32.52900
H  15.92200 4.16900 34.24300
H  17.22400 3.10800 34.96800
H  15.68200 3.28100 35.73200
Mg 49.58700 46.69600 42.25100
C  46.33200 46.65600 40.97900
C  50.13500 43.60100 40.97900
C  52.79000 47.15100 43.02300
C  48.78800 49.94900 43.53300
N  48.35400 45.33300 41.20200
C  47.13300 45.52700 40.68200
C  46.67500 44.34100 39.76700
C  47.76800 43.30600 39.99000
C  48.81500 44.10800 40.77400
C  47.39400 41.76700 40.36300
C  46.45700 44.76800 38.27400
C  45.04200 44.70300 37.71500
H  44.87300 43.96000 36.36400
N  51.26200 45.47400 42.01700
C  51.28000 44.22200 41.51400
C  52.59700 43.67100 41.67400
C  53.40200 44.59400 42.35100
C  52.51600 45.80300 42.46400
C  52.97700 42.20100 41.35500
C  54.79000 44.35400 42.75100
O  55.31200 43.26600 42.58700
C  55.63100 45.42100 43.32000
N  50.59200 48.34100 43.05400
C  51.98100 48.28300 43.31500
C  52.52500 49.61700 43.92900
C  51.18900 50.44800 44.01800
C  50.10300 49.43300 43.57600
C  53.26100 49.34200 45.24700
C  51.15500 51.76100 43.14000
C  51.22200 53.06700 43.97900
N  47.95100 48.17800 42.25300
C  47.76900 49.41000 42.78900
C  46.50300 49.97300 42.41300
C  45.91600 48.92100 41.68800
C  46.79700 47.82500 41.63000
C  45.84000 51.25700 42.86100
C  44.71200 48.46400 41.09400
O  43.59900 48.91300 41.11300
C  45.01600 47.05700 40.46200
C  43.96700 46.10500 40.85100
O  43.66300 45.70400 41.94800
O  43.20100 45.99800 39.70900
C  41.88500 45.47700 39.87400
H  50.28400 42.66400 40.43900
H  53.84000 47.29100 43.29000
H  48.56500 50.90100 44.01800
H  45.77500 43.93200 40.22600
H  48.27500 43.20600 39.03000
H  47.99100 41.21000 39.64000
H  46.30900 41.67100 40.33400
H  47.86900 41.53000 41.31500
H  47.04600 44.20100 37.55200
H  46.77800 45.79500 38.10200
H  44.65500 45.72200 37.70300
H  44.48900 44.13500 38.46300
H  53.49400 42.19600 40.39500
H  52.00800 41.75500 41.13100
H  53.38300 41.63600 42.19300
H  56.61600 45.12900 43.68400
H  55.08300 45.79000 44.18700
H  55.52100 46.28800 42.67000
H  53.17700 50.10200 43.20200
H  51.05700 50.78000 45.04800
H  52.83300 49.96800 46.03000
H  54.32700 49.53700 45.12400
H  53.27700 48.32100 45.62800
H  50.24800 51.79400 42.53600
H  51.99200 51.70500 42.44500
H  51.88600 52.93700 44.83400
H  50.19700 53.25400 44.29900
H  51.58200 53.95700 43.46300
H  44.79400 51.29700 42.55700
H  46.36300 52.18100 42.61500
H  45.78600 51.31300 43.94900
H  45.05800 47.13200 39.37600
H  41.88600 44.47300 39.45000
H  41.13300 45.98100 39.26700
H  41.53100 45.52400 40.90400

