158

Mg 23.77300 -7.70400 46.81000
C  26.39000 -5.74500 45.59200
C  21.76000 -6.50300 44.34400
C  21.80600 -10.36700 47.17200
C  26.30800 -9.52000 48.67300
N  24.10500 -6.24000 45.19200
C  25.21500 -5.48500 44.88800
C  24.95600 -4.50500 43.68600
C  23.42600 -4.77000 43.32200
C  23.03300 -5.89900 44.34000
C  22.48700 -3.42800 43.22300
C  25.85300 -4.63400 42.32800
C  26.46000 -3.22900 42.02900
H  25.92400 -2.34300 40.94800
N  21.87900 -8.24500 46.05300
C  21.21300 -7.54700 45.08800
C  19.87100 -8.08400 45.00200
C  19.87400 -9.35100 45.79900
C  21.19500 -9.39900 46.34800
C  18.85100 -7.51000 44.06900
C  18.73300 -10.34700 45.91100
O  17.65300 -10.03100 45.41200
C  18.82600 -11.56400 46.69400
N  24.00700 -9.60000 47.84300
C  23.02500 -10.58900 47.77500
C  23.39100 -11.91200 48.59500
C  24.74000 -11.47300 49.22800
C  25.04500 -10.05600 48.56600
C  22.31100 -12.53400 49.57200
C  25.90500 -12.52300 49.25700
C  26.44300 -12.86400 50.66800
N  25.88700 -7.67900 47.20800
C  26.72100 -8.38300 47.98900
C  28.05400 -7.78100 47.92800
C  27.85700 -6.66800 47.12300
C  26.56200 -6.71200 46.63000
C  29.28000 -8.32800 48.64000
C  28.55900 -5.50800 46.60100
O  29.68800 -5.17200 46.74400
C  27.60000 -4.88600 45.58600
C  27.35200 -3.50500 46.01200
O  26.68000 -3.11800 46.97400
O  28.13700 -2.66000 45.30700
C  28.30400 -1.33600 45.79700
H  21.15300 -5.93300 43.63700
H  21.22300 -11.28800 47.24300
H  27.13200 -9.97000 49.23000
H  25.10300 -3.53400 44.15900
H  23.36000 -5.24900 42.34500
H  21.83100 -3.51500 42.35700
H  23.18500 -2.60100 43.08900
H  21.91700 -3.24100 44.13300
H  25.16700 -4.83900 41.50600
H  26.43700 -5.54300 42.18800
H  27.50700 -3.39500 41.77900
H  26.52400 -2.71200 42.98600
H  18.94900 -7.92300 43.06500
H  18.97600 -6.43300 43.96200
H  17.84900 -7.58200 44.49300
H  19.60400 -12.27700 46.42200
H  17.98000 -12.18000 46.39000
H  18.71600 -11.38200 47.76300
H  23.66100 -12.53100 47.73900
H  24.46800 -11.26400 50.26300
H  21.71800 -13.39200 49.25400
H  21.79300 -11.65700 49.96100
H  22.78300 -12.89900 50.48500
H  26.75900 -12.22000 48.65100
H  25.44100 -13.44600 48.91100
H  27.52000 -13.02000 50.59500
H  25.91300 -13.70700 51.11200
H  26.16800 -12.03900 51.32500
H  29.44000 -9.40600 48.67500
H  29.15200 -7.87400 49.62300
H  30.08000 -7.93700 48.01100
H  28.15400 -4.76600 44.65500
H  28.65700 -1.31800 46.82800
H  27.38600 -0.75300 45.73000
H  29.02400 -0.94500 45.07800
Mg -10.26100 18.22300 42.80200
C  -7.03600 17.21300 42.37900
C  -9.37300 21.46200 42.30900
C  -13.56300 19.00700 42.68600
C  -11.21800 14.76000 42.48000
N  -8.48300 19.20800 42.01600
C  -7.23500 18.62000 42.14100
C  -6.15000 19.64800 41.97100
C  -6.86800 21.03400 42.06200
C  -8.37300 20.55300 42.16400
C  -6.45200 21.87000 43.37700
C  -5.13300 19.46400 40.79500
C  -5.74600 18.96400 39.48400
H  -5.00500 19.20600 38.23800
N  -11.38700 20.02600 42.59400
C  -10.79200 21.23700 42.36100
C  -11.84100 22.23900 42.23500
C  -13.05200 21.58900 42.46700
C  -12.70000 20.15900 42.61700
C  -11.70500 23.73400 41.87100
C  -14.47900 22.20400 42.75600
O  -14.66600 23.39900 42.77200
C  -15.73400 21.34300 43.25900
N  -12.12400 17.00600 42.88700
C  -13.32400 17.65400 42.88900
C  -14.47500 16.60900 42.83000
C  -13.71600 15.21800 42.64300
C  -12.26200 15.68100 42.57000
C  -15.44500 16.58900 44.04700
C  -14.27300 14.34900 41.47200
C  -14.68300 12.99800 41.97000
N  -9.36500 16.32600 42.68200
C  -9.86400 14.99900 42.56500
C  -8.70900 14.10700 42.50900
C  -7.59600 14.90000 42.57100
C  -8.07200 16.24200 42.53800
C  -8.75700 12.61600 42.34800
C  -6.19300 14.88200 42.41200
O  -5.39400 13.98600 42.30800
C  -5.78500 16.42900 42.54900
C  -5.04400 16.68200 43.82300
O  -3.81000 16.69000 43.93400
O  -5.95800 16.96700 44.80600
C  -5.35300 17.24600 46.14600
H  -9.19900 22.53100 42.17700
H  -14.63400 19.21200 42.72700
H  -11.38700 13.70500 42.25800
H  -5.52600 19.59900 42.86300
H  -6.70600 21.74300 41.25000
H  -7.37200 21.89400 43.96000
H  -6.16800 22.91100 43.22700
H  -5.63200 21.43000 43.94500
H  -4.38300 18.72500 41.07700
H  -4.68300 20.45100 40.68200
H  -6.83100 19.05800 39.51200
H  -5.64100 17.87900 39.46100
H  -12.61500 24.04200 41.35600
H  -10.78700 23.93700 41.32000
H  -11.57200 24.32200 42.77900
H  -15.47400 20.81100 44.17300
H  -16.15300 20.69500 42.48900
H  -16.60600 21.98700 43.37700
H  -15.03800 16.75400 41.90800
H  -13.89600 14.67600 43.57100
H  -16.41700 16.87600 43.64600
H  -15.08400 17.20900 44.86800
H  -15.51300 15.55100 44.37300
H  -13.61900 14.34500 40.59900
H  -15.21600 14.78200 41.13900
H  -14.25600 12.83900 42.96100
H  -14.27500 12.22200 41.32300
H  -15.77100 12.97400 41.89800
H  -9.65200 12.17600 42.78900
H  -7.98200 12.12800 42.93900
H  -8.81800 12.45000 41.27200
H  -5.05100 16.61600 41.76500
H  -5.50600 16.37200 46.77800
H  -5.93400 17.95100 46.74000
H  -4.32200 17.59900 46.18000

