158

Mg -1.57500 17.64900 26.29900
C  -2.05500 15.07100 28.71500
C  -2.60000 19.88300 28.60100
C  -1.44900 19.79100 23.84400
C  -1.29300 14.94100 23.86200
N  -2.32000 17.39800 28.45100
C  -2.21000 16.33000 29.30000
C  -2.59100 16.76900 30.67100
C  -2.91900 18.32600 30.54800
C  -2.61200 18.58400 29.11900
C  -4.29500 18.81300 31.07800
C  -1.59400 16.39600 31.74800
C  -1.49800 17.20700 33.04400
H  -1.24000 16.59600 34.43800
N  -1.87200 19.55900 26.23200
C  -2.25700 20.33300 27.29300
C  -2.12800 21.75400 26.83900
C  -1.69500 21.79300 25.50700
C  -1.69400 20.35500 25.07600
C  -2.44200 22.90800 27.71200
C  -1.26800 23.02100 24.69500
O  -0.97200 22.96300 23.47800
C  -1.06400 24.27500 25.31100
N  -1.37500 17.39500 24.11400
C  -1.35300 18.46500 23.33300
C  -1.19700 18.12600 21.82000
C  -0.86600 16.61700 21.91600
C  -1.21800 16.25500 23.34900
C  -2.44400 18.42800 20.89900
C  0.58000 16.22200 21.56300
C  1.70800 17.08500 22.15300
N  -1.69600 15.41100 26.17900
C  -1.58600 14.52800 25.15500
C  -1.66500 13.19500 25.75500
C  -1.77800 13.44300 27.08500
C  -1.93500 14.75500 27.29600
C  -1.40700 11.84700 25.17500
C  -1.76200 12.66600 28.27700
O  -1.64200 11.39600 28.43300
C  -1.92800 13.73600 29.36000
C  -0.70200 13.65000 30.23900
O  0.35600 14.31100 30.11300
O  -0.85000 12.76500 31.27600
C  0.32800 12.66800 32.13400
H  -2.78300 20.67800 29.32700
H  -1.35600 20.55900 23.07200
H  -1.11100 14.11600 23.17000
H  -3.60500 16.39000 30.79500
H  -2.14500 18.92100 31.03300
H  -4.66300 19.55800 30.37200
H  -4.33800 19.39500 31.99900
H  -5.01700 18.05700 31.38800
H  -0.58100 16.57800 31.38800
H  -1.88400 15.36000 31.92600
H  -2.38800 17.83600 33.08900
H  -0.68100 17.91600 32.91400
H  -2.97600 22.61300 28.61500
H  -3.02800 23.65900 27.18300
H  -1.47000 23.33900 27.95400
H  -0.44000 24.23700 26.20300
H  -2.03200 24.72100 25.54100
H  -0.52800 24.91800 24.61200
H  -0.29300 18.65200 21.51300
H  -1.56000 16.02800 21.31700
H  -2.76600 17.55200 20.33600
H  -2.24900 19.19700 20.15100
H  -3.16800 18.70200 21.66700
H  0.66800 16.42000 20.49500
H  0.68300 15.14700 21.71300
H  2.22900 17.49300 21.28700
H  2.38900 16.42900 22.69600
H  1.48400 17.93500 22.79800
H  -1.09400 11.94600 24.13500
H  -2.39900 11.40000 25.11400
H  -0.75800 11.09200 25.61900
H  -2.90300 13.54800 29.81100
H  0.14000 13.37000 32.94700
H  1.27800 12.84800 31.63100
H  0.34800 11.67100 32.57500
Mg 40.45700 40.66500 27.14600
C  39.80200 43.03300 29.59300
C  41.79300 38.65600 29.54900
C  41.52400 38.68800 24.63700
C  39.82400 43.18700 24.69800
N  40.79800 40.84900 29.35300
C  40.36300 41.87700 30.10100
C  40.63900 41.64100 31.62500
C  41.20300 40.13700 31.61200
C  41.36700 39.85500 30.08700
C  42.47300 40.06900 32.45000
C  39.40000 41.64100 32.49700
C  39.28800 42.71000 33.61700
H  38.41300 42.37900 34.82600
N  41.44300 38.85500 27.09800
C  41.94600 38.17600 28.13400
C  42.47200 36.88500 27.74400
C  42.45000 36.91300 26.30900
C  41.79200 38.20900 25.91200
C  43.14800 36.01400 28.73800
C  42.94400 35.80900 25.31700
O  42.81900 35.84000 24.10400
C  43.37700 34.48900 25.87800
N  40.74700 41.01200 24.97700
C  40.91500 39.82400 24.23200
C  40.46200 40.10200 22.79000
C  39.79200 41.51300 22.82300
C  40.13800 41.98100 24.25200
C  41.67800 40.14800 21.82000
C  38.26700 41.66000 22.44300
C  37.26000 40.83500 23.22100
N  39.77200 42.62200 27.09200
C  39.68100 43.59100 26.04100
C  39.26900 44.84500 26.52000
C  39.25700 44.65200 27.90400
C  39.62100 43.31100 28.22500
C  38.82400 45.99600 25.68000
C  38.86700 45.32000 29.12600
O  38.30200 46.39300 29.36400
C  39.27800 44.25300 30.30000
C  40.30200 44.99200 31.14200
O  41.50000 45.04500 30.88500
O  39.69800 45.53400 32.20500
C  40.61000 46.50300 32.97000
H  42.06200 37.88900 30.27800
H  41.78100 37.96700 23.85900
H  39.46500 43.78000 23.85500
H  41.34000 42.36600 32.03900
H  40.54200 39.35200 31.97800
H  42.35600 39.03500 32.77700
H  42.50900 40.82300 33.23600
H  43.33300 40.20900 31.79600
H  39.25800 40.70500 33.03700
H  38.49700 41.86300 31.92700
H  38.68300 43.43800 33.07600
H  40.29300 43.03900 33.88000
H  42.72400 35.01100 28.68100
H  43.18400 36.28700 29.79300
H  44.17300 35.77000 28.45900
H  44.11800 34.56100 26.67400
H  43.75100 33.86900 25.06300
H  42.50400 33.90900 26.17900
H  39.76500 39.27200 22.67600
H  40.33500 42.22100 22.19700
H  41.75300 39.26500 21.18500
H  42.54100 40.09700 22.48400
H  41.90500 41.06700 21.28100
H  38.20000 41.35000 21.40000
H  38.02000 42.72100 22.46800
H  37.71400 40.21300 23.99300
H  36.73500 40.13300 22.57300
H  36.51100 41.47700 23.68400
H  38.31400 45.69300 24.76500
H  39.68300 46.62400 25.44300
H  38.18600 46.60100 26.32300
H  38.33300 43.96300 30.75900
H  40.19700 46.82600 33.92500
H  40.68500 47.30600 32.23600
H  41.55700 46.04700 33.25900

