158

Mg 49.41300 45.42300 42.54800
C  46.18600 46.62100 41.75700
C  48.47500 42.35900 41.54000
C  52.65500 44.60400 42.40400
C  50.32500 48.75300 43.21500
N  47.50900 44.64400 41.67200
C  46.32400 45.27100 41.45800
C  45.28000 44.20600 40.97200
C  45.91000 42.86100 41.35600
C  47.39100 43.29400 41.59800
C  45.22600 42.12500 42.52600
C  45.08400 44.42000 39.40200
C  43.68000 44.59300 38.88100
H  43.35400 44.18700 37.45900
N  50.44500 43.73000 42.03300
C  49.86400 42.55900 41.70300
C  50.89100 41.58700 41.56400
C  52.09700 42.14500 41.90200
C  51.80100 43.53900 42.12300
C  50.55700 40.10900 41.19200
C  53.48600 41.51700 41.86900
O  53.53000 40.35500 41.39200
C  54.66800 42.07100 42.57800
N  51.17000 46.48000 42.99300
C  52.37600 45.90700 42.79900
C  53.54800 46.93900 43.12000
C  52.77200 48.22800 43.44900
C  51.29100 47.76700 43.19700
C  54.59800 46.46700 44.17100
C  53.40700 49.47300 42.67000
C  53.56400 50.70600 43.62100
N  48.43300 47.26200 42.66600
C  48.97100 48.51100 42.98000
C  47.92800 49.42300 42.96700
C  46.76800 48.75600 42.50100
C  47.18900 47.45800 42.29000
C  48.06300 50.90500 43.11800
C  45.35300 48.90300 42.20500
O  44.53800 49.78900 42.38100
C  44.94600 47.47300 41.55300
C  43.70900 46.93400 42.26300
O  42.67700 46.68600 41.64600
O  43.71100 46.94200 43.68900
C  42.27500 46.98800 44.19400
H  48.07100 41.35600 41.38900
H  53.70900 44.35700 42.26500
H  50.65200 49.75100 43.51500
H  44.30300 44.39500 41.41600
H  45.95700 42.08200 40.59600
H  45.86500 42.12200 43.40900
H  45.12700 41.07700 42.24400
H  44.23300 42.55800 42.64900
H  45.59500 43.58800 38.91900
H  45.53900 45.33100 39.01100
H  43.42900 45.65300 38.89800
H  42.99800 43.96300 39.45400
H  50.90900 39.82900 40.19900
H  49.50300 39.86400 41.32600
H  50.94300 39.48800 42.00000
H  55.07500 42.74400 41.82300
H  55.30500 41.22700 42.84400
H  54.48400 42.68500 43.45900
H  54.04100 47.02400 42.15200
H  52.83000 48.45300 44.51400
H  55.27000 45.67800 43.83400
H  53.94000 46.01500 44.91400
H  55.12300 47.32600 44.58900
H  52.82700 49.64600 41.76400
H  54.39300 49.07300 42.43400
H  54.59900 51.03900 43.70900
H  53.33600 50.51000 44.66900
H  52.99300 51.51900 43.17200
H  48.06900 51.02300 42.03400
H  48.90600 51.32000 43.66900
H  47.07300 51.24800 43.41900
H  44.86200 47.57100 40.47000
H  42.40400 47.01100 45.27600
H  41.68400 46.11200 43.92500
H  41.79100 47.90500 43.85800
Mg 6.16200 54.76500 42.18600
C  5.70900 51.36500 41.52200
C  9.20900 54.40000 40.62100
C  6.46400 58.08200 42.16600
C  2.86100 54.88500 43.00400
N  7.29400 53.03200 41.07000
C  6.93500 51.78900 40.97800
C  7.94200 50.95400 40.27800
C  9.27900 51.89800 40.43200
C  8.57000 53.21400 40.71400
C  10.43300 51.53700 41.41300
C  7.62000 50.64500 38.69900
C  7.54500 51.78900 37.71100
H  6.30800 51.77500 36.75800
N  7.59900 56.03600 41.38600
C  8.80500 55.71700 40.93200
C  9.71500 56.93800 40.89200
C  8.93600 58.01700 41.36800
C  7.56400 57.42300 41.59800
C  11.16400 56.88100 40.45000
C  9.44200 59.45700 41.51800
O  10.61300 59.79800 41.06800
C  8.53500 60.54200 42.07600
N  4.77100 56.31700 42.34000
C  5.14500 57.65000 42.41200
C  4.07300 58.41600 43.11400
C  2.78200 57.51400 42.98000
C  3.46000 56.13300 42.74900
C  4.46000 58.66100 44.65900
C  1.88400 57.84600 41.79600
C  0.38900 58.24700 42.06700
N  4.59200 53.44800 42.48600
C  3.32400 53.62100 42.90100
C  2.57100 52.38400 43.01600
C  3.55300 51.37000 42.59900
C  4.70500 52.19600 42.16400
C  1.16000 52.26000 43.55100
C  3.87200 49.98100 42.44600
O  3.16300 48.99600 42.60100
C  5.26300 49.94700 41.75000
C  5.16600 49.18600 40.46400
O  4.40200 49.40200 39.52700
O  5.81300 48.01800 40.65700
C  5.65100 46.98600 39.60600
H  10.25000 54.24600 40.32900
H  6.56100 59.14500 42.39500
H  1.80800 54.93900 43.28900
H  8.02200 50.01400 40.82500
H  9.72000 51.90300 39.43500
H  10.39100 52.28200 42.20700
H  11.27300 51.87500 40.80600
H  10.47100 50.50400 41.75900
H  6.72000 50.03300 38.64700
H  8.29400 49.96200 38.18300
H  8.42100 51.57700 37.09800
H  7.60200 52.77400 38.17500
H  11.52200 55.92600 40.06500
H  11.77900 57.08900 41.32500
H  11.34500 57.75000 39.81800
H  7.57000 60.65200 41.58200
H  8.98100 61.53600 42.06200
H  8.31700 60.27300 43.10900
H  4.08500 59.41800 42.68500
H  2.17600 57.54300 43.88500
H  3.69200 58.18800 45.27100
H  4.57600 59.70100 44.96300
H  5.40900 58.14600 44.81000
H  1.88800 57.13200 40.97200
H  2.45600 58.66900 41.36800
H  0.30200 59.04500 42.80500
H  0.03300 57.35900 42.58900
H  -0.07600 58.44300 41.10100
H  0.61500 53.18000 43.33600
H  1.17300 52.04600 44.62000
H  0.65300 51.44700 43.03300
H  5.90700 49.41300 42.44800
H  6.08300 46.01000 39.82700
H  6.17400 47.33600 38.71700
H  4.61400 46.81600 39.31700

