158

Mg 0.83800 8.75900 26.83100
C  1.43500 11.01700 29.30600
C  0.65600 6.16600 29.17200
C  0.61000 6.47600 24.38700
C  1.14600 11.34100 24.47400
N  0.93300 8.60300 28.93000
C  1.19700 9.70300 29.78100
C  1.04700 9.27200 31.23100
C  1.19900 7.69300 31.14000
C  0.83900 7.48200 29.70200
C  2.61800 7.21200 31.66100
C  -0.34000 9.64300 31.84800
C  -0.55000 9.35400 33.32200
H  0.69800 9.05200 34.13700
N  0.61800 6.65400 26.75100
C  0.50800 5.76700 27.82200
C  0.19000 4.41100 27.33700
C  0.20900 4.46500 25.90500
C  0.51800 5.83100 25.62500
C  -0.02900 3.31500 28.24700
C  -0.17400 3.33100 24.86200
O  -0.25600 3.50100 23.61100
C  -0.55200 1.85900 25.30000
N  0.90400 8.91600 24.74200
C  0.70500 7.82100 23.97800
C  0.73300 8.25200 22.47600
C  0.44900 9.81300 22.56500
C  0.94200 10.06900 24.00400
C  1.99900 7.85100 21.73700
C  -1.10400 10.15900 22.50900
C  -1.52000 11.35100 21.56700
N  1.24500 10.78700 26.77600
C  1.38700 11.70600 25.80300
C  1.70300 12.97100 26.32400
C  1.82300 12.77800 27.68700
C  1.42400 11.43400 27.92100
C  1.90900 14.19000 25.41600
C  2.08700 13.38100 29.04200
O  2.42900 14.53800 29.31600
C  1.76600 12.27400 30.09700
C  2.92900 12.06000 30.97000
O  4.00200 11.46400 30.79600
O  2.61000 12.65200 32.21300
C  3.66900 12.50800 33.17900
H  0.62700 5.36500 29.91300
H  0.39400 5.92000 23.47200
H  1.08700 12.12700 23.71900
H  1.91100 9.72700 31.71500
H  0.49500 7.20000 31.81000
H  3.00800 7.69100 32.55900
H  3.36600 7.26600 30.87100
H  2.47400 6.20900 32.06400
H  -1.05000 8.96200 31.37900
H  -0.63400 10.63900 31.51700
H  -1.07900 8.40100 33.29300
H  -1.10000 10.17600 33.78000
H  -1.06600 3.23700 28.57400
H  0.57500 3.35000 29.15300
H  0.25300 2.42600 27.68200
H  0.33100 1.48600 25.81800
H  -0.71000 1.30700 24.37300
H  -1.44200 1.94200 25.92400
H  -0.14000 7.68400 22.15500
H  0.98800 10.42900 21.84400
H  2.75100 7.45500 22.41900
H  2.38900 8.71500 21.19900
H  1.69000 7.05600 21.05800
H  -1.33600 10.51000 23.51400
H  -1.68600 9.28100 22.23100
H  -2.14400 10.98900 20.75000
H  -0.70000 11.95000 21.17200
H  -2.02300 12.16300 22.09300
H  1.76200 15.12300 25.96000
H  1.12500 14.30700 24.66800
H  2.92200 14.18500 25.01300
H  0.86400 12.41000 30.69400
H  3.58400 13.15000 34.05600
H  4.59800 12.80100 32.68900
H  3.86600 11.48100 33.48600
Mg 46.66200 3.64900 48.10200
C  45.10400 6.69800 47.12000
C  43.62500 2.00200 47.46000
C  48.17000 0.65500 48.46200
C  49.61900 5.29600 48.16400
N  44.62200 4.29400 47.31700
C  44.23700 5.57900 46.96500
C  42.74400 5.65100 46.50300
C  42.23900 4.17600 46.80900
C  43.58900 3.42500 47.24400
C  41.09700 4.10000 47.89400
C  42.67400 6.13700 44.99000
C  41.97600 7.54700 44.64400
H  40.80200 7.44100 43.70800
N  46.01100 1.56500 47.97200
C  44.72500 1.13000 47.72800
C  44.71400 -0.33300 47.72900
C  46.00000 -0.72400 48.03700
C  46.84300 0.47500 48.12000
C  43.45800 -1.20800 47.53900
C  46.48700 -2.17200 48.25700
O  45.76300 -3.08400 47.97800
C  47.82500 -2.65900 48.76900
N  48.52500 3.00000 48.18100
C  48.97800 1.77900 48.48800
C  50.39000 1.73900 48.89100
C  50.89200 3.16000 48.63500
C  49.62300 3.92800 48.26900
C  50.63900 1.14300 50.27600
C  51.98700 3.25300 47.45000
C  51.33600 3.36000 46.03000
N  47.22000 5.62400 47.85700
C  48.54200 6.15300 47.99300
C  48.54700 7.55500 47.82300
C  47.19600 7.88100 47.49800
C  46.42700 6.64200 47.48200
C  49.80200 8.46100 47.93500
C  46.21200 8.94100 47.16400
O  46.33500 10.13200 47.03800
C  44.89000 8.18200 46.84200
C  43.84400 8.71000 47.74600
O  43.56500 8.25700 48.88400
O  43.16000 9.73600 47.14700
C  42.10400 10.49500 47.88100
H  42.63800 1.53700 47.40800
H  48.75300 -0.24000 48.69100
H  50.60300 5.75900 48.25700
H  42.26600 6.41100 47.12200
H  41.93100 3.70200 45.87700
H  41.58800 3.68600 48.77500
H  40.46800 3.29700 47.51000
H  40.49600 5.00000 48.02400
H  42.13700 5.34500 44.46600
H  43.64300 6.24900 44.50400
H  42.78100 8.08000 44.13700
H  41.71100 8.13200 45.52400
H  42.85800 -1.39800 48.43000
H  43.69500 -2.17800 47.10200
H  42.91600 -0.71600 46.73100
H  48.23400 -2.08200 49.59800
H  48.56200 -2.54600 47.97400
H  47.74200 -3.72200 48.99700
H  50.79400 1.05600 48.14400
H  51.30100 3.65900 49.51300
H  50.72400 0.07000 50.10800
H  49.74300 1.35100 50.86200
H  51.56800 1.44800 50.75800
H  52.75300 2.47800 47.47200
H  52.41600 4.24900 47.55300
H  50.45500 2.71900 46.06400
H  51.99300 2.98000 45.24700
H  50.99500 4.37600 45.82800
H  49.51400 9.42900 48.34500
H  50.06100 8.65700 46.89500
H  50.65100 8.03800 48.47300
H  44.57900 8.28200 45.80200
H  41.37300 9.81200 48.31400
H  41.48800 11.14000 47.25400
H  42.59400 10.98900 48.72100

