158

Mg 41.93400 41.45500 26.59300
C  41.02400 43.84300 29.02000
C  43.05600 39.42600 28.98000
C  42.66700 39.18800 24.09500
C  41.10200 43.75200 24.21200
N  42.18300 41.68700 28.77300
C  41.50600 42.60000 29.54300
C  41.55600 42.21700 31.06300
C  42.46900 40.90000 30.92800
C  42.58000 40.60600 29.47700
C  43.90300 41.16300 31.50000
C  40.18000 42.17000 31.67100
C  39.92700 41.10600 32.82500
H  39.25300 41.81800 34.01600
N  42.81200 39.61700 26.51800
C  43.13200 38.91300 27.62300
C  43.77400 37.64700 27.25900
C  43.50400 37.50600 25.81900
C  43.00400 38.82000 25.42300
C  44.30900 36.66100 28.25100
C  43.63100 36.32500 24.92100
O  43.35800 36.35200 23.71400
C  44.07600 34.91100 25.50100
N  42.01600 41.43300 24.50200
C  42.19700 40.36900 23.67300
C  42.06300 40.69400 22.16800
C  41.31900 42.10000 22.31500
C  41.49600 42.49300 23.80600
C  43.35400 40.65200 21.36400
C  39.86100 42.14600 21.79500
C  38.85200 41.18000 22.40100
N  41.16800 43.40100 26.55300
C  41.03400 44.28300 25.48000
C  40.55300 45.50500 26.02600
C  40.54800 45.44100 27.36400
C  40.98800 44.15100 27.65700
C  40.02200 46.72300 25.26400
C  40.20600 46.10500 28.62600
O  39.72900 47.22500 28.80400
C  40.49300 45.02200 29.77700
C  41.41200 45.44000 30.88900
O  42.55900 45.75300 30.77700
O  40.68700 45.52700 32.06600
C  41.50100 45.47100 33.32600
H  43.50800 38.82800 29.77400
H  42.91100 38.47500 23.30500
H  40.62600 44.49300 23.56600
H  41.97300 43.00200 31.69300
H  42.08000 40.05900 31.50200
H  44.20600 40.19600 31.90200
H  43.88000 41.90400 32.29900
H  44.66500 41.45800 30.77900
H  39.57500 41.77700 30.85300
H  39.74900 43.14500 31.89800
H  40.86700 40.64000 33.11900
H  39.28000 40.35900 32.36500
H  45.19700 36.25200 27.77000
H  43.66500 35.80000 28.42900
H  44.66800 37.25100 29.09500
H  45.15400 34.78000 25.41500
H  43.73700 34.06900 24.89700
H  43.68500 34.56800 26.45900
H  41.47000 39.86400 21.78400
H  41.89800 42.83600 21.75600
H  43.53200 41.63300 20.92300
H  43.43600 39.83600 20.64600
H  44.17300 40.53200 22.07400
H  39.86400 41.99700 20.71600
H  39.51300 43.11700 22.14800
H  38.07400 41.69800 22.96300
H  39.32200 40.51600 23.12700
H  38.45000 40.57100 21.59100
H  39.25000 47.17900 25.88300
H  39.61500 46.24400 24.37300
H  40.85100 47.40200 25.06500
H  39.49000 44.81600 30.15200
H  41.48900 44.46300 33.74100
H  41.11100 46.23600 33.99700
H  42.52900 45.67100 33.02300
Mg -12.13700 16.29500 41.51200
C  -9.07600 14.54700 41.20500
C  -10.69300 18.92100 39.78400
C  -15.07800 17.73400 41.42600
C  -13.62300 13.30800 42.85000
N  -10.06500 16.69200 40.71600
C  -8.98800 15.82100 40.72200
C  -7.83000 16.34400 39.95600
C  -8.33100 17.81900 39.70700
C  -9.77000 17.82600 40.01300
C  -7.60600 18.92100 40.58400
C  -7.62600 15.49000 38.73500
C  -6.19600 15.20400 38.37400
H  -5.49700 15.99300 37.37500
N  -12.75400 18.11900 40.86600
C  -12.05900 19.08700 40.12800
C  -12.84300 20.22100 39.78300
C  -14.05300 19.92500 40.29900
C  -14.00600 18.57900 40.98400
C  -12.32800 21.42800 39.02100
C  -15.27200 20.81100 40.18800
O  -15.28600 21.88800 39.63400
C  -16.57100 20.61600 40.95900
N  -14.12200 15.60200 41.93500
C  -15.17300 16.41100 41.85900
C  -16.45100 15.63300 42.20300
C  -15.99100 14.35400 42.85400
C  -14.45700 14.42100 42.57100
C  -17.48200 16.34800 43.06900
C  -16.55900 12.99700 42.28900
C  -16.79900 12.04000 43.38500
N  -11.64200 14.31900 41.89200
C  -12.27000 13.24800 42.48900
C  -11.33000 12.18600 42.58500
C  -10.12800 12.65400 42.14600
C  -10.28500 13.96800 41.80300
C  -11.67500 10.79400 43.00000
C  -8.72200 12.21600 42.01900
O  -8.07300 11.24200 42.33600
C  -8.07900 13.45300 41.39400
C  -6.97000 13.81500 42.22800
O  -7.09500 14.00400 43.45700
O  -5.75400 13.75300 41.58800
C  -4.45300 14.09500 42.20300
H  -10.28000 19.75200 39.20800
H  -16.05400 18.17800 41.22000
H  -14.00000 12.36800 43.25900
H  -6.91200 16.34000 40.54300
H  -8.26700 18.17000 38.67700
H  -8.28600 19.22500 41.38000
H  -7.34500 19.75400 39.93100
H  -6.62100 18.65400 40.96600
H  -7.96600 16.02200 37.84600
H  -8.15500 14.53900 38.67700
H  -6.23100 14.20200 37.94700
H  -5.55700 15.16600 39.25600
H  -12.79000 22.36300 39.33800
H  -12.54800 21.33400 37.95700
H  -11.26700 21.48500 39.26200
H  -17.04000 19.78900 40.42500
H  -17.29500 21.43000 40.93400
H  -16.27400 20.47600 41.99900
H  -16.88700 15.52400 41.21000
H  -16.19400 14.36800 43.92500
H  -17.77900 15.97700 44.05000
H  -18.38600 16.46400 42.47200
H  -17.18300 17.38300 43.23500
H  -15.73400 12.59700 41.69900
H  -17.39600 13.13900 41.60500
H  -16.46200 12.38800 44.36100
H  -16.29700 11.09600 43.17600
H  -17.83700 11.71500 43.45600
H  -11.83200 10.20500 42.09700
H  -12.61600 10.74800 43.54800
H  -10.97600 10.28100 43.66100
H  -7.68800 13.09500 40.44200
H  -4.33200 15.16700 42.36100
H  -3.65000 13.93700 41.48300
H  -4.32600 13.50600 43.11100

