158

Mg 29.99900 58.19600 40.00800
C  27.03400 56.37600 39.28900
C  31.77900 55.88800 38.16400
C  32.64700 60.25600 39.94300
C  28.00800 60.82800 40.97500
N  29.41800 56.31200 38.94200
C  28.18200 55.71700 38.77100
C  28.24900 54.36600 38.05500
C  29.77500 54.21000 37.92100
C  30.36200 55.58800 38.29500
C  30.34600 52.99700 38.70200
C  27.60900 54.22100 36.60600
C  27.18000 55.49100 35.90200
H  27.56900 55.59900 34.40100
N  32.00800 57.94100 39.43700
C  32.55300 56.92500 38.70400
C  33.93600 57.08600 38.54000
C  34.26000 58.35000 39.07400
C  32.96200 58.91900 39.54800
C  34.90200 56.08600 37.93500
C  35.67700 58.99600 39.10500
O  36.65000 58.47400 38.60700
C  35.86400 60.29300 39.84700
N  30.27700 60.20700 40.31700
C  31.50000 60.77000 40.39800
C  31.40500 62.25400 40.95500
C  29.88500 62.35600 41.23000
C  29.36100 61.05900 40.76900
C  32.39300 62.52700 42.13200
C  29.25200 63.63600 40.52000
C  28.12300 64.36500 41.24500
N  27.87800 58.57000 40.28000
C  27.24400 59.67900 40.67600
C  25.84900 59.40700 40.84400
C  25.72900 58.08500 40.34500
C  27.01100 57.67400 39.88400
C  24.72400 60.30700 41.44300
C  24.82200 57.00800 40.12400
O  23.64000 56.90500 40.33900
C  25.63200 55.92000 39.34600
C  25.42100 54.59800 39.83700
O  25.94300 54.09100 40.82100
O  24.54000 53.93200 38.99900
C  23.87700 52.72500 39.58500
H  32.38700 55.23400 37.53500
H  33.35800 61.06300 40.12900
H  27.39000 61.69700 41.20600
H  27.76000 53.62100 38.68300
H  30.12200 54.10400 36.89300
H  31.07800 52.36700 38.19800
H  29.58900 52.28400 39.02900
H  30.55800 53.34600 39.71300
H  26.71800 53.67300 36.91200
H  28.17000 53.58600 35.92100
H  27.45300 56.42400 36.39500
H  26.09100 55.48100 35.84900
H  35.57500 55.68400 38.69200
H  35.59500 56.52000 37.21400
H  34.49300 55.21700 37.41800
H  36.92600 60.46700 40.02500
H  35.26200 60.22800 40.75300
H  35.43200 61.08000 39.22800
H  31.62000 62.98700 40.17700
H  29.65800 62.47000 42.29000
H  31.92100 63.12100 42.91500
H  33.30500 62.99200 41.75900
H  32.70600 61.52300 42.42100
H  28.86700 63.27500 39.56600
H  29.89100 64.49400 40.31000
H  28.40000 65.40600 41.41000
H  28.14400 64.01800 42.27800
H  27.17100 64.11400 40.77800
H  23.85700 59.67400 41.62700
H  24.48500 61.13300 40.77300
H  25.17600 60.73100 42.34000
H  25.12600 55.87900 38.38100
H  24.60000 52.39900 40.33200
H  23.74900 51.86200 38.93100
H  22.89400 52.98800 39.97700
Mg 6.18200 53.92400 40.92400
C  5.54800 50.42600 40.51700
C  9.56400 53.30900 40.36500
C  6.69800 57.22900 40.68700
C  2.81400 54.34900 41.29600
N  7.36500 52.09100 40.60200
C  6.94500 50.78600 40.43900
C  8.08100 49.76200 40.31700
C  9.31300 50.70000 40.63300
C  8.73600 52.18500 40.52700
C  10.11700 50.49300 41.97400
C  8.34300 49.13600 38.89100
C  8.14200 50.09600 37.62600
H  7.19400 49.62900 36.50200
N  7.88000 55.12900 40.55200
C  9.13300 54.66900 40.31500
C  9.93200 55.83000 40.00100
C  9.21000 57.01000 40.19800
C  7.85700 56.50600 40.47200
C  11.31500 55.55200 39.40900
C  9.64800 58.37400 40.01600
O  10.79100 58.58600 39.63800
C  8.81700 59.50700 40.41000
N  4.91200 55.56300 41.10300
C  5.37400 56.80100 41.03600
C  4.25200 57.85500 41.18100
C  3.02300 56.89100 41.15600
C  3.59700 55.51300 41.15300
C  4.35800 58.70600 42.41400
C  2.18300 57.00000 39.89900
C  0.66300 56.81700 40.08000
N  4.42200 52.69600 40.89600
C  3.16400 53.01000 41.19000
C  2.30600 51.85700 41.12400
C  3.19800 50.80600 40.95600
C  4.50000 51.40700 40.77100
C  0.80200 51.83900 41.29500
C  3.30600 49.37500 40.79800
O  2.44400 48.55000 40.83400
C  4.82400 49.03300 40.57500
C  4.98800 48.33200 39.27900
O  4.61900 48.71800 38.19500
O  5.61900 47.10500 39.57400
C  5.76300 46.38200 38.32600
H  10.63900 53.15100 40.25800
H  6.58200 58.31400 40.64700
H  1.75600 54.57900 41.44300
H  7.93300 48.94800 41.02700
H  10.12100 50.58600 39.91000
H  11.16900 50.51700 41.69000
H  9.76100 49.60200 42.49100
H  9.95800 51.34900 42.63000
H  7.73500 48.24400 38.74300
H  9.40000 48.89200 38.79000
H  9.09600 50.18500 37.10600
H  8.01500 51.16000 37.82800
H  11.35000 54.69200 38.74000
H  12.10200 55.62200 40.16000
H  11.66000 56.35200 38.75400
H  9.52100 60.32800 40.54600
H  8.35300 59.20000 41.34700
H  8.05100 59.70700 39.66100
H  4.22600 58.47800 40.28600
H  2.40300 57.00300 42.04600
H  5.11800 58.31900 43.09400
H  3.40500 58.74500 42.94200
H  4.67800 59.73400 42.24300
H  2.28600 56.15000 39.22500
H  2.37900 57.87500 39.28100
H  0.35100 56.39700 41.03600
H  0.28600 56.10800 39.34300
H  0.17000 57.78500 39.98500
H  0.41000 52.77900 40.90700
H  0.59400 51.68700 42.35500
H  0.47800 50.98400 40.70100
H  5.26700 48.38800 41.33400
H  6.33200 46.96900 37.60500
H  4.79200 46.07900 37.93200
H  6.30500 45.45000 38.48600

