158

Mg 47.80400 25.03700 28.04900
C  48.76800 27.29800 30.56600
C  46.69400 22.85900 30.47200
C  46.86300 23.09000 25.58800
C  48.94500 27.52000 25.73400
N  47.66100 25.12000 30.21900
C  48.16400 26.09100 31.01100
C  47.86100 25.85000 32.48700
C  47.32700 24.33400 32.47100
C  47.22200 24.06600 30.96700
C  48.21800 23.32900 33.24500
C  46.83200 26.83500 33.16900
C  47.12300 27.20500 34.58300
H  45.90700 27.16500 35.54800
N  46.96500 23.12800 28.00500
C  46.59400 22.34600 29.10000
C  45.95300 21.14200 28.62500
C  46.00100 21.19100 27.17600
C  46.59000 22.53000 26.83200
C  45.38400 20.11300 29.55100
C  45.45300 20.12900 26.22300
O  45.54900 20.19700 24.98100
C  45.01800 18.77200 26.79000
N  47.82000 25.29700 25.92200
C  47.39700 24.31300 25.14400
C  47.70400 24.60700 23.68400
C  48.15900 26.15100 23.73600
C  48.31500 26.34400 25.23100
C  48.78400 23.63900 23.09400
C  47.20500 27.20700 23.07500
C  47.70500 27.82000 21.74200
N  48.70900 26.97600 28.09700
C  49.10700 27.85000 27.11700
C  49.72900 29.01400 27.65900
C  49.55900 28.82700 29.02500
C  48.93800 27.64800 29.22600
C  50.31200 30.21500 26.91600
C  49.81200 29.54800 30.28300
O  50.36000 30.60900 30.59800
C  49.18400 28.54200 31.28700
C  50.09900 28.38300 32.47600
O  51.10900 27.69000 32.48100
O  49.61100 29.18200 33.53700
C  50.35200 29.10300 34.82100
H  46.53600 22.13200 31.27100
H  46.58400 22.35700 24.82900
H  49.27200 28.22900 24.97000
H  48.84100 25.95000 32.95600
H  46.34100 24.18300 32.91100
H  47.80500 22.46700 33.76900
H  48.57200 23.96100 34.05900
H  49.12600 23.09700 32.69000
H  45.85100 26.36000 33.16600
H  46.58500 27.64200 32.47900
H  47.49300 28.22900 34.52900
H  47.92200 26.57700 34.97700
H  44.33500 20.08200 29.25800
H  45.54700 20.49500 30.55900
H  45.96900 19.20100 29.43200
H  45.77500 18.18500 27.31100
H  44.55700 18.17200 26.00500
H  44.19300 19.11300 27.41500
H  46.82600 24.59800 23.03800
H  49.13200 26.35900 23.29100
H  48.45600 22.97400 22.29500
H  49.27100 23.01800 23.84600
H  49.60100 24.24000 22.69300
H  46.95900 27.90200 23.87800
H  46.29000 26.64300 22.89100
H  48.71800 27.43700 21.61700
H  47.71600 28.91000 21.76200
H  46.96200 27.51500 21.00600
H  51.04500 30.70100 27.56100
H  49.49900 30.94000 26.88400
H  50.60400 29.95900 25.89800
H  48.26400 28.96400 31.69000
H  50.03200 28.25800 35.43000
H  50.12600 30.00700 35.38600
H  51.43700 28.99800 34.81000
Mg 1.50900 42.58000 25.38200
C  2.48000 42.96200 28.78400
C  -1.71100 41.73000 26.46700
C  0.59300 41.94000 22.15300
C  4.68400 43.36800 24.43600
N  0.61700 42.24600 27.48500
C  1.13300 42.54000 28.70600
C  0.07200 42.30800 29.88000
C  -1.19800 41.76800 29.09800
C  -0.78400 41.98500 27.54100
C  -1.60900 40.28400 29.35100
C  -0.27700 43.57200 30.76300
C  0.15500 43.48900 32.22800
H  -0.88500 43.52500 33.40600
N  -0.33000 41.99700 24.46900
C  -1.50700 41.71500 25.10000
C  -2.51700 41.46900 24.00400
C  -1.82100 41.56300 22.74000
C  -0.49000 41.91600 23.06600
C  -3.96700 41.20100 24.37400
C  -2.35500 41.41300 21.35800
O  -1.73300 41.61200 20.35100
C  -3.70500 40.76900 21.20000
N  2.48300 42.63900 23.60100
C  1.92500 42.25100 22.42200
C  2.95000 42.25400 21.28600
C  4.25600 42.68800 21.98900
C  3.75500 43.01700 23.46700
C  3.08100 40.83000 20.60500
C  5.03200 43.79900 21.23700
C  4.39300 45.20600 21.05700
N  3.29200 43.01100 26.35700
C  4.53000 43.30100 25.87200
C  5.42600 43.50800 26.93800
C  4.67100 43.36800 28.05300
C  3.33700 43.09700 27.70100
C  6.85100 43.80700 26.86400
C  4.74500 43.47700 29.44500
O  5.74400 43.64900 30.18500
C  3.31000 43.15300 29.99700
C  3.31400 41.93500 30.75100
O  3.28300 40.79500 30.30800
O  3.25800 42.20700 32.09700
C  3.40900 41.13000 33.09600
H  -2.67100 41.39700 26.86700
H  0.35900 41.65000 21.12600
H  5.72000 43.47900 24.11100
H  0.43400 41.48100 30.49000
H  -2.11000 42.35400 29.21200
H  -1.15800 39.96100 30.28900
H  -1.22100 39.69000 28.52300
H  -2.69000 40.13900 29.33500
H  -1.35600 43.70300 30.84200
H  0.07500 44.45300 30.22700
H  0.68600 44.43000 32.37000
H  0.78500 42.60000 32.27300
H  -4.17200 40.22500 24.81400
H  -4.70600 41.35600 23.58900
H  -4.21300 41.97800 25.09800
H  -3.90000 39.82000 21.70100
H  -3.72200 40.56300 20.12900
H  -4.47100 41.49400 21.47300
H  2.81800 42.89000 20.41100
H  4.87800 41.79400 22.02900
H  3.61200 40.22300 21.33900
H  3.67100 40.99900 19.70400
H  2.08000 40.49100 20.33900
H  5.25600 43.45000 20.22900
H  5.93400 43.96300 21.82700
H  3.37700 45.35700 21.41900
H  4.44500 45.46300 19.99800
H  4.98100 45.96600 21.57200
H  7.15200 44.60300 27.54600
H  7.05200 44.06100 25.82300
H  7.31000 42.88600 27.22200
H  2.99300 43.86400 30.75900
H  2.67900 41.27700 33.89200
H  4.40500 41.18900 33.53300
H  3.35400 40.08000 32.80600

