158

Mg 47.50900 24.85500 28.02100
C  48.22300 27.24600 30.53000
C  46.84700 22.54300 30.50100
C  47.07400 22.50400 25.68000
C  48.46700 27.20900 25.52900
N  47.62900 24.97500 30.22800
C  47.81300 26.04800 31.04200
C  47.44700 25.76300 32.56400
C  47.23900 24.15500 32.46400
C  47.23700 23.86200 30.96200
C  48.19800 23.28800 33.27500
C  46.25000 26.62200 33.06700
C  45.63000 26.15700 34.45500
H  45.87400 26.98900 35.74900
N  46.99000 22.82200 28.09300
C  46.81300 22.05500 29.19200
C  46.55700 20.69300 28.82000
C  46.56200 20.61300 27.38300
C  46.85500 22.03100 26.99000
C  46.25400 19.64700 29.76900
C  46.28000 19.42300 26.41400
O  46.11500 19.47100 25.20200
C  46.05300 17.93900 26.89300
N  47.95000 24.86300 25.97000
C  47.62500 23.70300 25.24000
C  47.72100 24.00600 23.73100
C  47.89900 25.56000 23.62200
C  48.09900 25.94700 25.12900
C  48.86900 23.25900 22.97500
C  46.69900 26.38000 22.98600
C  45.35800 26.57900 23.73400
N  48.38000 26.81400 27.97400
C  48.71300 27.62100 26.91500
C  48.98800 28.92700 27.42400
C  48.85200 28.81600 28.81400
C  48.42700 27.53300 29.13600
C  49.54500 30.12000 26.61600
C  49.02900 29.58000 30.05000
O  49.46700 30.64600 30.24900
C  48.44200 28.58300 31.18900
C  49.42300 28.57300 32.33300
O  50.47800 27.96300 32.37500
O  48.97100 29.42600 33.31200
C  49.78600 29.36200 34.48200
H  46.81000 21.81500 31.31400
H  46.80200 21.84100 24.85600
H  48.63500 27.99800 24.79300
H  48.18900 25.84500 33.35800
H  46.23000 23.91700 32.80000
H  48.98300 23.95300 33.63400
H  48.52900 22.51100 32.58600
H  47.67100 22.84000 34.11900
H  45.50200 26.71500 32.28000
H  46.71700 27.58200 33.28600
H  45.92600 25.14100 34.71600
H  44.54500 26.15000 34.35100
H  46.99600 18.85200 29.83800
H  45.29400 19.18500 29.53600
H  46.21700 20.01500 30.79400
H  45.02600 17.88500 27.25600
H  46.76300 17.69400 27.68300
H  46.14800 17.16100 26.13500
H  46.75800 23.72700 23.30100
H  48.82000 25.80100 23.09200
H  49.14700 22.44100 23.64000
H  49.75400 23.85000 22.73700
H  48.48400 22.76300 22.08400
H  46.43000 26.06900 21.97700
H  47.21900 27.33400 22.89700
H  45.55800 27.35800 24.46900
H  45.00200 25.67000 24.22100
H  44.62600 27.02500 23.06000
H  50.63200 30.13300 26.54500
H  49.24100 31.02100 27.15000
H  49.19500 30.11700 25.58300
H  47.46300 28.96900 31.47400
H  49.62400 30.25100 35.09100
H  50.83100 29.09700 34.32200
H  49.39600 28.53100 35.06900
Mg 8.80200 48.06400 28.48100
C  7.25000 47.19100 31.49900
C  11.82600 47.93800 30.18300
C  10.25700 49.00300 25.58300
C  5.71000 48.59100 27.05800
N  9.41300 47.88500 30.67700
C  8.66000 47.34900 31.67800
C  9.47000 47.28700 33.03400
C  10.94000 47.58700 32.59600
C  10.72000 47.86200 31.04800
C  11.70500 48.77400 33.33000
C  9.29800 45.91000 33.70400
C  10.30900 45.41800 34.78300
H  9.81700 44.94900 36.23900
N  10.66000 48.43000 27.96400
C  11.85000 48.27600 28.81700
C  13.00300 48.33500 27.94100
C  12.57500 48.65100 26.63800
C  11.13700 48.65500 26.64900
C  14.45100 48.17100 28.45400
C  13.38700 48.90600 25.33300
O  12.89800 49.21200 24.23200
C  14.86600 48.82600 25.50200
N  8.09100 48.66300 26.62400
C  8.82900 49.06100 25.54400
C  8.05800 49.49800 24.30800
C  6.60800 49.29500 24.78000
C  6.82600 48.92100 26.26500
C  8.26200 50.98200 23.88800
C  5.88200 48.16900 24.08700
C  5.61700 48.28700 22.53300
N  6.83700 47.82500 29.07100
C  5.65900 48.05200 28.37000
C  4.54900 47.64200 29.17000
C  5.10500 47.34300 30.46300
C  6.49000 47.49900 30.34000
C  3.16000 47.42400 28.66900
C  4.77600 47.01300 31.83500
O  3.69600 46.94800 32.34500
C  6.19300 46.73800 32.59600
C  6.22000 45.33100 32.95300
O  6.65100 44.38900 32.23400
O  5.87400 45.25400 34.32700
C  6.02600 43.98900 35.02300
H  12.75500 47.66800 30.69000
H  10.62400 49.30900 24.60100
H  4.73200 48.75300 26.60100
H  9.06500 48.14400 33.57300
H  11.55200 46.69800 32.74700
H  12.77100 48.70200 33.11000
H  11.76400 48.71800 34.41700
H  11.30000 49.73900 33.02700
H  9.38700 45.20700 32.87600
H  8.34900 45.76900 34.22200
H  11.06000 46.17700 35.00200
H  10.90100 44.57400 34.42900
H  15.04600 49.08400 28.45600
H  14.90600 47.39200 27.84200
H  14.46100 47.90900 29.51200
H  15.23000 48.99400 24.48900
H  15.19700 47.84600 25.84500
H  15.19200 49.74100 25.99700
H  8.29500 48.87600 23.44500
H  5.98100 50.18600 24.81000
H  8.59700 51.00800 22.85100
H  8.98200 51.42700 24.57500
H  7.36300 51.59500 23.95100
H  5.02300 47.90700 24.70500
H  6.58400 47.33500 24.05500
H  6.25900 49.01100 22.03000
H  4.54200 48.43400 22.42800
H  5.85700 47.33100 22.06800
H  2.57000 46.88300 29.40900
H  3.08400 46.82700 27.75900
H  2.60300 48.34000 28.47100
H  6.22000 47.41900 33.44700
H  5.12900 43.39800 34.84200
H  5.97300 44.23900 36.08200
H  6.95400 43.50500 34.72000

