158

Mg -10.53900 39.71700 40.46700
C  -9.22800 36.80800 39.10100
C  -7.44400 41.31400 39.69300
C  -12.06600 42.55900 40.58900
C  -13.50700 38.06700 41.19100
N  -8.57800 39.08000 39.43400
C  -8.25300 37.83000 38.99600
C  -6.81400 37.77400 38.48300
C  -6.20900 39.04400 39.03900
C  -7.50000 39.90700 39.44300
C  -5.28400 38.72600 40.21600
C  -6.67100 37.76100 36.86700
C  -5.88700 36.59300 36.15600
H  -6.62200 35.75800 35.10300
N  -9.78300 41.75000 40.35600
C  -8.53700 42.18200 40.01600
C  -8.57700 43.60000 39.93500
C  -9.95600 44.00400 40.03800
C  -10.68900 42.76200 40.39600
C  -7.35300 44.35900 39.57900
C  -10.50600 45.38000 39.85300
O  -9.76600 46.34900 39.62800
C  -11.94900 45.73100 40.02000
N  -12.45200 40.25500 41.08400
C  -12.83300 41.46800 40.97800
C  -14.33400 41.67100 41.29700
C  -14.75000 40.24800 41.72100
C  -13.52500 39.46100 41.35000
C  -14.76000 42.74200 42.38300
C  -16.13700 39.66600 41.18200
C  -17.18300 39.21500 42.17700
N  -11.31500 37.80800 40.22700
C  -12.57500 37.29200 40.43400
C  -12.56900 35.89800 40.05900
C  -11.26600 35.65900 39.51600
C  -10.55600 36.84500 39.65300
C  -13.60300 34.92500 40.28000
C  -10.49300 34.62800 38.84700
O  -10.66600 33.56000 38.32000
C  -9.09200 35.35700 38.69700
C  -8.07800 34.63200 39.56000
O  -8.10300 34.62600 40.77200
O  -7.10500 33.96400 38.84400
C  -5.94700 33.48000 39.65700
H  -6.47000 41.78000 39.53000
H  -12.63900 43.48700 40.53800
H  -14.45600 37.57600 41.41800
H  -6.39900 36.82600 38.82400
H  -5.76900 39.61600 38.22200
H  -5.34400 37.76200 40.72200
H  -5.42500 39.45000 41.01800
H  -4.28900 38.96900 39.84300
H  -6.20900 38.68500 36.51800
H  -7.67000 37.80500 36.43400
H  -5.62300 35.79100 36.84600
H  -4.95900 37.01100 35.76800
H  -7.03200 44.20400 38.54800
H  -6.53300 44.01400 40.20900
H  -7.38500 45.43300 39.76100
H  -12.48700 45.09800 39.31400
H  -12.23200 46.73400 39.69800
H  -12.17900 45.53100 41.06700
H  -14.96800 41.84500 40.42700
H  -14.80500 40.34200 42.80600
H  -13.90800 42.74300 43.06300
H  -15.61500 42.49100 43.01100
H  -14.79200 43.80500 42.14300
H  -15.96100 38.94200 40.38600
H  -16.60200 40.50400 40.66200
H  -18.03500 39.88900 42.08200
H  -16.79100 39.17100 43.19300
H  -17.51600 38.20100 41.95500
H  -14.28600 34.95100 39.43100
H  -14.14800 35.11800 41.20400
H  -13.20800 33.91100 40.21900
H  -8.77100 35.22800 37.66300
H  -5.15500 33.34600 38.92100
H  -6.10300 32.51500 40.13800
H  -5.47000 34.14800 40.37500
Mg -10.35700 17.00500 40.89800
C  -6.88400 16.42300 40.73800
C  -9.69900 20.20900 40.44200
C  -13.62200 17.41100 40.44400
C  -10.89300 13.52600 40.89900
N  -8.44400 18.16900 40.82200
C  -7.20700 17.74400 40.59300
C  -6.24200 18.98600 40.45000
C  -7.14400 20.19700 40.84300
C  -8.51400 19.52300 40.79700
C  -6.88900 20.74800 42.22400
C  -5.65600 19.05900 38.98100
C  -4.20600 18.51600 38.84600
H  -3.86100 17.68200 37.59800
N  -11.50700 18.55400 40.35400
C  -11.05100 19.83400 40.24100
C  -12.17400 20.65000 39.92900
C  -13.33600 19.86200 39.89400
C  -12.87300 18.57800 40.24300
C  -12.11500 22.10500 39.60200
C  -14.78500 20.37600 39.58800
O  -14.95700 21.55600 39.20600
C  -15.97100 19.50000 39.67300
N  -11.99200 15.67300 40.76600
C  -13.23400 16.11800 40.67900
C  -14.31800 15.00100 40.75300
C  -13.35900 13.72000 40.62600
C  -11.94800 14.34400 40.77500
C  -15.06400 15.16500 42.09000
C  -13.46400 12.92100 39.23400
C  -12.90200 13.64500 38.03100
N  -9.15900 15.26200 40.97800
C  -9.51700 13.92700 41.08100
C  -8.25400 13.14500 41.24100
C  -7.21800 14.05000 40.98000
C  -7.81300 15.36300 40.92200
C  -8.22000 11.66900 41.31900
C  -5.74800 14.27100 40.85000
O  -4.79900 13.48000 40.85000
C  -5.55400 15.76700 40.76800
C  -4.86700 16.13200 42.04100
O  -3.93200 16.91400 42.15900
O  -5.54000 15.44200 43.05300
C  -5.22900 15.63800 44.45300
H  -9.59000 21.27400 40.22500
H  -14.69000 17.41200 40.21700
H  -11.07800 12.45200 40.96900
H  -5.34800 18.94300 41.07200
H  -7.15200 21.01100 40.11800
H  -6.06500 21.45900 42.16100
H  -6.57600 19.97500 42.92600
H  -7.78800 20.99200 42.79000
H  -5.71500 20.04200 38.51400
H  -6.25400 18.37100 38.38400
H  -3.78900 18.10300 39.76500
H  -3.71600 19.48600 38.75400
H  -12.69000 22.32400 38.70200
H  -11.16300 22.62700 39.70200
H  -12.77100 22.57400 40.33600
H  -16.88300 20.08100 39.53000
H  -15.95400 19.12000 40.69500
H  -15.84000 18.62700 39.03400
H  -14.99400 15.08600 39.90200
H  -13.58500 13.00300 41.41500
H  -16.01700 15.61700 41.81400
H  -14.55600 15.93400 42.67200
H  -15.24900 14.25200 42.65700
H  -14.51800 12.64600 39.17900
H  -12.94600 11.98700 39.45400
H  -13.44200 13.48400 37.09800
H  -11.84300 13.47800 37.83100
H  -12.86300 14.71400 38.23900
H  -7.26700 11.26700 40.97500
H  -8.98200 11.33100 40.61700
H  -8.27000 11.30300 42.34500
H  -4.88300 16.02000 39.94700
H  -5.43800 14.73100 45.02100
H  -5.89800 16.43100 44.78900
H  -4.24000 16.04400 44.66300

