158

Mg 30.50600 57.97300 40.22200
C  27.86600 56.01000 38.77300
C  32.66700 55.68100 38.99400
C  32.91900 60.25400 40.62700
C  28.01000 60.44900 40.93800
N  30.28000 56.08000 38.93100
C  29.15200 55.45300 38.55600
C  29.52800 54.16000 37.75700
C  31.11000 54.01800 38.02200
C  31.37500 55.26600 38.79100
C  31.64000 52.72500 38.71900
C  29.26200 54.33200 36.22800
C  27.98700 53.66300 35.69400
H  27.11400 54.54300 34.85300
N  32.53100 57.97100 40.00100
C  33.18300 56.88000 39.51400
C  34.61900 57.25600 39.35800
C  34.69800 58.62800 39.77800
C  33.33100 59.03300 40.19000
C  35.78400 56.35800 38.81600
C  36.02800 59.52200 39.67900
O  37.08000 58.96900 39.41100
C  36.06200 60.96000 39.89600
N  30.47500 60.08400 40.62600
C  31.62600 60.72300 40.89200
C  31.35500 62.12700 41.37200
C  29.80100 62.16600 41.66700
C  29.35400 60.86100 41.06400
C  32.29100 62.66700 42.43800
C  29.10900 63.54200 41.13200
C  28.27400 64.40300 42.10400
N  28.34500 58.24600 39.98900
C  27.50400 59.21700 40.46500
C  26.10900 58.90200 40.18400
C  26.21800 57.59500 39.57400
C  27.58400 57.30000 39.42700
C  24.88700 59.75200 40.34400
C  25.47800 56.54800 38.93200
O  24.26200 56.52500 38.67200
C  26.48600 55.36300 38.48400
C  26.22500 54.11900 39.34900
O  27.00900 53.56100 40.13400
O  24.97000 53.66800 39.05600
C  24.48100 52.40800 39.67300
H  33.42100 54.99500 38.60300
H  33.68900 61.01300 40.78100
H  27.25800 61.17500 41.25300
H  28.96300 53.36800 38.24800
H  31.54700 54.14400 37.03200
H  30.84300 51.98500 38.79100
H  32.09100 52.87200 39.70100
H  32.51400 52.26000 38.26200
H  30.09900 53.88100 35.69500
H  29.22400 55.40200 36.02500
H  27.46500 53.44500 36.62700
H  28.14100 52.80600 35.03800
H  36.25500 56.70900 37.89800
H  35.44100 55.33600 38.65400
H  36.68700 56.34300 39.42600
H  35.20700 61.35800 39.35000
H  36.92500 61.47500 39.47600
H  36.02300 61.16300 40.96700
H  31.51500 62.62700 40.41700
H  29.67100 62.11100 42.74800
H  31.72000 63.30200 43.11500
H  33.05500 63.28300 41.96400
H  32.77400 61.88500 43.02400
H  28.47900 63.25400 40.29000
H  29.86500 64.17900 40.67100
H  27.24000 64.34700 41.76400
H  28.56100 65.45300 42.16000
H  28.36700 64.11600 43.15200
H  24.03600 59.55600 39.69200
H  25.02600 60.83300 40.31500
H  24.60700 59.51900 41.37100
H  26.12200 55.24900 37.46300
H  24.89400 51.60900 39.05700
H  23.40200 52.43800 39.82800
H  24.87900 52.26300 40.67800
Mg -2.32700 35.41600 27.02200
C  -4.23000 33.86800 29.73300
C  -1.12400 37.63900 29.24800
C  -0.91800 37.04200 24.46200
C  -3.77600 33.06400 24.88800
N  -2.72500 35.73200 29.21400
C  -3.50300 34.99800 30.13500
C  -3.23500 35.50800 31.56400
C  -2.49200 36.79300 31.33100
C  -2.04500 36.72100 29.81300
C  -3.34100 38.00000 31.78500
C  -2.52000 34.44000 32.54500
C  -2.96500 34.48700 33.95600
H  -2.97000 33.19300 34.79000
N  -1.14400 37.13000 26.85200
C  -0.71500 37.89200 27.89000
C  0.23100 38.89700 27.44700
C  0.40300 38.71300 26.03300
C  -0.58600 37.63700 25.70100
C  0.85800 39.92900 28.40200
C  1.30200 39.39500 24.97700
O  1.21900 39.05400 23.80800
C  2.41900 40.37900 25.46900
N  -2.40000 35.10100 24.93500
C  -1.68200 35.87500 24.15200
C  -1.84500 35.50500 22.67300
C  -2.71800 34.20100 22.78900
C  -2.98800 34.10200 24.27100
C  -2.47400 36.57000 21.78300
C  -2.08200 32.85900 22.26900
C  -3.10300 32.01300 21.45100
N  -3.75700 33.81600 27.20500
C  -4.06800 32.87500 26.26400
C  -4.84500 31.80900 26.84700
C  -4.87800 32.15500 28.18200
C  -4.28400 33.39000 28.38600
C  -5.48400 30.61700 26.11100
C  -5.49900 31.77400 29.52000
O  -6.16600 30.78100 29.83700
C  -5.01600 32.84300 30.54400
C  -6.27800 33.49600 31.16700
O  -7.15000 34.09500 30.52700
O  -6.24900 33.21800 32.51400
C  -7.59300 33.34800 33.11500
H  -0.63500 38.25400 30.00600
H  -0.53500 37.53100 23.56400
H  -4.25700 32.29100 24.28600
H  -4.15900 35.77500 32.07700
H  -1.54600 36.84700 31.87000
H  -3.11100 38.77700 31.05600
H  -3.03000 38.52200 32.69100
H  -4.42000 37.89800 31.67600
H  -1.47400 34.74300 32.53300
H  -2.50500 33.41300 32.17900
H  -4.05100 34.58100 33.92100
H  -2.33800 35.17200 34.52600
H  0.38400 39.94300 29.38400
H  0.63500 40.92100 28.01000
H  1.92800 39.77400 28.54300
H  3.14400 39.81400 26.05500
H  1.98100 41.19500 26.04400
H  3.02200 40.72200 24.62800
H  -0.82000 35.26000 22.39200
H  -3.70100 34.45100 22.39000
H  -1.74700 36.97400 21.07900
H  -2.79900 37.42700 22.37300
H  -3.24400 36.11100 21.16200
H  -1.50500 32.30100 23.00600
H  -1.33900 33.06900 21.50000
H  -2.67400 31.38700 20.66800
H  -3.87000 32.63600 20.99200
H  -3.42800 31.37000 22.26900
H  -4.86400 30.28800 25.27800
H  -6.49500 30.87100 25.79100
H  -5.68500 29.81600 26.82300
H  -4.39800 32.41200 31.33100
H  -8.20600 34.06500 32.57000
H  -7.45000 33.65600 34.15100
H  -8.20200 32.44600 33.05900

