158

Mg 53.68200 24.04500 45.12300
C  50.96700 26.12400 44.53400
C  51.75700 21.41500 43.79500
C  56.41400 22.02500 44.98300
C  55.52800 26.71300 46.03100
N  51.66800 23.83200 44.17700
C  50.72400 24.87700 44.09000
C  49.41800 24.29100 43.64900
C  49.59500 22.76800 44.00400
C  51.10600 22.61500 44.04800
C  48.98200 22.16600 45.27500
C  48.89400 24.68800 42.21500
C  50.00000 24.67800 41.16200
H  50.53300 23.30800 40.75700
N  54.02000 21.97600 44.51400
C  53.13700 21.08900 44.05100
C  53.79100 19.79800 44.00800
C  55.08800 19.97200 44.58500
C  55.24000 21.32600 44.74300
C  53.07500 18.54100 43.46700
C  56.03800 18.78600 44.90300
O  55.74600 17.62600 44.61400
C  57.27200 18.95400 45.80200
N  55.73200 24.42700 45.15100
C  56.66100 23.41600 45.25100
C  58.03300 24.02300 45.71600
C  57.66200 25.48400 46.01100
C  56.18200 25.56200 45.70400
C  58.78400 23.34600 46.85700
C  58.41200 26.51000 45.14900
C  57.90900 26.71600 43.61600
N  53.36900 25.98200 45.36800
C  54.17200 26.98700 45.81100
C  53.44600 28.18500 46.07400
C  52.23400 27.90800 45.41600
C  52.21300 26.58700 45.05100
C  53.84000 29.41400 46.68700
C  50.93400 28.45800 45.02300
O  50.54800 29.60700 45.12600
C  50.06000 27.30000 44.50200
C  49.68500 27.79300 43.10300
O  50.40300 28.01000 42.12000
O  48.30300 27.75800 43.06000
C  47.67200 28.47400 41.93700
H  51.22700 20.52100 43.45900
H  57.37400 21.53500 45.15400
H  56.17200 27.55000 46.31000
H  48.67300 24.70400 44.33000
H  49.12500 22.23700 43.17500
H  48.50900 22.89100 45.93700
H  49.72600 21.67300 45.90100
H  48.29800 21.39300 44.92400
H  48.33400 25.61700 42.32400
H  48.14300 23.99700 41.83200
H  50.86300 25.25200 41.49700
H  49.72900 25.13200 40.20800
H  53.61200 18.33600 42.54100
H  52.01700 18.65400 43.23100
H  52.95900 17.67100 44.11300
H  57.49900 18.12100 46.46800
H  57.18300 19.86200 46.39800
H  58.15000 18.91900 45.15700
H  58.67100 24.02600 44.83200
H  57.72800 25.68800 47.08000
H  59.64200 22.80100 46.46200
H  58.12700 22.64900 47.37800
H  59.22100 24.08000 47.53400
H  59.41200 26.07800 45.11600
H  58.49800 27.49900 45.59900
H  57.02900 26.11000 43.39700
H  58.78100 26.49600 43.00000
H  57.63100 27.76400 43.51000
H  54.22600 30.09400 45.92800
H  54.60500 29.21000 47.43700
H  52.93400 29.87000 47.08600
H  49.18200 27.18000 45.13700
H  48.29800 29.11000 41.31100
H  46.94900 29.22100 42.26300
H  47.14000 27.74400 41.32700
Mg 49.53100 45.49300 42.90200
C  46.13600 45.24100 42.27700
C  49.88400 42.09800 42.01800
C  52.94500 45.82500 42.96400
C  49.27000 48.96200 43.02300
N  48.12100 43.84900 42.25600
C  46.75100 43.96500 42.14600
C  46.14700 42.59100 41.79100
C  47.37900 41.58400 41.69400
C  48.56600 42.58300 41.99000
C  47.33500 40.28700 42.53700
C  45.21800 42.51500 40.56100
C  45.62800 43.42100 39.40700
H  45.74500 42.68600 38.01900
N  51.14200 44.18200 42.51700
C  51.08400 42.77800 42.24600
C  52.42500 42.23300 42.22200
C  53.29900 43.33900 42.31300
C  52.46300 44.53500 42.56500
C  52.88100 40.77600 41.99400
C  54.78600 43.27200 42.28400
O  55.36600 42.17600 42.22500
C  55.67100 44.51300 42.20600
N  50.92600 47.16800 42.90900
C  52.22700 47.03100 43.19000
C  52.89800 48.35300 43.50700
C  51.72400 49.31500 43.47800
C  50.50400 48.51500 43.02700
C  53.74500 48.49300 44.78400
C  51.92600 50.59500 42.60600
C  52.82300 51.70700 43.33600
N  48.06900 46.87800 42.79000
C  48.06600 48.25000 42.83400
C  46.76200 48.76200 42.65100
C  45.89600 47.63000 42.50100
C  46.76200 46.50400 42.57200
C  46.38100 50.14100 42.43200
C  44.54800 47.22200 42.28400
O  43.47700 47.82800 42.06400
C  44.67900 45.61700 42.16000
C  43.77000 45.10800 43.29000
O  42.94100 44.23400 43.09700
O  44.14400 45.52300 44.54000
C  43.32800 45.15200 45.69000
H  49.92700 41.04100 41.74800
H  53.95700 45.78100 43.37200
H  49.10900 50.03400 43.15200
H  45.61400 42.26800 42.68500
H  47.61900 41.42500 40.64200
H  47.37900 39.46200 41.82600
H  46.46300 40.14500 43.17500
H  48.17800 40.27700 43.22900
H  44.29000 42.92300 40.96300
H  45.15600 41.45400 40.31800
H  46.54600 43.95500 39.65000
H  44.82300 44.15200 39.34000
H  52.09500 40.02100 42.03700
H  53.59200 40.57100 42.79400
H  53.53500 40.59600 41.14100
H  56.02800 44.92700 43.14900
H  55.09800 45.32400 41.75600
H  56.48300 44.45900 41.48100
H  53.54000 48.48400 42.63600
H  51.52800 49.60500 44.51000
H  53.73700 47.51500 45.26500
H  53.46300 49.13400 45.61900
H  54.77700 48.74500 44.53800
H  50.98100 51.09600 42.39600
H  52.35100 50.51000 41.60600
H  53.30900 51.26700 44.20600
H  52.23200 52.57000 43.64400
H  53.64600 52.01500 42.69000
H  45.63200 50.41700 43.17400
H  46.01400 50.26400 41.41300
H  47.28100 50.75400 42.49400
H  44.29000 45.42900 41.16000
H  43.32100 46.00500 46.36800
H  43.90700 44.35900 46.16400
H  42.36500 44.70900 45.43800

