158

Mg 1.88300 -1.97700 43.79900
C  5.05400 -0.62500 43.25900
C  0.63300 0.78800 42.07200
C  -1.11800 -3.48700 43.80300
C  3.36900 -4.74700 45.14800
N  2.74500 -0.21400 42.69900
C  4.04900 0.16600 42.67600
C  4.26700 1.50800 41.93900
C  2.78800 2.11500 42.08500
C  2.02100 0.84700 42.22600
C  2.59200 3.18500 43.20400
C  4.78600 1.37900 40.49100
C  5.46200 2.64400 39.83600
H  5.58900 2.63700 38.28000
N  -0.00500 -1.39200 43.13000
C  -0.27500 -0.27600 42.37100
C  -1.75400 -0.22100 42.11100
C  -2.29400 -1.38000 42.70200
C  -1.13000 -2.19000 43.24600
C  -2.45700 0.92400 41.43300
C  -3.73800 -1.87400 42.77300
O  -4.64700 -1.23500 42.19800
C  -4.22300 -3.12100 43.49200
N  1.18100 -3.85200 44.41100
C  -0.11900 -4.27400 44.39900
C  -0.29100 -5.72800 44.90200
C  1.21800 -6.10100 45.38200
C  1.97200 -4.77400 45.05400
C  -1.37800 -5.93400 45.97400
C  1.71200 -7.27000 44.48600
C  1.48300 -8.63800 45.15500
N  3.77200 -2.60700 44.18700
C  4.20000 -3.75700 44.73100
C  5.62900 -3.73200 44.87200
C  6.01300 -2.53100 44.32900
C  4.83400 -1.88400 43.90100
C  6.43400 -4.78700 45.59300
C  7.10700 -1.65900 44.03600
O  8.30000 -1.87300 44.19700
C  6.53300 -0.39700 43.30800
C  6.82400 0.73100 44.27700
O  6.38800 0.83500 45.40400
O  7.85800 1.52100 43.80200
C  8.34400 2.55900 44.65400
H  0.16100 1.69500 41.68800
H  -1.98100 -4.13100 43.62100
H  3.90100 -5.62800 45.51200
H  4.87400 2.17700 42.54800
H  2.37100 2.56500 41.18400
H  3.50300 3.59100 43.64600
H  1.99300 2.75100 44.00500
H  1.91200 3.95000 42.83200
H  4.00400 1.00200 39.83100
H  5.63100 0.68900 40.49000
H  6.52900 2.53900 40.03000
H  5.01800 3.50800 40.33100
H  -2.27300 0.79600 40.36600
H  -2.20400 1.85200 41.94600
H  -3.54300 0.86900 41.51100
H  -4.10200 -3.96800 42.81600
H  -5.24500 -2.92100 43.81500
H  -3.68600 -3.31000 44.42100
H  -0.61600 -6.41000 44.11600
H  1.32400 -6.30900 46.44700
H  -2.12300 -5.14000 46.01900
H  -1.01100 -6.11300 46.98400
H  -1.78700 -6.92200 45.76100
H  2.75400 -7.11400 44.20600
H  1.13600 -7.29000 43.56100
H  0.83500 -8.76500 46.02300
H  2.52100 -8.92200 45.32200
H  0.92500 -9.31800 44.51200
H  5.95400 -5.16100 46.49800
H  7.44800 -4.49000 45.86100
H  6.48100 -5.62200 44.89400
H  7.10600 -0.24800 42.39300
H  9.01900 2.24800 45.45200
H  7.47800 3.02500 45.12300
H  8.86400 3.23300 43.97400
Mg 6.21800 52.93800 41.77800
C  5.53200 49.40500 41.40900
C  9.07600 52.50900 40.07400
C  6.49800 56.14000 41.83500
C  3.00500 53.16700 43.29800
N  7.12600 51.19400 40.91200
C  6.71100 49.93100 40.82000
C  7.68200 49.13800 39.92100
C  8.98900 49.99300 39.92200
C  8.37400 51.35900 40.30500
C  9.97700 49.41800 40.94900
C  7.00600 49.02900 38.53400
C  7.46500 47.81300 37.78800
H  7.92500 48.08200 36.30500
N  7.61900 54.24300 41.05700
C  8.74400 53.84100 40.41600
C  9.53100 55.03600 40.09000
C  8.77600 56.19200 40.50500
C  7.57000 55.53800 41.17100
C  10.79300 54.98500 39.29100
C  9.14200 57.65100 40.28600
O  10.23100 57.98400 39.74700
C  8.06100 58.69400 40.46700
N  4.79800 54.44700 42.22000
C  5.29800 55.71900 42.32400
C  4.35900 56.64300 42.98200
C  3.24000 55.70700 43.49900
C  3.70000 54.29700 43.01800
C  4.88200 57.69900 44.09000
C  1.81200 56.15900 43.08300
C  0.74900 55.95800 44.07200
N  4.52600 51.60200 42.19600
C  3.33300 51.86600 42.83600
C  2.63400 50.62700 43.19100
C  3.44100 49.60600 42.59200
C  4.63000 50.26400 42.05800
C  1.37500 50.43800 43.90400
C  3.63500 48.16400 42.49000
O  2.95700 47.28200 42.93700
C  4.96000 47.92900 41.57100
C  4.59200 47.18300 40.36300
O  3.50400 47.28200 39.82400
O  5.51200 46.21900 40.12500
C  5.09500 45.04100 39.36000
H  10.04200 52.41600 39.57400
H  6.65300 57.21300 41.96000
H  2.00200 53.33100 43.69800
H  7.85900 48.19900 40.44400
H  9.51300 50.03400 38.96700
H  10.91200 49.24800 40.41400
H  9.67900 48.46300 41.38000
H  10.26000 50.21500 41.63600
H  7.24400 49.86500 37.87500
H  5.94600 48.84100 38.69900
H  6.67600 47.07600 37.63300
H  8.26900 47.35500 38.36500
H  11.20300 54.04300 38.92700
H  11.53700 55.32700 40.01000
H  10.77200 55.67400 38.44600
H  8.47600 59.59900 40.02200
H  8.04200 59.05100 41.49700
H  7.09600 58.39500 40.05900
H  4.02200 57.29000 42.17200
H  3.43300 55.58400 44.56400
H  5.85400 58.17400 43.95400
H  4.61300 57.46000 45.11900
H  4.22100 58.49400 43.74500
H  1.60500 55.66700 42.13200
H  1.88100 57.24600 43.02800
H  0.09200 55.17700 43.68700
H  0.15600 56.84000 44.31100
H  1.09300 55.46100 44.97900
H  1.35300 51.15600 44.72400
H  1.31900 49.43100 44.31700
H  0.51100 50.57500 43.25400
H  5.63700 47.32600 42.17600
H  4.03300 44.84400 39.50300
H  5.75700 44.25400 39.72300
H  5.28700 45.22100 38.30200

