158

Mg 54.40200 23.58400 44.08000
C  51.67800 25.72200 43.11900
C  52.80400 20.95100 42.51900
C  57.30000 22.08400 43.69200
C  55.86600 26.56600 45.11100
N  52.59900 23.42900 42.71700
C  51.57600 24.37300 42.50300
C  50.32600 23.81200 41.94500
C  50.57700 22.26400 42.22400
C  52.05200 22.15200 42.52100
C  49.86300 21.82100 43.53900
C  50.07900 24.04000 40.38400
C  51.28100 24.17000 39.37800
H  50.97900 25.05800 38.08200
N  54.93700 21.69700 43.43400
C  54.12800 20.76700 42.83900
C  54.83700 19.51100 42.86400
C  56.18500 19.82500 43.01200
C  56.16600 21.28100 43.43200
C  54.22800 18.18400 42.33300
C  57.36700 18.85000 42.86300
O  57.16300 17.64800 42.57800
C  58.74300 19.31500 43.04100
N  56.27800 24.33900 44.08700
C  57.32700 23.46300 44.07200
C  58.61600 24.15500 44.55700
C  58.17700 25.57800 45.06500
C  56.66600 25.49300 44.74800
C  59.49300 23.41900 45.68000
C  58.87700 26.76000 44.33400
C  59.19100 27.94300 45.32000
N  53.78800 25.54600 44.54800
C  54.51200 26.70200 44.95000
C  53.66800 27.90500 44.98500
C  52.53300 27.49300 44.34600
C  52.69500 26.12200 43.99800
C  53.99400 29.32300 45.48500
C  51.29800 28.00800 43.83800
O  50.89700 29.19400 43.87000
C  50.58800 26.85100 43.07000
C  50.18900 27.30100 41.70500
O  50.93000 27.51100 40.73800
O  48.87400 27.45900 41.79700
C  48.18900 28.05900 40.66100
H  52.28200 20.03200 42.24400
H  58.26900 21.60400 43.84800
H  56.36300 27.50100 45.37800
H  49.42100 24.22000 42.39400
H  50.36700 21.65600 41.34300
H  49.63000 22.74500 44.06800
H  50.37000 21.10300 44.18400
H  48.92500 21.36000 43.23000
H  49.45000 24.91700 40.23000
H  49.47600 23.24300 39.94800
H  51.62100 23.17100 39.10500
H  52.19300 24.53200 39.85200
H  53.17300 18.03300 42.56100
H  54.68000 17.26800 42.71300
H  54.17500 18.23100 41.24500
H  58.94800 19.38400 44.10900
H  58.95000 20.21200 42.45800
H  59.39700 18.47600 42.80400
H  59.17200 24.29400 43.63000
H  58.31500 25.63700 46.14500
H  60.46000 23.35000 45.18200
H  59.09500 22.42700 45.89200
H  59.62900 23.96300 46.61500
H  58.26200 27.20000 43.54800
H  59.87700 26.55800 43.95000
H  58.97200 27.69300 46.35800
H  58.60900 28.80100 44.98400
H  60.26600 28.11400 45.27400
H  54.87800 29.30500 46.12400
H  53.23500 29.77900 46.12000
H  54.22200 29.89800 44.58700
H  49.76800 26.50400 43.70000
H  48.64300 29.02600 40.44700
H  47.13300 27.83400 40.81300
H  48.55300 27.47600 39.81500
Mg 48.78300 45.62900 42.72300
C  45.53400 46.19800 41.81400
C  48.42600 42.45300 41.13800
C  52.20000 45.29800 42.64500
C  49.28000 48.99100 43.41000
N  47.25200 44.55100 41.45800
C  45.96300 45.01800 41.20000
C  45.16100 44.09400 40.25800
C  45.94400 42.77000 40.51700
C  47.27700 43.26400 41.07000
C  45.26000 41.70900 41.47000
C  45.15100 44.60600 38.77300
C  43.76500 44.55100 38.10000
H  43.70300 44.30800 36.61700
N  50.14500 43.98700 42.24100
C  49.73300 42.80300 41.64600
C  50.90100 41.96800 41.60400
C  52.02100 42.68100 42.10900
C  51.46100 44.07200 42.38200
C  50.81300 40.59000 41.18900
C  53.44900 42.30100 42.23200
O  53.69100 41.15800 41.92500
C  54.57000 43.18200 42.88400
N  50.47200 46.94900 43.08800
C  51.80100 46.55700 42.95900
C  52.78200 47.70500 43.01300
C  51.80300 48.87900 43.33200
C  50.44500 48.27300 43.21400
C  53.96300 47.54500 43.98100
C  51.97300 50.16500 42.49200
C  51.54500 51.45100 43.22300
N  47.65100 47.22000 42.88500
C  47.92400 48.53700 43.30400
C  46.69200 49.27200 43.45800
C  45.73700 48.36400 42.82500
C  46.36500 47.16500 42.54300
C  46.51600 50.55800 43.80500
C  44.32100 48.21200 42.46600
O  43.36400 49.00700 42.72700
C  44.17300 46.83500 41.75900
C  42.99400 46.08100 42.21900
O  42.19500 45.61000 41.40100
O  42.93600 45.94600 43.53300
C  41.68700 45.24800 43.97300
H  48.16000 41.44800 40.80300
H  53.28900 45.22800 42.62500
H  49.36200 50.06300 43.60300
H  44.14700 43.85700 40.58100
H  46.11100 42.30800 39.54400
H  44.78500 40.96400 40.83100
H  44.55400 42.22300 42.12300
H  45.96200 41.24700 42.16500
H  45.70600 43.94100 38.11200
H  45.50700 45.63700 38.76800
H  43.43700 45.55900 38.35200
H  43.11400 43.81300 38.57000
H  51.29700 40.44800 40.22300
H  49.82400 40.17600 40.99100
H  51.29400 40.01900 41.98300
H  54.92700 43.94300 42.19000
H  55.39400 42.50200 43.10000
H  54.22100 43.63900 43.81000
H  53.15700 48.08300 42.06300
H  51.83700 49.26100 44.35200
H  54.02100 46.63000 44.57000
H  54.14200 48.45700 44.55100
H  54.87300 47.51200 43.38100
H  51.33500 50.25500 41.61300
H  53.00500 50.37500 42.21400
H  50.73400 51.93000 42.67300
H  52.30200 52.23100 43.31000
H  51.15600 51.25900 44.22300
H  46.46400 50.52900 44.89400
H  45.49100 50.84500 43.56900
H  47.28200 51.16900 43.32700
H  43.92900 47.18500 40.75600
H  41.39800 44.43400 43.30800
H  40.87300 45.97200 43.94300
H  41.78800 44.79700 44.96000

