158

Mg 52.85500 24.92100 45.53800
C  50.16100 27.04400 44.48300
C  51.00000 22.29800 44.41700
C  55.70100 23.16700 45.24900
C  54.64300 27.78200 46.19700
N  50.90000 24.74600 44.49600
C  49.90500 25.69400 44.23000
C  48.74700 24.99900 43.48700
C  48.77700 23.59000 44.17700
C  50.33900 23.53400 44.30600
C  47.95300 23.53800 45.47400
C  48.83800 25.15600 41.92700
C  47.61300 25.09600 41.05800
H  47.71300 24.32500 39.77300
N  53.24400 22.90000 45.15700
C  52.36000 22.02200 44.78200
C  52.99200 20.75800 44.86100
C  54.37100 20.90800 45.09300
C  54.48400 22.36200 45.18400
C  52.11200 19.48000 44.61300
C  55.37400 19.76900 45.19000
O  55.14400 18.60700 44.81000
C  56.68200 19.93800 45.89400
N  54.85200 25.39500 45.59800
C  55.85300 24.48600 45.48800
C  57.28100 25.08700 45.70100
C  56.93100 26.53800 46.10500
C  55.37800 26.60100 45.98100
C  58.07500 24.32800 46.72200
C  57.68700 27.63500 45.36500
C  58.31000 28.61200 46.35700
N  52.43800 26.94600 45.63800
C  53.20900 27.98600 45.87900
C  52.57600 29.21100 45.84400
C  51.39000 28.87000 45.21500
C  51.31400 27.48600 45.07400
C  52.96300 30.63000 46.28100
C  50.11100 29.45300 44.75100
O  49.77000 30.63000 44.84600
C  49.28000 28.25100 44.10800
C  49.21800 28.45900 42.61900
O  50.12200 28.69900 41.85300
O  47.84400 28.57900 42.30400
C  47.56500 29.12300 40.97900
H  50.33900 21.45400 44.20900
H  56.64200 22.61300 45.25700
H  55.26700 28.57900 46.60700
H  47.81500 25.42200 43.86200
H  48.46800 22.74700 43.55900
H  48.71200 23.62000 46.25200
H  47.35600 22.62600 45.45900
H  47.33100 24.42500 45.59700
H  49.54500 24.46300 41.46900
H  49.36800 26.10500 41.85200
H  47.39500 26.12000 40.75200
H  46.77500 24.73900 41.65600
H  51.10100 19.69000 44.26200
H  52.12100 18.93600 45.55700
H  52.64700 18.87400 43.88200
H  57.20000 18.98200 45.83600
H  56.59200 20.44100 46.85700
H  57.30000 20.66900 45.37300
H  57.67900 24.99100 44.69100
H  57.14800 26.56300 47.17200
H  59.11100 24.52800 46.44600
H  58.04700 23.24200 46.80600
H  57.74500 24.75800 47.66800
H  57.00500 28.10600 44.65600
H  58.46900 27.24000 44.71700
H  59.40000 28.57900 46.32800
H  58.01800 28.41500 47.38800
H  57.91900 29.60900 46.15200
H  53.84900 30.44400 46.88700
H  52.17700 31.05900 46.90300
H  53.21400 31.21400 45.39600
H  48.24100 28.21400 44.43400
H  46.48000 29.19500 40.90700
H  47.84000 28.50500 40.12500
H  47.74200 30.19700 40.91700
Mg -10.75600 38.78800 43.08300
C  -9.43500 35.70900 41.72400
C  -8.10400 40.38800 41.48300
C  -12.33600 41.62700 43.39000
C  -13.67900 36.92300 43.96200
N  -9.06300 38.06300 41.61700
C  -8.69900 36.82400 41.34000
C  -7.36000 36.81200 40.54800
C  -6.79100 38.23400 40.83500
C  -8.01600 38.95400 41.43500
C  -5.50400 38.24300 41.67200
C  -7.46200 36.43700 38.97400
C  -6.29100 35.72400 38.43900
H  -5.49300 36.38400 37.33300
N  -10.28800 40.80800 42.51500
C  -9.18500 41.20500 41.89800
C  -9.16600 42.66500 41.74600
C  -10.35700 43.13400 42.30700
C  -11.05300 41.89400 42.84800
C  -8.04200 43.39500 40.98400
C  -10.86400 44.58300 42.23500
O  -10.18500 45.41200 41.67400
C  -12.20200 45.07500 42.76000
N  -12.81300 39.17600 43.33500
C  -13.14700 40.43100 43.60700
C  -14.63400 40.55400 44.09400
C  -14.99200 39.02000 44.31000
C  -13.77900 38.31600 43.87000
C  -14.80400 41.52700 45.36400
C  -16.33200 38.53600 43.66500
C  -16.22900 37.90500 42.24500
N  -11.31300 36.75300 43.14400
C  -12.54900 36.17200 43.48700
C  -12.37800 34.72800 43.42300
C  -11.17100 34.48300 42.74400
C  -10.62900 35.74000 42.45300
C  -13.32200 33.61100 43.87500
C  -10.30700 33.48600 42.15400
O  -10.47500 32.25900 42.08100
C  -9.14200 34.27200 41.43500
C  -7.85200 33.84200 41.82300
O  -7.05100 33.19900 41.10100
O  -7.62100 34.11400 43.12900
C  -6.36700 33.56700 43.68600
H  -7.34100 40.95000 40.94000
H  -12.89200 42.49800 43.74300
H  -14.50800 36.35100 44.38200
H  -6.78400 36.04600 41.07000
H  -6.65500 38.89200 39.97700
H  -5.64600 38.53600 42.71200
H  -4.85600 39.01000 41.24800
H  -5.01200 37.27600 41.56600
H  -7.83000 37.24700 38.34400
H  -8.31100 35.75400 38.96100
H  -6.56200 34.76700 37.99400
H  -5.65600 35.53900 39.30500
H  -8.23200 44.45700 40.83400
H  -7.92500 42.82500 40.06200
H  -7.11100 43.24300 41.53100
H  -13.02400 44.44600 42.41800
H  -12.48500 46.11500 42.59400
H  -12.15700 44.91600 43.83700
H  -15.24900 40.88000 43.25600
H  -15.20700 38.92100 45.37500
H  -15.57000 41.08700 46.00400
H  -15.20200 42.45400 44.95100
H  -13.86800 41.64000 45.91000
H  -16.94400 39.43200 43.55700
H  -16.89200 37.75600 44.17900
H  -16.65600 36.90700 42.34600
H  -15.20800 37.71600 41.91600
H  -16.76800 38.60400 41.60500
H  -14.14500 33.58800 43.16100
H  -13.80400 33.92900 44.79900
H  -12.93300 32.59300 43.87700
H  -9.11800 34.11800 40.35600
H  -6.14800 33.68800 44.74700
H  -5.60600 34.07200 43.09000
H  -6.33700 32.48200 43.58800

