158

Mg -0.27600 7.53100 25.48500
C  0.60900 9.57500 28.07900
C  -0.38700 4.83200 27.69200
C  -0.40400 5.31500 22.85700
C  0.13800 10.13600 23.21500
N  0.14200 7.24400 27.60800
C  0.43100 8.24200 28.53200
C  0.63000 7.68100 29.96400
C  0.45300 6.15100 29.69400
C  0.09000 6.01700 28.22100
C  1.75300 5.23700 29.91100
C  -0.48600 8.22600 30.86100
C  -0.17700 8.14000 32.35800
H  1.04000 7.40700 32.92700
N  -0.35800 5.31800 25.28700
C  -0.45900 4.43500 26.31900
C  -0.73200 3.17400 25.79900
C  -0.60900 3.24400 24.35300
C  -0.45600 4.64700 24.05500
C  -0.96700 2.02600 26.69300
C  -0.63100 2.18000 23.35700
O  -0.29900 2.43000 22.20000
C  -1.07900 0.78000 23.73600
N  0.08700 7.66300 23.30700
C  -0.20000 6.67300 22.49200
C  -0.50300 7.13800 21.06800
C  -0.53800 8.67300 21.22800
C  -0.11500 8.88800 22.65600
C  0.53600 6.65400 20.04600
C  -1.92300 9.22900 20.90800
C  -1.88300 10.61700 20.22300
N  0.28400 9.51800 25.58000
C  0.32800 10.46000 24.62300
C  0.62300 11.73700 25.17400
C  0.76900 11.48900 26.59900
C  0.48300 10.08100 26.77900
C  0.81600 12.98500 24.40500
C  1.14300 12.03900 27.95600
O  1.66200 13.07500 28.23900
C  0.85400 10.88900 28.96400
C  2.07200 10.81800 29.84000
O  3.18600 10.39000 29.49700
O  1.68100 11.12000 31.14900
C  2.75700 11.24800 32.16200
H  -0.68700 3.99200 28.32300
H  -0.46500 4.65000 21.99300
H  0.10300 11.01400 22.56700
H  1.59600 8.05400 30.30400
H  -0.34500 5.75400 30.32100
H  1.58800 4.19800 30.19600
H  2.41300 5.79700 30.57300
H  2.14600 5.07800 28.90700
H  -1.43600 7.72200 30.68700
H  -0.75900 9.22600 30.52400
H  -0.98000 7.64200 32.90100
H  -0.16500 9.19600 32.62400
H  -0.45800 2.02900 27.65600
H  -0.45600 1.16600 26.26100
H  -2.04100 1.83800 26.67500
H  -0.24100 0.25700 24.19700
H  -1.26100 0.27300 22.78900
H  -1.97000 0.67300 24.35500
H  -1.45700 6.65800 20.85000
H  0.15600 9.08000 20.49400
H  1.25100 7.33000 19.57700
H  0.13800 6.05700 19.22500
H  1.17900 5.86500 20.43500
H  -2.53400 9.37900 21.79800
H  -2.41900 8.52100 20.24400
H  -1.92500 10.54400 19.13600
H  -1.01400 11.18900 20.54800
H  -2.72600 11.12900 20.68700
H  1.80400 12.99100 23.94500
H  0.52000 13.88900 24.93800
H  0.06800 12.99800 23.61300
H  -0.00500 11.16300 29.57600
H  2.66800 12.27400 32.51900
H  3.72600 10.94700 31.76400
H  2.52400 10.50300 32.92300
Mg 24.07400 -4.97000 45.66400
C  26.20500 -2.52400 44.25600
C  21.62700 -3.87500 43.60900
C  22.45100 -8.01000 46.17200
C  26.89400 -6.28500 47.29300
N  23.94000 -3.32300 44.20600
C  24.88900 -2.48400 43.79300
C  24.40400 -1.52900 42.62600
C  22.76900 -1.77800 42.79500
C  22.74400 -3.04500 43.61900
C  22.12400 -0.61300 43.59000
C  24.96700 -2.04100 41.26100
C  25.10300 -0.94400 40.18100
H  24.73700 -1.23900 38.69900
N  22.25700 -5.79900 45.03200
C  21.35600 -5.15400 44.21800
C  20.14100 -5.99500 44.14000
C  20.35000 -7.10300 45.01500
C  21.76300 -7.02000 45.47600
C  19.07600 -5.63000 43.30500
C  19.23200 -8.06200 45.37900
O  18.12000 -7.90300 44.90200
C  19.35900 -9.08300 46.41000
N  24.60600 -7.00400 46.46400
C  23.72000 -7.95300 46.70000
C  24.43400 -9.11600 47.45900
C  25.88200 -8.54400 47.78500
C  25.80900 -7.15500 47.19200
C  23.52800 -9.66100 48.61400
C  27.12000 -9.38000 47.31200
C  27.92700 -9.90600 48.49400
N  26.12500 -4.46100 45.88700
C  27.06200 -5.09600 46.63900
C  28.21900 -4.27600 46.62300
C  28.02400 -3.26500 45.61200
C  26.69700 -3.44600 45.19100
C  29.53900 -4.42100 47.50800
C  28.52300 -2.12500 44.92000
O  29.56400 -1.50600 45.06400
C  27.38100 -1.70400 43.82700
C  27.23800 -0.23600 43.82100
O  26.96300 0.53000 44.73600
O  27.41500 0.17900 42.54900
C  27.16300 1.64600 42.43300
H  20.70500 -3.46100 43.19300
H  22.05500 -9.02700 46.21800
H  27.72200 -6.70200 47.86900
H  24.62700 -0.46200 42.66100
H  22.24300 -1.99500 41.86600
H  21.41300 -0.11800 42.92900
H  22.83200 0.04000 44.10100
H  21.56500 -1.03000 44.42800
H  24.36500 -2.81700 40.78800
H  25.91400 -2.57000 41.37100
H  26.16300 -0.72200 40.29800
H  24.58500 -0.04500 40.51500
H  19.40400 -5.74000 42.27200
H  18.87300 -4.56100 43.36500
H  18.19300 -6.26900 43.26600
H  18.36300 -9.40100 46.72100
H  19.90300 -8.68900 47.26900
H  19.94700 -9.87600 45.94800
H  24.67200 -10.01200 46.88600
H  25.98100 -8.55800 48.87100
H  23.97900 -9.41400 49.57500
H  23.36300 -10.73800 48.59800
H  22.52600 -9.25200 48.48000
H  27.80500 -8.78900 46.70400
H  26.82500 -10.23500 46.70500
H  27.49300 -10.84700 48.83300
H  27.95200 -9.18700 49.31200
H  28.91800 -10.20000 48.14900
H  30.39700 -4.47600 46.83800
H  29.47300 -5.32200 48.11800
H  29.77400 -3.59800 48.18200
H  27.74400 -2.08200 42.87100
H  27.29200 2.25100 43.33000
H  26.19800 1.73700 41.93300
H  27.98000 1.97600 41.79100

