158

Mg 9.39000 3.69800 26.68300
C  10.41200 1.81100 29.57100
C  7.76000 5.69900 28.78900
C  8.12300 5.02300 24.09700
C  10.87000 1.05500 24.82900
N  9.20800 3.71200 28.98500
C  9.72000 2.97500 29.96600
C  9.41300 3.48000 31.35400
C  8.37400 4.63700 30.99000
C  8.45100 4.69000 29.51000
C  6.93100 4.40900 31.55900
C  10.64000 3.96900 32.28400
C  10.71000 3.23300 33.65500
H  11.40100 4.01800 34.78700
N  7.98000 5.14500 26.51100
C  7.46200 5.94900 27.47200
C  6.80500 7.01700 26.78400
C  6.99300 6.90400 25.45800
C  7.67400 5.62700 25.32400
C  6.11800 8.11200 27.53000
C  6.59700 7.84600 24.24800
O  6.80100 7.50000 23.06400
C  5.94900 9.13600 24.57800
N  9.40900 3.05000 24.83700
C  8.85600 3.82000 23.89200
C  9.16800 3.35800 22.44200
C  10.08300 2.13600 22.70600
C  10.12500 2.04400 24.19500
C  7.81300 3.02100 21.69200
C  11.48900 2.36300 22.02700
C  11.90900 1.48700 20.84800
N  10.42100 1.82000 27.07700
C  10.93200 0.82600 26.21100
C  11.47000 -0.28100 26.87400
C  11.39400 0.14900 28.21000
C  10.68700 1.34900 28.29700
C  12.02700 -1.51100 26.35600
C  11.74900 -0.23800 29.55300
O  12.40800 -1.08300 30.00500
C  11.06800 0.84400 30.49700
C  10.22000 0.09100 31.43200
O  9.09400 -0.30000 31.23900
O  10.94200 -0.08300 32.58800
C  10.38800 -0.98300 33.56600
H  7.16300 6.37800 29.40200
H  7.84800 5.51400 23.16100
H  11.32100 0.37300 24.10500
H  8.93400 2.66300 31.89400
H  8.74900 5.59800 31.34300
H  6.22900 4.12500 30.77500
H  6.62000 5.34600 32.01900
H  6.99000 3.66400 32.35300
H  10.61400 5.03600 32.50400
H  11.61400 3.88400 31.80200
H  11.44700 2.47900 33.37800
H  9.77700 2.74400 33.93300
H  5.20800 8.41300 27.01200
H  6.78200 8.97600 27.54600
H  5.97100 7.89000 28.58700
H  6.54700 9.71800 25.27900
H  4.92300 8.94900 24.89600
H  6.00200 9.80700 23.72000
H  9.65800 4.12700 21.84500
H  9.61600 1.25700 22.26100
H  6.94900 2.89000 22.34400
H  7.90400 2.10700 21.10700
H  7.59800 3.89500 21.07700
H  12.20100 2.13600 22.82000
H  11.58000 3.40400 21.71800
H  12.52100 1.99900 20.10500
H  10.98300 1.27800 20.31200
H  12.56800 0.69000 21.19500
H  12.10200 -1.56400 25.27000
H  11.53400 -2.39400 26.76200
H  13.04400 -1.45700 26.74300
H  11.94500 1.28000 30.97500
H  10.03300 -1.82700 32.97500
H  9.54700 -0.41700 33.96700
H  11.23800 -1.21900 34.20500
Mg 16.84800 51.96400 25.53300
C  18.72300 50.72100 28.29300
C  14.48600 52.98400 27.83800
C  15.41800 53.60700 23.09600
C  19.51300 50.91500 23.51800
N  16.66200 51.74600 27.84800
C  17.58100 51.35100 28.74400
C  17.15600 51.67300 30.18500
C  15.70900 52.22200 30.10700
C  15.56100 52.29100 28.48700
C  14.60100 51.22500 30.54500
C  18.15400 52.67500 30.84700
C  18.28300 52.51200 32.42100
H  17.16300 53.30200 33.18500
N  15.24300 53.16000 25.43600
C  14.36500 53.48300 26.48800
C  13.36700 54.35700 26.00700
C  13.66800 54.58600 24.65200
C  14.82300 53.74500 24.31200
C  12.25900 54.81900 26.99900
C  13.06000 55.52400 23.67700
O  13.44400 55.71700 22.52100
C  11.91500 56.42100 24.15600
N  17.36000 52.10600 23.58300
C  16.61500 52.90900 22.70400
C  17.14000 52.83000 21.22400
C  18.43300 51.97700 21.44100
C  18.50400 51.73300 22.96600
C  16.09900 52.31400 20.12500
C  19.70300 52.70600 20.89100
C  20.43900 52.10500 19.68800
N  18.64500 50.72400 25.72400
C  19.65700 50.37600 24.81200
C  20.69500 49.63600 25.45000
C  20.41300 49.86100 26.84000
C  19.13800 50.50500 26.92300
C  21.87000 49.06800 24.81100
C  20.88800 49.50600 28.16600
O  21.91600 48.96800 28.60000
C  19.85600 50.10800 29.11500
C  19.23200 49.03400 29.90100
O  18.45900 48.18100 29.53200
O  19.39000 49.32200 31.28900
C  18.62300 48.42500 32.19200
H  13.75200 53.32500 28.57100
H  15.05600 53.99700 22.14200
H  20.35600 50.78600 22.83600
H  17.21000 50.69000 30.65300
H  15.59900 53.24600 30.46400
H  14.08000 50.80200 29.68600
H  13.89400 51.60900 31.28000
H  15.06700 50.43200 31.12900
H  17.62900 53.60000 30.60800
H  19.10500 52.69700 30.31400
H  19.24100 52.97200 32.66700
H  18.10900 51.50000 32.78600
H  12.12500 54.10100 27.80800
H  11.26600 55.09300 26.64200
H  12.57600 55.67300 27.59700
H  12.30700 57.20000 24.81100
H  11.20100 55.79100 24.68600
H  11.32600 56.87500 23.35900
H  17.30500 53.82800 20.81600
H  18.32200 51.04600 20.88600
H  15.24800 51.85500 20.62800
H  16.50900 51.51000 19.51400
H  15.83200 53.23200 19.60000
H  20.40100 52.71000 21.72900
H  19.57900 53.76800 20.68100
H  19.89300 51.35800 19.11200
H  21.36400 51.61700 19.99500
H  20.76000 52.97800 19.11900
H  21.93200 49.42300 23.78200
H  21.82400 47.98500 24.69300
H  22.78300 49.27800 25.36700
H  20.24500 50.76200 29.89600
H  17.73700 48.08300 31.65900
H  18.31000 48.90400 33.12000
H  19.19300 47.56300 32.53900

