158

Mg 36.13200 49.46700 24.76300
C  36.40500 47.58900 27.75700
C  34.69400 52.04900 26.59400
C  35.64100 50.96900 21.84000
C  37.20800 46.58700 23.06900
N  35.50400 49.64400 26.94800
C  35.81200 48.81800 27.99300
C  35.59600 49.61100 29.30800
C  34.84400 50.89800 28.92100
C  35.00600 50.90300 27.40700
C  33.40100 51.01200 29.40200
C  36.87200 49.81000 30.13200
C  36.84700 49.62100 31.64000
H  35.54600 49.56800 32.42000
N  35.40300 51.28100 24.31800
C  34.89200 52.23100 25.20800
C  34.45300 53.41600 24.38400
C  34.74100 53.11700 23.00200
C  35.28800 51.74800 23.04500
C  33.65400 54.60300 24.95000
C  34.32700 53.90000 21.68800
O  34.57600 53.44400 20.59400
C  33.64200 55.31900 21.80700
N  36.12000 48.76400 22.77000
C  36.00300 49.63800 21.77300
C  36.46400 49.08200 20.41100
C  37.08200 47.69900 20.80800
C  36.83800 47.70300 22.30700
C  35.49300 48.79200 19.32200
C  38.55300 47.38200 20.33700
C  39.67900 48.23600 20.94800
N  36.74200 47.50900 25.22900
C  37.12200 46.47600 24.44400
C  37.50600 45.39200 25.24300
C  37.23900 45.77600 26.54400
C  36.79400 47.09400 26.48800
C  38.20800 44.17800 24.75500
C  37.33900 45.32700 27.92300
O  37.72300 44.28800 28.38800
C  36.80800 46.57700 28.76700
C  35.71600 46.18900 29.73200
O  34.50600 46.14600 29.53900
O  36.23600 45.65500 30.82100
C  35.46600 45.06800 31.95200
H  34.22000 52.93200 27.02800
H  35.69900 51.48700 20.88100
H  37.74700 45.76600 22.59200
H  34.97800 49.03600 29.99900
H  35.38000 51.69000 29.44400
H  32.87200 50.77200 28.47900
H  33.22400 52.04000 29.71700
H  33.11300 50.28200 30.15800
H  37.28500 50.80100 29.94500
H  37.59100 49.11000 29.70500
H  37.50800 50.36400 32.08500
H  37.21800 48.60400 31.76300
H  33.27600 54.42400 25.95700
H  32.75200 54.64000 24.33900
H  34.16900 55.56300 24.97900
H  32.69600 55.20400 22.33600
H  33.40800 55.76900 20.84200
H  34.19400 56.08700 22.34900
H  37.20300 49.78200 20.02300
H  36.44400 46.89800 20.43600
H  34.85800 47.96300 19.63600
H  36.13900 48.61300 18.46200
H  34.94900 49.67500 18.98700
H  38.72600 47.30400 19.26400
H  38.73900 46.32800 20.54400
H  40.17400 48.84900 20.19500
H  40.50100 47.61900 21.30800
H  39.30100 48.86000 21.75800
H  37.70500 43.71000 23.90900
H  38.43700 43.52200 25.59500
H  39.10400 44.52000 24.23600
H  37.62000 47.00000 29.35800
H  34.88400 44.23900 31.54800
H  34.77400 45.83000 32.30900
H  35.94800 44.55200 32.78300
Mg -12.36900 16.57400 41.05300
C  -9.70600 14.27800 40.73100
C  -10.40900 18.96500 39.60400
C  -15.09300 18.41900 40.90900
C  -14.36600 13.91700 42.20800
N  -10.27200 16.61600 40.25600
C  -9.36100 15.55100 40.20800
C  -7.99700 16.03900 39.72800
C  -8.16300 17.54600 39.45000
C  -9.70900 17.77100 39.81300
C  -7.19700 18.48300 40.11100
C  -7.60700 15.21500 38.48400
C  -6.29600 14.39900 38.61500
H  -5.14200 14.92700 37.79400
N  -12.69000 18.46900 40.41300
C  -11.79600 19.32600 39.84100
C  -12.44100 20.61100 39.54300
C  -13.75200 20.54400 40.10600
C  -13.90300 19.08000 40.44700
C  -11.79200 21.72800 38.87400
C  -14.73800 21.67600 40.23400
O  -14.38300 22.79200 39.82700
C  -16.06700 21.61100 40.88100
N  -14.54500 16.19900 41.36500
C  -15.38900 17.16800 41.44600
C  -16.74900 16.78100 41.94400
C  -16.49600 15.31200 42.30400
C  -15.03300 15.11200 42.00400
C  -17.30000 17.68300 43.09000
C  -17.25200 14.26100 41.51700
C  -17.90300 13.19600 42.38800
N  -12.13000 14.48500 41.37700
C  -13.03000 13.58600 41.88600
C  -12.33300 12.34100 42.06900
C  -11.01900 12.52000 41.67700
C  -10.94900 13.86800 41.21100
C  -13.00800 11.06900 42.49000
C  -9.78900 11.90500 41.49500
O  -9.46200 10.74900 41.78100
C  -8.92100 12.92200 40.82900
C  -7.63300 13.01700 41.53300
O  -7.43700 13.60800 42.50500
O  -6.78200 12.16700 40.89500
C  -5.50300 11.98500 41.53200
H  -9.69800 19.73600 39.30300
H  -15.98200 19.04300 40.79900
H  -14.73500 13.18100 42.92600
H  -7.24000 15.95400 40.50700
H  -8.16100 17.76700 38.38300
H  -6.34400 17.86400 40.38800
H  -7.67600 18.95700 40.96700
H  -6.88100 19.21900 39.37100
H  -7.65900 15.72700 37.52300
H  -8.36900 14.44300 38.37800
H  -6.57600 13.39500 38.29600
H  -5.99600 14.29500 39.65800
H  -10.79500 21.45600 38.52900
H  -11.79600 22.66200 39.43500
H  -12.48100 21.85000 38.03800
H  -16.02500 20.94800 41.74500
H  -16.85400 21.15800 40.27700
H  -16.39200 22.61500 41.15300
H  -17.30400 16.85000 41.00900
H  -16.63100 15.17600 43.37700
H  -16.35200 18.08100 43.45000
H  -17.78800 17.13800 43.89900
H  -17.98300 18.43600 42.69400
H  -16.61600 13.79000 40.76800
H  -18.03800 14.69800 40.90000
H  -18.99300 13.15500 42.37900
H  -17.58700 13.16700 43.43100
H  -17.58500 12.25600 41.93700
H  -13.58200 11.28400 43.39200
H  -12.41500 10.19600 42.76100
H  -13.67300 10.77800 41.67600
H  -8.65900 12.52000 39.85100
H  -4.75500 12.71900 41.23000
H  -5.17800 11.01600 41.15600
H  -5.51200 11.84300 42.61200

