158

Mg 49.11900 46.43700 42.52400
C  45.83000 46.34700 41.48500
C  49.50800 43.12900 41.07500
C  52.37600 46.47500 43.21600
C  48.85500 49.78200 43.34500
N  47.73400 44.81800 41.45200
C  46.45100 45.10800 41.02200
C  45.86600 43.93800 40.19200
C  47.07000 42.88300 40.12600
C  48.20100 43.68200 40.89500
C  46.73600 41.53500 40.81800
C  45.40700 44.43700 38.74700
C  43.92900 44.14200 38.42900
H  43.48600 43.10000 37.34900
N  50.69800 45.00300 42.25000
C  50.63300 43.73500 41.62200
C  51.92600 43.10800 41.66700
C  52.78200 43.99700 42.42100
C  51.97700 45.20200 42.62500
C  52.19300 41.78300 41.04700
C  54.19600 43.78500 42.84400
O  54.77900 42.80500 42.47000
C  54.96400 44.77600 43.74500
N  50.40000 47.89200 43.02800
C  51.75600 47.67600 43.41900
C  52.46000 48.99500 43.77000
C  51.22800 49.98700 43.70800
C  50.02900 49.13800 43.35200
C  53.32600 49.06200 45.08900
C  51.65400 51.35200 42.91700
C  51.19300 52.62400 43.70200
N  47.59600 47.84500 42.46400
C  47.64300 49.17700 42.84000
C  46.32500 49.68000 42.80900
C  45.54400 48.60000 42.29500
C  46.44600 47.51400 42.08200
C  46.00200 51.06000 43.00200
C  44.23400 48.23100 41.89700
O  43.15500 48.89600 41.77800
C  44.27700 46.72300 41.45400
C  43.51700 45.95700 42.46300
O  43.87200 45.75000 43.59600
O  42.26600 45.66800 42.02600
C  41.35500 45.09500 43.04000
H  49.42000 42.15500 40.58800
H  53.45400 46.64200 43.25300
H  48.74900 50.86100 43.47300
H  45.01600 43.56000 40.76100
H  47.50300 42.78400 39.13100
H  45.65100 41.43900 40.85400
H  47.13100 41.58200 41.83300
H  47.17500 40.62100 40.41900
H  45.99600 43.97600 37.95400
H  45.57500 45.51000 38.65500
H  43.49300 45.08500 38.09800
H  43.28100 43.89600 39.27100
H  53.16300 41.35900 41.30700
H  52.16600 42.06400 39.99400
H  51.42200 41.04900 41.28400
H  55.40600 45.59900 43.18200
H  55.71400 44.29100 44.37000
H  54.28900 45.08000 44.54500
H  53.17300 49.15200 42.96000
H  50.87100 50.17600 44.72100
H  54.33600 49.30900 44.76200
H  53.28700 48.12100 45.63800
H  52.96200 49.92500 45.64800
H  51.28900 51.22000 41.89800
H  52.73700 51.30900 42.79500
H  50.50300 52.28600 44.47600
H  50.64000 53.33800 43.09200
H  52.03700 53.14200 44.15600
H  44.91600 51.15500 43.03000
H  46.48900 51.57100 42.17200
H  46.43100 51.49300 43.90600
H  43.91700 46.57100 40.43700
H  40.36700 45.10800 42.58000
H  41.38800 45.66400 43.96900
H  41.67800 44.06900 43.21600
Mg 6.28400 53.28700 40.63800
C  6.05900 49.71400 40.42600
C  9.66100 53.05900 40.10300
C  6.18700 56.62500 40.30100
C  2.72100 53.33000 40.93800
N  7.67300 51.48400 40.23700
C  7.38200 50.16600 40.21200
C  8.69400 49.43600 39.96500
C  9.79700 50.47500 40.33200
C  9.01300 51.79600 40.25200
C  10.44100 50.31800 41.70500
C  8.95400 48.77000 38.52500
C  8.35900 49.53500 37.25200
H  7.26800 48.90800 36.19400
N  7.75200 54.62400 40.24200
C  9.01300 54.32800 40.00800
C  9.71400 55.63100 39.84400
C  8.75000 56.67300 39.92600
C  7.46000 55.97800 40.17500
C  11.26800 55.67100 39.54500
C  9.13700 58.16000 39.85300
O  10.33000 58.49500 39.56600
C  8.14900 59.36800 39.85000
N  4.65500 54.73900 40.74300
C  4.92300 56.08300 40.54900
C  3.67400 56.97100 40.62400
C  2.60000 55.88800 40.63700
C  3.34000 54.54800 40.76200
C  3.67100 57.85300 41.87600
C  1.66100 55.85600 39.38700
C  0.15800 55.67600 39.63000
N  4.69300 51.90300 40.80500
C  3.31600 52.06100 40.94800
C  2.64900 50.79300 40.94900
C  3.63200 49.82400 40.82400
C  4.90100 50.51300 40.71200
C  1.10400 50.64400 41.12900
C  3.90900 48.44100 40.75400
O  3.20900 47.49600 40.81100
C  5.45900 48.32500 40.45900
C  5.61000 47.52800 39.15800
O  5.25600 47.83600 38.04300
O  6.06300 46.29000 39.48200
C  5.90400 45.26700 38.45200
H  10.74000 52.98900 39.95500
H  6.29000 57.70500 40.17000
H  1.63000 53.34100 40.96900
H  8.71300 48.65300 40.72300
H  10.59100 50.46900 39.58500
H  9.79400 49.63900 42.26100
H  10.42700 51.27800 42.22200
H  11.50200 50.11000 41.84200
H  8.49100 47.78600 38.60200
H  10.00600 48.67800 38.25300
H  9.14300 49.79500 36.54100
H  8.02300 50.51100 37.60200
H  11.37100 56.37500 38.71900
H  11.78200 54.71800 39.41900
H  11.74300 56.06700 40.44300
H  8.70500 60.24700 39.52400
H  7.69500 59.53500 40.82700
H  7.33400 59.18100 39.15100
H  3.69800 57.52700 39.68600
H  1.94800 56.00500 41.50200
H  3.95400 58.88200 41.65500
H  4.45900 57.45000 42.51200
H  2.70200 57.83600 42.37400
H  2.01800 55.10500 38.68200
H  1.81200 56.83700 38.93700
H  -0.46000 56.45400 39.18200
H  -0.08800 55.72900 40.69000
H  -0.20800 54.69800 39.31800
H  0.83400 49.68700 41.57500
H  0.56100 50.79700 40.19700
H  0.82400 51.31700 41.94000
H  5.90200 47.83900 41.32900
H  6.90900 45.05400 38.09000
H  5.37200 45.51900 37.53500
H  5.54800 44.38300 38.98200

