158

Mg 41.27600 9.75200 29.14100
C  43.38100 10.47800 31.83900
C  39.06700 8.40300 31.22800
C  39.71100 8.40200 26.42200
C  44.03700 10.45700 26.95200
N  41.26600 9.47700 31.30900
C  42.10800 9.96100 32.26000
C  41.52700 9.84700 33.68000
C  40.20200 9.14700 33.41100
C  40.12800 9.05900 31.86900
C  40.09200 7.71800 34.07400
C  41.33400 11.19700 34.42700
C  40.89700 11.18200 35.92100
H  41.99900 11.44100 36.93800
N  39.65700 8.52200 28.83600
C  38.78500 8.11300 29.84200
C  37.65800 7.38000 29.30200
C  37.77500 7.64000 27.87000
C  39.13900 8.17500 27.66100
C  36.57100 6.72900 30.14500
C  36.77100 7.40800 26.76500
O  36.97200 7.65900 25.57200
C  35.43400 6.87500 27.05900
N  41.88000 9.37200 26.95900
C  40.95600 8.94600 26.04400
C  41.42000 9.17400 24.58000
C  42.72600 9.88700 24.82800
C  42.92300 9.93400 26.33400
C  41.57200 7.81900 23.79400
C  42.57600 11.28600 24.21600
C  42.09000 12.47500 25.14600
N  43.27700 10.36200 29.30400
C  44.23100 10.66900 28.34700
C  45.42500 11.12800 28.95900
C  45.13500 11.10200 30.33300
C  43.82300 10.65800 30.50400
C  46.69400 11.38200 28.23700
C  45.70700 11.30200 31.63500
O  46.84600 11.63300 32.02900
C  44.55100 10.89700 32.69700
C  44.92800 9.93100 33.69600
O  44.99100 8.74300 33.46600
O  45.24600 10.54300 34.85200
C  45.66400 9.63700 35.92700
H  38.41600 7.91200 31.95400
H  39.27800 7.84900 25.58600
H  44.75200 10.87400 26.23900
H  42.16400 9.16800 34.24800
H  39.31900 9.77100 33.54100
H  40.97500 7.41800 34.63800
H  39.92300 6.88800 33.38700
H  39.18300 7.94800 34.63000
H  40.68100 11.92500 33.94400
H  42.32700 11.63700 34.34100
H  40.43200 10.24400 36.22400
H  40.08500 11.90000 36.03600
H  36.79200 6.83500 31.20700
H  36.36700 5.68000 29.92600
H  35.64700 7.28700 29.99400
H  34.85100 6.88200 26.13800
H  34.93400 7.62100 27.67600
H  35.50800 5.89400 27.52800
H  40.71600 9.68500 23.92400
H  43.55400 9.43000 24.28600
H  41.44300 6.96500 24.46000
H  42.55300 7.67000 23.34200
H  40.78500 7.92500 23.04900
H  42.03600 11.40000 23.27600
H  43.59600 11.55100 23.93700
H  42.96700 13.06100 25.41900
H  41.56600 12.12700 26.03700
H  41.41300 13.08300 24.54500
H  47.52400 11.23400 28.92700
H  46.91100 12.36000 27.80700
H  46.75900 10.73000 27.36600
H  44.34200 11.81400 33.24900
H  44.73600 9.31300 36.39900
H  46.32300 10.16500 36.61600
H  46.29800 8.82900 35.56400
Mg 53.78200 23.78900 44.05900
C  50.97500 25.79300 43.54400
C  51.89500 20.99900 43.37100
C  56.58400 22.02100 44.11600
C  55.68600 26.80300 44.47600
N  51.64500 23.51900 43.28400
C  50.71200 24.45600 43.29500
C  49.36600 23.81100 43.23300
C  49.59200 22.26500 43.28600
C  51.14100 22.21800 43.29700
C  48.95700 21.49500 44.50100
C  48.46400 24.25400 42.02200
C  49.18100 24.65500 40.74300
H  48.92200 23.87800 39.41100
N  54.19300 21.81300 43.64500
C  53.29300 20.81900 43.50500
C  53.94600 19.60100 43.51000
C  55.35600 19.84100 43.48100
C  55.45400 21.31700 43.74400
C  53.22000 18.25800 43.54800
C  56.46300 18.86900 43.30700
O  56.18900 17.68800 43.11700
C  57.90100 19.16400 43.34500
N  55.86500 24.43600 43.92500
C  56.74100 23.42900 44.18800
C  58.15400 24.02100 44.49600
C  57.95800 25.57600 44.39600
C  56.41600 25.65900 44.22400
C  58.80000 23.50100 45.83100
C  58.55500 26.33900 43.15800
C  60.11300 26.26500 43.12900
N  53.47300 25.92000 43.96000
C  54.28600 26.95700 44.33400
C  53.47700 28.07800 44.68200
C  52.18500 27.69900 44.32500
C  52.20900 26.35000 43.91500
C  53.85900 29.37400 45.17100
C  50.90000 28.20400 44.25200
O  50.44800 29.30800 44.61900
C  50.00900 27.05800 43.59000
C  49.53600 27.51300 42.25900
O  50.23900 27.63300 41.28800
O  48.23100 27.81200 42.35200
C  47.73100 28.65500 41.22700
H  51.32400 20.06800 43.34600
H  57.44800 21.44800 44.45600
H  56.23400 27.62900 44.93300
H  48.89000 24.19000 44.13800
H  49.17600 21.71600 42.44100
H  48.29500 20.77800 44.01400
H  48.41700 22.13000 45.20300
H  49.68900 20.95400 45.10000
H  47.70100 24.96100 42.34700
H  47.86500 23.34800 41.92900
H  50.25300 24.52800 40.89400
H  48.88600 25.68500 40.54100
H  52.83700 17.99000 42.56300
H  52.32700 18.37700 44.16100
H  53.92400 17.52100 43.93500
H  58.42700 18.45700 42.70400
H  58.17200 19.16500 44.40100
H  58.02600 20.14200 42.88000
H  58.87400 23.67200 43.75600
H  58.19900 25.97600 45.38100
H  58.08100 23.11000 46.55100
H  59.44700 24.19500 46.36700
H  59.43000 22.63600 45.62100
H  58.21200 27.33000 43.45600
H  57.96000 26.14100 42.26600
H  60.35200 27.26000 43.50500
H  60.60400 26.04600 42.18100
H  60.42600 25.57400 43.91100
H  53.66500 30.18300 44.46700
H  54.93100 29.40700 45.36600
H  53.21500 29.50300 46.04100
H  49.16000 26.74600 44.19800
H  47.48500 27.98300 40.40500
H  48.49400 29.38900 40.96800
H  46.84900 29.18600 41.58800

