158

Mg 30.89900 58.55200 40.31100
C  28.26800 56.44300 38.87900
C  33.18400 56.35000 38.96900
C  33.28600 60.94600 40.47700
C  28.38300 61.13500 40.67000
N  30.70700 56.61800 38.85900
C  29.53900 55.89500 38.61400
C  29.92900 54.42000 38.15700
C  31.52800 54.33100 38.28100
C  31.87300 55.81600 38.69500
C  32.05000 53.21800 39.22700
C  29.39500 53.93100 36.76500
C  29.73000 54.78000 35.54400
H  28.63300 55.30700 34.64800
N  32.96400 58.61400 39.93100
C  33.74500 57.58000 39.50000
C  35.14200 57.99700 39.39900
C  35.20600 59.34500 39.84700
C  33.76200 59.70800 40.10900
C  36.25600 57.13400 38.84100
C  36.40700 60.27800 39.99500
O  37.47000 59.61700 39.94000
C  36.39400 61.77200 40.15400
N  30.80400 60.73200 40.53600
C  31.93400 61.47800 40.67600
C  31.67300 62.91100 41.02200
C  30.16100 62.89900 41.09900
C  29.70500 61.54300 40.68400
C  32.42100 63.40800 42.37800
C  29.32800 64.05100 40.49600
C  28.28500 64.81100 41.38100
N  28.70500 58.66200 40.17400
C  27.84600 59.78100 40.26800
C  26.49800 59.38100 39.90900
C  26.62200 58.10400 39.34600
C  27.95300 57.71100 39.53700
C  25.24400 60.25500 39.94000
C  25.91300 57.00000 38.69400
O  24.73700 56.99000 38.22900
C  26.93300 55.73700 38.62000
C  26.52900 54.69900 39.63500
O  27.22600 54.27500 40.54500
O  25.27500 54.31900 39.33400
C  24.79100 53.06600 40.00400
H  33.92000 55.58700 38.70700
H  34.08700 61.62800 40.76800
H  27.65000 61.92100 40.86500
H  29.49500 53.73700 38.88800
H  32.07200 54.28100 37.33800
H  32.92200 52.73800 38.78300
H  31.28200 52.48500 39.47300
H  32.43800 53.57400 40.18100
H  28.32900 53.71500 36.69900
H  29.78900 52.94000 36.53800
H  30.56800 54.32200 35.01900
H  30.20900 55.66300 35.96700
H  37.23900 57.53700 38.59800
H  35.93400 56.59800 37.94900
H  36.41200 56.43600 39.66400
H  36.09500 62.03100 41.16900
H  35.78800 62.24800 39.38200
H  37.39300 62.16900 39.97500
H  31.93100 63.57800 40.19900
H  29.98300 62.94900 42.17300
H  33.22300 64.09600 42.11000
H  32.82100 62.59100 42.97800
H  31.74800 64.01500 42.98300
H  28.86700 63.75800 39.55300
H  30.06300 64.80000 40.20100
H  28.53000 65.83900 41.64900
H  28.21900 64.21100 42.28900
H  27.37300 64.77900 40.78500
H  25.53000 61.20300 40.39400
H  24.42300 59.84200 40.52600
H  24.96100 60.48700 38.91400
H  26.84900 55.37100 37.59600
H  25.49900 52.26700 40.22400
H  23.89600 52.72200 39.48600
H  24.59600 53.42700 41.01400
Mg -10.62600 16.66200 41.03100
C  -7.20800 16.80100 41.58200
C  -10.58500 19.94500 40.19500
C  -13.97400 16.41000 40.31400
C  -10.54100 13.13700 41.40900
N  -9.07800 18.09400 40.85800
C  -7.75900 17.96200 41.06000
C  -7.01600 19.27300 40.59600
C  -8.14900 20.28500 40.76500
C  -9.40000 19.38700 40.64300
C  -8.25300 21.07300 42.10500
C  -6.47600 19.16400 39.19400
C  -5.00300 18.87700 39.04700
H  -4.65000 17.85900 38.04800
N  -12.07500 18.00700 40.30400
C  -11.87000 19.31800 40.04500
C  -13.10000 19.91100 39.73400
C  -14.02400 18.85600 39.65900
C  -13.37800 17.64300 40.04500
C  -13.30000 21.42400 39.43500
C  -15.41300 19.05300 39.15400
O  -15.76800 20.22200 38.93100
C  -16.45200 17.95700 38.87600
N  -12.00300 14.91700 40.57000
C  -13.34000 15.13600 40.56200
C  -14.16800 13.86200 40.91200
C  -12.99800 12.75900 41.02800
C  -11.73900 13.62500 40.98700
C  -14.98000 14.05700 42.26000
C  -13.07000 11.59800 39.94200
C  -12.31800 11.83600 38.57700
N  -9.18800 15.20200 41.45000
C  -9.26500 13.81500 41.61200
C  -7.95400 13.29100 42.08700
C  -7.10200 14.48300 42.08500
C  -7.86300 15.53500 41.64300
C  -7.56900 11.84100 42.26700
C  -5.79900 15.00500 42.39800
O  -4.80800 14.42800 42.77000
C  -5.89700 16.55900 42.15500
C  -5.72200 17.40500 43.40400
O  -4.95700 18.35900 43.49500
O  -6.52600 16.95800 44.40800
C  -6.15900 17.39300 45.78900
H  -10.49900 21.01600 40.00100
H  -15.06500 16.36500 40.35300
H  -10.57200 12.07300 41.65300
H  -6.09400 19.40600 41.16100
H  -8.24800 21.05600 40.00200
H  -7.30600 20.81900 42.58200
H  -9.03400 20.82400 42.82300
H  -8.24900 22.14500 41.91100
H  -6.57800 20.15700 38.75700
H  -7.01200 18.38000 38.65900
H  -4.64800 18.40700 39.96400
H  -4.54300 19.83000 38.78500
H  -13.74000 21.47700 38.43900
H  -12.33800 21.93600 39.47200
H  -13.94000 21.87100 40.19600
H  -15.94500 17.22500 38.24700
H  -17.20600 18.40400 38.22800
H  -16.93900 17.50500 39.74000
H  -14.88700 13.63800 40.12500
H  -12.84600 12.31900 42.01400
H  -14.69000 14.96000 42.79800
H  -14.96700 13.11900 42.81500
H  -16.01900 14.21800 41.97300
H  -14.13900 11.50500 39.75300
H  -12.67500 10.76900 40.52900
H  -13.06000 11.98600 37.79400
H  -11.72200 10.94300 38.38900
H  -11.67000 12.71200 38.60600
H  -7.83400 11.28200 41.37000
H  -8.13200 11.40600 43.09300
H  -6.49800 11.87200 42.46900
H  -5.06200 16.73200 41.47600
H  -6.80300 18.20200 46.13300
H  -5.19100 17.89500 45.80000
H  -5.95300 16.57600 46.48100

