158

Mg 45.22800 3.15800 47.73200
C  43.67600 6.03500 46.71000
C  42.42400 1.35500 47.08000
C  47.08500 0.33000 47.48200
C  48.24400 5.03900 48.00900
N  43.26000 3.69800 47.01200
C  42.80700 4.93400 46.63300
C  41.26100 4.94500 46.27300
C  40.85200 3.46500 46.66900
C  42.27300 2.81400 46.93700
C  39.84600 3.29300 47.87200
C  41.10000 5.37800 44.79900
C  39.80100 6.26800 44.59400
H  38.95000 5.96500 43.32000
N  44.77400 1.08700 47.56500
C  43.55700 0.51700 47.34100
C  43.68400 -0.91200 47.27700
C  45.06400 -1.22300 47.38800
C  45.72600 0.05700 47.47800
C  42.57100 -1.91900 46.75400
C  45.66400 -2.63600 47.31800
O  44.92800 -3.58300 47.02000
C  47.12400 -2.78600 47.66700
N  47.35000 2.78300 47.41300
C  47.82100 1.53700 47.54100
C  49.33500 1.53100 47.67700
C  49.71500 3.06200 47.74500
C  48.37500 3.69100 47.70700
C  50.11600 0.52700 48.61100
C  50.61200 3.55100 46.56400
C  51.65000 4.62000 46.89300
N  45.86300 5.15100 47.62300
C  47.05900 5.77800 47.79000
C  46.97800 7.17600 47.53300
C  45.65800 7.35700 46.96500
C  45.00400 6.06700 47.14200
C  48.09500 8.13200 47.62800
C  44.74100 8.26900 46.33900
O  44.96200 9.37800 45.85600
C  43.40300 7.55800 46.27600
C  42.45400 8.10400 47.33800
O  42.20500 7.60800 48.41400
O  41.79900 9.15800 46.74100
C  40.55800 9.53600 47.46800
H  41.46200 0.84400 47.01000
H  47.83600 -0.46300 47.50700
H  49.15100 5.59500 48.25900
H  40.80100 5.66900 46.94600
H  40.50600 2.95400 45.77000
H  39.41000 4.21800 48.25000
H  40.48000 2.94000 48.68500
H  39.00000 2.63100 47.68700
H  41.05100 4.53600 44.10900
H  41.98100 5.93400 44.47800
H  40.15100 7.29700 44.50800
H  39.23300 6.15200 45.51700
H  42.32400 -2.70000 47.47300
H  42.71100 -2.53000 45.86300
H  41.64800 -1.36300 46.59100
H  47.78200 -2.39200 46.89200
H  47.24300 -3.86900 47.63800
H  47.39100 -2.40100 48.65100
H  49.60700 1.28000 46.65200
H  50.12300 3.34500 48.71500
H  49.47000 -0.26400 48.99000
H  50.50800 1.15600 49.41000
H  50.96900 0.06000 48.11900
H  50.07000 3.88100 45.67700
H  51.22900 2.75900 46.14200
H  51.77800 5.37800 46.12100
H  52.58400 4.10900 47.12500
H  51.23200 5.21600 47.70400
H  48.56900 7.92300 48.58700
H  47.65600 9.12000 47.76500
H  48.83300 8.16000 46.82600
H  43.04600 7.64300 45.24900
H  40.88100 10.01000 48.39500
H  39.89100 8.67800 47.54900
H  40.00400 10.33200 46.96900
Mg 36.40800 2.00200 30.07800
C  33.89900 2.72400 32.29400
C  38.62600 2.09900 32.60300
C  38.89000 1.39600 27.82600
C  34.10400 2.29100 27.47900
N  36.26400 2.45800 32.21400
C  35.11500 2.62800 32.94200
C  35.42200 2.65700 34.41900
C  36.96500 2.70700 34.48300
C  37.28300 2.46300 32.97600
C  37.54600 4.01900 34.95600
C  34.77200 1.48200 35.13000
C  34.62200 1.51900 36.67400
H  35.43400 2.56200 37.50900
N  38.51500 1.80400 30.22000
C  39.23600 1.80700 31.35700
C  40.57000 1.61900 31.09300
C  40.70100 1.32900 29.64900
C  39.33100 1.47400 29.18700
C  41.70500 1.79800 32.08000
C  41.89900 0.90500 28.69100
O  41.72900 0.54500 27.54500
C  43.29600 0.84600 29.32200
N  36.43900 1.69800 27.96000
C  37.59200 1.60300 27.27300
C  37.30600 1.58500 25.78100
C  35.77100 1.65500 25.64700
C  35.41000 1.92100 27.13700
C  38.04700 2.66100 25.02900
C  35.11400 0.33000 25.13700
C  33.89000 0.48100 24.18700
N  34.38100 2.35200 29.85900
C  33.59500 2.41900 28.80400
C  32.21300 2.73100 29.14700
C  32.26900 2.88500 30.59800
C  33.60000 2.63800 30.92500
C  31.20400 2.79100 28.17600
C  31.52200 3.11000 31.83100
O  30.31400 3.30700 32.02600
C  32.59400 3.08900 32.92300
C  32.59400 4.39800 33.60500
O  33.30100 5.31600 33.22600
O  31.74700 4.49000 34.68000
C  31.85800 5.75000 35.52800
H  39.30700 2.17500 33.45400
H  39.58400 1.32000 26.98700
H  33.41500 2.26200 26.63300
H  34.91800 3.50200 34.88800
H  37.23400 1.84100 35.08900
H  36.91600 4.50500 35.70000
H  37.63200 4.77400 34.17500
H  38.56800 4.01200 35.33200
H  35.45900 0.63900 35.05200
H  33.87800 1.13800 34.61100
H  34.80100 0.52600 37.08600
H  33.58300 1.65800 36.97100
H  42.00100 0.83100 32.48600
H  41.50600 2.48200 32.90500
H  42.59700 2.16800 31.57400
H  43.39500 0.18600 30.18400
H  43.60600 1.86600 29.55200
H  44.01100 0.58000 28.54300
H  37.70800 0.63600 25.42500
H  35.47500 2.48300 25.00200
H  38.60600 2.26200 24.18300
H  38.56900 3.37100 25.67100
H  37.30200 3.31600 24.57700
H  34.75700 -0.21600 26.01100
H  35.84200 -0.36800 24.72400
H  34.13200 0.12000 23.18700
H  33.69300 1.53400 23.98400
H  33.01700 -0.06000 24.55000
H  31.08200 1.86700 27.61200
H  31.43400 3.55800 27.43600
H  30.27800 3.08500 28.67200
H  32.40700 2.32000 33.67200
H  31.12900 6.46800 35.15000
H  32.85000 6.20000 35.48700
H  31.65300 5.66700 36.59500

