158

Mg 9.33900 4.05400 27.36400
C  10.40600 2.66900 30.41900
C  7.35100 6.28500 29.12900
C  7.69200 4.96000 24.50900
C  10.66400 1.32900 25.68600
N  8.80300 4.30100 29.48000
C  9.46700 3.74200 30.54800
C  9.04000 4.28200 31.81300
C  8.03900 5.49000 31.42700
C  8.11600 5.41100 29.91300
C  6.67600 5.32500 32.08500
C  10.22800 4.69300 32.70300
C  10.45200 4.34700 34.22100
H  10.42700 5.36700 35.37600
N  7.89300 5.53200 26.91000
C  7.24100 6.35500 27.74400
C  6.44200 7.31700 26.95500
C  6.58300 7.00100 25.58200
C  7.37300 5.75900 25.60000
C  5.57300 8.34500 27.56800
C  5.97400 7.65300 24.42600
O  5.90700 7.19700 23.29700
C  5.47100 9.08600 24.60400
N  8.98500 3.07600 25.32500
C  8.36900 3.70900 24.33600
C  8.42800 2.92600 22.96800
C  9.51300 1.82400 23.37700
C  9.80200 2.13800 24.88500
C  7.01900 2.36300 22.55000
C  10.73900 1.74500 22.37800
C  10.29100 0.92200 21.16100
N  10.45400 2.48700 27.85300
C  10.89100 1.41800 27.08700
C  11.61700 0.52200 27.90400
C  11.50700 0.98700 29.22800
C  10.74400 2.18900 29.13200
C  12.35900 -0.71800 27.54100
C  11.87300 0.69000 30.57400
O  12.48200 -0.29800 30.95700
C  11.23100 1.82000 31.40400
C  10.50500 1.25700 32.51900
O  9.33900 0.95500 32.46100
O  11.30700 1.01200 33.61800
C  10.63500 0.30000 34.74800
H  6.76100 7.05200 29.63600
H  7.32000 5.41800 23.59000
H  11.06000 0.50200 25.09400
H  8.61500 3.46000 32.38800
H  8.51300 6.37600 31.84800
H  6.40600 6.13900 32.75800
H  6.58100 4.43800 32.71200
H  5.93300 5.26700 31.28900
H  10.13300 5.76700 32.86600
H  11.16400 4.53400 32.16700
H  11.39800 3.82300 34.36200
H  9.64700 3.65700 34.47200
H  5.87800 9.38800 27.48200
H  5.55500 8.07100 28.62300
H  4.57600 8.29000 27.13200
H  5.21600 9.46100 23.61300
H  6.33500 9.60300 25.02100
H  4.58500 9.13600 25.23700
H  8.87300 3.54800 22.19100
H  8.94600 0.90300 23.51100
H  7.00500 1.33200 22.19400
H  6.54100 3.08500 21.88900
H  6.46200 2.27900 23.48300
H  11.59500 1.27500 22.86400
H  11.09400 2.73200 22.08300
H  10.73300 1.22700 20.21200
H  9.22600 0.81800 20.95400
H  10.65700 -0.09000 21.33200
H  13.44800 -0.72900 27.58100
H  12.05500 -1.07400 26.55700
H  12.10300 -1.45000 28.30700
H  11.88600 2.49200 31.95700
H  9.90700 0.97200 35.20400
H  11.23900 -0.17700 35.52000
H  10.16900 -0.63700 34.44400
Mg 47.08000 34.82500 28.28400
C  45.70700 32.61800 30.51400
C  47.51600 37.12300 30.87400
C  47.80200 37.24800 25.96600
C  46.31800 32.56700 25.73800
N  46.72800 34.85400 30.43200
C  46.18300 33.78600 31.17900
C  46.25000 34.19200 32.72900
C  46.28300 35.74500 32.69100
C  46.95600 35.88600 31.26800
C  44.89800 36.49700 32.94000
C  47.44800 33.54300 33.45800
C  47.33000 33.21300 34.87900
H  46.51400 34.18700 35.78600
N  47.85800 36.82500 28.42600
C  47.98900 37.55500 29.55300
C  48.65200 38.75400 29.22500
C  48.61000 38.85500 27.78100
C  48.01400 37.61700 27.34100
C  49.11900 39.77700 30.28500
C  49.11700 39.92700 26.85700
O  48.97000 39.93100 25.65200
C  49.72300 41.19400 27.43300
N  47.01200 34.92600 26.17000
C  47.44800 35.98300 25.47000
C  47.22600 35.83000 24.02300
C  46.74500 34.35200 23.93200
C  46.66700 33.84300 25.37400
C  46.17400 36.81400 23.38900
C  47.80900 33.45200 23.23000
C  49.11100 33.06500 24.01800
N  46.26400 32.91600 28.10500
C  46.11000 32.08900 27.01900
C  45.37900 30.89900 27.45200
C  45.13700 31.12000 28.79600
C  45.83900 32.29300 29.16700
C  44.99000 29.68600 26.59700
C  44.58100 30.51900 29.99100
O  44.12400 29.40200 30.10800
C  44.77200 31.56800 31.04700
C  45.08500 30.90500 32.28000
O  46.20100 30.58400 32.68800
O  43.87800 30.70500 32.94100
C  44.00900 30.21600 34.29100
H  47.60700 37.89000 31.64500
H  47.99400 37.92400 25.13000
H  46.20200 31.89100 24.88800
H  45.35200 33.95100 33.29700
H  47.00100 36.16500 33.39600
H  45.11100 37.11600 33.81100
H  44.10300 35.80700 33.22100
H  44.62100 37.05400 32.04500
H  48.34200 34.13500 33.26600
H  47.60700 32.55800 33.02000
H  48.27900 33.22000 35.41500
H  46.90000 32.22000 35.01300
H  50.11600 40.12600 30.01700
H  49.12300 39.11000 31.14800
H  48.46000 40.63000 30.44500
H  49.12600 41.48900 28.29700
H  49.72100 41.85200 26.56400
H  50.72800 41.06700 27.83600
H  48.17700 35.87700 23.49200
H  45.79100 34.20700 23.42400
H  45.28200 36.29300 23.04300
H  46.67600 37.33200 22.57100
H  45.97600 37.55300 24.16500
H  48.02400 33.82400 22.22800
H  47.32900 32.48800 23.06500
H  49.11100 32.04100 24.39000
H  49.28400 33.80400 24.80000
H  49.98500 33.08300 23.36600
H  45.61200 28.79100 26.56300
H  44.87400 30.05300 25.57700
H  44.01500 29.44500 27.02100
H  43.78900 32.03900 31.03200
H  43.08900 30.03400 34.84700
H  44.57200 31.02800 34.75100
H  44.67100 29.35500 34.38900

