158

Mg 25.81200 0.83100 29.29900
C  27.84800 0.31500 32.18400
C  23.10800 0.91800 31.38600
C  23.98400 1.28000 26.61400
C  28.71100 0.19100 27.22200
N  25.56000 0.61600 31.48300
C  26.50700 0.57000 32.46100
C  25.83600 0.74100 33.89200
C  24.25300 0.58900 33.55100
C  24.34200 0.73200 32.03200
C  23.57100 -0.71800 34.10300
C  26.34600 2.03500 34.67000
C  26.50900 1.80100 36.21800
H  25.78200 2.82400 37.16300
N  23.78400 1.18300 29.11200
C  22.80900 1.21700 30.02000
C  21.54500 1.48700 29.42700
C  21.76800 1.46800 28.02200
C  23.24600 1.23000 27.83400
C  20.20600 1.47600 30.14800
C  20.71300 1.58900 26.91800
O  20.99000 1.47900 25.70400
C  19.22500 1.81600 27.19200
N  26.31400 0.70200 27.20000
C  25.30700 1.07300 26.31000
C  25.82300 1.29900 24.87500
C  27.25800 0.73900 25.05400
C  27.48000 0.48000 26.56300
C  24.99000 0.73500 23.69200
C  28.36700 1.61100 24.43800
C  28.42400 3.04900 24.96700
N  27.84000 0.20500 29.59000
C  28.86900 0.06200 28.66900
C  30.12600 -0.22800 29.42100
C  29.75900 0.01600 30.82200
C  28.42100 0.24400 30.84300
C  31.38000 -0.54800 28.79800
C  30.31500 0.04900 32.20500
O  31.44600 -0.08000 32.61700
C  29.04800 0.38400 33.07800
C  29.07000 -0.49700 34.27100
O  28.58000 -1.61400 34.28900
O  29.77700 0.03200 35.27300
C  29.87600 -0.83300 36.46300
H  22.20100 0.96400 31.99200
H  23.31600 1.61200 25.81600
H  29.67300 0.15100 26.70800
H  26.09700 -0.15300 34.45800
H  23.66000 1.45200 33.85300
H  24.33600 -1.39100 34.49200
H  22.80800 -1.22600 33.51400
H  22.98900 -0.45500 34.98600
H  25.61800 2.84600 34.70700
H  27.27400 2.38800 34.22000
H  27.59600 1.85100 36.28100
H  26.17200 0.80200 36.49500
H  19.55400 2.33800 30.01200
H  20.30200 1.42300 31.23300
H  19.65300 0.65300 29.69500
H  18.76000 1.04800 27.81000
H  18.53000 1.96600 26.36600
H  19.03400 2.75100 27.71900
H  25.84600 2.38700 24.81700
H  27.28300 -0.17200 24.45700
H  24.36900 -0.08500 24.05200
H  25.62700 0.32500 22.90800
H  24.36100 1.49900 23.23600
H  28.00400 1.64100 23.41000
H  29.31900 1.08300 24.37400
H  29.49700 3.24200 24.98000
H  27.96600 3.07000 25.95600
H  27.79700 3.67800 24.33600
H  31.56400 -0.19400 27.78400
H  31.46700 -1.63300 28.74600
H  32.15200 -0.06400 29.39700
H  29.09100 1.38700 33.50200
H  30.63000 -0.36200 37.09400
H  30.12400 -1.87700 36.27400
H  28.97600 -0.94500 37.06800
Mg -11.29000 16.19200 42.08100
C  -7.85900 16.00700 41.98800
C  -11.22600 19.43100 41.01600
C  -14.67500 16.21700 41.99200
C  -11.41800 12.64600 42.89800
N  -9.69600 17.45400 41.35400
C  -8.31000 17.19600 41.39900
C  -7.54700 18.36800 40.70700
C  -8.67000 19.49000 40.70100
C  -9.94900 18.78200 41.07100
C  -8.33300 20.57800 41.72000
C  -7.02600 18.05800 39.28500
C  -5.50200 17.86800 39.15100
H  -4.87600 18.52500 37.87100
N  -12.78200 17.69200 41.54100
C  -12.50900 18.94600 41.23200
C  -13.72700 19.69600 41.02100
C  -14.81600 18.75500 41.24700
C  -14.12900 17.48600 41.67000
C  -13.80400 21.14500 40.55800
C  -16.23700 19.08200 40.99200
O  -16.61600 20.12200 40.56100
C  -17.35600 18.01100 41.29800
N  -12.80500 14.60000 42.34900
C  -14.14600 14.96600 42.27100
C  -15.02900 13.70900 42.53400
C  -13.99500 12.52100 42.68600
C  -12.65200 13.28500 42.64000
C  -15.98400 13.93500 43.73600
C  -14.02800 11.54000 41.40400
C  -14.33500 10.13400 41.82500
N  -9.89500 14.61900 42.52600
C  -10.09400 13.28200 42.80100
C  -8.76600 12.69800 43.04400
C  -7.85100 13.75300 42.77300
C  -8.62300 14.85400 42.42900
C  -8.50100 11.31900 43.32100
C  -6.47200 14.14400 42.61300
O  -5.45400 13.49800 42.89300
C  -6.38600 15.64700 42.15200
C  -5.68600 16.36700 43.26200
O  -5.98600 16.30700 44.46100
O  -4.48900 16.92100 42.79500
C  -3.49700 17.30900 43.80900
H  -11.10700 20.43300 40.60000
H  -15.75800 16.19100 42.13400
H  -11.55100 11.60100 43.18800
H  -6.64100 18.72000 41.20100
H  -8.72300 19.95400 39.71600
H  -9.16500 20.80500 42.38700
H  -8.05200 21.46100 41.14600
H  -7.48500 20.27900 42.33700
H  -7.25300 18.77400 38.49500
H  -7.49600 17.20800 38.79100
H  -5.26200 16.81600 39.29900
H  -5.06700 18.42400 39.98200
H  -14.40500 21.82200 41.16500
H  -14.22500 21.24900 39.55800
H  -12.87200 21.68800 40.71800
H  -18.36300 18.37300 41.09000
H  -17.21500 17.72000 42.33900
H  -17.29100 17.18900 40.58600
H  -15.76800 13.48400 41.76500
H  -13.95100 12.05200 43.66800
H  -16.99400 13.79900 43.34900
H  -15.82100 14.97000 44.03900
H  -15.68200 13.23400 44.51400
H  -13.08900 11.48900 40.85400
H  -14.76200 11.90200 40.68400
H  -14.30100 9.98400 42.90500
H  -13.55600 9.48400 41.42600
H  -15.33500 9.89100 41.46500
H  -7.74000 11.04200 42.59200
H  -9.39700 10.70700 43.42500
H  -8.07700 11.33200 44.32500
H  -5.82400 15.71000 41.22000
H  -3.23700 18.36600 43.75000
H  -2.52500 16.84500 43.64200
H  -3.85900 17.02400 44.79800

