158

Mg 44.65100 3.05100 47.20600
C  42.26800 5.60400 46.80400
C  41.95300 0.84000 47.21400
C  46.72100 0.42000 46.76500
C  47.19700 5.23600 46.71200
N  42.30400 3.24200 46.79900
C  41.57800 4.41100 46.82500
C  40.10500 4.20100 46.77200
C  40.03900 2.65400 47.06900
C  41.48800 2.17900 47.09700
C  39.24700 2.30600 48.34500
C  39.62700 4.47600 45.33600
C  38.37100 5.43200 45.27200
H  37.83900 5.59700 43.76300
N  44.39000 0.87600 46.94100
C  43.22500 0.21500 47.04500
C  43.48400 -1.21600 46.92200
C  44.89300 -1.37000 46.65000
C  45.40700 0.03800 46.78600
C  42.36200 -2.26600 47.02000
C  45.60100 -2.68400 46.30700
O  45.03600 -3.76100 46.39300
C  47.01100 -2.73000 45.78100
N  46.68000 2.85700 46.67000
C  47.36900 1.68700 46.69700
C  48.87800 1.83100 46.66400
C  49.00100 3.37800 46.32600
C  47.52800 3.89900 46.54800
C  49.66100 1.25200 47.85500
C  49.56800 3.80000 44.95400
C  51.05700 3.55000 44.69200
N  44.81600 5.03200 46.79400
C  45.88900 5.79700 46.61600
C  45.50400 7.18500 46.50000
C  44.08100 7.10100 46.53200
C  43.69200 5.78900 46.68700
C  46.39300 8.40000 46.42100
C  42.91700 7.89300 46.58900
O  42.92900 9.07600 46.59600
C  41.71800 6.99600 46.68800
C  40.88700 7.30700 47.89100
O  40.90800 6.71700 49.00800
O  39.93800 8.40100 47.57600
C  38.91800 8.66800 48.62000
H  41.15100 0.11900 47.38900
H  47.52000 -0.32500 46.77200
H  48.02900 5.94000 46.63900
H  39.58000 4.78500 47.52800
H  39.51100 2.20400 46.22800
H  38.90700 3.21700 48.83900
H  39.82800 1.72800 49.06300
H  38.37900 1.80100 47.92200
H  39.48000 3.58300 44.72900
H  40.25000 5.08900 44.68500
H  38.70200 6.33600 45.78400
H  37.60200 4.89700 45.82900
H  42.68000 -3.14800 46.46400
H  41.53800 -1.67400 46.62100
H  42.08400 -2.39000 48.06700
H  47.80800 -2.55500 46.50300
H  47.10000 -1.89900 45.08100
H  47.20400 -3.68100 45.28400
H  49.17800 1.28000 45.77300
H  49.69500 3.77100 47.06900
H  49.03000 0.93100 48.68400
H  50.39700 1.91600 48.30900
H  50.12900 0.37900 47.39800
H  49.17700 4.79900 44.76200
H  48.93900 3.25800 44.24800
H  51.41800 4.41500 44.13500
H  51.18800 2.61100 44.15400
H  51.53100 3.42600 45.66600
H  47.32400 8.37800 46.98700
H  45.80700 9.25500 46.75800
H  46.65800 8.51500 45.36900
H  40.98000 7.12500 45.89600
H  37.99100 8.40800 48.10900
H  39.00100 9.70300 48.95300
H  38.99100 8.04600 49.51300
Mg 54.07400 24.40200 44.88200
C  51.33600 26.32000 43.65600
C  52.60900 21.65600 43.33600
C  56.79700 22.83400 45.49100
C  55.54900 27.51100 45.72800
N  52.25000 24.11200 43.49500
C  51.29500 25.02400 43.11100
C  50.24000 24.34400 42.12900
C  50.40900 22.80000 42.50800
C  51.84600 22.81300 43.10300
C  49.35400 22.24800 43.45700
C  50.70600 24.65700 40.61500
C  49.50200 24.68200 39.65500
H  49.67200 25.17100 38.24800
N  54.67700 22.49000 44.46500
C  53.90800 21.50800 43.88400
C  54.64800 20.24400 43.95400
C  55.87800 20.57800 44.62700
C  55.85100 22.04700 44.92000
C  54.07400 18.93300 43.53100
C  57.03200 19.51600 44.93800
O  56.93400 18.30900 44.75700
C  58.27200 19.96200 45.67800
N  55.95800 25.11500 45.29400
C  56.93200 24.19000 45.63500
C  58.11500 24.84500 46.35300
C  57.78800 26.41600 46.15800
C  56.38300 26.35500 45.60800
C  58.19500 24.42200 47.80500
C  58.72500 27.20100 45.18000
C  58.23600 27.51200 43.74900
N  53.48600 26.43300 44.93400
C  54.15300 27.54700 45.39700
C  53.18700 28.58300 45.53100
C  52.08800 28.18500 44.80400
C  52.34700 26.87400 44.46300
C  53.25500 29.79100 46.37600
C  50.76500 28.54600 44.35500
O  50.09300 29.52500 44.61300
C  50.21300 27.34300 43.59400
C  49.96400 27.91400 42.27400
O  50.68900 28.71500 41.69900
O  48.89400 27.30600 41.69500
C  48.34800 27.89100 40.48500
H  52.12600 20.75200 42.95900
H  57.74400 22.43700 45.86300
H  55.97000 28.44300 46.11200
H  49.24000 24.71000 42.36300
H  50.27400 22.14900 41.64500
H  48.55100 22.97600 43.57600
H  49.86000 22.02800 44.39600
H  48.88800 21.31500 43.14100
H  51.30200 23.81600 40.26100
H  51.12000 25.66500 40.64900
H  48.69300 25.24400 40.12300
H  49.10100 23.67500 39.54100
H  52.98500 18.98100 43.53500
H  54.46600 18.19500 44.23100
H  54.49900 18.55800 42.60000
H  57.94100 20.45600 46.59200
H  58.92400 20.47100 44.96800
H  58.93600 19.18200 46.05000
H  59.08800 24.62800 45.91300
H  57.60800 26.92600 47.10400
H  58.64700 23.43000 47.79400
H  57.22200 24.35900 48.29100
H  58.90500 25.02900 48.36700
H  59.67200 26.68300 45.03400
H  58.87100 28.20500 45.57800
H  57.57800 26.76200 43.31100
H  59.15800 27.70600 43.20100
H  57.73500 28.47800 43.69100
H  52.28200 29.90400 46.85500
H  53.50400 30.74000 45.90300
H  54.04500 29.63600 47.11000
H  49.28200 27.07900 44.09500
H  47.97900 28.80200 40.95600
H  47.43100 27.46900 40.07400
H  49.08600 28.22200 39.75500

