158

Mg 43.07400 42.10700 26.57100
C  42.42300 44.42200 29.17700
C  44.28200 39.82100 28.96300
C  43.87900 40.00000 24.10400
C  42.02200 44.52600 24.36200
N  43.34600 42.17100 28.75900
C  42.90100 43.18200 29.58700
C  42.78700 42.64000 31.01800
C  43.68500 41.31800 31.08200
C  43.84000 41.09900 29.51300
C  45.05400 41.44900 31.73300
C  41.35600 42.46000 31.42000
C  41.10500 42.99000 32.85600
H  41.91300 42.63200 34.11500
N  43.96600 40.16000 26.52300
C  44.41400 39.40900 27.62100
C  44.92300 38.13400 27.08800
C  44.67400 38.11000 25.66800
C  44.15600 39.44300 25.38500
C  45.61200 37.13900 28.01600
C  44.85000 36.96000 24.65500
O  44.52100 37.10500 23.52300
C  45.38800 35.72100 25.18600
N  43.12800 42.36000 24.54400
C  43.47300 41.32600 23.73500
C  43.33700 41.58600 22.26000
C  42.53300 42.94800 22.33800
C  42.58800 43.35000 23.78400
C  44.61200 41.69900 21.37200
C  41.09500 42.91300 21.70500
C  40.23400 41.84200 22.36100
N  42.43900 44.06600 26.67900
C  41.93700 44.88300 25.69100
C  41.42600 46.10800 26.28400
C  41.48900 45.95500 27.71900
C  42.17800 44.71600 27.86600
C  40.79100 47.25600 25.44400
C  41.21600 46.66600 28.91600
O  40.83500 47.81300 29.11800
C  41.84200 45.64500 29.95500
C  42.78900 46.34800 30.90900
O  44.00900 46.38400 30.89900
O  41.99900 46.99800 31.81000
C  42.81700 47.43800 32.98600
H  44.38900 39.00200 29.67800
H  44.29900 39.50100 23.22800
H  41.55500 45.20400 23.64500
H  43.28300 43.36400 31.66500
H  43.09400 40.46800 31.42400
H  45.81200 40.91000 31.16400
H  44.95100 40.94900 32.69600
H  45.28600 42.50300 31.88300
H  40.99800 41.43100 31.37300
H  40.71100 43.04700 30.76500
H  40.11500 42.60800 33.10400
H  41.08500 44.08000 32.82800
H  45.80100 37.69300 28.93500
H  46.55500 36.80800 27.58000
H  44.92500 36.29700 28.11200
H  44.70500 35.37700 25.96200
H  46.41300 35.58800 25.53300
H  45.30700 34.92600 24.44400
H  42.71600 40.76300 21.90500
H  43.10900 43.73900 21.85900
H  45.43400 41.10500 21.77100
H  44.90600 42.74100 21.23900
H  44.35700 41.35300 20.37000
H  40.98300 42.85400 20.62300
H  40.62000 43.86800 21.93000
H  39.83700 41.13500 21.63200
H  39.37700 42.34100 22.81400
H  40.74600 41.35900 23.19400
H  40.04600 46.86000 24.75400
H  41.52800 47.68400 24.76500
H  40.20700 47.92900 26.07200
H  41.08300 45.33900 30.67400
H  43.60900 48.13300 32.70500
H  43.39200 46.65200 33.47700
H  42.14000 47.98000 33.64500
Mg 27.11200 50.68900 26.85900
C  24.92400 51.74400 29.18300
C  29.51500 50.33800 29.41100
C  29.31800 49.53700 24.58400
C  24.80700 51.46800 24.36300
N  27.17300 51.08500 28.98500
C  26.07600 51.36200 29.80300
C  26.32300 51.11700 31.33100
C  27.87800 50.93100 31.32100
C  28.17900 50.71400 29.72600
C  28.66700 52.07500 31.94900
C  25.56600 49.99400 31.95400
C  24.42600 50.25900 32.92800
H  24.27800 49.39000 34.15100
N  29.15800 50.19500 26.99500
C  29.96500 50.05300 28.12000
C  31.18500 49.37300 27.76400
C  31.19000 49.15900 26.35700
C  29.85500 49.65600 25.93300
C  32.21200 49.05500 28.79800
C  32.24200 48.50100 25.50400
O  32.15000 48.39900 24.32200
C  33.52400 48.04100 26.07300
N  26.95800 50.51200 24.79900
C  28.03100 49.92700 24.03900
C  27.76800 49.80600 22.53500
C  26.22300 50.32400 22.53700
C  25.99100 50.85100 23.97300
C  28.65800 50.64800 21.54800
C  25.19400 49.11200 22.08200
C  24.04200 49.62000 21.28000
N  25.27300 51.45300 26.75900
C  24.41300 51.76100 25.67700
C  23.23600 52.40800 26.16200
C  23.37200 52.39200 27.59000
C  24.60000 51.80400 27.84000
C  22.16500 52.98100 25.31600
C  22.70400 52.69100 28.77100
O  21.64700 53.26700 28.95300
C  23.68200 52.34600 29.90900
C  23.97700 53.48700 30.84400
O  24.92600 54.23700 30.74200
O  23.10500 53.45500 31.92900
C  23.64400 54.22000 33.06100
H  30.19400 50.12000 30.23800
H  30.04600 49.14600 23.87000
H  24.11300 51.71500 23.55700
H  25.97700 52.03300 31.81100
H  28.21000 50.01300 31.80600
H  28.84100 51.66800 32.94500
H  28.07300 52.98600 32.01300
H  29.60800 52.25600 31.43000
H  26.25200 49.34600 32.50100
H  25.16900 49.38300 31.14400
H  23.53900 50.16400 32.30100
H  24.44700 51.29900 33.25300
H  32.28100 47.96800 28.83600
H  32.02100 49.46900 29.78800
H  33.12800 49.48600 28.39200
H  34.22900 48.80800 26.39400
H  33.94300 47.41800 25.28200
H  33.48400 47.33900 26.90600
H  27.84600 48.74000 22.32400
H  26.03100 51.20100 21.91900
H  29.37300 51.15400 22.19700
H  28.12500 51.44500 21.02800
H  28.99000 50.03600 20.71000
H  24.88100 48.65300 23.02000
H  25.64700 48.31900 21.48700
H  23.94200 50.70400 21.22800
H  23.05400 49.33400 21.64200
H  24.24800 49.21900 20.28800
H  22.24900 52.53400 24.32500
H  22.34300 54.05200 25.22400
H  21.25200 52.75800 25.86800
H  23.11300 51.59400 30.45700
H  24.52500 53.77100 33.52100
H  22.76800 54.38900 33.68700
H  23.87100 55.21600 32.68000

