158

Mg 54.20100 23.45400 44.32600
C  51.40700 25.25600 43.35000
C  52.92300 20.63700 42.95600
C  57.30700 21.97400 44.58700
C  55.55000 26.49800 45.38200
N  52.44800 23.07900 43.26500
C  51.37900 23.93800 43.01600
C  50.36400 23.30200 42.09700
C  50.64300 21.75600 42.34700
C  52.14600 21.80800 42.91100
C  49.70700 21.12100 43.37000
C  50.71200 23.52400 40.62800
C  49.58300 23.99000 39.68200
H  49.51500 23.27700 38.33300
N  55.06500 21.52700 43.83000
C  54.29400 20.45500 43.43100
C  55.21600 19.31000 43.27700
C  56.56800 19.66900 43.64000
C  56.33500 21.11500 44.02900
C  54.71900 17.95800 42.80700
C  57.83800 18.82300 43.55900
O  57.78700 17.65500 43.16700
C  59.20500 19.38800 43.91300
N  56.19100 24.20600 44.82800
C  57.33000 23.37900 44.87000
C  58.53000 24.17200 45.35900
C  57.95400 25.62000 45.59500
C  56.49600 25.43000 45.21200
C  59.50300 23.62900 46.49400
C  58.70500 26.72800 44.69800
C  58.90400 28.13900 45.21600
N  53.62400 25.50900 44.51400
C  54.22000 26.64900 45.08100
C  53.26500 27.74300 45.15900
C  52.16400 27.23300 44.43000
C  52.41700 25.90800 44.01500
C  53.51900 29.05200 45.87900
C  50.88300 27.66800 43.89000
O  50.26600 28.75300 44.02800
C  50.40000 26.37700 43.09700
C  50.48700 26.81800 41.67600
O  51.45300 26.93400 41.02500
O  49.13600 27.16300 41.32200
C  49.05400 27.72300 39.92800
H  52.43800 19.75000 42.54400
H  58.26100 21.56700 44.93000
H  56.02300 27.43600 45.68000
H  49.32500 23.58700 42.26700
H  50.64100 21.14600 41.44400
H  50.09000 21.25100 44.38300
H  49.53400 20.05500 43.21800
H  48.72500 21.57200 43.22800
H  50.93900 22.59000 40.11400
H  51.52400 24.25100 40.62200
H  49.60200 25.00100 39.27400
H  48.58700 23.86600 40.10500
H  54.00000 18.09400 41.99900
H  54.29500 17.44800 43.67200
H  55.53900 17.39500 42.36200
H  59.32800 20.20400 43.20000
H  60.03000 18.68000 43.83600
H  59.22400 19.80900 44.91800
H  59.15800 24.11700 44.46900
H  58.05200 25.89600 46.64600
H  59.51200 22.54100 46.42300
H  59.15800 23.94900 47.47800
H  60.51200 23.98100 46.28100
H  58.15700 26.75800 43.75600
H  59.68300 26.28200 44.51900
H  58.92600 28.71300 44.29000
H  59.82600 28.33000 45.76600
H  58.00600 28.40700 45.77300
H  54.59200 29.19600 45.99700
H  53.01600 29.20800 46.83300
H  53.21100 29.82400 45.17400
H  49.36400 26.10900 43.30200
H  49.98100 27.78900 39.35800
H  48.80300 28.75800 40.15900
H  48.31100 27.23400 39.29900
Mg -2.42500 35.23000 27.33300
C  -4.27000 33.27600 29.63800
C  -1.83000 37.53700 29.86400
C  -0.57300 36.98100 25.13000
C  -3.60000 33.18200 24.72700
N  -3.07700 35.39500 29.40300
C  -3.63400 34.37500 30.19500
C  -3.74500 34.82600 31.68400
C  -3.10300 36.27800 31.73900
C  -2.70600 36.46000 30.23100
C  -3.96200 37.34000 32.43400
C  -3.01800 33.87400 32.68500
C  -2.85000 34.34700 34.17900
H  -2.60400 33.47700 35.37400
N  -1.21800 36.90700 27.52500
C  -1.11600 37.71100 28.67900
C  -0.19700 38.73800 28.32400
C  0.06800 38.71900 26.94500
C  -0.65400 37.57400 26.44100
C  0.36400 39.71600 29.29100
C  0.74800 39.72300 25.96600
O  0.74800 39.73800 24.71400
C  1.43600 40.98600 26.41500
N  -2.18000 35.16500 25.20400
C  -1.24800 35.92000 24.52600
C  -1.07900 35.41700 23.07500
C  -1.93000 34.13300 22.97900
C  -2.61400 34.16200 24.37100
C  -1.37700 36.53100 22.03900
C  -1.09100 32.77500 22.79800
C  -1.47800 31.66800 21.83900
N  -3.81700 33.67100 27.14300
C  -4.13000 32.86300 26.02900
C  -4.88100 31.71400 26.44000
C  -5.06700 31.90400 27.82500
C  -4.30100 32.99100 28.23300
C  -5.41200 30.64300 25.43600
C  -5.63100 31.35700 29.07900
O  -6.28100 30.36100 29.21800
C  -5.16100 32.30200 30.24300
C  -6.31200 32.79900 30.97200
O  -6.96400 33.77300 30.68600
O  -6.55600 32.07200 32.11400
C  -7.60400 32.70900 32.93100
H  -1.77000 38.32400 30.61800
H  -0.02300 37.57500 24.39700
H  -3.92500 32.54500 23.90100
H  -4.80500 34.81400 31.93500
H  -2.18300 36.28400 32.32300
H  -4.90700 36.91400 32.76900
H  -4.23200 38.14400 31.74800
H  -3.33400 37.62900 33.27600
H  -2.03800 33.76600 32.21900
H  -3.58300 32.94200 32.71000
H  -3.64500 35.00100 34.53800
H  -1.99900 35.02800 34.18700
H  0.23500 39.19000 30.23700
H  -0.07300 40.71100 29.37900
H  1.45200 39.69400 29.22600
H  1.60800 41.70800 25.61700
H  2.34800 40.72200 26.95000
H  0.76400 41.41300 27.16000
H  -0.01100 35.23800 22.95000
H  -2.63000 34.26000 22.15300
H  -0.46100 36.82300 21.52400
H  -1.86600 37.40600 22.46600
H  -2.06400 36.25700 21.23900
H  -1.29600 32.29800 23.75700
H  -0.02700 32.94600 22.63300
H  -0.57500 31.45700 21.26600
H  -2.21000 32.00200 21.10400
H  -1.95800 30.89600 22.44000
H  -4.72200 30.45200 24.61400
H  -6.33700 30.96600 24.96000
H  -5.59600 29.72600 25.99700
H  -4.56100 31.64400 30.87100
H  -7.73000 32.07100 33.80600
H  -8.58700 32.77600 32.46500
H  -7.30900 33.66900 33.35200

