158

Mg 47.17400 16.63900 27.57400
C  45.27600 16.66100 30.55600
C  49.77400 18.21300 29.43100
C  48.85200 17.24700 24.66500
C  44.46400 15.57300 25.88700
N  47.50700 17.40300 29.75900
C  46.58800 17.10300 30.80100
C  47.17300 17.61900 32.10200
C  48.43800 18.36800 31.70300
C  48.60100 17.99100 30.15900
C  48.56600 19.87500 32.06400
C  47.37900 16.47800 33.22600
C  46.73900 16.65300 34.58900
H  46.93500 17.98200 35.31700
N  49.06400 17.39500 27.11200
C  50.01600 17.92200 27.98600
C  51.30900 18.17600 27.33100
C  51.02900 17.96200 25.90800
C  49.57900 17.48200 25.79400
C  52.53700 18.58800 28.01100
C  52.02600 18.04700 24.78300
O  51.79800 17.91600 23.58600
C  53.48800 18.45300 25.06100
N  46.53400 16.70900 25.50800
C  47.46000 16.82100 24.48900
C  46.88400 16.49100 23.18400
C  45.60700 15.74900 23.59900
C  45.49300 16.00400 25.08300
C  46.69100 17.76100 22.25100
C  45.56500 14.25800 23.24200
C  44.73100 13.81900 22.08100
N  45.27200 16.16800 28.05800
C  44.28000 15.68700 27.23700
C  43.07200 15.37700 27.94600
C  43.47000 15.73100 29.33000
C  44.80200 16.22400 29.29400
C  41.69900 14.94100 27.41300
C  42.96300 15.71100 30.68600
O  41.89300 15.28700 31.06500
C  44.26500 16.22200 31.57900
C  43.73900 17.29900 32.35400
O  43.73700 18.47200 32.02300
O  43.27100 16.83800 33.52900
C  42.63300 17.82100 34.49900
H  50.60100 18.68500 29.96400
H  49.40200 17.30900 23.72300
H  43.69000 15.11300 25.27000
H  46.37600 18.26200 32.47400
H  49.38400 18.02200 32.12000
H  48.34900 20.48900 31.19000
H  49.54700 20.09600 32.48400
H  47.90800 20.17700 32.87900
H  48.44300 16.25100 33.29900
H  46.87900 15.58300 32.85600
H  47.12700 15.90600 35.28200
H  45.69100 16.35300 34.59600
H  53.25900 17.77800 27.90500
H  52.35600 18.60800 29.08500
H  52.99500 19.49400 27.61400
H  54.05400 18.31600 24.14000
H  53.91200 17.82800 25.84700
H  53.53400 19.48200 25.41700
H  47.46100 15.69800 22.70800
H  44.70200 16.22400 23.22100
H  45.64400 17.75800 21.94800
H  47.31300 17.68800 21.35900
H  46.83800 18.65400 22.85800
H  45.35500 13.62200 24.10200
H  46.60600 13.97100 23.09200
H  44.18200 12.89400 22.26100
H  45.39900 13.61600 21.24400
H  43.99100 14.61600 22.00800
H  41.00300 15.57900 27.95600
H  41.56300 13.86200 27.49300
H  41.59800 15.16700 26.35100
H  44.64000 15.35800 32.12800
H  41.66700 18.09000 34.07200
H  43.22500 18.73500 34.54700
H  42.47000 17.41200 35.49600
Mg 6.27000 54.79000 40.87100
C  3.37900 52.96800 39.84100
C  8.25700 52.33100 39.82300
C  8.79100 57.01100 40.98000
C  4.09000 57.41100 41.69400
N  5.79900 53.00400 39.77300
C  4.57000 52.35900 39.56400
C  4.93000 51.01100 38.97100
C  6.38900 50.67500 39.40500
C  6.87700 52.11500 39.74500
C  6.56200 49.77300 40.64200
C  4.74100 50.79400 37.44700
C  4.21800 49.37100 37.10300
H  4.22000 48.81600 35.67000
N  8.23900 54.72000 40.30400
C  8.88500 53.54100 39.91600
C  10.28200 53.89300 39.80500
C  10.39400 55.24500 39.91500
C  9.14600 55.72700 40.42100
C  11.32100 52.81100 39.57000
C  11.65300 56.07000 39.72700
O  12.69900 55.59600 39.26200
C  11.61500 57.59600 39.85800
N  6.36600 56.92500 41.21700
C  7.57200 57.54800 41.32600
C  7.43700 58.91900 42.08100
C  5.86600 59.15400 42.09400
C  5.34100 57.77200 41.61600
C  8.12800 58.96800 43.44200
C  5.41600 60.26800 41.08200
C  4.80200 61.46800 41.73900
N  4.18000 55.08900 40.99800
C  3.47400 56.16300 41.43500
C  2.07000 55.85800 41.41100
C  1.95200 54.58300 40.82300
C  3.27700 54.16800 40.50200
C  0.99500 56.78700 41.83500
C  0.99000 53.48900 40.35000
O  -0.22400 53.44600 40.33100
C  1.97100 52.30500 39.79500
C  1.49200 52.08200 38.39400
O  1.62000 52.93200 37.50800
O  0.98100 50.81600 38.17500
C  0.86500 50.47200 36.75600
H  8.96800 51.52400 39.63400
H  9.59300 57.56300 41.47400
H  3.44600 58.13600 42.19600
H  4.22600 50.29100 39.38700
H  6.88800 50.07800 38.64100
H  7.04000 48.84000 40.34400
H  5.56900 49.42900 40.93100
H  7.11900 50.31500 41.40500
H  5.70900 50.79500 36.94700
H  4.10000 51.57200 37.03200
H  3.20100 49.39100 37.49400
H  4.91000 48.76400 37.68700
H  12.30300 53.09600 39.94800
H  11.30400 52.40300 38.56000
H  11.03300 51.95600 40.18200
H  10.64200 58.00400 39.58500
H  12.34600 58.00000 39.15800
H  11.94300 57.84700 40.86600
H  7.94200 59.66700 41.47000
H  5.52400 59.29700 43.11900
H  8.04000 57.99400 43.92200
H  7.62700 59.78900 43.95500
H  9.17400 59.26900 43.38500
H  4.80300 59.82100 40.30000
H  6.32400 60.63500 40.60400
H  3.81700 61.72100 41.34600
H  5.46700 62.32700 41.64800
H  4.68600 61.33800 42.81400
H  0.07700 56.32800 41.46800
H  1.02700 57.78300 41.39600
H  1.01100 56.84400 42.92400
H  1.84800 51.41400 40.41100
H  0.82500 49.39400 36.59900
H  1.71600 50.86500 36.19900
H  0.03000 51.02500 36.32700

