158

Mg 42.73700 41.39000 26.44800
C  41.60300 43.71300 28.92000
C  43.68800 39.29300 29.02800
C  43.81800 39.30500 24.09800
C  41.95500 43.77900 23.96300
N  42.69600 41.53200 28.76900
C  42.12600 42.53900 29.52900
C  42.13200 42.09500 30.98300
C  42.90200 40.74500 31.01900
C  43.14600 40.47600 29.50100
C  44.24800 40.70300 31.84100
C  40.81000 42.06000 31.77100
C  40.64200 43.08900 32.96500
H  40.23300 42.56400 34.35400
N  43.59000 39.56700 26.56400
C  43.93400 38.85000 27.69300
C  44.65600 37.71000 27.31800
C  44.62400 37.64500 25.94400
C  44.01000 38.89100 25.46300
C  45.30800 36.78600 28.27500
C  44.93100 36.43900 25.04300
O  44.87500 36.42700 23.80800
C  45.36800 35.20400 25.59000
N  42.85700 41.51000 24.38100
C  43.30100 40.49300 23.63000
C  43.07600 40.74600 22.06500
C  42.53500 42.22100 22.09700
C  42.47700 42.55100 23.57200
C  44.32100 40.52800 21.19500
C  41.09800 42.34900 21.46100
C  41.07400 42.71600 19.99000
N  42.00400 43.32900 26.36500
C  41.69000 44.13700 25.30800
C  41.19700 45.42200 25.85200
C  41.16400 45.20300 27.20100
C  41.63600 43.91200 27.52200
C  40.85200 46.71100 24.99500
C  40.76900 45.79400 28.46400
O  40.29300 46.91300 28.68000
C  41.02300 44.87300 29.54400
C  42.11700 45.45700 30.44500
O  43.27200 45.69600 30.16200
O  41.47800 45.81400 31.64500
C  42.42200 46.23800 32.75400
H  43.92800 38.58200 29.82100
H  44.19800 38.70700 23.26700
H  41.71600 44.52100 23.19800
H  42.77600 42.76200 31.55500
H  42.22500 39.99700 31.43000
H  45.10600 40.81400 31.17900
H  44.41600 39.85500 32.50400
H  44.44600 41.61400 32.40600
H  40.59100 41.07400 32.17900
H  39.98900 42.31600 31.10100
H  39.73600 43.63000 32.69200
H  41.51700 43.73900 32.99700
H  45.49400 37.32000 29.20700
H  46.24900 36.35700 27.93100
H  44.64400 35.96700 28.55100
H  45.55900 34.43300 24.84500
H  44.59300 34.90500 26.29600
H  46.34700 35.31000 26.05800
H  42.30800 40.07900 21.67300
H  43.25000 42.84400 21.56000
H  45.18700 40.86000 21.76800
H  44.13600 41.15300 20.32200
H  44.54600 39.51100 20.87200
H  40.50600 43.08700 22.00000
H  40.58700 41.40600 21.65400
H  40.21700 43.33800 19.73300
H  40.96300 41.80600 19.40000
H  41.96500 43.30200 19.76700
H  40.15600 46.43300 24.20400
H  41.74800 47.15400 24.56000
H  40.34600 47.44400 25.62300
H  40.12900 44.57400 30.09100
H  42.01500 45.97800 33.73100
H  42.40600 47.32800 32.77500
H  43.41800 45.80000 32.81700
Mg -5.85800 25.41700 25.77600
C  -4.37700 26.38500 28.84600
C  -7.88300 23.15800 27.60400
C  -6.68400 23.84100 22.74100
C  -3.22400 27.02300 24.06300
N  -6.06600 24.89100 27.98800
C  -5.47600 25.52100 29.05800
C  -6.04600 25.11700 30.35700
C  -6.90800 23.83500 29.87300
C  -6.98300 23.94200 28.36500
C  -6.30200 22.38900 30.27100
C  -6.90000 26.15200 31.08700
C  -6.69800 26.27200 32.62200
H  -6.07500 25.09300 33.43000
N  -7.25200 23.88300 25.24200
C  -7.95900 23.11400 26.16300
C  -8.78700 22.21500 25.33900
C  -8.44700 22.40300 23.91500
C  -7.44400 23.43200 23.89700
C  -9.81700 21.25500 25.99800
C  -8.89700 21.54300 22.71300
O  -8.47400 21.67500 21.62900
C  -9.79200 20.44700 22.94400
N  -5.12900 25.48300 23.68800
C  -5.55500 24.73600 22.56200
C  -4.84600 25.20900 21.21800
C  -3.84400 26.27300 21.77800
C  -4.11100 26.34900 23.30200
C  -4.31000 24.04300 20.34600
C  -3.81200 27.65900 21.01200
C  -2.63000 27.94900 20.17700
N  -4.17300 26.56700 26.28600
C  -3.19700 27.21200 25.53000
C  -2.22200 27.89100 26.37000
C  -2.62500 27.46500 27.64500
C  -3.81900 26.73500 27.59100
C  -0.95000 28.54500 25.91900
C  -2.21900 27.66600 29.04000
O  -1.35600 28.39400 29.48100
C  -3.33100 27.03800 29.83900
C  -2.74100 26.04700 30.78100
O  -2.42800 24.88800 30.52100
O  -2.42800 26.72400 31.89900
C  -1.72200 25.95000 32.91900
H  -8.36800 22.41800 28.24300
H  -6.80100 23.36900 21.76400
H  -2.52800 27.55000 23.40700
H  -5.26800 24.72000 31.00900
H  -7.92900 23.74200 30.24000
H  -5.44600 22.44900 30.94200
H  -6.01000 21.84300 29.37500
H  -7.08800 21.83000 30.77900
H  -7.96300 25.94400 30.96100
H  -6.66500 27.12300 30.65100
H  -7.71500 26.33100 33.01000
H  -6.06500 27.14400 32.78300
H  -10.30800 21.78900 26.81200
H  -9.39500 20.28500 26.26100
H  -10.56200 21.02400 25.23600
H  -9.89500 19.86200 22.03000
H  -10.80400 20.78300 23.17000
H  -9.39300 19.84200 23.75800
H  -5.51500 25.80300 20.59500
H  -2.84600 25.83600 21.74200
H  -3.25700 23.91700 20.59800
H  -4.47600 24.28900 19.29700
H  -4.88800 23.15900 20.61600
H  -3.82000 28.37900 21.83000
H  -4.79900 27.88200 20.60700
H  -2.90400 28.56900 19.32300
H  -2.29700 27.02500 19.70500
H  -1.84900 28.53300 20.66200
H  -1.20800 29.21200 25.09600
H  -0.31700 27.77200 25.48500
H  -0.39700 29.03300 26.72100
H  -3.85900 27.81300 30.39400
H  -1.83200 24.86800 32.84000
H  -1.71400 26.34600 33.93400
H  -0.75200 26.06200 32.43400

