158

Mg 16.23200 -1.62000 26.80100
C  15.06700 0.19600 29.65600
C  18.18500 -3.48600 28.97500
C  17.46900 -3.14000 24.17000
C  14.43400 0.65600 24.73500
N  16.78400 -1.47200 29.00100
C  16.08800 -0.73400 29.97100
C  16.57300 -1.12700 31.39100
C  17.72800 -2.15400 31.09500
C  17.54900 -2.38900 29.56600
C  19.22000 -1.76500 31.43200
C  15.41500 -1.69000 32.27100
C  15.10700 -0.99800 33.60900
H  16.23300 -0.24100 34.33600
N  17.61400 -3.04400 26.61900
C  18.19400 -3.84200 27.62700
C  18.97700 -4.87900 27.05500
C  18.84200 -4.74100 25.63900
C  17.94000 -3.67300 25.41300
C  19.74400 -5.96000 27.82700
C  19.36600 -5.69800 24.57900
O  19.03000 -5.56500 23.41100
C  20.15500 -6.95100 24.93100
N  16.02700 -1.20000 24.57900
C  16.58900 -2.04900 23.76900
C  16.06600 -1.69100 22.38700
C  14.97700 -0.53700 22.50200
C  15.16400 -0.33000 24.05900
C  17.19500 -1.35400 21.45700
C  13.56800 -0.89800 22.10800
C  12.83700 0.09600 21.25000
N  15.00900 0.06300 27.06400
C  14.28300 0.82000 26.12100
C  13.52600 1.79300 26.85600
C  13.65700 1.54400 28.26100
C  14.68100 0.53000 28.34400
C  12.61000 2.81500 26.21400
C  13.21200 1.96500 29.62100
O  12.40900 2.83000 29.93800
C  14.10600 1.04900 30.59400
C  14.92300 2.10900 31.34100
O  15.95800 2.63600 30.94900
O  14.31200 2.31200 32.53700
C  14.79500 3.50000 33.32000
H  18.72500 -4.08800 29.70900
H  17.80100 -3.49700 23.19300
H  13.79400 1.29900 24.12800
H  16.88100 -0.21800 31.90800
H  17.56400 -3.10000 31.61100
H  19.72900 -2.45000 32.10900
H  19.25100 -0.87600 32.06300
H  19.78100 -1.64900 30.50500
H  15.58700 -2.75000 32.45700
H  14.50600 -1.65100 31.67200
H  14.81500 -1.82600 34.25500
H  14.35200 -0.22800 33.45300
H  20.75500 -6.23700 27.53200
H  19.22700 -6.90400 27.65600
H  19.66700 -5.60100 28.85300
H  20.45900 -7.46800 24.02100
H  19.47400 -7.66400 25.39800
H  21.10100 -6.69100 25.40600
H  15.64100 -2.59100 21.94200
H  15.33900 0.33200 21.95500
H  17.32100 -0.30300 21.19500
H  17.23200 -1.99600 20.57700
H  18.14900 -1.55100 21.94600
H  13.15800 -0.77200 23.11000
H  13.44700 -1.88400 21.66100
H  13.55300 0.60700 20.60500
H  12.34200 0.72200 21.99200
H  12.08600 -0.45600 20.68500
H  12.37400 3.59600 26.93500
H  11.68100 2.41700 25.80700
H  13.12100 3.28500 25.37400
H  13.48100 0.58100 31.35500
H  14.48800 4.49300 32.99400
H  15.88300 3.43800 33.34400
H  14.58300 3.32600 34.37500
Mg 40.80700 9.54600 29.83100
C  42.37500 10.19100 32.95000
C  38.23800 7.81700 31.76100
C  39.38900 8.62800 27.06700
C  43.48200 10.92600 28.19200
N  40.37900 9.18800 32.09400
C  41.09500 9.69000 33.13300
C  40.35400 9.60700 34.46600
C  39.23700 8.55800 34.07300
C  39.25400 8.49700 32.49700
C  39.52300 7.17600 34.57000
C  39.80400 10.99000 34.89700
C  39.48700 11.00400 36.35300
H  40.43500 11.77800 37.26600
N  38.98200 8.47600 29.43900
C  38.09500 7.81200 30.30500
C  36.97400 7.35700 29.57100
C  37.15000 7.67300 28.17600
C  38.57000 8.27000 28.14600
C  35.79000 6.58000 30.16000
C  36.24200 7.43500 26.87500
O  36.64800 7.74000 25.76700
C  34.83000 6.85400 27.03700
N  41.31700 9.74300 27.99500
C  40.58900 9.27500 26.96300
C  41.30000 9.25400 25.60100
C  42.48900 10.21000 25.93200
C  42.46900 10.35200 27.48700
C  41.78900 7.85100 25.11500
C  42.37200 11.62600 25.26800
C  40.96800 12.30500 25.27700
N  42.69000 10.28700 30.42600
C  43.69000 10.79900 29.59600
C  44.73900 11.38700 30.41800
C  44.20000 11.20600 31.79500
C  42.94800 10.55500 31.72400
C  45.97300 12.18800 30.05000
C  44.46600 11.57800 33.14300
O  45.39700 12.22400 33.59400
C  43.35000 10.91200 33.99600
C  44.09800 9.91500 34.84500
O  44.39300 8.81500 34.54100
O  44.52100 10.50500 36.03200
C  45.10300 9.58400 37.02300
H  37.45200 7.31000 32.32500
H  38.95700 8.25800 26.13500
H  44.38000 11.32900 27.72000
H  41.06200 9.24500 35.21300
H  38.22800 8.86900 34.34400
H  40.26100 6.72400 33.90800
H  38.60400 6.58900 34.56600
H  39.89800 7.30100 35.58600
H  38.92000 11.22300 34.30300
H  40.58100 11.73700 34.73000
H  39.44200 9.99500 36.76300
H  38.48400 11.38000 36.55600
H  36.03800 5.55400 29.88800
H  34.83000 6.90100 29.75600
H  35.72800 6.70100 31.24100
H  34.21400 6.90100 26.13900
H  34.39800 7.46100 27.83300
H  35.02700 5.83200 27.36200
H  40.68300 9.72400 24.83600
H  43.39100 9.65900 25.66600
H  42.82300 7.61800 25.37100
H  41.59600 7.78400 24.04400
H  41.11100 7.10300 25.52500
H  42.78700 11.66400 24.26100
H  43.07100 12.27400 25.79500
H  40.54100 12.29000 24.27400
H  41.16400 13.34900 25.52200
H  40.23100 11.98600 26.01400
H  46.67700 11.57800 29.48400
H  46.36900 12.36000 31.05100
H  45.60600 13.03400 29.47000
H  42.88500 11.70300 34.58500
H  44.66100 8.58800 36.99000
H  44.94600 10.03700 38.00200
H  46.18000 9.43000 36.96300

