158

Mg 34.64700 2.96400 29.84900
C  32.42200 3.92800 32.37400
C  37.19300 2.78900 32.21000
C  36.72800 2.32900 27.27100
C  32.12100 3.75800 27.56400
N  34.80700 3.39300 32.03100
C  33.76700 3.69000 32.85700
C  34.22900 3.63000 34.29000
C  35.82800 3.59100 34.24200
C  35.98800 3.21600 32.77800
C  36.67500 4.94000 34.65300
C  33.69100 2.38400 35.05900
C  33.01600 2.73300 36.36000
H  33.71200 3.58700 37.39600
N  36.73600 2.66100 29.74900
C  37.51300 2.50600 30.80800
C  38.88200 2.30400 30.35900
C  38.72800 1.91100 28.98100
C  37.36300 2.29700 28.61800
C  40.09700 2.36700 31.28200
C  39.82100 1.54900 27.95900
O  39.61300 1.38000 26.79600
C  41.26400 1.26400 28.43500
N  34.40700 2.94000 27.73500
C  35.44900 2.64200 26.86700
C  35.07700 2.65300 25.37400
C  33.58800 3.17000 25.47000
C  33.33600 3.26900 27.01700
C  35.96700 3.58800 24.50500
C  32.48800 2.29200 24.82100
C  32.16600 0.93000 25.55700
N  32.59800 3.61700 29.87200
C  31.73200 3.81000 28.89800
C  30.43900 4.22700 29.43500
C  30.66200 4.30600 30.80900
C  32.01500 3.92100 31.02300
C  29.21100 4.54600 28.63200
C  30.09500 4.58400 32.13800
O  28.93800 4.86600 32.41500
C  31.18500 4.28600 33.24200
C  31.43700 5.56400 34.05500
O  31.88100 6.64500 33.68800
O  30.89200 5.42300 35.29200
C  31.06600 6.48100 36.33400
H  37.89300 2.75100 33.04600
H  37.40200 2.05700 26.45600
H  31.35500 4.16500 26.90100
H  34.05500 4.58700 34.78000
H  36.12800 2.76600 34.88800
H  37.24300 4.80300 35.57400
H  35.99200 5.76800 34.84200
H  37.42600 5.11800 33.88300
H  34.47700 1.69200 35.35800
H  32.99000 1.89500 34.38300
H  32.60500 1.90500 36.93900
H  32.12600 3.31200 36.11500
H  41.05900 2.49100 30.78500
H  40.11200 1.37600 31.73700
H  39.99200 3.13800 32.04500
H  41.43200 2.26900 28.82100
H  41.90200 0.98900 27.59500
H  41.30000 0.58000 29.28300
H  35.02400 1.63800 24.98100
H  33.41300 4.14000 25.00400
H  36.87600 3.89700 25.02100
H  35.47600 4.52100 24.22600
H  36.17900 3.06300 23.57300
H  32.73500 2.16300 23.76700
H  31.56400 2.87000 24.78200
H  32.01200 0.14500 24.81600
H  31.25100 1.17700 26.09600
H  32.84000 0.61800 26.35500
H  28.32300 4.42300 29.25200
H  29.10100 3.76600 27.87800
H  29.24500 5.54600 28.20000
H  30.79900 3.46100 33.84100
H  31.98100 6.99400 36.03900
H  31.18600 6.03200 37.32000
H  30.29500 7.23700 36.48300
Mg 28.82700 57.28500 41.37600
C  26.27300 55.06600 40.25300
C  31.04800 55.00100 39.82100
C  31.00600 59.59800 41.58800
C  26.30100 59.45000 42.42600
N  28.64000 55.28800 40.08100
C  27.48700 54.53800 39.86700
C  27.89600 53.18800 39.32700
C  29.42600 53.07100 39.47900
C  29.70300 54.51800 39.80100
C  30.02400 52.08600 40.59500
C  27.34100 52.90300 37.89200
C  27.20100 54.19400 37.12800
H  27.35100 54.13700 35.60700
N  30.78500 57.23300 40.92700
C  31.53000 56.23300 40.31000
C  32.90100 56.63500 40.21700
C  32.94400 57.90900 40.82700
C  31.56900 58.33800 41.13900
C  33.96800 55.79800 39.53100
C  34.23500 58.66200 41.06300
O  35.29800 58.16100 40.74100
C  34.27200 59.98500 41.56700
N  28.69500 59.21900 41.98500
C  29.72700 60.01900 42.01400
C  29.49800 61.42300 42.76100
C  27.94300 61.44900 42.75400
C  27.62700 59.99000 42.30200
C  30.11500 61.57400 44.17000
C  27.18800 62.58700 41.93600
C  26.81200 63.88000 42.71600
N  26.70800 57.30500 41.41500
C  25.85200 58.24700 41.92100
C  24.48400 57.73400 41.69400
C  24.59500 56.51900 41.11100
C  25.99800 56.31700 40.89300
C  23.21900 58.37600 42.08600
C  23.87700 55.38600 40.65900
O  22.67200 55.10800 40.68200
C  24.93000 54.39300 40.20100
C  24.82800 53.12000 40.94200
O  25.12700 52.94900 42.11400
O  24.23600 52.13200 40.20300
C  23.74900 50.94300 40.93200
H  31.76200 54.23700 39.50600
H  31.77900 60.36600 41.52800
H  25.62000 60.20700 42.82000
H  27.44900 52.50500 40.04900
H  29.81900 52.71200 38.52800
H  29.22100 51.54400 41.09500
H  30.47900 52.64100 41.41600
H  30.72200 51.37800 40.14800
H  26.30900 52.55300 37.92000
H  28.01700 52.21700 37.38200
H  27.92500 54.96300 37.39800
H  26.18100 54.56300 37.23400
H  34.41800 56.40700 38.74700
H  33.47700 55.03200 38.93100
H  34.67000 55.35400 40.23600
H  33.91000 60.60700 40.74800
H  35.32400 60.23400 41.70400
H  33.71700 60.02900 42.50400
H  29.97200 62.12700 42.07600
H  27.54100 61.58800 43.75700
H  30.40700 62.58500 44.45400
H  30.98400 60.91700 44.18800
H  29.42100 61.25400 44.94700
H  26.29400 62.28100 41.39200
H  27.84300 62.89000 41.11900
H  26.97400 63.81800 43.79200
H  25.76100 63.95800 42.43900
H  27.45200 64.68300 42.34900
H  23.29600 59.43600 41.84400
H  23.00800 58.28700 43.15200
H  22.37100 58.01400 41.50400
H  24.71300 54.14800 39.16100
H  23.65800 51.09600 42.00700
H  24.41400 50.12600 40.65400
H  22.74700 50.74800 40.54800

