158

Mg 1.23400 -2.48100 44.31400
C  4.66600 -1.91600 43.92700
C  0.67800 0.19100 42.04400
C  -2.01400 -3.48400 43.98300
C  1.97600 -5.41100 46.01600
N  2.56700 -1.12800 42.96800
C  3.88500 -0.92800 43.18100
C  4.49100 0.24600 42.53800
C  3.21200 1.00200 42.03000
C  2.07500 -0.05100 42.38100
C  2.98000 2.42400 42.82400
C  5.37500 -0.06800 41.34800
C  6.62300 0.89500 41.09000
H  6.56300 1.81300 39.86000
N  -0.44800 -1.83200 43.13300
C  -0.45500 -0.69400 42.36500
C  -1.80000 -0.40100 41.93500
C  -2.66700 -1.42800 42.49700
C  -1.73300 -2.29000 43.26100
C  -2.13800 0.65300 40.80400
C  -4.08200 -1.59600 42.12700
O  -4.59700 -0.58600 41.62900
C  -4.93200 -2.83300 42.33600
N  0.15400 -4.13600 44.94100
C  -1.22000 -4.22300 44.83500
C  -1.77600 -5.42700 45.60200
C  -0.47000 -6.16100 46.14400
C  0.61800 -5.13700 45.74700
C  -2.81800 -5.02800 46.73300
C  -0.30300 -7.62300 45.59900
C  0.23400 -8.63100 46.64200
N  2.94800 -3.43300 44.97700
C  3.11400 -4.58000 45.67400
C  4.50100 -4.75800 45.98200
C  5.16900 -3.75100 45.28600
C  4.18100 -2.89600 44.69400
C  5.13000 -5.83100 46.76000
C  6.50900 -3.28400 44.97000
O  7.62200 -3.62000 45.33700
C  6.22500 -2.01400 44.01700
C  6.92800 -0.82100 44.66900
O  6.84100 -0.45000 45.81100
O  7.81300 -0.23100 43.76400
C  8.51100 0.91400 44.33300
H  0.64100 1.15300 41.53000
H  -3.06500 -3.76800 44.06900
H  2.33400 -6.35500 46.43100
H  5.02300 0.82800 43.29000
H  3.21500 1.24900 40.96800
H  3.69900 2.57100 43.62900
H  1.95900 2.42100 43.20600
H  3.06100 3.27100 42.14300
H  4.81600 -0.01400 40.41400
H  5.67200 -1.09800 41.54500
H  7.40300 0.15600 40.90700
H  6.87900 1.49000 41.96600
H  -2.63600 0.14900 39.97600
H  -1.29800 1.20500 40.38100
H  -2.84400 1.28400 41.34300
H  -5.38300 -2.90400 43.32500
H  -4.41600 -3.78700 42.23000
H  -5.74000 -2.93500 41.61200
H  -2.26600 -6.02300 44.83200
H  -0.47000 -6.09600 47.23200
H  -2.90300 -3.95000 46.87400
H  -2.67800 -5.47300 47.71800
H  -3.74800 -5.53900 46.48700
H  0.39900 -7.54600 44.76800
H  -1.24100 -8.04700 45.24000
H  1.23700 -8.95900 46.37100
H  -0.30700 -9.54200 46.89800
H  0.39400 -8.29100 47.66500
H  4.45100 -6.68100 46.69400
H  5.20000 -5.63900 47.83100
H  6.00300 -6.27500 46.28100
H  6.77400 -2.39500 43.15600
H  7.87500 1.75000 44.62300
H  9.22400 1.28800 43.59900
H  9.09900 0.56800 45.18300
Mg 30.35600 57.56700 39.85500
C  27.54500 55.48600 39.24100
C  32.46000 55.09600 39.12700
C  32.87900 59.84500 40.10600
C  28.01800 60.15600 40.54900
N  30.01700 55.53300 39.26600
C  28.81500 54.93600 38.81100
C  29.14100 53.55000 38.23300
C  30.66900 53.42200 38.36600
C  31.06500 54.76200 39.02800
C  31.09700 52.21800 39.25300
C  28.42900 53.34900 36.86200
C  28.75300 54.35800 35.75600
H  27.61400 55.17300 35.20900
N  32.33300 57.48100 39.57600
C  33.04200 56.36200 39.33400
C  34.40600 56.65300 39.19100
C  34.57600 58.02700 39.46100
C  33.24400 58.52200 39.75800
C  35.49200 55.62600 38.96200
C  36.01300 58.69400 39.65400
O  36.93200 58.03700 39.27200
C  36.33500 60.05800 40.16200
N  30.44300 59.77700 40.15200
C  31.62000 60.47300 40.23700
C  31.34600 62.02000 40.48400
C  29.75900 62.03400 40.56900
C  29.39100 60.55200 40.48200
C  32.06600 62.63100 41.71700
C  29.08600 62.77700 39.37900
C  28.74400 64.23400 39.69500
N  28.21900 57.75900 39.98900
C  27.45800 58.85200 40.31000
C  26.08300 58.55100 40.27000
C  26.06600 57.18600 39.85200
C  27.37600 56.77800 39.68100
C  24.89500 59.36300 40.55600
C  25.18100 56.10000 39.62100
O  23.93700 56.07800 39.75500
C  26.13200 54.92900 39.20100
C  26.04400 53.80100 40.18600
O  26.55800 53.67900 41.30300
O  25.40200 52.84100 39.56800
C  25.33000 51.59900 40.34100
H  33.22200 54.36000 38.86500
H  33.72900 60.52700 40.02400
H  27.24500 60.91500 40.69200
H  28.58600 52.83700 38.84400
H  31.11600 53.36300 37.37400
H  31.73700 51.51900 38.71400
H  30.21500 51.72300 39.65900
H  31.56000 52.51400 40.19400
H  27.35700 53.26700 37.03900
H  28.67800 52.34000 36.53300
H  29.04200 53.77500 34.88200
H  29.52000 55.03500 36.13200
H  35.86400 55.87400 37.96800
H  35.21400 54.57300 38.92100
H  36.22100 55.68400 39.77100
H  36.22600 60.71500 39.29900
H  37.40800 60.15900 40.32400
H  35.76600 60.41700 41.02000
H  31.76200 62.49300 39.59400
H  29.42500 62.52400 41.48300
H  32.39800 63.66700 41.64600
H  32.93700 62.06200 42.04200
H  31.22800 62.77400 42.40000
H  28.29700 62.19200 38.90800
H  29.81300 62.91500 38.57800
H  29.29300 64.91700 39.04800
H  28.88800 64.52300 40.73600
H  27.73400 64.40100 39.32000
H  24.50000 58.99600 41.50400
H  24.19500 59.37000 39.72200
H  25.33400 60.33300 40.78800
H  25.85400 54.53600 38.22300
H  26.23200 51.01400 40.16600
H  24.41500 51.13200 39.97700
H  25.30000 51.76400 41.41800

