158

Mg 47.10900 25.61800 29.28500
C  48.04600 27.86800 31.91900
C  45.66800 23.53300 31.62700
C  46.78500 23.20200 26.89800
C  48.87000 27.66500 27.15400
N  47.05000 25.69200 31.49500
C  47.29500 26.71300 32.34500
C  46.65600 26.55700 33.74100
C  46.07400 25.13100 33.60400
C  46.18400 24.75800 32.15600
C  46.69600 24.14500 34.60100
C  45.57600 27.67300 34.15800
C  45.17600 27.98500 35.60100
H  45.78100 27.19500 36.75100
N  46.20200 23.68200 29.24200
C  45.60400 23.03700 30.25700
C  44.98300 21.81000 29.76000
C  45.39100 21.60300 28.40800
C  46.15200 22.88400 28.13000
C  44.19800 20.91200 30.62800
C  45.02500 20.51100 27.42900
O  45.52100 20.60800 26.30200
C  44.01100 19.46100 27.75200
N  47.66600 25.47700 27.36900
C  47.44100 24.39400 26.52800
C  48.07600 24.57300 25.14900
C  48.47000 26.06500 25.10700
C  48.41800 26.38100 26.64100
C  49.31800 23.68000 24.93300
C  47.51600 27.04600 24.32700
C  48.27500 27.91500 23.35100
N  48.20800 27.47500 29.43600
C  48.84400 28.20100 28.46400
C  49.38400 29.37800 29.02300
C  49.10100 29.35400 30.40600
C  48.35700 28.15400 30.58100
C  50.10500 30.49600 28.35600
C  49.28700 30.00000 31.67300
O  49.85200 31.07700 31.97700
C  48.58400 29.04800 32.73400
C  49.52300 28.65600 33.74900
O  50.58200 28.10000 33.48600
O  48.97700 29.00900 34.97700
C  49.81000 28.50000 36.06600
H  45.14100 23.05800 32.45700
H  46.65800 22.47800 26.09000
H  49.60800 28.20400 26.55600
H  47.43100 26.39600 34.49000
H  45.01300 25.21300 33.84000
H  47.54800 24.50000 35.18100
H  47.05700 23.25300 34.09000
H  45.92600 23.77800 35.27900
H  44.71800 27.34000 33.57500
H  45.84700 28.65100 33.76300
H  44.11800 27.78600 35.76900
H  45.36500 29.04100 35.79600
H  44.06200 21.23200 31.66100
H  44.65400 19.92200 30.60300
H  43.20500 20.79000 30.19400
H  44.39400 19.15900 28.72700
H  44.12400 18.70500 26.97500
H  43.00900 19.89000 27.75400
H  47.27100 24.35800 24.44700
H  49.53300 26.16900 24.88900
H  49.11400 23.04900 24.06800
H  49.52500 22.97000 25.73300
H  50.23900 24.23300 24.75100
H  47.10100 27.81700 24.97600
H  46.70800 26.44100 23.91300
H  47.66100 28.08400 22.46600
H  49.17900 27.39400 23.03700
H  48.53700 28.90300 23.73000
H  50.69200 30.17100 27.49700
H  50.78500 30.99000 29.05100
H  49.47100 31.28000 27.94400
H  47.75600 29.66900 33.07400
H  50.77300 28.99900 35.95000
H  49.85900 27.41100 36.06100
H  49.22300 28.81400 36.92900
Mg -1.24000 34.28000 26.40400
C  -2.86600 32.54600 28.96800
C  0.35800 36.16200 28.77400
C  -0.08400 35.98900 23.88700
C  -3.17300 32.40000 24.16600
N  -1.41400 34.39400 28.70500
C  -2.06000 33.55400 29.57700
C  -1.77700 33.90000 31.03900
C  -0.92700 35.19200 30.90800
C  -0.62500 35.27900 29.33000
C  -1.58800 36.46100 31.51500
C  -0.97400 32.80100 31.82400
C  -1.47700 32.69900 33.33100
H  -0.40700 32.68200 34.43900
N  0.03400 35.74000 26.35500
C  0.62000 36.41100 27.39400
C  1.66100 37.27000 26.82400
C  1.61800 37.15200 25.40200
C  0.45400 36.27600 25.16500
C  2.53100 38.13100 27.71500
C  2.50800 37.73200 24.24400
O  2.37200 37.52500 23.08600
C  3.67200 38.53100 24.64300
N  -1.71700 34.26000 24.33700
C  -1.04200 35.05600 23.51000
C  -1.55000 34.90700 22.12900
C  -2.10100 33.42500 22.15900
C  -2.35100 33.36600 23.60000
C  -2.65300 36.01600 21.65700
C  -1.02000 32.33000 21.77700
C  -0.81600 32.22600 20.19300
N  -2.73000 32.82600 26.51700
C  -3.39200 32.12400 25.50600
C  -4.32800 31.22700 26.09600
C  -4.09500 31.21700 27.47000
C  -3.15600 32.34600 27.65300
C  -5.34200 30.37000 25.47600
C  -4.45800 30.73200 28.76500
O  -5.11100 29.78800 29.19100
C  -3.73200 31.62400 29.82500
C  -4.67800 32.27200 30.72500
O  -5.47000 33.18500 30.45100
O  -4.50400 31.71200 31.97000
C  -5.11700 32.50600 32.97500
H  0.91800 36.70900 29.53500
H  0.27400 36.52000 23.00200
H  -3.70200 31.81600 23.41000
H  -2.75400 34.04700 31.50100
H  0.09600 35.16100 31.28300
H  -2.55000 36.07700 31.85400
H  -1.85000 37.26500 30.82700
H  -1.01400 36.88500 32.33900
H  0.07100 33.08700 31.70600
H  -1.11200 31.79900 31.41700
H  -2.02900 31.78100 33.53100
H  -2.09800 33.57700 33.50800
H  2.38400 37.92500 28.77500
H  2.24800 39.16000 27.49600
H  3.54800 37.87800 27.41400
H  4.48900 37.87500 24.94400
H  3.43000 39.35800 25.31100
H  3.83300 39.02800 23.68600
H  -0.79200 34.80600 21.35200
H  -3.05600 33.55500 21.65100
H  -3.04100 36.44200 22.58200
H  -3.46100 35.54900 21.09400
H  -2.08900 36.76300 21.09800
H  -1.43000 31.36800 22.08400
H  -0.13800 32.67400 22.31600
H  -0.83100 31.22200 19.77000
H  0.11300 32.69800 19.87200
H  -1.55600 32.85600 19.69900
H  -5.21700 29.29000 25.55800
H  -5.55800 30.69300 24.45700
H  -6.31600 30.64000 25.88500
H  -3.14400 30.96400 30.46300
H  -4.75400 33.53400 32.97500
H  -5.07800 32.04100 33.96000
H  -6.19900 32.39200 32.90000

