158

Mg 26.16800 50.32700 26.94600
C  24.04600 51.78900 29.56200
C  28.08500 49.14100 29.46800
C  28.26800 49.26300 24.68900
C  24.50200 52.25300 24.65100
N  25.99200 50.32200 29.26500
C  25.00000 50.91900 30.03500
C  25.19100 50.50900 31.48900
C  26.64400 50.03100 31.51200
C  27.03000 49.88700 29.98000
C  27.66500 51.01900 32.17500
C  24.04900 49.52300 31.98800
C  23.62500 49.62200 33.53100
H  24.44200 50.25200 34.67400
N  27.95500 49.30000 27.01200
C  28.57000 48.90700 28.17200
C  29.76400 48.15500 27.78100
C  29.88900 48.16200 26.38700
C  28.69100 48.86700 25.96200
C  30.60900 47.45000 28.77400
C  30.91100 47.62500 25.45400
O  30.71000 47.63900 24.19400
C  32.19900 47.03700 26.02600
N  26.34400 50.70200 25.00200
C  27.22200 50.03400 24.21600
C  26.96300 50.17200 22.71500
C  25.69200 51.02200 22.74100
C  25.51500 51.39300 24.21900
C  27.99600 50.57500 21.66300
C  24.46600 50.44500 22.08100
C  23.41500 51.40700 21.37000
N  24.56500 51.68000 27.02200
C  23.97500 52.47500 25.98300
C  22.82400 53.18200 26.44600
C  22.90500 53.00700 27.86700
C  23.96100 52.08700 28.20100
C  21.93300 53.98100 25.59700
C  22.19200 53.35200 29.12800
O  21.17200 53.98400 29.28300
C  23.01800 52.63600 30.29100
C  23.71100 53.59100 31.28400
O  24.65300 54.32500 30.99600
O  23.00100 53.68400 32.48300
C  23.65400 54.45700 33.48700
H  28.65900 48.71400 30.29300
H  28.77600 48.84200 23.81900
H  23.88000 52.65900 23.85000
H  25.17900 51.46300 32.01600
H  26.67900 49.03400 31.95100
H  27.10400 51.52800 32.95900
H  28.05800 51.82500 31.55600
H  28.42400 50.45700 32.71900
H  24.26200 48.45700 31.91500
H  23.15500 49.66300 31.38100
H  23.21500 48.63500 33.74900
H  22.83100 50.36400 33.44700
H  31.62600 47.81000 28.62200
H  30.59000 46.37900 28.57100
H  30.29000 47.59100 29.80700
H  32.69100 47.77200 26.66300
H  32.76800 46.59300 25.21000
H  31.81900 46.26400 26.69400
H  26.65300 49.14600 22.51600
H  25.74200 51.99900 22.26000
H  27.79700 51.56700 21.25800
H  27.79900 49.83400 20.88900
H  29.02100 50.49900 22.02700
H  23.90500 49.80400 22.76100
H  24.74300 49.69800 21.33700
H  23.28800 51.11700 20.32700
H  23.80700 52.42400 21.36700
H  22.45500 51.31300 21.87700
H  22.02200 53.77900 24.53000
H  22.01800 55.01600 25.92800
H  20.93600 53.69700 25.93300
H  22.35100 51.91300 30.75900
H  23.95100 55.43400 33.10500
H  24.62900 53.98400 33.61000
H  23.02100 54.48700 34.37400
Mg 16.58000 53.28400 26.29600
C  18.29500 51.57300 28.80100
C  14.55600 54.50300 28.61700
C  14.75600 54.75200 23.87500
C  18.70900 51.91200 24.10900
N  16.39300 52.90400 28.46000
C  17.22900 52.28000 29.34600
C  16.88800 52.54600 30.79000
C  15.51100 53.20100 30.65200
C  15.49200 53.63000 29.14000
C  14.23300 52.40400 30.96700
C  17.90300 53.48100 31.43900
C  18.03000 53.41100 32.95400
H  16.95100 52.69500 33.74900
N  15.01000 54.60200 26.24300
C  14.26700 54.98200 27.32600
C  13.31700 56.01100 26.92500
C  13.32200 55.96900 25.47400
C  14.41700 55.07700 25.12200
C  12.57400 56.84100 27.90500
C  12.49400 56.70000 24.48400
O  12.49600 56.48700 23.30300
C  11.46500 57.69900 24.95100
N  16.55200 53.13600 24.30600
C  15.79800 53.99200 23.49800
C  16.34800 53.94500 22.06600
C  17.72700 53.11800 22.11300
C  17.72100 52.72700 23.62100
C  15.37800 53.44600 20.98800
C  19.06600 53.80500 21.61400
C  19.55900 55.08500 22.40400
N  18.11800 51.69700 26.32500
C  18.99400 51.34000 25.30400
C  20.14000 50.55100 25.80800
C  19.81000 50.49300 27.19200
C  18.59800 51.25000 27.44000
C  21.30500 50.08700 25.04700
C  20.32800 50.09800 28.50200
O  21.31900 49.48900 28.85100
C  19.32900 50.74300 29.55000
C  18.75800 49.74900 30.55800
O  18.12600 48.70800 30.29400
O  19.15400 50.08400 31.83600
C  18.96500 49.10800 32.94600
H  13.71400 54.71500 29.27900
H  14.33900 55.19700 22.96900
H  19.39500 51.70500 23.28500
H  16.81900 51.60200 31.33000
H  15.49900 54.12600 31.22900
H  13.63500 52.85500 31.75900
H  14.52700 51.43500 31.37200
H  13.55900 52.16600 30.14500
H  17.75700 54.54000 31.22700
H  18.83300 53.18900 30.95100
H  18.04200 54.38100 33.45200
H  18.97800 52.92100 33.17200
H  11.65300 57.29000 27.53200
H  13.08100 57.74500 28.24300
H  12.29600 56.25000 28.77700
H  10.92400 58.13200 24.10900
H  12.02800 58.50200 25.42700
H  10.81200 57.08700 25.57300
H  16.60300 54.98000 21.83900
H  17.61800 52.16400 21.59800
H  15.15500 54.38400 20.48100
H  14.44100 53.14800 21.45900
H  15.90100 52.78300 20.29800
H  18.86400 54.06000 20.57400
H  19.79100 52.99300 21.68000
H  18.86600 55.91500 22.26500
H  20.51200 55.36400 21.95500
H  19.70400 54.94100 23.47500
H  21.49000 49.03900 25.28300
H  22.17800 50.69500 25.28000
H  21.27400 50.03500 23.95800
H  19.94300 51.38200 30.18600
H  18.35600 48.26300 32.62600
H  18.38200 49.62600 33.70800
H  19.95000 48.83500 33.32500

