158

Mg 9.99500 47.15500 25.88200
C  7.44400 47.45300 28.41700
C  12.19400 48.28700 28.24800
C  12.25100 47.04400 23.38400
C  7.41300 46.61000 23.46800
N  9.79700 47.94600 28.11200
C  8.72100 47.80000 28.93200
C  9.20000 47.77700 30.46200
C  10.64400 48.43100 30.30900
C  10.90400 48.19400 28.81100
C  10.76800 49.94000 30.62500
C  9.26000 46.30200 31.02100
C  8.76700 46.03400 32.40700
H  9.86800 45.67000 33.39400
N  11.95300 47.66800 25.81800
C  12.64300 48.07400 26.86400
C  14.01000 48.23400 26.40900
C  14.10400 47.98400 24.96900
C  12.72800 47.48400 24.67800
C  15.12400 48.61300 27.42100
C  15.27900 48.08900 23.94100
O  15.24200 47.93600 22.73800
C  16.62800 48.47800 24.52400
N  9.84400 46.77600 23.77700
C  10.93600 46.73800 23.00300
C  10.61400 46.27000 21.54500
C  9.06800 46.09900 21.53600
C  8.71200 46.54700 23.04000
C  11.07900 47.27400 20.44800
C  8.57100 44.63900 21.02800
C  8.16000 44.47100 19.55000
N  7.91400 47.12100 25.84100
C  7.04400 46.81300 24.77100
C  5.61600 46.84800 25.30600
C  5.76600 47.01100 26.71500
C  7.14800 47.24900 27.01200
C  4.33200 46.70700 24.50300
C  5.02500 47.04800 27.95800
O  3.86000 46.82000 28.14300
C  6.06600 47.41700 29.09800
C  5.85600 46.49400 30.23200
O  5.79900 45.23900 30.22800
O  5.66600 47.26000 31.35000
C  5.13200 46.71600 32.59700
H  12.90300 48.71200 28.96100
H  13.01300 47.10700 22.60400
H  6.69300 46.55800 22.64900
H  8.39800 48.29500 30.98900
H  11.35000 47.76700 30.80800
H  11.40700 50.15400 31.48200
H  9.75000 50.21900 30.89800
H  11.17400 50.40800 29.72800
H  10.30000 45.98300 30.94500
H  8.68400 45.64800 30.36700
H  8.10400 45.16900 32.39200
H  8.24500 46.91100 32.79000
H  15.90300 47.87800 27.22200
H  14.74600 48.49700 28.43700
H  15.45800 49.64200 27.29000
H  16.57200 49.29700 25.24100
H  17.29500 48.61800 23.67400
H  16.96200 47.57300 25.03200
H  11.04200 45.29700 21.30600
H  8.60200 46.84300 20.89000
H  11.45600 48.22200 20.83100
H  10.42700 47.45200 19.59300
H  11.92900 46.73300 20.03100
H  7.73900 44.25000 21.61600
H  9.40300 43.98500 21.29100
H  7.34300 45.17600 19.39800
H  7.82700 43.45500 19.33900
H  8.96300 44.77500 18.87900
H  3.83900 45.74600 24.64500
H  4.65000 46.85500 23.47000
H  3.55300 47.37900 24.86500
H  5.78000 48.43000 29.38200
H  5.14400 45.63400 32.72900
H  4.17700 47.18400 32.83700
H  5.87200 47.03500 33.33100
Mg -1.86800 34.07900 26.89800
C  -3.89900 32.43300 29.48000
C  -0.35300 35.86000 29.46600
C  -0.42800 35.84400 24.57300
C  -3.93800 32.48100 24.53800
N  -2.20600 34.14300 29.18600
C  -3.00200 33.38700 30.03600
C  -2.70700 33.65300 31.50800
C  -1.77700 34.96300 31.40700
C  -1.40500 34.99000 29.92500
C  -2.38100 36.40600 31.92900
C  -2.13600 32.37100 32.13600
C  -2.96200 31.93000 33.30500
H  -2.14900 31.71400 34.60600
N  -0.45300 35.57400 26.98700
C  0.07900 36.10700 28.06900
C  1.14800 37.04500 27.71500
C  1.10400 37.07100 26.28900
C  -0.03800 36.20200 25.89000
C  1.99400 37.79300 28.68900
C  1.99500 37.80300 25.34100
O  1.67800 38.04400 24.17700
C  3.31600 38.31900 25.82300
N  -2.24100 34.21900 24.85100
C  -1.45400 35.02000 24.11900
C  -1.86500 34.87600 22.59300
C  -2.69100 33.61700 22.60400
C  -2.99700 33.39800 24.07900
C  -2.55100 36.11300 22.01100
C  -1.97200 32.47300 21.94000
C  -0.81200 31.72900 22.62100
N  -3.51200 32.68500 26.96100
C  -4.19800 32.12500 25.87100
C  -5.19900 31.22900 26.42400
C  -5.12500 31.33600 27.77800
C  -4.06600 32.26600 28.09800
C  -6.19700 30.41000 25.72800
C  -5.67500 30.82600 29.01300
O  -6.47100 29.92500 29.21800
C  -4.95800 31.59600 30.12500
C  -5.99900 32.37900 30.93100
O  -6.51900 33.46300 30.67400
O  -6.32600 31.72200 32.01800
C  -7.39500 32.24400 32.90100
H  0.25300 36.40000 30.19700
H  0.03000 36.45800 23.79400
H  -4.58200 31.97200 23.81800
H  -3.58200 34.04700 32.02600
H  -0.84300 34.71700 31.91200
H  -2.57600 37.08800 31.10100
H  -1.74000 36.89500 32.66300
H  -3.38900 36.25000 32.31200
H  -1.13700 32.39900 32.57200
H  -2.16600 31.48900 31.49600
H  -3.60100 31.05600 33.18100
H  -3.63700 32.76100 33.51000
H  1.42800 37.96800 29.60500
H  2.54500 38.69000 28.41000
H  2.68900 36.98900 28.93200
H  3.04500 39.19500 26.41300
H  3.96400 38.63800 25.00700
H  3.77100 37.66100 26.56300
H  -0.87700 34.71800 22.16000
H  -3.67500 33.63800 22.13600
H  -3.23400 35.65700 21.29500
H  -1.81600 36.74700 21.51500
H  -3.03400 36.61800 22.84700
H  -1.54700 32.85300 21.01100
H  -2.76700 31.76100 21.71700
H  -0.42800 32.49700 23.29200
H  -0.09300 31.33800 21.90100
H  -1.16200 30.86700 23.18800
H  -7.23300 30.65500 25.96100
H  -6.15800 29.35600 26.00500
H  -6.05200 30.52500 24.65400
H  -4.52500 30.84700 30.78700
H  -8.23600 32.69000 32.36800
H  -7.01900 32.96200 33.62900
H  -7.77200 31.35200 33.40000

