158

Mg 47.43500 34.93100 28.26400
C  45.81400 32.87400 30.67100
C  47.37000 37.43900 30.46100
C  48.37000 36.87500 25.78500
C  46.55900 32.36500 25.93100
N  46.64400 35.07700 30.31700
C  46.16300 34.15600 31.16100
C  46.03900 34.62700 32.57900
C  46.12000 36.21200 32.38300
C  46.73800 36.29400 30.92100
C  44.83300 37.11000 32.49300
C  47.18000 34.08100 33.47600
C  46.66600 33.84600 34.94200
H  47.13100 34.84600 35.90000
N  47.94000 36.90800 28.22100
C  48.03500 37.74100 29.24800
C  48.85700 38.89400 28.94200
C  49.16500 38.76400 27.56700
C  48.44300 37.53900 27.09900
C  49.27900 39.86200 30.04800
C  49.95300 39.64400 26.65900
O  50.13700 39.27900 25.51300
C  50.46900 40.95600 27.23400
N  47.21800 34.71200 26.11100
C  47.84300 35.64500 25.30500
C  48.10200 35.16900 23.91100
C  47.49300 33.72300 23.99500
C  47.04500 33.54800 25.40100
C  47.53600 36.09400 22.83300
C  48.55600 32.69000 23.51400
C  49.46700 32.02200 24.56400
N  46.52000 32.96700 28.25600
C  46.23300 32.06200 27.28600
C  45.61200 30.88800 27.78300
C  45.41300 31.13600 29.16900
C  46.02600 32.40400 29.40800
C  45.06600 29.65300 27.01700
C  44.84200 30.73000 30.35300
O  44.28400 29.68700 30.61700
C  44.90500 31.83900 31.34700
C  45.37900 31.31700 32.69200
O  46.55200 30.95200 33.00600
O  44.34900 31.20900 33.56600
C  44.63100 30.62000 34.87300
H  47.37200 38.21300 31.23100
H  48.71700 37.45600 24.92700
H  46.35000 31.57800 25.20300
H  45.06600 34.22500 32.86000
H  46.77200 36.56800 33.18000
H  44.72500 37.58800 31.52000
H  44.78700 37.91100 33.23100
H  44.07200 36.37800 32.76400
H  48.01000 34.78400 33.40900
H  47.65200 33.13300 33.21600
H  47.12300 32.88700 35.18700
H  45.57700 33.80500 34.96300
H  48.98200 39.68600 31.08200
H  48.70100 40.77500 29.91100
H  50.35200 40.05300 30.06800
H  51.13400 41.31400 26.44900
H  51.15400 40.75700 28.05800
H  49.58700 41.59600 27.26700
H  49.18800 35.16000 23.81900
H  46.76500 33.57200 23.19800
H  48.29800 36.70600 22.35000
H  46.90300 36.79600 23.37700
H  47.02200 35.51700 22.06400
H  49.24800 33.13000 22.79700
H  48.06900 31.86500 22.99300
H  49.11000 32.30300 25.55400
H  50.47700 32.41200 24.43400
H  49.45400 30.93300 24.50600
H  44.50800 29.88300 26.10900
H  44.47500 29.17900 27.80000
H  45.91400 29.02700 26.74000
H  43.92000 32.30300 31.40800
H  44.70200 31.51300 35.49400
H  45.59700 30.11400 34.89300
H  43.81900 29.94100 35.13300
Mg -10.28100 40.36500 42.35900
C  -9.03700 37.05200 41.43500
C  -7.52900 41.64900 40.87300
C  -11.80600 43.19700 42.43000
C  -13.39500 38.62100 42.93400
N  -8.58200 39.33100 41.15300
C  -8.20500 38.04300 40.96700
C  -6.91000 37.83900 40.26900
C  -6.32700 39.39400 40.29100
C  -7.56900 40.23800 40.76300
C  -5.12600 39.68200 41.26400
C  -7.09100 37.23100 38.82500
C  -6.30600 35.98800 38.44100
H  -5.29500 36.29500 37.26700
N  -9.70500 42.24300 41.82700
C  -8.51700 42.55500 41.25400
C  -8.39600 43.95900 41.22000
C  -9.64600 44.51000 41.61700
C  -10.46400 43.33000 41.94200
C  -7.10500 44.66600 40.80100
C  -10.02200 45.95700 41.75100
O  -9.28200 46.86000 41.30500
C  -11.27200 46.36900 42.47200
N  -12.29400 40.85300 42.58700
C  -12.66400 42.12900 42.68600
C  -14.08000 42.29200 43.01300
C  -14.70700 40.78100 43.05500
C  -13.40000 40.01200 42.76100
C  -14.56700 43.13500 44.29100
C  -15.76100 40.55100 41.98400
C  -16.97000 39.64600 42.43200
N  -11.08100 38.32500 42.45600
C  -12.31000 37.82700 42.79900
C  -12.22600 36.38600 42.90700
C  -10.97900 36.03000 42.38000
C  -10.31500 37.28600 42.11200
C  -13.40300 35.44600 43.29800
C  -10.10800 34.92600 41.96100
O  -10.24600 33.73800 41.96500
C  -8.81800 35.56000 41.37100
C  -7.62000 35.11200 42.18500
O  -7.21300 35.62600 43.19400
O  -7.15900 33.96400 41.62200
C  -5.94200 33.41800 42.18700
H  -6.57700 42.06300 40.53400
H  -12.39800 44.08300 42.67000
H  -14.37300 38.23600 43.23100
H  -6.14000 37.32000 40.83900
H  -5.99400 39.77800 39.32600
H  -4.88400 38.78200 41.83000
H  -5.22400 40.57600 41.88100
H  -4.29500 39.92700 40.60300
H  -6.93500 38.00900 38.07700
H  -8.13100 36.94100 38.67600
H  -6.99200 35.17500 38.20700
H  -5.87400 35.66500 39.38800
H  -7.03600 44.40100 39.74600
H  -6.26100 44.29800 41.38600
H  -7.09600 45.75000 40.91600
H  -11.41300 45.84100 43.41600
H  -11.97000 46.04500 41.70100
H  -11.30900 47.45400 42.37000
H  -14.49600 42.81900 42.15500
H  -15.08900 40.50000 44.03600
H  -14.74300 42.42100 45.09400
H  -15.46600 43.73600 44.15500
H  -13.81400 43.80800 44.70300
H  -15.35700 40.03400 41.11400
H  -16.24700 41.49400 41.73200
H  -17.90200 40.21000 42.39900
H  -16.80700 39.22400 43.42300
H  -17.04200 38.77800 41.77600
H  -14.29600 35.87000 42.83800
H  -13.46900 35.55600 44.38100
H  -13.20300 34.40300 43.05300
H  -8.76700 35.21600 40.33800
H  -5.93900 32.37400 41.87500
H  -5.81000 33.44400 43.26900
H  -5.03600 33.89500 41.81400

