158

Mg 30.34700 59.69200 40.05500
C  27.61000 57.88500 38.65500
C  32.36100 56.88200 39.34100
C  33.10400 61.57400 40.63600
C  28.30300 62.48200 40.14300
N  29.99200 57.77300 38.91100
C  28.81500 57.25800 38.51500
C  29.03200 55.89400 37.90100
C  30.33700 55.46700 38.64000
C  30.96500 56.78900 38.96100
C  30.21900 54.62100 39.94300
C  29.15300 55.93900 36.36400
C  28.14100 55.03600 35.57400
H  27.28200 55.91900 34.69100
N  32.43300 59.29100 40.00700
C  33.05300 58.08400 39.78000
C  34.46300 58.31400 39.95300
C  34.65300 59.60900 40.33400
C  33.37700 60.19100 40.37900
C  35.35800 57.11400 39.93600
C  35.96500 60.12100 40.76500
O  37.01000 59.47300 40.56400
C  36.18900 61.36200 41.49800
N  30.67000 61.74900 40.12100
C  31.89500 62.29600 40.48000
C  31.76100 63.80800 40.68700
C  30.24500 64.07200 40.44800
C  29.69700 62.65200 40.27800
C  32.32800 64.44100 42.04500
C  30.00000 65.00400 39.25100
C  29.51300 66.43100 39.51200
N  28.28800 60.05900 39.67700
C  27.62300 61.23400 39.87800
C  26.14700 61.02000 39.52600
C  26.10100 59.68600 39.07100
C  27.44200 59.20500 39.12900
C  25.01400 61.95700 39.65000
C  25.19800 58.67500 38.65500
O  23.98600 58.65000 38.52300
C  26.09700 57.43800 38.37400
C  25.67800 56.27800 39.24300
O  26.34600 55.97500 40.17700
O  24.49800 55.70100 38.78200
C  23.82500 54.80900 39.68000
H  32.91500 55.94900 39.21400
H  33.91500 62.20200 41.01200
H  27.69000 63.38300 40.07300
H  28.21300 55.27200 38.26500
H  30.94000 54.86900 37.95700
H  30.25700 53.54600 39.76900
H  29.23700 54.79900 40.38200
H  30.94100 54.88800 40.71500
H  30.10300 55.61500 35.93800
H  28.83200 56.95000 36.11400
H  27.64700 54.33100 36.24300
H  28.68100 54.31000 34.96600
H  35.01100 56.27400 39.33500
H  35.30600 56.80500 40.98000
H  36.40600 57.26400 39.67700
H  37.19400 61.44000 41.91200
H  35.54400 61.33800 42.37600
H  36.01300 62.25600 40.90000
H  32.41700 64.21900 39.91900
H  29.73800 64.40200 41.35400
H  31.49100 64.75500 42.66900
H  32.91200 65.32800 41.79800
H  32.94400 63.77500 42.64900
H  29.15600 64.51300 38.76600
H  30.85100 65.04500 38.57200
H  28.57400 66.78300 39.08300
H  30.31800 67.08800 39.18400
H  29.34300 66.36500 40.58700
H  24.79600 62.31300 38.64300
H  25.26400 62.85800 40.21000
H  24.17400 61.44700 40.12300
H  25.84700 57.13400 37.35800
H  23.40000 54.14500 38.92600
H  23.09200 55.36300 40.26600
H  24.51300 54.28500 40.34300
Mg 6.90700 57.45000 41.70200
C  5.52000 54.26000 41.65100
C  9.79300 56.14100 40.53800
C  7.97100 60.56100 41.22200
C  3.64900 58.63400 42.36400
N  7.54700 55.51200 41.08400
C  6.79600 54.39200 41.08600
C  7.71800 53.19000 40.59300
C  9.12300 53.79100 40.81500
C  8.84500 55.28000 40.79800
C  9.88600 53.27300 42.11600
C  7.45500 52.90200 39.10000
C  7.64000 51.40200 38.79500
H  6.65000 50.67300 37.83200
N  8.71100 58.20900 40.95600
C  9.76000 57.53200 40.50900
C  10.87400 58.40800 40.25100
C  10.37900 59.76400 40.36200
C  8.96500 59.58000 40.94500
C  12.26000 57.90200 39.86200
C  11.18600 61.03700 40.17200
O  12.38300 60.98600 39.95700
C  10.58100 62.39000 40.49000
N  5.84700 59.31600 41.47200
C  6.63500 60.41100 41.50800
C  5.71000 61.69500 41.74800
C  4.28900 61.10500 41.94700
C  4.56300 59.59500 41.92000
C  6.21400 62.75600 42.77300
C  3.09800 61.45900 40.96900
C  1.90800 62.27600 41.55200
N  4.96700 56.64100 42.09800
C  3.75600 57.20700 42.45600
C  2.74900 56.24600 42.79000
C  3.44300 55.00300 42.55400
C  4.76000 55.37400 42.09200
C  1.32900 56.47200 43.18500
C  3.37900 53.54700 42.63400
O  2.43900 52.85600 43.07100
C  4.72800 53.02300 42.07100
C  4.48400 51.98900 41.08400
O  3.87500 52.16000 40.03700
O  4.77400 50.75700 41.66800
C  4.37200 49.58100 40.86800
H  10.73500 55.77900 40.12300
H  8.29800 61.59800 41.32200
H  2.71300 59.16800 42.54100
H  7.49800 52.30600 41.19200
H  9.73000 53.44400 39.97800
H  10.68300 52.69700 41.64600
H  9.35200 52.56500 42.74900
H  10.15400 54.10000 42.77300
H  8.18100 53.46800 38.51600
H  6.46300 53.27100 38.84100
H  7.65800 50.77500 39.68600
H  8.61800 51.22700 38.34800
H  12.26800 57.85800 38.77300
H  12.50500 56.87500 40.13000
H  13.01600 58.58200 40.25400
H  10.17100 62.69100 41.45500
H  9.76000 62.52300 39.78500
H  11.24500 63.18500 40.15100
H  5.70800 62.17500 40.76900
H  4.02000 61.28300 42.98800
H  5.53100 62.94000 43.60300
H  6.31400 63.75100 42.34100
H  7.12700 62.50200 43.31200
H  2.60300 60.69000 40.37600
H  3.50600 62.13400 40.21700
H  2.02000 62.21000 42.63500
H  0.92400 61.83800 41.39000
H  1.83600 63.32900 41.27800
H  1.07800 57.43600 42.74300
H  1.10200 56.57100 44.24600
H  0.56700 55.76900 42.84700
H  5.28600 52.60200 42.90700
H  3.87800 48.94800 41.60600
H  5.09300 48.97100 40.32300
H  3.67700 49.86500 40.07800

