158

Mg -11.87500 38.95200 41.82200
C  -9.92100 35.98000 41.28600
C  -9.58900 40.59900 39.68300
C  -13.92900 41.43600 41.63800
C  -14.40200 36.88900 43.22200
N  -10.03800 38.27900 40.59900
C  -9.43900 37.08100 40.55300
C  -8.18300 37.02500 39.66100
C  -8.03600 38.54400 39.18800
C  -9.27700 39.19100 39.86700
C  -6.71900 39.44800 39.34800
C  -8.40300 35.99100 38.49600
C  -7.42900 34.75600 38.42400
H  -6.29200 34.83600 37.32900
N  -11.61800 40.93200 41.05200
C  -10.62900 41.42900 40.23500
C  -10.84000 42.88600 40.21000
C  -12.07900 43.14800 40.85000
C  -12.59400 41.79400 41.17700
C  -9.86800 43.88500 39.55600
C  -12.74200 44.49400 41.05000
O  -12.18000 45.48900 40.55100
C  -14.01100 44.73900 41.67800
N  -13.93100 39.10900 42.18800
C  -14.58000 40.31000 42.07400
C  -15.97800 40.33100 42.68700
C  -16.09500 38.92200 43.26900
C  -14.72000 38.21000 42.84100
C  -16.46600 41.54400 43.59200
C  -17.41300 38.09900 42.88200
C  -18.21400 37.35100 43.98100
N  -12.12900 36.88200 42.27500
C  -13.15500 36.24300 42.91900
C  -12.73300 34.90500 43.21800
C  -11.44700 34.78900 42.61200
C  -11.14300 35.98500 42.02400
C  -13.49500 33.94600 44.13600
C  -10.40200 33.84900 42.35500
O  -10.21700 32.67200 42.65300
C  -9.28600 34.59700 41.43800
C  -7.94900 34.60100 42.09800
O  -7.04500 33.77700 42.04100
O  -7.77400 35.75200 42.85100
C  -6.48600 36.05500 43.47200
H  -8.85600 41.07500 39.02900
H  -14.59400 42.30200 41.65400
H  -15.09300 36.32100 43.84900
H  -7.36000 36.81100 40.34200
H  -8.33400 38.70100 38.15200
H  -5.83300 38.82300 39.23900
H  -6.70100 39.90200 40.33800
H  -6.64000 40.24400 38.60800
H  -8.32500 36.45000 37.51000
H  -9.37100 35.51200 38.64500
H  -8.01400 33.86400 38.19900
H  -7.06000 34.51800 39.42100
H  -9.36300 44.52700 40.27700
H  -10.51800 44.48800 38.92300
H  -9.18400 43.37000 38.88100
H  -14.71400 44.44500 40.89900
H  -14.27700 45.78900 41.79900
H  -13.97400 44.18600 42.61700
H  -16.63600 40.39600 41.82000
H  -16.13400 39.04400 44.35100
H  -17.20700 41.10400 44.26000
H  -16.88800 42.36600 43.01400
H  -15.60700 41.84400 44.19200
H  -17.33000 37.34300 42.10200
H  -18.07400 38.85700 42.46000
H  -19.10000 37.98100 44.07000
H  -17.72800 37.42900 44.95400
H  -18.31500 36.30200 43.70300
H  -13.31300 32.93300 43.77700
H  -14.56900 34.08700 44.01300
H  -13.25700 34.06900 45.19300
H  -9.25900 34.16400 40.43800
H  -6.42900 36.95600 44.08300
H  -5.85400 36.01100 42.58500
H  -6.35300 35.12500 44.02500
Mg -13.05400 16.96500 41.84800
C  -10.01800 15.08000 41.23800
C  -11.48200 19.67900 40.68600
C  -15.93700 18.56700 42.14600
C  -14.60000 13.95300 42.50000
N  -10.99100 17.27400 41.02500
C  -9.93700 16.47300 40.94300
C  -8.73100 17.32000 40.49400
C  -9.30800 18.73100 40.34400
C  -10.67000 18.53700 40.76800
C  -8.63700 19.90000 40.98700
C  -7.96800 16.76200 39.18200
C  -6.55600 16.22500 39.38400
H  -6.01800 15.24200 38.40600
N  -13.62400 18.86800 41.56200
C  -12.84900 19.85100 41.08400
C  -13.60000 21.10400 40.99100
C  -14.97200 20.77600 41.45200
C  -14.90000 19.37000 41.75600
C  -13.07400 22.35500 40.45200
C  -16.15800 21.74900 41.65600
O  -15.98900 22.91700 41.33900
C  -17.60600 21.44700 42.10700
N  -15.02000 16.34200 42.20600
C  -16.03400 17.16700 42.33500
C  -17.40600 16.47100 42.42800
C  -16.91500 14.98300 42.55900
C  -15.40700 15.09300 42.44200
C  -18.26100 17.08200 43.52900
C  -17.62600 13.85800 41.75800
C  -17.37100 13.93600 40.22700
N  -12.42800 14.91300 41.93800
C  -13.23000 13.81100 42.23400
C  -12.42400 12.61300 42.10100
C  -11.15800 13.03000 41.68200
C  -11.21900 14.43300 41.66900
C  -12.91600 11.17900 42.25000
C  -9.81600 12.59500 41.35100
O  -9.22400 11.51100 41.35300
C  -8.99700 13.96600 41.10500
C  -7.76400 14.17700 42.00700
O  -7.44800 15.21300 42.55900
O  -6.99700 13.05100 42.05700
C  -5.58900 13.23700 42.59300
H  -11.02400 20.58100 40.27400
H  -16.93100 19.00800 42.24200
H  -15.27000 13.11800 42.71500
H  -8.06400 17.46400 41.34300
H  -9.31900 19.05000 39.30100
H  -7.62600 19.60700 41.27300
H  -9.07400 20.01000 41.97900
H  -8.57700 20.78900 40.36000
H  -7.90500 17.61000 38.50000
H  -8.50700 15.93400 38.72000
H  -6.42400 15.77800 40.37000
H  -5.82300 17.03100 39.41200
H  -12.35200 22.05400 39.69200
H  -12.67500 23.03600 41.20300
H  -13.86600 22.92900 39.97000
H  -18.14700 22.39300 42.11300
H  -17.46900 21.06000 43.11600
H  -18.14100 20.63400 41.61600
H  -17.82100 16.64300 41.43600
H  -17.05500 14.79700 43.62400
H  -18.38300 16.48000 44.42900
H  -19.26200 17.17100 43.10700
H  -18.01000 18.05200 43.95900
H  -18.66900 14.17100 41.80700
H  -17.34100 12.90500 42.20300
H  -18.31300 14.20500 39.75000
H  -17.00000 12.95700 39.92400
H  -16.70300 14.75200 39.95000
H  -13.24000 10.94400 41.23600
H  -13.71000 11.16000 42.99600
H  -12.06000 10.55800 42.51500
H  -8.45500 14.01200 40.16100
H  -5.17200 12.23000 42.58000
H  -5.52600 13.57000 43.62900
H  -5.16200 13.95500 41.89200

