158

Mg 45.54500 4.54100 47.90600
C  43.82000 7.39200 46.95900
C  43.06200 2.58400 47.43100
C  47.83700 1.85800 48.07800
C  48.50800 6.64700 47.74000
N  43.73800 4.87400 47.03500
C  43.13100 6.11700 46.90000
C  41.65100 5.87500 46.41400
C  41.30300 4.38300 46.68900
C  42.74700 3.89900 47.03800
C  40.19200 4.03400 47.68900
C  41.36100 6.27400 44.92900
C  40.09500 7.10800 44.75400
H  39.13300 6.80200 43.62200
N  45.48800 2.53700 47.73800
C  44.30800 1.87900 47.63500
C  44.56400 0.43900 47.68200
C  45.87300 0.25300 48.02900
C  46.47300 1.59100 47.92800
C  43.47100 -0.54000 47.49200
C  46.53400 -1.11600 48.43500
O  45.86400 -2.18900 48.36600
C  47.96400 -1.15200 48.83900
N  47.76800 4.29800 47.97500
C  48.42300 3.10200 47.93300
C  49.91500 3.21200 47.94900
C  50.10400 4.71300 47.83000
C  48.69500 5.30100 47.77200
C  50.67300 2.54500 49.12700
C  51.01000 5.10900 46.62000
C  52.43700 5.65600 46.84200
N  46.09300 6.62400 47.70300
C  47.29300 7.35700 47.70700
C  47.01600 8.77000 47.51400
C  45.61000 8.83100 47.32500
C  45.15700 7.54900 47.34600
C  47.86500 9.94300 47.26500
C  44.50600 9.72900 46.89900
O  44.45500 10.89200 46.54400
C  43.26200 8.79300 46.73400
C  42.24500 9.05300 47.82200
O  42.40100 8.81600 49.01200
O  41.11200 9.48300 47.25100
C  39.93600 9.69900 48.12100
H  42.26500 1.84400 47.53000
H  48.57700 1.05600 48.03600
H  49.44900 7.18500 47.87200
H  41.13100 6.56800 47.07600
H  41.08800 3.85400 45.76000
H  39.77900 3.03800 47.53000
H  39.34000 4.70200 47.57300
H  40.54100 4.16400 48.71300
H  41.30100 5.37500 44.31500
H  42.12900 6.97100 44.59400
H  40.24400 8.18500 44.67600
H  39.50800 6.93000 45.65500
H  43.68300 -1.54900 47.84600
H  43.32300 -0.62300 46.41500
H  42.53800 -0.27300 47.98900
H  48.05500 -1.98900 49.53100
H  48.33200 -0.38000 49.51500
H  48.61100 -1.30800 47.97500
H  50.26900 2.65000 47.08400
H  50.59900 4.98900 48.76100
H  49.98100 2.39200 49.95500
H  51.56200 3.09700 49.43500
H  51.03000 1.52700 48.97600
H  50.47200 5.86000 46.04200
H  51.13000 4.32900 45.86800
H  53.13200 5.06400 46.24600
H  52.67800 5.72100 47.90300
H  52.45700 6.61500 46.32500
H  48.93300 9.74800 47.16900
H  47.75400 10.71200 48.02900
H  47.46400 10.36000 46.34100
H  42.79100 8.86200 45.75400
H  39.36200 8.78600 48.27800
H  39.17800 10.43900 47.86500
H  40.27400 9.92600 49.13200
Mg 1.29700 42.72700 25.29100
C  2.79600 42.70000 28.61000
C  -1.60500 41.97200 26.84900
C  0.08700 42.05700 22.24300
C  4.50200 43.04800 23.92600
N  0.68900 42.24300 27.50900
C  1.40400 42.46100 28.69000
C  0.52400 42.34100 29.96100
C  -0.86300 41.93800 29.31700
C  -0.61700 42.15100 27.82500
C  -1.47200 40.56500 29.67200
C  0.51800 43.60900 30.88300
C  0.54700 43.45500 32.38100
H  0.44100 41.99900 32.90200
N  -0.60300 42.24000 24.61900
C  -1.71500 42.01900 25.44700
C  -2.85000 41.83000 24.57500
C  -2.33700 41.81000 23.16600
C  -0.90100 42.04000 23.26800
C  -4.17100 41.63600 25.16700
C  -3.08400 41.70200 21.84500
O  -2.57800 41.77400 20.74100
C  -4.56700 41.30000 21.91600
N  2.16500 42.55600 23.41900
C  1.40800 42.29900 22.31200
C  2.30300 42.18700 21.02100
C  3.72100 42.68300 21.43300
C  3.46200 42.83600 22.99600
C  2.35400 40.75400 20.36500
C  4.25500 43.97300 20.69700
C  5.02500 43.70900 19.46700
N  3.21600 42.89200 26.05900
C  4.41100 43.01200 25.37300
C  5.46000 43.22000 26.33300
C  4.93700 43.14800 27.57600
C  3.52000 42.89000 27.40300
C  6.83600 43.48500 26.02500
C  5.18900 43.12500 29.02700
O  6.25600 43.20400 29.62100
C  3.81300 42.89900 29.73700
C  4.01600 41.72700 30.64200
O  3.80700 40.54600 30.42400
O  4.48000 42.26400 31.81600
C  4.77000 41.33600 32.88500
H  -2.50200 41.72400 27.42100
H  -0.12200 41.71600 21.22700
H  5.50400 43.27900 23.55800
H  0.89100 41.53200 30.59300
H  -1.57400 42.71600 29.59300
H  -0.84500 40.05800 30.40600
H  -1.75300 39.95100 28.81700
H  -2.37100 40.84100 30.22400
H  -0.33700 44.21300 30.57900
H  1.29700 44.19100 30.39000
H  -0.29500 43.97700 32.83600
H  1.50700 43.84000 32.72500
H  -4.22300 41.91100 26.22100
H  -4.46500 40.60100 24.99100
H  -4.84200 42.25800 24.57400
H  -4.80000 41.01600 20.89000
H  -5.09100 42.17800 22.29300
H  -4.71000 40.46500 22.60200
H  1.91800 42.84800 20.24400
H  4.50400 41.93700 21.29300
H  1.72400 40.05500 20.91400
H  3.38200 40.42000 20.23100
H  1.92300 40.91400 19.37600
H  4.83500 44.61000 21.36600
H  3.32500 44.51600 20.52500
H  4.44400 44.04300 18.60800
H  5.15400 42.65700 19.21400
H  5.93400 44.31100 19.46400
H  7.28600 43.79400 26.96800
H  6.83100 44.29200 25.29200
H  7.39100 42.65500 25.59000
H  3.55800 43.78700 30.31400
H  5.85800 41.33500 32.95100
H  4.35000 40.33200 32.81800
H  4.48100 41.74600 33.85200

