158

Mg 24.46200 -5.96100 47.57000
C  27.06200 -3.90000 46.38400
C  22.46300 -4.47500 45.11800
C  22.05700 -8.30100 48.31500
C  26.70200 -7.68300 49.45800
N  24.81000 -4.46900 45.78900
C  25.90100 -3.66900 45.66500
C  25.66300 -2.67500 44.48300
C  24.13700 -2.62800 44.35900
C  23.74000 -3.95100 45.11900
C  23.48900 -1.18100 44.71900
C  26.41900 -3.22500 43.13900
C  27.25400 -2.08800 42.46300
H  26.96500 -1.77500 40.97400
N  22.44900 -6.28400 46.88100
C  21.89400 -5.64100 45.76400
C  20.54900 -6.24100 45.53900
C  20.42100 -7.25700 46.56900
C  21.57900 -7.31000 47.38600
C  19.59700 -5.69000 44.45800
C  19.14800 -8.04100 46.81100
O  18.14800 -7.85200 46.14900
C  19.01300 -9.13500 47.91200
N  24.40400 -7.63500 48.69800
C  23.31100 -8.41200 48.93600
C  23.66700 -9.81800 49.53900
C  25.13800 -9.49500 50.15100
C  25.45500 -8.21100 49.38000
C  22.72100 -10.41200 50.68900
C  26.17100 -10.69200 50.10000
C  26.71100 -11.12400 51.45000
N  26.50000 -5.84600 47.93200
C  27.24500 -6.59400 48.79400
C  28.59300 -6.08300 48.75800
C  28.53000 -5.04300 47.91600
C  27.24000 -4.93600 47.36900
C  29.76000 -6.41200 49.57700
C  29.28100 -3.86700 47.39600
O  30.37500 -3.40200 47.63100
C  28.36800 -3.21000 46.30800
C  28.41300 -1.70300 46.35800
O  28.75900 -0.97900 45.44500
O  27.97600 -1.20600 47.56900
C  27.51400 0.14200 47.40400
H  21.81500 -4.02500 44.36300
H  21.35800 -9.13300 48.42000
H  27.37700 -8.30000 50.05500
H  26.01500 -1.70900 44.84500
H  23.82300 -2.69400 43.31700
H  24.33300 -0.50200 44.84200
H  22.84400 -1.37900 45.57500
H  22.85900 -0.95400 43.85900
H  25.69300 -3.75100 42.51800
H  27.18200 -3.91200 43.50300
H  28.31900 -2.29500 42.57000
H  27.15000 -1.15600 43.01900
H  18.84500 -4.95000 44.73300
H  19.16100 -6.49800 43.87200
H  20.17500 -5.16600 43.69700
H  18.01900 -9.56800 47.80200
H  19.03000 -8.85600 48.96600
H  19.76500 -9.88500 47.66800
H  23.77200 -10.57000 48.75700
H  25.04400 -9.16600 51.18600
H  22.44500 -11.43100 50.41800
H  21.84400 -9.78200 50.84100
H  23.24200 -10.30000 51.64000
H  27.01500 -10.42600 49.46300
H  25.58600 -11.52000 49.69900
H  27.72200 -11.47900 51.25200
H  26.18400 -12.03200 51.74100
H  26.65800 -10.35600 52.22200
H  29.59400 -7.36000 50.09000
H  29.73600 -5.63700 50.34300
H  30.69400 -6.48000 49.02000
H  28.71800 -3.49600 45.31600
H  28.27300 0.89200 47.62600
H  26.66900 0.20400 48.09000
H  27.00000 0.46000 46.49700
Mg 26.67000 50.45600 27.04300
C  24.52900 51.22600 29.73400
C  28.95600 49.57800 29.34300
C  28.73000 49.89200 24.53900
C  24.20000 51.68900 24.87800
N  26.67300 50.30700 29.35300
C  25.67200 50.62900 30.19400
C  26.05000 50.17800 31.62600
C  27.51100 49.76400 31.48500
C  27.77300 49.96900 29.99100
C  28.64200 50.48500 32.27900
C  25.03200 49.19500 32.34400
C  24.17200 49.74100 33.44400
H  24.36300 49.19300 34.85300
N  28.59900 49.94300 26.95200
C  29.35600 49.53000 28.00800
C  30.67800 49.06500 27.50700
C  30.67300 49.33800 26.10600
C  29.33200 49.79900 25.79400
C  31.66100 48.43700 28.39300
C  31.80700 48.97300 25.20200
O  31.69600 49.05300 23.94100
C  33.01300 48.40800 25.68500
N  26.39700 50.62400 25.05700
C  27.41600 50.22400 24.14800
C  26.84200 50.25900 22.69600
C  25.41000 50.81300 22.86000
C  25.30700 51.06700 24.32800
C  27.59000 50.95400 21.57100
C  24.26600 49.89900 22.26300
C  23.84100 50.47300 20.88000
N  24.79300 51.40600 27.25900
C  23.92000 51.90800 26.26400
C  22.68000 52.24900 26.85900
C  22.89500 52.06100 28.26000
C  24.18900 51.57500 28.41200
C  21.45500 52.61700 26.15800
C  22.24900 52.18500 29.51800
O  21.11700 52.60800 29.84100
C  23.32100 51.65500 30.55500
C  23.66900 52.79900 31.43400
O  24.30800 53.78200 31.07100
O  23.08500 52.68300 32.59900
C  23.26000 53.77300 33.60200
H  29.63500 49.34300 30.16500
H  29.33200 49.65600 23.65900
H  23.43900 52.03400 24.17600
H  26.10700 51.17800 32.05700
H  27.52900 48.68600 31.64700
H  29.25600 49.68400 32.69100
H  28.22000 51.12700 33.05100
H  29.23700 51.11500 31.61700
H  25.67100 48.40500 32.74000
H  24.39700 48.81700 31.54300
H  23.11100 49.57100 33.26100
H  24.40400 50.80600 33.46300
H  32.49900 49.11300 28.56300
H  32.03800 47.48000 28.03000
H  31.25600 48.04700 29.32700
H  33.74300 48.39600 24.87600
H  32.71900 47.43200 26.07000
H  33.31600 49.11700 26.45700
H  26.90400 49.17700 22.57800
H  25.36500 51.79700 22.39400
H  28.56000 51.40000 21.79300
H  26.95900 51.64800 21.01500
H  27.72600 50.05900 20.96400
H  23.47700 49.89200 23.01600
H  24.55500 48.86200 22.09400
H  24.23400 51.48300 20.76200
H  22.75300 50.53500 20.85000
H  24.18400 49.78200 20.11000
H  21.46500 52.20900 25.14700
H  21.36200 53.69700 26.05200
H  20.69900 52.17800 26.81000
H  22.83900 50.80600 31.03900
H  23.97300 54.55900 33.35300
H  23.72000 53.09500 34.32100
H  22.38300 54.34300 33.91000

