158

Mg 8.35400 3.99900 28.18400
C  9.73700 2.37300 31.09400
C  6.58600 6.01000 30.34700
C  6.79900 5.13200 25.53700
C  9.90500 1.43400 26.25000
N  8.15200 4.05900 30.49100
C  8.77100 3.34800 31.44600
C  8.62100 4.02100 32.80600
C  7.48800 5.06800 32.52400
C  7.36500 4.97900 31.00100
C  6.12000 4.94900 33.30800
C  9.94400 4.56200 33.33600
C  10.58100 3.97600 34.65100
H  10.66300 4.87600 35.90200
N  6.92000 5.47300 27.96200
C  6.33200 6.28100 28.95700
C  5.49700 7.26500 28.31500
C  5.63800 7.08900 26.90600
C  6.38700 5.83400 26.71200
C  4.72500 8.39000 29.06200
C  5.12100 7.92100 25.84800
O  4.99000 7.42600 24.67500
C  4.72600 9.38200 26.01800
N  8.13100 3.23900 26.26100
C  7.62600 4.01000 25.28000
C  8.05100 3.63000 23.86100
C  9.15400 2.61400 24.04500
C  9.06100 2.37600 25.59900
C  6.94300 3.24800 22.82500
C  10.57300 3.00200 23.51700
C  11.44700 3.88800 24.45400
N  9.58400 2.17800 28.51000
C  10.10800 1.25300 27.62500
C  11.03000 0.42500 28.30500
C  10.86200 0.84100 29.65400
C  9.92700 1.81200 29.73600
C  11.92400 -0.55900 27.69200
C  11.30300 0.56200 30.95900
O  12.08500 -0.25900 31.31000
C  10.62400 1.48300 31.94400
C  9.92300 0.76700 32.93500
O  8.79600 0.28300 32.78500
O  10.61900 0.70500 34.14300
C  9.69700 0.32000 35.22200
H  6.26900 6.76300 31.07100
H  6.46000 5.50800 24.56900
H  10.30700 0.69900 25.54900
H  8.20400 3.28700 33.49500
H  7.75800 6.10700 32.71400
H  5.57000 5.88800 33.37200
H  6.47900 4.62700 34.28500
H  5.58100 4.06400 32.97100
H  9.71200 5.61200 33.51300
H  10.68700 4.57800 32.53800
H  11.60200 3.68100 34.40800
H  9.98300 3.12100 34.96700
H  5.05000 9.39200 28.78400
H  4.95800 8.21000 30.11100
H  3.64200 8.31500 28.95800
H  3.83100 9.32200 26.63800
H  4.48500 9.77700 25.03100
H  5.51600 9.95100 26.50900
H  8.56800 4.49200 23.44000
H  8.81900 1.68200 23.59200
H  5.98300 3.07500 23.31100
H  7.21300 2.37500 22.23100
H  6.82800 4.07700 22.12700
H  10.47700 3.57300 22.59300
H  11.07900 2.05100 23.35300
H  10.96100 4.28800 25.34300
H  11.76500 4.72600 23.83200
H  12.34100 3.34100 24.75500
H  12.10300 -0.23400 26.66700
H  11.63900 -1.61000 27.73600
H  12.85400 -0.41900 28.24300
H  11.31500 2.05700 32.56300
H  9.37100 -0.71800 35.16000
H  8.89200 1.05300 35.16300
H  10.17900 0.38900 36.19700
Mg -12.68000 16.01900 42.10600
C  -9.61600 14.15700 41.84200
C  -11.08200 18.56100 40.36100
C  -15.65700 17.20100 41.35500
C  -14.05800 13.10100 43.60900
N  -10.51200 16.30900 41.28100
C  -9.45800 15.43800 41.28900
C  -8.25600 16.00100 40.46300
C  -8.72300 17.55400 40.28100
C  -10.18700 17.55700 40.78400
C  -7.85900 18.64300 41.12500
C  -8.08600 15.21300 39.10200
C  -6.66100 15.07500 38.49500
H  -6.02000 16.03900 37.50800
N  -13.29100 17.70600 41.06600
C  -12.49700 18.70600 40.49700
C  -13.30600 19.81900 40.08400
C  -14.67900 19.50600 40.37300
C  -14.63800 18.11900 41.07600
C  -12.82200 21.12800 39.47300
C  -15.89100 20.39200 40.12800
O  -15.72600 21.47000 39.60900
C  -17.25000 20.18900 40.67200
N  -14.52400 15.20400 42.42200
C  -15.62900 15.95500 42.00200
C  -16.93000 15.22500 42.38100
C  -16.42300 13.99700 43.19400
C  -14.88100 14.08800 43.07400
C  -18.01300 16.07700 43.09800
C  -16.99700 12.62000 42.78300
C  -17.22900 11.65100 43.93300
N  -12.05800 13.96000 42.56700
C  -12.70400 12.93300 43.28000
C  -11.80800 11.84400 43.58500
C  -10.57400 12.25700 42.94400
C  -10.80700 13.51000 42.36200
C  -12.14800 10.55800 44.32100
C  -9.19400 11.86300 42.66000
O  -8.51500 10.90400 42.87900
C  -8.56500 13.00600 41.91200
C  -7.36900 13.50000 42.62900
O  -7.30400 13.68800 43.85600
O  -6.38600 13.76700 41.73900
C  -5.22800 14.44100 42.27800
H  -10.58300 19.41400 39.89600
H  -16.65600 17.54000 41.07400
H  -14.54400 12.27300 44.13000
H  -7.40800 16.01100 41.14700
H  -8.84400 17.77700 39.22100
H  -7.22700 19.21300 40.44400
H  -7.12500 18.05900 41.68000
H  -8.46200 19.28000 41.77300
H  -8.60500 15.75300 38.31000
H  -8.57900 14.24700 39.20600
H  -6.62700 14.03400 38.17500
H  -5.97800 15.14100 39.34200
H  -12.66600 21.81200 40.30700
H  -13.42800 21.42900 38.61800
H  -11.81100 21.01200 39.08400
H  -17.73500 19.54900 39.93600
H  -17.67000 21.18500 40.81400
H  -17.06800 19.57100 41.55100
H  -17.37700 14.78500 41.49000
H  -16.68700 14.12100 44.24500
H  -17.61500 17.06400 43.33000
H  -18.26600 15.70300 44.09000
H  -18.89600 16.03900 42.45900
H  -16.26700 12.16500 42.11300
H  -17.95300 12.78400 42.28500
H  -18.19000 11.14400 43.85100
H  -17.18300 12.15600 44.89800
H  -16.38700 10.97500 44.08300
H  -11.22400 9.98800 44.42300
H  -12.80300 9.89400 43.75700
H  -12.48600 10.82500 45.32200
H  -8.21600 12.73100 40.91700
H  -4.74500 15.06700 41.52800
H  -4.58900 13.62700 42.62000
H  -5.43400 14.99600 43.19300

