158

Mg 35.23500 1.44300 28.80500
C  33.09900 2.34800 31.44200
C  37.73000 1.02200 31.09500
C  37.12600 0.58900 26.26500
C  32.44200 1.63600 26.66900
N  35.29000 1.57400 31.09100
C  34.36300 2.07500 31.91000
C  34.86700 2.01200 33.38400
C  36.46700 1.79200 33.10400
C  36.49200 1.38700 31.69200
C  37.35100 3.13000 33.26300
C  34.11100 0.98900 34.31900
C  33.66200 1.63000 35.62900
H  34.65500 2.48600 36.51700
N  37.14300 0.86300 28.67700
C  38.07400 0.73200 29.69100
C  39.35400 0.43000 29.15400
C  39.17600 0.26400 27.72000
C  37.77500 0.57900 27.49900
C  40.64300 0.29100 29.99100
C  40.18100 -0.20100 26.68500
O  39.87200 -0.41900 25.48000
C  41.59100 -0.35500 27.04100
N  34.73900 0.94800 26.74800
C  35.77400 0.83000 25.91100
C  35.27300 0.81900 24.41300
C  33.74900 1.12900 24.57400
C  33.63500 1.19100 26.10200
C  36.02300 1.84300 23.44100
C  32.79600 0.05900 23.94100
C  31.94600 0.49600 22.74500
N  33.26200 2.01700 28.92900
C  32.27300 1.98400 28.02400
C  30.91700 2.28200 28.61300
C  31.25600 2.36600 29.96500
C  32.63200 2.24500 30.12600
C  29.70600 2.35200 27.84400
C  30.72800 2.64900 31.23200
O  29.61500 2.86900 31.52700
C  31.88400 2.72500 32.22400
C  31.92000 4.02400 32.97100
O  32.58500 4.96600 32.67000
O  31.04800 3.98900 34.09900
C  31.15200 5.12300 35.03100
H  38.52800 0.75000 31.78900
H  37.76700 0.41600 25.39700
H  31.51900 1.73500 26.09400
H  34.76500 3.02400 33.77600
H  36.76500 0.94000 33.71600
H  37.82800 3.44700 32.33600
H  38.16100 2.96400 33.97400
H  36.64500 3.89700 33.58300
H  34.77500 0.16300 34.57100
H  33.31000 0.64900 33.66200
H  33.30400 0.78400 36.21600
H  32.82700 2.28700 35.38800
H  41.45800 0.89500 29.59400
H  40.99600 -0.73400 30.10400
H  40.42500 0.56600 31.02300
H  41.52400 -0.99100 27.92300
H  42.00900 0.60400 27.34700
H  42.23200 -0.79200 26.27600
H  35.44100 -0.22700 24.15800
H  33.64700 2.12700 24.14800
H  35.40900 2.14400 22.59200
H  36.99500 1.52500 23.06400
H  36.24800 2.76900 23.97000
H  32.11100 -0.25500 24.72900
H  33.32400 -0.82800 23.59000
H  30.87100 0.58300 22.90500
H  32.07500 -0.14500 21.87200
H  32.35000 1.43500 22.36700
H  28.77600 2.13800 28.37100
H  29.66400 1.76000 26.93000
H  29.61200 3.32900 27.36900
H  31.59500 1.97300 32.95800
H  32.00200 4.96300 35.69400
H  30.24800 5.25300 35.62700
H  31.39700 5.97300 34.39400
Mg 47.17400 15.40100 27.60600
C  45.18100 15.59300 30.54600
C  49.41500 17.63900 29.24200
C  48.67300 15.81200 24.78600
C  44.60900 13.60900 26.11200
N  47.39100 16.35100 29.75300
C  46.37100 16.30900 30.72800
C  46.78900 17.12500 31.95200
C  47.94300 18.06300 31.36800
C  48.31700 17.30800 30.07100
C  47.57300 19.56000 31.31800
C  47.39900 16.12800 33.08700
C  47.12100 16.68000 34.51500
H  48.16600 16.40800 35.57600
N  48.87700 16.35700 27.14500
C  49.69900 17.13100 27.94700
C  50.98600 17.42200 27.20100
C  50.76300 16.92300 25.88000
C  49.33800 16.32400 25.89600
C  52.08500 18.18500 27.77000
C  51.76700 16.90300 24.65900
O  51.45700 16.31100 23.66700
C  53.20200 17.42500 24.79000
N  46.63100 14.78200 25.69600
C  47.44300 15.15800 24.66500
C  46.98600 14.46900 23.39700
C  45.68300 13.74000 23.86100
C  45.58500 14.10500 25.26500
C  46.71500 15.58900 22.23700
C  45.65800 12.16800 23.59700
C  46.31900 11.23500 24.53900
N  45.30700 14.68500 28.12400
C  44.40400 13.92200 27.46000
C  43.33600 13.55600 28.31600
C  43.59400 14.10700 29.54300
C  44.78700 14.84200 29.39300
C  42.28800 12.45400 27.95600
C  43.21100 14.20400 30.90500
O  42.26700 13.73600 31.54400
C  44.19800 15.20100 31.60400
C  43.50700 16.40700 32.13500
O  43.11000 17.29900 31.41000
O  43.60600 16.42800 33.50300
C  43.54000 17.81400 34.01000
H  50.12400 18.24400 29.81100
H  49.14900 16.06100 23.83500
H  43.82500 12.98500 25.67700
H  45.95400 17.73700 32.29200
H  48.87700 18.07500 31.92900
H  47.63900 20.04600 30.34500
H  48.24600 20.00800 32.04900
H  46.55600 19.81900 31.61300
H  48.47500 16.01000 32.95400
H  46.91800 15.15800 32.96400
H  46.19300 16.20700 34.83600
H  46.89400 17.74600 34.53100
H  53.01700 17.75700 27.40000
H  52.09800 18.23000 28.85900
H  51.99400 19.18600 27.35000
H  53.67400 17.58000 23.81900
H  53.83700 16.74300 25.35600
H  53.23800 18.35900 25.35000
H  47.70800 13.73500 23.04000
H  44.92100 14.24300 23.26500
H  45.70100 15.99000 22.23800
H  46.95200 15.20300 21.24600
H  47.46100 16.36700 22.39500
H  46.07600 11.95700 22.61300
H  44.59600 11.93100 23.53400
H  46.86400 11.62600 25.39800
H  47.06600 10.74700 23.91300
H  45.59400 10.55100 24.98100
H  42.25600 11.91500 28.90200
H  42.80200 11.68200 27.38400
H  41.32900 12.81100 27.58200
H  44.78400 14.75800 32.41000
H  42.53700 18.08800 34.33700
H  43.72200 18.57400 33.25100
H  44.22000 17.96600 34.84800

