158

Mg 47.16300 17.25700 27.87400
C  45.36300 17.05700 30.97600
C  49.75100 18.72200 29.49700
C  48.52500 17.81600 24.89400
C  44.26600 15.75500 26.22200
N  47.48400 17.88600 29.90900
C  46.59800 17.66300 31.01400
C  47.24600 18.08200 32.28700
C  48.55500 18.82000 31.77700
C  48.62100 18.39400 30.32800
C  48.58400 20.36200 32.02300
C  47.45500 16.94100 33.37900
C  46.78900 17.21800 34.70400
H  46.70300 18.71600 35.15600
N  48.88600 18.24800 27.30800
C  49.86100 18.68000 28.12500
C  51.01500 19.01000 27.34800
C  50.77500 18.71700 25.96900
C  49.32700 18.25400 26.00700
C  52.32400 19.41600 27.93900
C  51.59000 18.89600 24.65800
O  51.08900 18.56700 23.62500
C  53.03300 19.43800 24.71100
N  46.47700 16.88900 25.97100
C  47.29700 17.23900 24.92100
C  46.65700 16.85600 23.62000
C  45.52500 15.88400 24.04100
C  45.35100 16.20100 25.50500
C  46.31600 17.98500 22.67600
C  45.84500 14.32100 23.69100
C  44.80900 13.20400 23.63500
N  45.25500 16.45500 28.45200
C  44.14800 15.96000 27.67900
C  43.07200 15.53200 28.57500
C  43.52500 15.90200 29.86100
C  44.80400 16.44500 29.76400
C  41.79500 14.92300 28.20100
C  43.09200 15.96400 31.20300
O  42.00400 15.62100 31.69300
C  44.39700 16.52200 31.99400
C  43.97100 17.68600 32.80400
O  43.89400 18.84000 32.36900
O  43.57900 17.24700 34.04800
C  42.70300 18.17800 34.78200
H  50.45800 19.30900 30.08700
H  48.92300 18.02800 23.89900
H  43.45200 15.21700 25.73200
H  46.48600 18.83300 32.50400
H  49.41300 18.30900 32.21200
H  48.93000 20.93800 31.16500
H  49.33700 20.52300 32.79500
H  47.66600 20.79300 32.42400
H  48.52400 16.88100 33.58300
H  47.12000 15.99200 32.96000
H  47.33800 16.70200 35.49100
H  45.79900 16.76200 34.70800
H  52.28100 19.41600 29.02800
H  52.67800 20.41500 27.68300
H  53.04800 18.69400 27.56100
H  53.11600 20.06000 23.82000
H  53.65300 18.58400 24.43700
H  53.38600 19.88000 25.64200
H  47.42200 16.23400 23.15500
H  44.61000 16.23700 23.56600
H  45.25700 18.18300 22.84300
H  46.50400 17.58500 21.67900
H  46.85900 18.91600 22.83900
H  46.47700 14.07800 24.54500
H  46.46700 14.29300 22.79700
H  43.87400 13.61300 23.25200
H  44.61200 12.55500 24.48800
H  45.18900 12.48800 22.90600
H  41.66800 13.89100 28.52800
H  41.58100 15.10100 27.14700
H  41.05900 15.46400 28.79600
H  44.70200 15.65200 32.57600
H  41.83700 18.25300 34.12400
H  43.21100 19.08200 35.11700
H  42.33600 17.74900 35.71500
Mg 49.51400 46.86500 43.18000
C  46.21000 47.30600 42.18900
C  49.47400 43.78200 41.51100
C  52.82500 46.75700 43.29700
C  49.47300 49.98600 44.62000
N  47.95100 45.62800 42.06000
C  46.70300 46.02800 41.68000
C  45.97100 44.88600 40.89400
C  46.97500 43.71200 41.07600
C  48.24900 44.41500 41.64300
C  46.51900 42.47400 41.95600
C  45.61300 45.35000 39.41900
C  44.20400 45.01700 39.03200
H  43.87100 44.09700 37.82200
N  50.99700 45.49100 42.47100
C  50.81500 44.30100 41.80700
C  52.06700 43.67400 41.56600
C  53.08300 44.48400 42.06800
C  52.33400 45.65200 42.65500
C  52.26800 42.25900 40.83100
C  54.58600 44.16900 42.09600
O  55.05000 43.21500 41.46500
C  55.57100 44.99300 42.82100
N  50.94700 48.10500 44.03000
C  52.28600 47.91300 43.88200
C  53.04900 49.00600 44.67300
C  51.89100 49.87000 45.23300
C  50.70200 49.29500 44.60300
C  54.07000 48.40400 45.76500
C  52.01400 51.45100 45.24100
C  53.30700 52.16100 45.72800
N  48.18500 48.33500 43.39100
C  48.25700 49.58400 43.97800
C  47.00600 50.28500 43.86400
C  46.18900 49.41000 43.15300
C  46.89900 48.22700 42.97200
C  46.77900 51.76100 44.30400
C  44.86600 49.26400 42.63500
O  43.90700 50.00700 42.70000
C  44.83200 47.87300 41.98000
C  43.75600 47.05300 42.67400
O  43.88800 46.38200 43.70500
O  42.53600 47.02300 41.97300
C  41.45100 46.18400 42.48800
H  49.54400 42.76300 41.12500
H  53.91000 46.86700 43.35500
H  49.33400 50.92600 45.15700
H  45.13500 44.70000 41.56900
H  47.27300 43.29700 40.11300
H  46.71900 41.59200 41.34700
H  45.47800 42.65200 42.22600
H  47.07700 42.30000 42.87600
H  46.23700 44.87900 38.66000
H  45.69800 46.43500 39.48500
H  43.52600 45.86700 38.96000
H  43.84700 44.37000 39.83200
H  52.70700 42.30900 39.83400
H  51.32800 41.71100 40.89200
H  53.01500 41.75100 41.44200
H  56.48500 44.40900 42.92800
H  55.21300 45.19000 43.83100
H  55.84600 45.90800 42.29600
H  53.69300 49.50400 43.94800
H  51.72900 49.56100 46.26600
H  53.57900 47.50600 46.14000
H  54.18600 49.05600 46.63100
H  55.04800 48.16800 45.34600
H  51.20300 51.88500 45.82700
H  51.81900 51.70100 44.19800
H  54.12100 51.49600 46.01400
H  53.11200 52.93900 46.46600
H  53.57000 52.65300 44.79100
H  47.68400 52.08400 44.81900
H  45.93000 52.06200 44.91900
H  46.68400 52.36400 43.40100
H  44.60600 48.03100 40.92600
H  41.65600 45.11900 42.38000
H  40.57100 46.50500 41.93000
H  41.28100 46.35600 43.55000

