158

Mg 35.43400 3.16000 29.29400
C  33.24900 4.22900 31.69300
C  38.01900 3.28700 31.58900
C  37.77200 2.74600 26.81100
C  32.91100 3.37700 26.92500
N  35.57200 3.67100 31.35400
C  34.50200 3.98300 32.18500
C  34.93200 4.20800 33.65000
C  36.50700 4.24800 33.50300
C  36.77300 3.65600 32.05800
C  37.09800 5.67100 33.81600
C  34.42500 2.99200 34.43300
C  33.89600 3.41800 35.81400
H  34.74700 4.46000 36.67700
N  37.60700 2.92200 29.23300
C  38.42600 2.94200 30.29400
C  39.77700 2.70000 29.88200
C  39.75600 2.50100 28.48700
C  38.34500 2.74800 28.10800
C  40.88000 2.65900 30.87000
C  40.97300 2.26700 27.51900
O  40.71800 2.03900 26.32400
C  42.36500 2.43000 27.84400
N  35.36500 3.07000 27.15500
C  36.49300 3.05200 26.34400
C  35.97000 3.15900 24.86800
C  34.42500 2.87900 24.92700
C  34.17200 3.12400 26.41300
C  36.21400 4.51700 24.13100
C  34.03900 1.43800 24.48700
C  33.27400 1.22200 23.10100
N  33.49900 3.68400 29.20800
C  32.56600 3.83100 28.22800
C  31.31300 4.37800 28.74800
C  31.63400 4.49000 30.11200
C  32.88700 4.04700 30.33900
C  30.02000 4.65800 28.10300
C  31.00300 4.91700 31.41400
O  29.91200 5.40100 31.62500
C  32.12000 4.70100 32.50400
C  32.33200 5.96400 33.23500
O  32.85600 7.00800 32.80200
O  31.77100 5.85600 34.48700
C  32.06600 7.10100 35.30700
H  38.80900 3.39400 32.33500
H  38.49200 2.63700 25.99800
H  32.16800 3.44700 26.12800
H  34.58900 5.14700 34.08400
H  37.10100 3.55100 34.09400
H  38.08700 5.70800 33.36100
H  37.09900 5.88500 34.88400
H  36.37900 6.29200 33.28000
H  35.24700 2.27600 34.46400
H  33.57700 2.65500 33.83800
H  34.00700 2.50900 36.40600
H  32.82400 3.61400 35.80900
H  41.82700 2.56300 30.33800
H  40.67900 1.74400 31.42700
H  40.82900 3.51800 31.53900
H  42.96900 2.16900 26.97500
H  42.65200 1.69500 28.59700
H  42.59400 3.45000 28.15400
H  36.47500 2.41600 24.25200
H  33.84100 3.64100 24.41000
H  36.80100 4.35900 23.22700
H  36.76900 5.14100 24.83200
H  35.30900 5.01600 23.78600
H  33.44300 0.93500 25.24700
H  34.92400 0.81900 24.34400
H  33.89100 0.60200 22.45000
H  33.02600 2.12100 22.53700
H  32.37300 0.69400 23.41400
H  30.12500 4.78100 27.02500
H  29.48600 5.52700 28.48700
H  29.34800 3.82000 28.28800
H  31.80200 3.84800 33.10300
H  31.28600 7.85400 35.19700
H  33.10500 7.41000 35.18900
H  32.03300 6.76800 36.34500
Mg 40.37300 9.89800 29.00900
C  42.32700 11.18100 31.68400
C  38.11000 8.67900 31.35000
C  38.67600 8.47700 26.55600
C  43.04600 10.60300 26.86100
N  40.32200 9.72300 31.27800
C  41.15100 10.56400 32.08300
C  40.55100 10.52100 33.56600
C  39.41900 9.52000 33.42300
C  39.17600 9.34300 31.95300
C  39.71300 8.14300 34.19500
C  40.11300 11.96600 34.01700
C  40.44500 12.39600 35.48000
H  40.50100 13.94000 35.76700
N  38.62400 8.71700 28.90900
C  37.83600 8.34500 29.98400
C  36.74600 7.47900 29.47100
C  36.80000 7.58400 28.08400
C  38.03700 8.30000 27.77200
C  35.57400 7.02800 30.25800
C  35.77600 7.18100 26.97500
O  35.95500 7.45300 25.86700
C  34.44900 6.53900 27.42200
N  40.73900 9.72600 27.03500
C  39.89800 9.01800 26.24400
C  40.50800 8.74100 24.85300
C  41.92000 9.38900 24.90000
C  41.93100 9.93600 26.34700
C  40.57600 7.28400 24.33400
C  42.19100 10.53000 23.86700
C  41.82100 11.95200 24.27400
N  42.23600 10.80600 29.18000
C  43.23400 11.06600 28.25300
C  44.41700 11.77600 28.82100
C  44.05600 11.90500 30.12700
C  42.74000 11.23200 30.33200
C  45.68400 12.04600 28.14300
C  44.45500 12.34600 31.41400
O  45.53000 12.85000 31.77900
C  43.34700 12.01600 32.43400
C  43.92700 11.44700 33.63100
O  44.26600 10.30000 33.86100
O  43.88800 12.43100 34.59700
C  44.06200 11.83300 35.92200
H  37.41100 8.53000 32.17700
H  38.31100 7.82300 25.76100
H  43.98100 10.70800 26.30700
H  41.29200 10.14000 34.26800
H  38.55700 10.06400 33.81000
H  40.75400 8.04600 34.50200
H  39.63100 7.50200 33.31700
H  39.02000 7.81100 34.96800
H  39.04700 12.12800 33.86200
H  40.61100 12.66100 33.34000
H  41.46300 12.06600 35.68800
H  39.79000 11.82100 36.13500
H  35.80800 7.19800 31.30900
H  35.41900 5.95000 30.22000
H  34.67000 7.56500 29.96900
H  33.70900 7.20100 27.87000
H  34.56300 5.76600 28.18100
H  33.95200 6.03200 26.59500
H  39.91300 9.28500 24.12000
H  42.76100 8.70000 24.83000
H  40.08200 7.36600 23.36500
H  40.02700 6.65500 25.03400
H  41.57000 6.84200 24.39800
H  41.61400 10.36500 22.95800
H  43.27500 10.47800 23.76400
H  41.24100 12.52700 23.55200
H  42.69800 12.50900 24.60400
H  41.13800 11.89800 25.12200
H  45.87100 13.10400 28.32700
H  45.74700 12.13800 27.05900
H  46.45300 11.45500 28.64000
H  42.93100 13.00900 32.60700
H  45.05500 11.39500 36.02100
H  43.37100 11.00500 36.08000
H  43.99700 12.65800 36.63100

