158

Mg -0.71700 17.40400 27.48100
C  -1.74200 15.18300 29.97600
C  -1.83000 20.01600 29.43000
C  -0.46600 19.39600 24.77300
C  -0.20700 14.64200 25.35000
N  -1.71900 17.60100 29.53000
C  -1.83100 16.50500 30.44100
C  -2.26700 17.01000 31.82100
C  -2.52800 18.59500 31.56100
C  -1.94600 18.77700 30.12200
C  -3.94500 19.07700 31.91300
C  -1.22600 16.67300 32.91800
C  -1.14800 17.63800 34.19200
H  0.02000 17.39000 35.21700
N  -1.07800 19.45000 27.17100
C  -1.49900 20.37500 28.09300
C  -1.62100 21.73900 27.44200
C  -1.25100 21.49300 26.10700
C  -0.83400 20.10800 25.96400
C  -2.09900 23.01300 28.15000
C  -1.18400 22.53000 25.05900
O  -0.74500 22.26100 23.95000
C  -1.80800 23.82100 25.24900
N  -0.38700 17.03400 25.35400
C  -0.20300 18.06200 24.53900
C  -0.01700 17.57000 23.07000
C  0.41400 16.06500 23.35800
C  -0.05600 15.89100 24.77200
C  -1.26700 17.59600 22.17400
C  1.99300 15.81900 23.18200
C  2.97800 16.53000 24.13300
N  -0.97500 15.34800 27.58000
C  -0.61300 14.32100 26.66600
C  -0.85500 13.05900 27.26300
C  -1.20700 13.30600 28.55800
C  -1.40000 14.73600 28.69400
C  -0.58300 11.75100 26.57100
C  -1.52200 12.74000 29.77800
O  -1.58200 11.53800 30.04600
C  -1.89600 13.88100 30.80900
C  -0.93700 13.74900 31.82300
O  0.24300 14.13500 31.83700
O  -1.58000 13.21000 32.94300
C  -0.81900 12.86100 34.15700
H  -2.18700 20.92300 29.92200
H  -0.56600 19.99700 23.86600
H  0.01400 13.79300 24.70000
H  -3.20100 16.49100 32.03900
H  -1.96500 19.17300 32.29300
H  -4.25200 19.87900 31.24100
H  -4.09100 19.41300 32.94000
H  -4.65400 18.27000 31.73100
H  -0.24100 16.46200 32.50100
H  -1.47800 15.79400 33.51200
H  -2.14200 17.69300 34.63700
H  -0.86100 18.59500 33.75600
H  -1.59400 23.94800 27.90500
H  -1.83900 22.87200 29.20000
H  -3.18000 23.08400 28.02900
H  -1.85900 24.19500 24.22700
H  -1.06100 24.34200 25.84800
H  -2.78400 23.80200 25.73200
H  0.78100 18.15700 22.61600
H  0.01500 15.36500 22.62500
H  -1.96100 16.77300 22.34500
H  -0.93700 17.42000 21.15000
H  -1.70500 18.56200 22.42500
H  2.19400 16.06300 22.13900
H  2.12100 14.74000 23.25700
H  2.63100 17.34600 24.76700
H  3.80800 16.93800 23.55600
H  3.38100 15.79300 24.82800
H  -0.05200 11.81900 25.62100
H  -1.53200 11.23300 26.43400
H  -0.04800 11.10700 27.26900
H  -2.89900 13.59800 31.12800
H  -0.98200 13.58900 34.95200
H  0.25000 12.84400 33.94700
H  -1.15100 11.86300 34.44300
Mg 16.39300 52.88300 26.51200
C  18.42400 51.34000 29.15300
C  14.12200 53.68300 28.98800
C  14.56400 54.02000 24.18000
C  18.69700 51.53900 24.23600
N  16.24300 52.45700 28.83200
C  17.25800 51.96700 29.61400
C  16.89500 52.31100 31.03100
C  15.36300 52.59200 30.90800
C  15.26200 52.98700 29.50200
C  14.44400 51.32400 31.25500
C  17.79900 53.44300 31.48400
C  17.87600 53.77300 33.01700
H  16.96100 53.01400 34.02800
N  14.63300 53.85300 26.59700
C  13.84700 54.11200 27.67800
C  12.66700 54.83500 27.26300
C  12.74900 54.92800 25.85600
C  13.99900 54.28600 25.43900
C  11.49200 55.19800 28.16800
C  11.68000 55.42000 24.81900
O  11.94000 55.46200 23.60900
C  10.25500 55.92000 25.30000
N  16.54700 52.68900 24.51000
C  15.63900 53.30300 23.76300
C  15.80100 53.01600 22.28900
C  17.28800 52.37700 22.29900
C  17.62300 52.25500 23.75000
C  14.72000 52.20700 21.69700
C  18.40200 53.16700 21.52900
C  19.29600 52.24200 20.73700
N  18.22000 51.71700 26.60400
C  19.04200 51.23100 25.59100
C  20.21300 50.62100 26.09700
C  20.00700 50.64400 27.48800
C  18.78400 51.30400 27.75300
C  21.36600 49.96300 25.36600
C  20.67500 50.26000 28.70900
O  21.78800 49.78000 28.85900
C  19.71800 50.80300 29.91000
C  19.35400 49.68100 30.84000
O  19.07700 48.53300 30.53400
O  19.49600 50.03000 32.16400
C  19.55300 48.92500 33.17600
H  13.32100 53.79300 29.72200
H  13.95200 54.42600 23.37100
H  19.51300 51.28300 23.55600
H  17.16900 51.51500 31.72400
H  15.02800 53.35700 31.60800
H  14.29900 51.22700 32.33100
H  15.03400 50.53500 30.78800
H  13.50800 51.42500 30.70500
H  17.53300 54.37200 30.97700
H  18.81800 53.35500 31.10900
H  17.49400 54.79400 33.01700
H  18.87900 53.84000 33.43800
H  10.76000 54.39200 28.22100
H  10.90600 56.05700 27.84100
H  11.98800 55.45100 29.10500
H  10.35300 56.88000 25.80700
H  9.95300 55.13000 25.98700
H  9.63800 56.12200 24.42400
H  15.85300 54.01100 21.84800
H  17.25200 51.34600 21.94700
H  15.23400 51.54300 21.00300
H  13.91500 52.74900 21.20000
H  14.21700 51.61600 22.46300
H  19.03700 53.80500 22.14500
H  17.91400 53.87700 20.86100
H  19.27000 51.20700 21.07700
H  20.34300 52.43700 20.96700
H  19.14500 52.37700 19.66600
H  22.30300 49.96300 25.92400
H  21.60200 50.49700 24.44600
H  21.18400 48.88800 25.33600
H  20.17600 51.59600 30.50000
H  19.54200 49.45300 34.13000
H  20.42600 48.28100 33.07500
H  18.62300 48.36800 33.06200

