158

Mg 35.34300 2.14400 29.70800
C  33.05100 3.26900 32.18700
C  37.83200 2.32000 32.12200
C  37.63600 1.67500 27.28600
C  32.78900 2.39300 27.29000
N  35.41700 2.66000 31.90600
C  34.37900 3.07300 32.71400
C  34.82300 3.29000 34.15800
C  36.32500 2.97200 34.10800
C  36.58000 2.63600 32.59900
C  37.22700 4.13700 34.69900
C  33.98700 2.41900 35.15900
C  34.49800 2.06800 36.58500
H  35.05300 3.19100 37.40000
N  37.40400 1.88700 29.73900
C  38.27900 1.94400 30.79500
C  39.61100 1.62300 30.40200
C  39.60900 1.35100 29.01600
C  38.18500 1.68900 28.59100
C  40.75200 1.58100 31.32900
C  40.78500 1.01200 28.16300
O  40.68500 0.86300 26.96400
C  42.15900 0.81000 28.74300
N  35.23500 1.92200 27.70300
C  36.29000 1.77800 26.86400
C  35.90900 1.86500 25.31900
C  34.39100 1.82600 25.44900
C  34.10300 2.03500 26.95200
C  36.42000 3.19600 24.73900
C  33.66600 0.49200 24.96900
C  32.58900 0.56300 23.87300
N  33.28700 2.68700 29.65900
C  32.37300 2.86100 28.60000
C  31.11000 3.38000 29.11600
C  31.37200 3.49000 30.54800
C  32.67900 3.06800 30.80200
C  29.90000 3.72100 28.30500
C  30.74600 3.96200 31.79800
O  29.61500 4.49700 31.98700
C  31.77200 3.62600 32.98500
C  31.96800 4.85900 33.85100
O  32.76400 5.83500 33.66200
O  31.18000 4.67500 35.03200
C  31.15100 5.81600 35.91200
H  38.70800 2.38000 32.77100
H  38.36200 1.53500 26.48200
H  32.03100 2.35600 26.50400
H  34.68400 4.34700 34.38600
H  36.60300 2.02100 34.56300
H  36.67000 4.88800 35.26000
H  37.66500 4.72900 33.89500
H  38.00100 3.80500 35.39100
H  33.78400 1.43800 34.73000
H  33.07700 3.01500 35.22400
H  35.22000 1.26900 36.41800
H  33.60900 1.70500 37.10100
H  41.69500 1.95400 30.92800
H  40.92700 0.54100 31.60400
H  40.56700 2.20600 32.20200
H  42.54300 1.78200 29.05300
H  42.77200 0.34200 27.97300
H  42.22400 0.08600 29.55500
H  36.42300 1.02400 24.85400
H  33.95900 2.69800 24.95900
H  35.70300 3.99500 24.54700
H  36.95200 2.98500 23.81100
H  37.17000 3.68900 25.35700
H  33.26200 -0.12300 25.77300
H  34.35700 -0.20200 24.48900
H  33.22600 0.43200 22.99900
H  32.15200 1.56100 23.91200
H  31.92700 -0.29700 23.97300
H  29.46700 4.43900 29.00100
H  29.19000 2.89600 28.23400
H  30.12600 4.24500 27.37700
H  31.29300 2.79900 33.51100
H  30.80900 5.55300 36.91300
H  30.64500 6.65400 35.43100
H  32.12900 6.26600 36.08500
Mg -0.05000 43.76700 26.26000
C  2.07200 43.19200 29.08600
C  -2.66300 42.22200 28.12700
C  -2.01900 43.65500 23.42700
C  2.72500 44.41800 24.53600
N  -0.37200 42.88900 28.42900
C  0.68400 42.85900 29.38900
C  0.09500 42.48900 30.87700
C  -1.36500 41.92600 30.38500
C  -1.49300 42.45200 28.90400
C  -1.68100 40.43100 30.55400
C  0.16600 43.80900 31.72400
C  0.21400 43.59600 33.20100
H  -0.21500 42.23900 33.78200
N  -2.13300 43.19500 25.89800
C  -2.97400 42.49600 26.75800
C  -4.29700 42.41100 26.13300
C  -4.19300 42.88200 24.79100
C  -2.72200 43.25300 24.59500
C  -5.55800 41.87400 26.89200
C  -5.20100 42.97600 23.67400
O  -5.01000 43.49000 22.60600
C  -6.61500 42.52500 23.97600
N  0.28900 43.90500 24.29300
C  -0.65600 43.98100 23.29700
C  -0.15400 44.73000 22.03700
C  1.38700 44.87900 22.42400
C  1.49800 44.41100 23.83900
C  -0.40500 43.89400 20.70800
C  2.06800 46.27300 22.32400
C  1.62900 47.23100 21.18300
N  1.94900 43.88600 26.69400
C  3.01700 44.13400 25.85400
C  4.31900 43.87400 26.46800
C  3.98000 43.61900 27.76800
C  2.54300 43.61100 27.88400
C  5.68800 44.03500 25.78200
C  4.56200 43.28300 29.05600
O  5.71100 43.10600 29.45000
C  3.32700 43.20900 29.98100
C  3.48000 41.86700 30.63100
O  3.20500 40.78900 30.20400
O  3.87600 42.12000 31.96700
C  4.15400 40.89600 32.77000
H  -3.46300 41.71900 28.67400
H  -2.70200 43.73000 22.57800
H  3.56700 44.63100 23.87500
H  0.68500 41.67600 31.29800
H  -2.02000 42.41300 31.10700
H  -0.90300 39.84200 31.03900
H  -1.75400 39.97800 29.56500
H  -2.54300 40.25800 31.19800
H  -0.67500 44.39800 31.35800
H  1.08100 44.27200 31.35600
H  -0.45700 44.32500 33.65600
H  1.22600 43.89300 33.47700
H  -5.49500 40.78700 26.84700
H  -6.56900 42.16900 26.61300
H  -5.42400 42.14300 27.94000
H  -7.01900 42.37200 22.97600
H  -7.12200 43.36500 24.45100
H  -6.61800 41.57300 24.50700
H  -0.59500 45.71000 21.85600
H  1.88100 44.18600 21.74300
H  -0.97700 44.57600 20.07900
H  -0.97300 42.96800 20.79500
H  0.47500 43.58200 20.14600
H  3.13000 46.13700 22.12100
H  2.13600 46.78500 23.28400
H  1.22800 48.17800 21.54400
H  1.03600 46.81000 20.37200
H  2.51000 47.48000 20.59100
H  6.36600 44.59300 26.42800
H  5.70200 44.57500 24.83500
H  6.09800 43.03900 25.61500
H  3.43500 44.04600 30.67100
H  5.11000 40.93600 33.29400
H  4.21400 39.96800 32.20200
H  3.38600 40.81400 33.53900

