158

Mg 9.51100 47.16400 27.49300
C  7.28400 47.24000 30.24400
C  12.13200 47.95000 29.45300
C  11.39900 47.74700 24.66700
C  6.55700 47.16000 25.36800
N  9.72600 47.38900 29.57700
C  8.70100 47.46000 30.52200
C  9.30500 47.60900 31.89800
C  10.87600 47.87900 31.58900
C  10.93200 47.74400 30.08100
C  11.40100 49.20700 31.98300
C  8.90000 46.50300 32.90700
C  9.90400 46.20900 34.01200
H  9.38700 45.89700 35.46000
N  11.48400 47.61900 27.15900
C  12.38200 47.94300 28.10300
C  13.71100 48.14800 27.45400
C  13.54800 47.98000 26.06600
C  12.12800 47.79200 25.93100
C  14.97300 48.37800 28.22100
C  14.60900 47.96100 24.97100
O  14.35500 47.77300 23.81500
C  16.05100 48.10100 25.30300
N  9.02400 47.59600 25.35000
C  10.00400 47.72100 24.43100
C  9.47500 47.70700 23.01700
C  7.91300 47.32200 23.18100
C  7.80700 47.33900 24.73100
C  9.79900 49.09500 22.39500
C  7.35900 46.10200 22.51800
C  7.09200 46.20900 21.02300
N  7.36500 47.09100 27.67800
C  6.29700 47.05900 26.78000
C  4.98800 47.01100 27.43200
C  5.35300 47.00400 28.75900
C  6.78900 47.06900 28.88500
C  3.67700 47.03000 26.73600
C  4.82000 46.95100 30.15200
O  3.67900 46.84100 30.53300
C  6.02800 47.02800 31.09700
C  5.95800 45.68800 31.79900
O  6.41600 44.65100 31.34000
O  5.43900 45.83500 33.04700
C  5.60400 44.73300 33.98500
H  12.95100 48.09900 30.15900
H  12.04600 47.80100 23.78800
H  5.65300 47.02500 24.77000
H  8.94800 48.57200 32.26500
H  11.51100 47.18100 32.13400
H  10.74000 49.53300 32.78700
H  11.47000 49.89900 31.14400
H  12.34100 49.10700 32.52500
H  8.67100 45.63200 32.29300
H  7.94300 46.81000 33.32800
H  10.58600 47.05900 34.04800
H  10.57000 45.39400 33.73100
H  15.52700 47.47100 27.97900
H  14.82200 48.44200 29.29900
H  15.52800 49.23800 27.84800
H  16.43000 47.27200 25.90100
H  16.16000 49.08600 25.75700
H  16.50200 47.97300 24.31800
H  9.96300 46.89600 22.47700
H  7.26400 48.11400 22.80800
H  10.38400 49.71600 23.07400
H  8.82600 49.52500 22.15900
H  10.45900 49.00700 21.53200
H  6.35200 45.95200 22.90900
H  8.01100 45.29400 22.85000
H  7.67100 45.55800 20.36900
H  7.25000 47.19700 20.59000
H  6.04900 46.06000 20.74300
H  3.48600 46.03100 26.34300
H  3.63300 47.66900 25.85400
H  2.84400 47.25800 27.40100
H  5.83100 47.95000 31.64400
H  6.61300 44.33000 33.90600
H  4.90600 43.91400 33.81000
H  5.54700 45.10200 35.00900
Mg -1.53700 33.86600 27.55200
C  -2.95000 32.16700 30.39900
C  -0.05100 35.92900 29.81500
C  -1.15600 36.21200 25.03000
C  -3.42000 31.91400 25.45700
N  -1.60200 34.02500 29.86400
C  -2.13300 33.16700 30.79300
C  -1.64300 33.42700 32.22700
C  -0.88400 34.74000 31.99500
C  -0.83500 35.01600 30.47400
C  -1.32400 36.00400 32.84100
C  -1.02100 32.19500 33.05500
C  -1.65500 31.81700 34.37800
H  -0.69500 32.01100 35.57900
N  -0.55900 35.67000 27.37200
C  0.07100 36.29100 28.41100
C  0.73600 37.45000 27.95300
C  0.34900 37.63400 26.57900
C  -0.50200 36.47000 26.26400
C  1.72500 38.21100 28.75000
C  0.95200 38.56300 25.51500
O  0.72800 38.47500 24.28600
C  1.86400 39.71700 25.85800
N  -2.05000 33.91700 25.46200
C  -1.86600 35.00200 24.63100
C  -2.59100 34.83500 23.29600
C  -2.88200 33.30300 23.34200
C  -2.73600 32.97300 24.80400
C  -3.76900 35.84200 23.00700
C  -1.94600 32.45900 22.32400
C  -0.79300 31.71500 22.86700
N  -2.80500 32.31700 27.80700
C  -3.53900 31.62000 26.86400
C  -4.24700 30.54200 27.46300
C  -4.04600 30.68900 28.79300
C  -3.20500 31.83500 28.99000
C  -5.03900 29.55700 26.76700
C  -4.46600 30.24200 30.09800
O  -5.26100 29.34600 30.36100
C  -3.73100 31.12400 31.20600
C  -4.70400 31.59900 32.22300
O  -5.38900 32.61300 32.15200
O  -4.75600 30.68800 33.24400
C  -5.71600 30.86900 34.32800
H  0.66400 36.31900 30.54300
H  -1.14400 37.01800 24.29300
H  -3.98300 31.23100 24.81700
H  -2.56400 33.66000 32.76200
H  0.12000 34.42800 32.28100
H  -1.97700 35.76800 33.68100
H  -1.72300 36.80500 32.21800
H  -0.39600 36.47200 33.16900
H  0.06500 32.29000 33.07600
H  -1.11900 31.26900 32.48900
H  -1.87600 30.75000 34.38400
H  -2.57900 32.39200 34.43000
H  1.32600 39.22300 28.82100
H  2.65000 38.21400 28.17200
H  2.00200 37.79700 29.71900
H  1.29400 40.30100 26.58100
H  2.12200 40.34500 25.00600
H  2.69700 39.21000 26.34500
H  -1.85400 34.99100 22.50900
H  -3.94100 33.11400 23.16500
H  -3.81700 36.56300 23.82300
H  -4.72500 35.31900 22.96800
H  -3.56300 36.33600 22.05700
H  -1.51700 33.12500 21.57500
H  -2.61500 31.75500 21.82900
H  -0.90000 31.62200 23.94800
H  0.17500 32.15200 22.62400
H  -0.79000 30.71300 22.43700
H  -4.63100 29.43300 25.76400
H  -6.04300 29.97300 26.67600
H  -5.19200 28.69400 27.41600
H  -3.06900 30.42400 31.71700
H  -5.81200 29.94700 34.90200
H  -6.65400 31.14600 33.84800
H  -5.45100 31.67500 35.01200

