158

Mg 47.32200 24.33800 27.57400
C  48.28500 26.67800 30.05500
C  47.07300 21.97400 30.03200
C  46.73300 21.97400 25.22900
C  48.24400 26.65400 25.10200
N  47.69700 24.39500 29.77800
C  47.76900 25.47900 30.55300
C  47.67000 25.07000 32.03700
C  47.38100 23.55100 32.01100
C  47.42600 23.26300 30.47600
C  48.33400 22.69300 32.90900
C  46.78500 26.06000 32.89400
C  46.29900 25.64800 34.34200
H  46.79700 26.61300 35.44000
N  46.94600 22.24500 27.62000
C  46.79800 21.49400 28.75800
C  46.35400 20.17100 28.44000
C  46.26300 20.10900 26.99200
C  46.80500 21.38600 26.51100
C  45.92500 19.14000 29.58100
C  45.71300 19.00700 26.11000
O  45.90100 19.09000 24.86400
C  44.94700 17.87400 26.55300
N  47.47700 24.27200 25.59800
C  46.92500 23.28300 24.81200
C  46.65400 23.76000 23.34400
C  46.93400 25.24400 23.43600
C  47.58500 25.41300 24.76300
C  47.43800 22.95200 22.24700
C  45.63700 26.05400 23.16800
C  44.62300 26.21700 24.37700
N  48.18400 26.34600 27.50000
C  48.47100 27.09200 26.45700
C  49.01000 28.35500 26.94200
C  48.95100 28.30800 28.33700
C  48.51100 27.00100 28.63600
C  49.38400 29.43600 26.04800
C  49.18500 28.96800 29.56800
O  49.65000 30.01500 29.84900
C  48.67800 28.02400 30.68100
C  49.77900 27.92400 31.58700
O  50.70100 27.16900 31.60100
O  49.56400 28.80100 32.62100
C  50.53000 28.77000 33.80100
H  46.76700 21.24500 30.78600
H  46.38400 21.38600 24.37800
H  48.10400 27.39700 24.31300
H  48.67600 25.31300 32.37900
H  46.37500 23.30100 32.34500
H  47.99100 21.66500 33.03100
H  48.25600 23.19200 33.87500
H  49.36400 22.73100 32.55300
H  46.00500 26.45400 32.24200
H  47.38800 26.96800 32.91200
H  46.71200 24.67500 34.60800
H  45.22200 25.51600 34.44800
H  46.79900 18.56100 29.88000
H  45.27700 18.34500 29.21100
H  45.37800 19.53000 30.44000
H  44.28400 17.55100 25.75000
H  44.25600 18.22600 27.31800
H  45.63600 17.05300 26.75400
H  45.60000 23.60200 23.11400
H  47.56700 25.44700 22.57200
H  48.48500 23.25300 22.30300
H  47.23700 23.16800 21.19800
H  47.25000 21.87900 22.26000
H  45.15100 25.50800 22.36000
H  45.81600 27.08400 22.85700
H  44.89000 26.96400 25.12500
H  44.12500 25.30200 24.69900
H  43.76000 26.79600 24.04700
H  49.09400 30.37900 26.51100
H  48.80000 29.31500 25.13600
H  50.46200 29.55600 25.93400
H  47.79000 28.49000 31.10900
H  50.47100 27.79400 34.28200
H  50.43800 29.49700 34.60800
H  51.54000 28.76000 33.39100
Mg 49.88400 45.11700 42.29100
C  46.66300 45.78600 40.98100
C  49.46000 41.83200 41.16800
C  53.27800 44.74000 42.24600
C  50.38800 48.62300 42.55100
N  48.20200 43.97600 41.33200
C  46.99200 44.43800 40.83000
C  46.24000 43.30900 40.08600
C  47.03700 42.06300 40.54300
C  48.28700 42.61700 41.11700
C  46.36000 41.21200 41.61300
C  46.30300 43.57700 38.53100
C  45.11500 43.00100 37.76600
H  44.82200 43.41700 36.36400
N  51.15300 43.52200 41.98000
C  50.79500 42.24700 41.55700
C  51.96900 41.34900 41.70400
C  53.08000 42.22600 42.06600
C  52.48900 43.58000 42.11300
C  51.77000 39.89600 41.67400
C  54.54200 41.71600 42.35200
O  54.78400 40.55900 42.19100
C  55.56000 42.60800 43.00800
N  51.61700 46.44900 42.68100
C  52.85200 46.05000 42.51700
C  53.86200 47.19800 42.55200
C  52.94800 48.47800 42.57800
C  51.54300 47.84100 42.62200
C  54.91900 47.03500 43.73400
C  53.19600 49.39300 41.32200
C  52.62800 48.92100 39.93000
N  48.78500 46.86300 41.97500
C  49.14500 48.18900 42.08700
C  47.99000 49.03000 41.66000
C  46.96600 48.15300 41.32400
C  47.52400 46.83800 41.51700
C  47.95200 50.50100 41.55100
C  45.66300 48.08500 40.73100
O  44.82200 48.94900 40.46500
C  45.49500 46.54100 40.38100
C  44.06300 46.21200 40.70600
O  43.16300 46.19200 39.86900
O  43.96900 45.78300 42.00000
C  42.58600 45.60200 42.51300
H  49.35500 40.78300 40.88300
H  54.36700 44.67500 42.20500
H  50.58800 49.69700 42.56200
H  45.20000 43.31700 40.41400
H  47.12500 41.44400 39.65000
H  45.34800 41.56300 41.81400
H  46.93300 41.20000 42.54000
H  46.39100 40.16700 41.30400
H  47.23800 43.11900 38.20800
H  46.59800 44.59600 38.27900
H  44.19300 43.08300 38.34100
H  45.16900 41.91400 37.70400
H  52.72200 39.42000 41.90700
H  51.35700 39.45900 40.76400
H  51.15600 39.76400 42.56500
H  55.03500 43.18700 43.76700
H  55.95100 43.18600 42.17100
H  56.24000 41.87100 43.43800
H  54.51800 47.24700 41.68300
H  53.09700 48.93900 43.55500
H  55.23500 46.01800 43.96400
H  54.52900 47.49100 44.64400
H  55.77000 47.59900 43.35300
H  54.27300 49.54300 41.25900
H  52.74300 50.36000 41.54000
H  51.77000 49.54600 39.68400
H  52.34300 47.87000 39.96400
H  53.34000 49.01700 39.11100
H  47.14200 50.82900 40.89900
H  48.84700 50.98600 41.16100
H  47.88900 51.04900 42.49100
H  45.60900 46.44800 39.30100
H  41.83900 45.17600 41.84300
H  42.15100 46.49900 42.95300
H  42.81900 45.03300 43.41300

