158

Mg 24.04700 -6.80300 46.26000
C  26.29500 -4.68900 44.64400
C  21.60500 -5.93100 44.03300
C  22.05700 -9.33600 47.49100
C  26.81600 -8.14800 48.00200
N  23.92700 -5.39100 44.56500
C  24.98500 -4.56200 44.13100
C  24.53900 -3.87600 42.91400
C  23.01200 -4.23500 42.85600
C  22.81100 -5.23300 43.91100
C  22.02200 -3.07000 42.94300
C  25.31600 -4.25400 41.64200
C  25.80700 -3.05200 40.77900
H  25.40400 -3.22400 39.26800
N  22.00500 -7.43700 45.92500
C  21.18000 -6.94600 44.99100
C  19.88900 -7.62300 44.99000
C  19.96300 -8.57000 46.08500
C  21.42600 -8.56600 46.54200
C  18.65800 -7.24700 44.12900
C  18.82200 -9.46500 46.60700
O  17.74800 -9.59200 46.06200
C  18.93200 -10.31700 47.88600
N  24.42000 -8.63700 47.46100
C  23.41800 -9.51100 47.82200
C  23.95800 -10.56700 48.83300
C  25.52100 -10.26800 48.82700
C  25.60800 -8.90400 48.13800
C  23.33700 -10.46600 50.26400
C  26.38600 -11.28500 48.02300
C  27.31400 -12.26300 48.80300
N  26.07000 -6.50800 46.36400
C  27.06700 -7.06100 47.20600
C  28.32500 -6.38900 47.05500
C  28.00000 -5.42100 46.04200
C  26.64000 -5.55900 45.65500
C  29.62400 -6.74600 47.74600
C  28.68400 -4.34600 45.31100
O  29.80900 -3.84100 45.35800
C  27.59700 -3.86700 44.27500
C  27.32000 -2.36500 44.58800
O  26.68500 -1.95000 45.53000
O  27.83800 -1.58200 43.58300
C  27.48600 -0.13200 43.69300
H  20.76600 -5.68000 43.38000
H  21.41900 -10.05000 48.01600
H  27.72200 -8.53200 48.47400
H  24.67800 -2.80500 43.06000
H  22.79100 -4.64300 41.87000
H  21.06300 -3.24900 42.45600
H  22.38300 -2.16300 42.45900
H  21.84700 -2.77400 43.97700
H  24.72300 -4.96500 41.06700
H  26.20300 -4.80700 41.95200
H  26.86600 -2.86800 40.96000
H  25.37700 -2.08000 41.02100
H  17.99000 -6.68700 44.78300
H  17.92100 -8.00500 43.86300
H  18.98800 -6.67500 43.26200
H  19.52000 -9.83200 48.66500
H  19.47300 -11.22500 47.62200
H  18.00200 -10.53200 48.41300
H  23.87500 -11.56000 48.39300
H  25.77700 -10.13900 49.87800
H  22.82800 -9.50500 50.33700
H  24.09000 -10.69300 51.01900
H  22.58300 -11.25300 50.28400
H  27.02500 -10.70700 47.35500
H  25.80900 -11.93400 47.36400
H  27.39600 -11.95500 49.84600
H  28.30300 -12.06200 48.39200
H  27.12200 -13.32900 48.68500
H  29.75500 -7.76700 47.38500
H  29.39000 -6.74000 48.81100
H  30.50300 -6.15600 47.49000
H  28.01900 -4.09900 43.29700
H  26.45200 0.04900 43.98700
H  27.68900 0.41000 42.77000
H  28.19700 0.22200 44.44000
Mg 29.97000 59.00800 39.88900
C  27.41600 56.95900 38.55600
C  32.20000 56.40300 38.78200
C  32.67200 61.22600 40.01400
C  27.74300 61.65400 40.22600
N  29.87600 56.85800 38.89400
C  28.69900 56.30400 38.37400
C  29.00900 54.97200 37.59600
C  30.52000 54.74700 38.00900
C  30.85800 56.08400 38.57200
C  30.81800 53.45300 38.86700
C  28.78400 55.16900 36.06200
C  28.12300 53.95600 35.35100
H  26.92400 54.24900 34.41400
N  32.14500 58.74300 39.69400
C  32.81600 57.58600 39.28300
C  34.23100 57.77800 39.39900
C  34.45700 59.19200 39.74200
C  33.06900 59.81400 39.81800
C  35.21700 56.65700 39.15700
C  35.71600 59.82800 39.96600
O  36.81800 59.25100 39.78000
C  35.78700 61.26400 40.36700
N  30.15900 61.14000 40.09400
C  31.39700 61.79900 40.21000
C  31.28900 63.30200 40.27400
C  29.70900 63.33700 40.62900
C  29.11900 61.98100 40.26900
C  32.22000 63.88300 41.37900
C  28.99700 64.59300 40.03600
C  28.42900 65.63000 41.00100
N  27.97000 59.21400 39.69200
C  27.18900 60.32800 39.84200
C  25.85300 59.99000 39.60500
C  25.84100 58.65400 39.11900
C  27.22600 58.26500 39.06500
C  24.68100 60.86300 39.64900
C  25.03700 57.49300 38.63100
O  23.81000 57.37700 38.53600
C  26.05200 56.33900 38.29700
C  25.65500 55.18400 39.21600
O  25.55200 55.18200 40.41200
O  25.42300 54.06400 38.46000
C  24.87700 52.93500 39.23900
H  32.86100 55.60300 38.44000
H  33.46700 61.96900 39.92900
H  27.08300 62.49600 40.44700
H  28.36800 54.15300 37.92100
H  31.22900 54.59700 37.19600
H  29.84700 52.96300 38.94800
H  31.20400 53.72500 39.84900
H  31.62900 52.81900 38.50900
H  29.70900 55.33600 35.51100
H  28.18300 56.05300 35.84700
H  27.83800 53.22700 36.11000
H  28.98400 53.57800 34.80000
H  34.99900 55.66000 39.53800
H  36.18900 56.90900 39.58100
H  35.34700 56.47000 38.09100
H  36.79900 61.55400 40.64800
H  35.04500 61.47600 41.13600
H  35.53000 61.94100 39.55200
H  31.57600 63.57700 39.25900
H  29.55600 63.47200 41.70000
H  32.71000 63.06100 41.90100
H  31.70900 64.48300 42.13200
H  32.97500 64.54100 40.94700
H  28.27500 64.22100 39.30900
H  29.62600 65.11700 39.31800
H  28.56100 66.57700 40.47700
H  29.05600 65.57500 41.89100
H  27.45000 65.23700 41.27500
H  24.90400 61.84900 40.05600
H  23.85300 60.41700 40.20000
H  24.37200 60.97000 38.60900
H  25.88000 56.11500 37.24400
H  24.56700 52.19200 38.50400
H  23.90200 53.22000 39.63400
H  25.61400 52.59600 39.96700

