158

Mg 47.11300 16.58300 28.05500
C  44.88200 16.52700 30.68900
C  49.36200 18.41200 30.14600
C  48.78600 17.48900 25.28700
C  44.63100 15.18100 26.04800
N  47.04200 17.40000 30.14300
C  46.07100 17.18200 31.03900
C  46.44100 17.74400 32.38500
C  47.79300 18.57900 32.10200
C  48.14000 18.00100 30.75200
C  47.74200 20.14900 32.12300
C  46.63100 16.67300 33.45600
C  46.18000 16.90800 34.97900
H  45.79300 18.36500 35.38900
N  48.93200 17.60300 27.76800
C  49.64700 18.26300 28.71800
C  50.74400 18.90600 28.07700
C  50.62800 18.71400 26.65800
C  49.41700 17.89500 26.50400
C  51.89000 19.64800 28.87000
C  51.61400 19.08200 25.57600
O  51.39800 18.90100 24.38900
C  52.83900 19.93200 25.91600
N  46.83200 16.25700 26.03900
C  47.66800 16.70100 25.07000
C  47.17600 16.29800 23.64700
C  45.84000 15.50500 23.96200
C  45.85100 15.48300 25.47200
C  46.95400 17.59300 22.73100
C  45.65100 14.06300 23.37700
C  44.83300 13.98700 22.07900
N  45.15200 15.83600 28.30500
C  44.25200 15.31200 27.36200
C  42.93500 15.06300 27.95900
C  43.10300 15.48900 29.31100
C  44.50800 15.92100 29.45200
C  41.71400 14.38700 27.29700
C  42.46400 15.62000 30.54500
O  41.32600 15.35800 30.97000
C  43.61900 16.21000 31.45900
C  42.97500 17.49700 31.94400
O  42.65300 18.48900 31.31600
O  42.78800 17.40100 33.33100
C  42.11400 18.52700 34.00300
H  49.95700 19.14400 30.69600
H  49.34300 17.72800 24.37900
H  43.82700 14.87400 25.37700
H  45.72900 18.46600 32.78500
H  48.59900 18.32700 32.79100
H  46.84200 20.46200 32.65200
H  48.00100 20.58200 31.15700
H  48.54000 20.49600 32.77900
H  47.68700 16.44800 33.60200
H  46.14200 15.72800 33.22000
H  47.01300 16.67000 35.63900
H  45.37000 16.24000 35.27300
H  52.91500 19.51600 28.52400
H  51.92500 19.32100 29.90900
H  51.76700 20.72800 28.78000
H  53.59700 19.37500 26.46600
H  52.50100 20.74300 26.56200
H  53.05700 20.40400 24.95800
H  47.93100 15.58600 23.31300
H  44.94800 16.06000 23.67200
H  45.91300 17.76400 22.45800
H  47.49500 17.44000 21.79700
H  47.24500 18.51300 23.23900
H  45.21500 13.42800 24.14900
H  46.59500 13.54400 23.21600
H  43.91300 13.41100 22.18400
H  45.45200 13.57100 21.28400
H  44.53400 14.96200 21.69600
H  41.06400 15.11600 26.81400
H  41.26700 13.79900 28.09900
H  42.13200 13.64400 26.61800
H  44.00600 15.57400 32.25500
H  42.83500 19.34400 34.03500
H  42.06400 18.22100 35.04800
H  41.10300 18.80500 33.70400
Mg 49.04600 45.92900 43.04100
C  45.61600 46.23000 42.00100
C  49.00300 42.76600 41.72600
C  52.35300 46.05400 43.08500
C  48.90800 49.40200 43.62500
N  47.49000 44.68900 41.93400
C  46.17600 44.99100 41.66600
C  45.51900 43.73300 41.13500
C  46.51700 42.62000 41.35500
C  47.74800 43.37400 41.78300
C  46.14500 41.45400 42.32600
C  44.88300 43.80400 39.66000
C  45.94100 44.00700 38.48100
H  45.93300 42.98600 37.41800
N  50.52400 44.53500 42.67600
C  50.26500 43.30100 42.09600
C  51.56200 42.61300 42.10100
C  52.51800 43.44600 42.64900
C  51.81900 44.74000 42.85600
C  51.73400 41.21300 41.85600
C  54.04600 43.19700 42.73200
O  54.41800 42.14200 42.24400
C  54.97800 44.24100 43.28500
N  50.42600 47.60600 43.07700
C  51.73600 47.31500 43.18000
C  52.56500 48.66000 43.28000
C  51.42200 49.73100 43.67400
C  50.16200 48.89800 43.51600
C  53.86700 48.66800 44.14100
C  51.46200 51.06600 42.92700
C  52.40400 51.99600 43.54700
N  47.53500 47.49600 43.11700
C  47.63400 48.83500 43.39100
C  46.29500 49.50300 43.27400
C  45.48000 48.44500 42.69100
C  46.30200 47.27600 42.68200
C  45.91500 50.99000 43.34100
C  44.21100 48.19500 42.16900
O  43.32400 48.96100 41.88100
C  44.19800 46.74300 41.66300
C  43.09500 45.90900 42.18200
O  42.11200 45.49800 41.50800
O  43.22300 45.59400 43.50400
C  42.00300 44.92800 44.04400
H  49.04600 41.70600 41.46800
H  53.43500 46.12900 43.21900
H  48.90500 50.46500 43.87700
H  44.60500 43.58200 41.71000
H  46.85500 42.06300 40.48200
H  45.26900 41.64300 42.94600
H  46.83400 41.29100 43.15600
H  45.90800 40.54700 41.77100
H  44.05200 44.50800 39.71500
H  44.32200 42.88500 39.49100
H  46.90200 43.81800 38.95900
H  46.02900 45.02500 38.10100
H  52.44200 41.12400 41.03300
H  50.82500 40.67400 41.58800
H  52.17700 40.72600 42.72500
H  55.16300 45.01900 42.54400
H  55.90800 43.70200 43.46600
H  54.54500 44.67300 44.18600
H  52.84500 48.83900 42.24200
H  51.44300 49.96800 44.73800
H  53.82300 47.84900 44.85900
H  54.07200 49.56400 44.72700
H  54.70400 48.44500 43.48000
H  50.49600 51.57000 42.89800
H  51.75900 50.93200 41.88700
H  52.90800 51.50700 44.38000
H  51.90200 52.88600 43.92500
H  53.11300 52.35900 42.80200
H  44.94400 51.19200 42.88900
H  46.65100 51.61000 42.82900
H  45.85900 51.27200 44.39300
H  44.00100 46.78400 40.59200
H  42.18100 44.84900 45.11700
H  41.83100 43.93700 43.62300
H  41.05900 45.47200 44.07600

