158

Mg 34.53200 2.92500 29.31000
C  32.44000 4.09400 31.98000
C  37.09300 2.67800 31.69100
C  36.51000 1.99800 26.91500
C  31.83500 3.56100 27.13100
N  34.64400 3.18700 31.50800
C  33.67200 3.58500 32.40400
C  34.20100 3.66600 33.84900
C  35.74400 3.58600 33.65500
C  35.83200 3.14600 32.15000
C  36.50300 4.92800 33.93600
C  33.46200 2.64900 34.80900
C  33.82500 2.72600 36.34500
H  34.73100 3.90300 36.96200
N  36.60500 2.39400 29.26300
C  37.46000 2.28700 30.38400
C  38.66600 1.68500 29.90200
C  38.59000 1.55200 28.47500
C  37.16100 1.91400 28.12500
C  39.81200 1.39900 30.86400
C  39.70600 1.14400 27.41600
O  39.53700 1.15500 26.21800
C  40.96200 0.65500 27.90100
N  34.29900 3.03500 27.27000
C  35.25300 2.50600 26.46400
C  34.83300 2.55900 25.01700
C  33.29500 2.95800 25.09600
C  33.15600 3.20000 26.61600
C  35.70500 3.41600 24.12000
C  32.25700 1.87000 24.53000
C  32.02300 0.65500 25.44100
N  32.51500 3.64900 29.52500
C  31.56300 3.84800 28.50500
C  30.35000 4.30700 29.01900
C  30.65300 4.35700 30.40000
C  31.99700 4.09400 30.63500
C  29.11400 4.46600 28.31700
C  30.05000 4.74900 31.60800
O  28.95200 5.22700 31.88200
C  31.18600 4.46500 32.70400
C  31.29300 5.74600 33.48900
O  31.76500 6.79100 33.05900
O  31.24400 5.46400 34.82100
C  31.58200 6.44300 35.89600
H  37.81700 2.51900 32.49300
H  37.06500 1.54900 26.08900
H  31.05900 3.78800 26.39800
H  33.91600 4.66100 34.19200
H  36.08500 2.82900 34.36100
H  37.40500 4.75200 34.52200
H  35.98200 5.64900 34.56500
H  36.76900 5.31000 32.95000
H  34.01100 1.77700 34.45400
H  32.39500 2.60100 34.59000
H  34.30100 1.78400 36.61900
H  33.00100 2.82100 37.05300
H  40.03600 0.34200 30.72200
H  39.43900 1.40300 31.88800
H  40.70600 1.99700 30.68800
H  41.46800 1.29900 28.62000
H  41.68300 0.61700 27.08400
H  40.80200 -0.32200 28.35500
H  35.00600 1.56400 24.60600
H  33.16800 3.87800 24.52600
H  36.54000 3.84800 24.67200
H  35.11900 4.25100 23.73500
H  36.08900 2.93200 23.22200
H  32.62300 1.42300 23.60600
H  31.33100 2.41200 24.33800
H  32.80700 -0.07700 25.24400
H  31.05200 0.30700 25.08700
H  32.06300 0.82800 26.51600
H  29.09500 3.72700 27.51500
H  28.98100 5.47100 27.91500
H  28.29300 4.26100 29.00400
H  30.86400 3.62200 33.31400
H  31.26600 7.42800 35.55200
H  32.66700 6.44600 36.00600
H  31.09100 6.22700 36.84400
Mg 47.46300 16.36800 28.66800
C  45.47000 16.55600 31.44100
C  49.94700 17.70100 30.31600
C  49.13100 16.40900 25.71900
C  44.50900 15.51900 26.79600
N  47.57100 17.20900 30.49200
C  46.72700 17.15100 31.62300
C  47.28800 17.68400 32.99300
C  48.51000 18.43200 32.35600
C  48.71800 17.67000 30.99400
C  48.42100 19.95200 32.10800
C  47.82900 16.49300 33.90100
C  48.43900 16.80500 35.27400
H  48.25700 18.27700 35.73400
N  49.35100 16.93000 28.14100
C  50.25600 17.35600 28.94200
C  51.48400 17.58500 28.25100
C  51.31400 17.03100 26.97500
C  49.90700 16.71600 26.90800
C  52.67900 18.15100 28.99600
C  52.26300 16.96900 25.83100
O  51.89700 16.63500 24.70900
C  53.75000 17.24900 26.02600
N  46.88800 16.08500 26.45500
C  47.76300 16.29900 25.51400
C  47.09000 16.09700 24.14100
C  45.54600 15.71500 24.47400
C  45.62500 15.73800 25.99500
C  47.24600 17.30600 23.29600
C  45.20900 14.19200 24.04500
C  44.06800 14.11200 22.92700
N  45.40700 15.98700 29.00700
C  44.37700 15.67800 28.17700
C  43.21900 15.33200 28.99000
C  43.50800 15.73700 30.30500
C  44.89100 16.12800 30.19200
C  41.95800 14.68800 28.47100
C  43.11800 15.87300 31.64400
O  42.03500 15.71400 32.16200
C  44.29600 16.46900 32.42800
C  43.87100 17.74400 32.84400
O  43.92500 18.75400 32.12300
O  43.40400 17.64900 34.12800
C  42.92200 18.95100 34.60900
H  50.73500 18.12600 30.94100
H  49.52900 16.30500 24.70700
H  43.59100 15.21500 26.29000
H  46.59500 18.24800 33.61700
H  49.38500 18.29900 32.99200
H  47.39200 20.16500 32.39500
H  48.54300 20.20900 31.05600
H  49.12600 20.45500 32.77100
H  48.51900 15.90900 33.29200
H  46.96100 15.88300 34.15200
H  49.51400 16.65700 35.17600
H  48.03900 16.10000 36.00300
H  52.70500 17.95100 30.06700
H  52.71000 19.22600 28.81400
H  53.59100 17.76700 28.54000
H  54.19100 16.88500 25.09800
H  54.25900 16.62700 26.76200
H  54.04300 18.29800 26.09100
H  47.61500 15.25400 23.69200
H  44.75900 16.31700 24.01900
H  46.23200 17.66200 23.11900
H  47.74700 16.92100 22.40800
H  47.83800 18.10700 23.73700
H  44.93400 13.64800 24.94900
H  46.04700 13.67300 23.57900
H  43.53300 15.04100 22.72600
H  43.39600 13.36200 23.34600
H  44.38600 13.55200 22.04800
H  41.14900 14.73800 29.20100
H  42.12000 13.66100 28.14600
H  41.71400 15.36600 27.65300
H  44.51500 15.83000 33.28300
H  43.86200 19.50200 34.65500
H  42.46100 18.81900 35.58800
H  42.25300 19.46900 33.92100

