158

Mg 2.78400 -2.56700 44.80200
C  6.23800 -1.71000 44.51100
C  1.96300 -0.00200 42.72800
C  -0.28600 -3.93300 44.50400
C  3.86600 -5.41400 46.65800
N  4.02900 -1.09500 43.59000
C  5.36300 -0.88200 43.71400
C  5.74700 0.27500 42.83200
C  4.41000 0.91600 42.43000
C  3.36800 -0.03800 43.02300
C  4.11200 2.27700 43.03100
C  6.75700 -0.12500 41.67500
C  7.79500 0.93000 41.39900
H  7.41500 1.77700 40.20700
N  1.03500 -1.98500 43.83200
C  0.90200 -0.86400 43.04000
C  -0.44600 -0.77000 42.52300
C  -1.15300 -1.85700 43.07900
C  -0.16800 -2.66500 43.85000
C  -0.99400 0.31700 41.56900
C  -2.61200 -2.04100 42.96000
O  -3.27400 -1.25200 42.33500
C  -3.38200 -3.09800 43.71000
N  1.80500 -4.45200 45.67200
C  0.56900 -4.79100 45.25800
C  0.25000 -6.22700 45.75000
C  1.64300 -6.71300 46.37400
C  2.50500 -5.52100 46.17300
C  -0.94900 -6.17200 46.74100
C  2.23000 -7.95100 45.59800
C  2.38300 -9.26900 46.38900
N  4.54500 -3.37100 45.47700
C  4.82200 -4.42900 46.29500
C  6.26600 -4.58800 46.54100
C  6.77500 -3.47300 45.95000
C  5.78000 -2.82800 45.25400
C  6.86100 -5.75500 47.24700
C  8.04400 -2.68700 45.78000
O  9.12800 -2.90300 46.22600
C  7.71000 -1.48700 44.86500
C  7.76200 -0.19600 45.64400
O  6.87900 0.07800 46.46100
O  8.74400 0.62100 45.19500
C  8.70000 1.97600 45.73800
H  1.68100 0.92400 42.22200
H  -1.31100 -4.31000 44.47200
H  4.06200 -6.31600 47.24200
H  6.25600 0.95600 43.51400
H  4.29800 0.99700 41.34800
H  3.49500 2.75800 42.27100
H  5.02600 2.74700 43.39300
H  3.56000 2.22100 43.96900
H  6.20800 -0.22100 40.73800
H  7.20900 -1.08300 41.93400
H  8.75100 0.41200 41.32600
H  7.91000 1.60200 42.25000
H  -0.45100 1.26100 41.62200
H  -2.00300 0.62300 41.84300
H  -0.87400 0.00300 40.53200
H  -3.13500 -2.87700 44.74800
H  -3.14900 -4.07900 43.29700
H  -4.44600 -2.87800 43.61400
H  -0.19900 -6.85900 44.98400
H  1.50700 -6.90600 47.43800
H  -1.75600 -6.82400 46.40600
H  -1.35400 -5.16100 46.79200
H  -0.63800 -6.42300 47.75500
H  3.23500 -7.70500 45.25300
H  1.62100 -8.14100 44.71400
H  1.91000 -9.15400 47.36400
H  3.42000 -9.57900 46.51100
H  1.93100 -10.10300 45.85100
H  7.73300 -5.42300 47.81100
H  7.20100 -6.47300 46.50000
H  6.23500 -6.33700 47.92400
H  8.42900 -1.49300 44.04600
H  9.67900 2.16100 46.17800
H  7.93600 2.30500 46.44300
H  8.45200 2.66300 44.92900
Mg 39.85500 8.69000 28.59500
C  41.68300 9.78500 31.42800
C  37.69900 7.04400 30.95300
C  38.20400 7.27600 26.08000
C  42.48200 9.68800 26.61400
N  39.74700 8.42400 30.88400
C  40.50600 9.14700 31.80100
C  39.93700 9.08100 33.21200
C  38.94200 7.86600 33.07400
C  38.76600 7.75000 31.48800
C  39.40000 6.58200 33.77200
C  39.21300 10.37200 33.75200
C  39.60600 10.78900 35.19100
H  39.86800 12.32400 35.40700
N  38.06500 7.37200 28.49700
C  37.40300 6.87000 29.55900
C  36.34200 6.09000 29.09000
C  36.34200 6.20300 27.64600
C  37.58900 6.98500 27.33900
C  35.34300 5.49100 29.97700
C  35.39800 5.55600 26.61800
O  35.44600 5.78500 25.44200
C  34.19300 4.84100 27.11000
N  40.21900 8.60900 26.68100
C  39.31400 8.06100 25.80600
C  39.76900 8.21600 24.35900
C  41.07800 9.06100 24.53800
C  41.29800 9.11300 26.04700
C  40.10500 6.90300 23.53500
C  40.87000 10.47600 23.93700
C  40.05100 11.47800 24.67000
N  41.72800 9.49900 28.84000
C  42.66300 9.93000 27.95900
C  43.82400 10.47900 28.61900
C  43.40900 10.48800 29.98300
C  42.21200 9.76400 30.05400
C  45.07500 10.90500 27.90300
C  43.73100 11.01500 31.22600
O  44.76000 11.65800 31.59300
C  42.74100 10.51600 32.27200
C  43.45800 9.78400 33.38500
O  44.20900 8.85500 33.29700
O  43.25200 10.48700 34.56000
C  43.88700 9.99800 35.77400
H  37.14700 6.55800 31.76100
H  37.57000 6.80600 25.32500
H  43.22500 10.10300 25.93000
H  40.81500 8.89100 33.82900
H  37.95400 8.05200 33.49400
H  40.29600 6.73700 34.37300
H  39.45700 5.74400 33.07800
H  38.63000 6.34600 34.50700
H  38.13600 10.21700 33.67900
H  39.36400 11.12300 32.97600
H  40.52000 10.29900 35.52600
H  38.82300 10.38500 35.83200
H  35.15800 5.97900 30.93400
H  35.37600 4.40300 29.92900
H  34.39200 5.79900 29.54400
H  34.51900 4.09000 27.83000
H  33.57800 4.39200 26.33000
H  33.59300 5.58500 27.63400
H  38.94700 8.77500 23.91100
H  41.93300 8.47500 24.19900
H  41.14600 6.81800 23.22400
H  39.47700 6.95400 22.64500
H  39.98900 5.95800 24.06500
H  40.38000 10.28100 22.98300
H  41.84700 10.85300 23.63500
H  40.27500 11.35800 25.73000
H  38.99400 11.23200 24.57600
H  40.20900 12.50800 24.35100
H  45.73000 11.31700 28.67100
H  44.68600 11.69400 27.26000
H  45.59700 10.12200 27.35300
H  42.12800 11.33800 32.64100
H  43.25200 10.20600 36.63500
H  44.84600 10.49300 35.92300
H  44.05000 8.92200 35.71200

