158

Mg 35.00600 3.07800 30.18000
C  32.69500 3.98300 32.80900
C  37.35300 3.18000 32.45600
C  37.07500 2.62800 27.63100
C  32.29200 3.45300 27.97500
N  34.99400 3.41400 32.37300
C  33.96100 3.60900 33.26100
C  34.41100 3.63900 34.71500
C  35.97000 3.68200 34.54100
C  36.15000 3.45600 33.02900
C  36.76100 4.97100 34.87800
C  33.91200 2.40800 35.46100
C  33.61400 2.56000 36.96200
H  34.34500 3.63900 37.78700
N  36.90400 2.84800 30.03600
C  37.79100 2.81600 31.09400
C  39.11200 2.63300 30.61300
C  39.04600 2.43300 29.19900
C  37.61000 2.58300 28.89000
C  40.25800 2.50900 31.54100
C  40.20200 2.06400 28.16000
O  40.03400 1.91200 26.94000
C  41.61900 1.85000 28.67300
N  34.76900 3.03000 28.07300
C  35.75800 2.79900 27.22100
C  35.25700 2.50900 25.79800
C  33.70100 2.72000 25.88900
C  33.54200 3.09600 27.40400
C  36.02100 3.33100 24.71000
C  32.80700 1.52800 25.50000
C  33.16400 0.15600 26.14700
N  32.99100 3.67100 30.28100
C  31.99800 3.76700 29.34600
C  30.82200 4.29500 29.93500
C  31.06400 4.31000 31.27800
C  32.39300 3.95700 31.47800
C  29.59400 4.57100 29.12900
C  30.35700 4.67500 32.47300
O  29.20700 5.11800 32.68500
C  31.41000 4.40600 33.61100
C  31.53900 5.61900 34.50700
O  31.92500 6.67400 34.13400
O  30.94800 5.36000 35.72000
C  30.65900 6.45100 36.69000
H  38.04300 2.99600 33.28200
H  37.76600 2.42300 26.81100
H  31.49200 3.50000 27.23200
H  34.27400 4.60100 35.21000
H  36.49400 2.97400 35.18400
H  37.76000 4.83500 35.29200
H  36.11800 5.54400 35.54500
H  36.92500 5.56700 33.98000
H  34.60600 1.60600 35.20900
H  32.96500 2.22700 34.95400
H  33.60000 1.62400 37.51900
H  32.56700 2.86200 36.98500
H  40.87100 3.41100 31.53000
H  40.86100 1.66000 31.22000
H  39.86600 2.37300 32.54900
H  42.27800 1.88500 27.80600
H  41.61300 0.85500 29.11800
H  41.93400 2.61200 29.38600
H  35.49800 1.47100 25.56800
H  33.40800 3.52200 25.21200
H  36.65600 4.08900 25.17000
H  35.35900 3.76200 23.95900
H  36.70800 2.59300 24.29700
H  32.89400 1.36600 24.42600
H  31.75000 1.66500 25.72900
H  32.40900 -0.31500 26.77600
H  34.02000 0.36700 26.78700
H  33.44700 -0.58900 25.40400
H  29.55500 3.96300 28.22500
H  29.53700 5.62700 28.86600
H  28.74100 4.37400 29.78000
H  31.05000 3.50800 34.11300
H  31.20700 6.32400 37.62300
H  29.64200 6.45500 37.08100
H  30.79600 7.42700 36.22300
Mg -11.41500 37.47700 43.09000
C  -9.09400 35.04100 42.20300
C  -9.58800 39.78700 41.41100
C  -14.15800 39.52600 43.11800
C  -13.60900 34.77600 44.10400
N  -9.57800 37.37100 41.85000
C  -8.84100 36.26700 41.52800
C  -7.60700 36.51500 40.78500
C  -7.62700 38.10200 40.69400
C  -9.02100 38.48000 41.41200
C  -6.39400 38.78400 41.30400
C  -7.55400 35.83400 39.34300
C  -6.65200 34.70000 39.08400
H  -5.49000 34.94400 38.12600
N  -11.79200 39.40000 42.38900
C  -10.85000 40.24400 41.73800
C  -11.39000 41.59000 41.60300
C  -12.75700 41.49400 42.05800
C  -12.99000 40.13100 42.54900
C  -10.60900 42.76900 40.99900
C  -13.74100 42.63100 42.06300
O  -13.33300 43.69600 41.74100
C  -15.25100 42.47500 42.31900
N  -13.57100 37.11200 43.51500
C  -14.37800 38.22000 43.64800
C  -15.80700 37.86000 44.11100
C  -15.71800 36.29500 44.24200
C  -14.23400 35.98100 43.92300
C  -16.28800 38.61100 45.37400
C  -16.66000 35.43700 43.34900
C  -17.48700 34.38200 44.07900
N  -11.36000 35.41200 43.37800
C  -12.26500 34.42800 43.83900
C  -11.57100 33.13600 43.95900
C  -10.36700 33.34100 43.21600
C  -10.29400 34.69500 42.88800
C  -12.11200 31.80200 44.53100
C  -9.17000 32.69400 42.86800
O  -8.63800 31.62100 43.04700
C  -8.27700 33.76600 42.28900
C  -7.19100 33.97700 43.32600
O  -7.32900 34.38300 44.47100
O  -5.91600 33.84300 42.76900
C  -4.76100 34.33800 43.57200
H  -8.98000 40.59100 40.99000
H  -14.93300 40.22800 43.43500
H  -14.29600 33.95500 44.32400
H  -6.84400 36.29800 41.53300
H  -7.67200 38.46300 39.66700
H  -5.89300 39.30400 40.48800
H  -5.64200 38.09300 41.68400
H  -6.72100 39.59100 41.96000
H  -7.36100 36.66000 38.65900
H  -8.58300 35.58500 39.08700
H  -7.16400 33.77500 38.81800
H  -6.20900 34.46200 40.05100
H  -11.15200 43.20000 40.15800
H  -9.65300 42.47300 40.56800
H  -10.34000 43.46900 41.79000
H  -15.74000 43.41000 42.04400
H  -15.48200 42.18800 43.34500
H  -15.61000 41.74300 41.59600
H  -16.40400 38.21300 43.27000
H  -15.84000 36.02500 45.29100
H  -15.57600 39.34300 45.75600
H  -16.60900 38.18700 46.32500
H  -17.16400 39.22500 45.16500
H  -16.08700 34.79000 42.68500
H  -17.32200 36.05400 42.74200
H  -17.44300 33.40700 43.59400
H  -18.54300 34.64900 44.03800
H  -17.19500 34.34000 45.12800
H  -12.54000 31.13600 43.78100
H  -12.93100 32.01400 45.21900
H  -11.32000 31.21700 44.99900
H  -7.84800 33.40600 41.35300
H  -3.82500 34.46600 43.02900
H  -4.53600 33.53300 44.27200
H  -4.95300 35.28000 44.08500

