158

Mg 24.23200 -4.68900 45.62300
C  26.64000 -2.53100 43.89400
C  21.94800 -3.66900 43.25400
C  22.46400 -7.22800 46.53700
C  27.04600 -5.89900 47.56600
N  24.39500 -3.31700 43.72200
C  25.37700 -2.46000 43.36600
C  24.94900 -1.58300 42.15500
C  23.40900 -1.67600 42.16300
C  23.19700 -2.90800 43.10400
C  22.69800 -0.51100 42.74700
C  25.59200 -2.16000 40.77600
C  26.29400 -1.06300 39.94700
H  26.04800 -1.19500 38.37000
N  22.41300 -5.35600 45.03700
C  21.61600 -4.79100 44.04100
C  20.38900 -5.60300 43.84800
C  20.54400 -6.63200 44.84400
C  21.81400 -6.45100 45.53100
C  19.27300 -5.21100 42.82500
C  19.54300 -7.80400 44.98800
O  18.60000 -7.77400 44.27000
C  19.71800 -8.91000 46.05500
N  24.67100 -6.27600 47.07100
C  23.75400 -7.23200 47.15400
C  24.22400 -8.38300 48.10400
C  25.64500 -7.91900 48.52500
C  25.85700 -6.64200 47.59500
C  23.21700 -8.72500 49.27300
C  26.79500 -8.98300 48.48200
C  27.76400 -9.09200 49.67000
N  26.32700 -4.21900 45.79700
C  27.25200 -4.79500 46.67700
C  28.49800 -4.13800 46.41500
C  28.35900 -3.21900 45.30900
C  27.01600 -3.32200 44.96500
C  29.80700 -4.35400 47.21600
C  29.01000 -2.23900 44.43500
O  30.15000 -1.77200 44.41000
C  27.88500 -1.76800 43.44700
C  27.81900 -0.32500 43.66100
O  27.68300 0.26100 44.75200
O  28.10200 0.27100 42.50200
C  27.83600 1.75400 42.41300
H  21.21100 -3.46200 42.47500
H  21.95400 -8.15500 46.80300
H  27.88400 -6.33100 48.11600
H  25.26100 -0.55100 42.31000
H  23.05200 -1.85600 41.14900
H  21.62300 -0.58400 42.58000
H  23.12300 0.35000 42.23200
H  22.73300 -0.53100 43.83600
H  24.75000 -2.43500 40.14100
H  26.25000 -2.99300 41.02000
H  27.35600 -1.08600 40.18900
H  26.08200 -0.06900 40.33900
H  19.67500 -5.37000 41.82400
H  18.98100 -4.17000 42.95600
H  18.42800 -5.89900 42.85300
H  19.77500 -8.43600 47.03500
H  20.66200 -9.36200 45.74900
H  18.82700 -9.53800 46.07900
H  24.41100 -9.25700 47.47900
H  25.58100 -7.47800 49.52000
H  23.72400 -8.54800 50.22100
H  22.93600 -9.77800 49.23200
H  22.29600 -8.14300 49.23500
H  27.37400 -8.69400 47.60500
H  26.24700 -9.91300 48.33300
H  28.73000 -8.97700 49.17800
H  27.60900 -10.02800 50.20600
H  27.60000 -8.31700 50.41900
H  30.49300 -3.54600 46.96000
H  30.32000 -5.27400 46.93200
H  29.67500 -4.34300 48.29700
H  28.14000 -1.94100 42.40200
H  26.84000 1.96400 42.80400
H  27.80100 2.01300 41.35500
H  28.61800 2.19100 43.03400
Mg 35.49800 48.83300 25.92400
C  36.10300 46.90300 28.79600
C  34.55500 51.41100 27.97000
C  34.56000 50.44800 23.41100
C  36.23000 45.83200 24.01600
N  35.25100 49.08700 28.10800
C  35.64500 48.20500 29.05100
C  35.48400 48.75500 30.48800
C  34.87200 50.17600 30.19700
C  34.92100 50.28600 28.65600
C  33.44100 50.44000 30.74800
C  36.92500 48.78400 31.19500
C  36.95900 48.40400 32.70200
H  35.65600 48.57100 33.42800
N  34.66400 50.68000 25.73100
C  34.43000 51.62000 26.64200
C  34.01700 52.86100 25.99900
C  34.07000 52.62200 24.62500
C  34.42200 51.20700 24.55900
C  33.69600 54.16000 26.75900
C  33.88500 53.61300 23.47800
O  34.02300 53.31400 22.24100
C  33.36800 55.00400 23.79800
N  35.32100 48.16400 24.05900
C  34.89200 49.12100 23.13300
C  35.31000 48.63200 21.71200
C  35.91100 47.22900 22.00700
C  35.82200 47.06700 23.43500
C  34.17000 48.66000 20.70900
C  37.36900 47.27700 21.42800
C  38.68000 47.74000 22.13400
N  36.27800 46.76300 26.25000
C  36.49700 45.76300 25.40000
C  37.05700 44.68400 26.20000
C  36.97700 45.05500 27.51600
C  36.42100 46.31400 27.51900
C  37.61500 43.39900 25.68800
C  37.14600 44.67100 28.85500
O  37.48800 43.65700 29.35600
C  36.48000 45.80700 29.73500
C  35.35900 45.14300 30.42300
O  34.33800 44.62900 29.87400
O  35.49700 45.16200 31.77600
C  34.37200 44.70000 32.50400
H  34.26300 52.36200 28.42100
H  34.25500 50.93500 22.48200
H  36.63400 45.10600 23.30800
H  34.80500 48.09500 31.02700
H  35.48600 50.99700 30.56800
H  33.43700 51.36800 31.32000
H  33.05900 49.70600 31.45800
H  32.73300 50.70400 29.96300
H  37.32500 49.78900 31.05300
H  37.68200 48.18900 30.68400
H  37.66800 48.99300 33.28400
H  37.17300 47.34100 32.81300
H  33.52000 54.02800 27.82700
H  32.74000 54.51700 26.37600
H  34.40400 54.98500 26.68200
H  32.40600 54.90800 24.30200
H  33.20900 55.56500 22.87700
H  33.94800 55.59700 24.50500
H  36.09100 49.32700 21.40200
H  35.41000 46.39800 21.50900
H  33.88700 47.66600 20.36300
H  34.63300 49.15600 19.85500
H  33.35200 49.28400 21.06900
H  37.40100 47.71600 20.43100
H  37.52000 46.21900 21.21200
H  38.44300 47.83100 23.19400
H  39.09600 48.66600 21.73700
H  39.45800 46.98800 22.00500
H  37.35400 42.55900 26.33200
H  38.69200 43.43700 25.52500
H  37.18100 43.16800 24.71500
H  37.18100 46.19000 30.47600
H  33.41900 45.06300 32.12200
H  34.40700 45.16500 33.49000
H  34.38700 43.61400 32.59300

