158

Mg 48.07600 25.50000 28.69400
C  48.63400 27.82900 31.18900
C  47.12900 23.20600 31.03300
C  47.27600 23.31300 26.15700
C  49.60600 27.57400 26.42500
N  47.86000 25.54200 30.86000
C  48.12500 26.58900 31.68600
C  47.72100 26.32500 33.11900
C  47.30000 24.76600 33.11600
C  47.46500 24.47300 31.62100
C  48.08600 23.83400 34.01500
C  46.60300 27.30700 33.72800
C  45.74200 26.89300 34.94900
H  45.64400 27.83700 36.16400
N  47.35400 23.48800 28.60800
C  47.06400 22.69200 29.66100
C  46.65200 21.36700 29.28100
C  46.58700 21.49100 27.88600
C  47.05300 22.83200 27.45900
C  46.33300 20.17700 30.21600
C  46.21300 20.45100 26.85800
O  46.12200 20.68200 25.68200
C  46.04500 19.00800 27.33200
N  48.57300 25.40100 26.59400
C  48.01400 24.45700 25.82000
C  48.31100 24.79700 24.34100
C  48.97300 26.18600 24.38500
C  49.09300 26.38300 25.90200
C  49.15600 23.83800 23.57600
C  48.02300 27.32000 23.78000
C  48.12500 27.56000 22.24000
N  48.97200 27.35600 28.73700
C  49.57800 28.03400 27.72600
C  50.01300 29.26700 28.22500
C  49.69400 29.30200 29.59700
C  49.06200 28.07700 29.85100
C  50.66200 30.34200 27.44700
C  49.79600 30.07200 30.78800
O  50.11900 31.19500 31.04600
C  49.09700 29.17100 31.91100
C  50.06500 28.97100 33.01700
O  51.17400 28.35900 32.91100
O  49.63800 29.47300 34.17200
C  50.40300 29.23000 35.42000
H  46.86700 22.46900 31.79600
H  46.87400 22.73400 25.32300
H  50.03200 28.34700 25.78200
H  48.66900 26.34800 33.65700
H  46.22100 24.76800 33.27500
H  47.44000 23.18900 34.61100
H  48.87000 24.30000 34.61200
H  48.73600 23.17600 33.43800
H  45.97400 27.61600 32.89300
H  47.05600 28.24300 34.05500
H  46.30800 26.04000 35.32300
H  44.74000 26.62100 34.61500
H  45.91400 20.42800 31.19000
H  47.23900 19.61300 30.44000
H  45.54000 19.65400 29.68200
H  45.05900 18.88400 27.78000
H  46.82600 18.62100 27.98700
H  46.08300 18.32600 26.48300
H  47.34600 24.78700 23.83600
H  49.97700 26.24300 23.96500
H  48.69000 23.56100 22.63100
H  49.23400 22.87600 24.08200
H  50.13400 24.25100 23.33000
H  48.12200 28.31100 24.22200
H  47.01300 27.01800 24.05700
H  49.04700 27.07200 21.92300
H  48.14600 28.61800 21.98100
H  47.31000 27.11700 21.66700
H  50.07000 30.52300 26.55000
H  51.63400 29.94700 27.15300
H  50.75800 31.25600 28.03400
H  48.20300 29.58400 32.37800
H  50.45200 30.18700 35.93900
H  51.41200 28.82000 35.36100
H  49.77900 28.66600 36.11300
Mg 48.93500 35.30100 27.21500
C  47.01500 33.87400 29.94600
C  49.20800 38.10000 29.23800
C  49.87300 37.07600 24.50000
C  48.13800 32.51500 25.27700
N  48.23700 35.86100 29.39800
C  47.59600 35.06500 30.27800
C  47.86100 35.63300 31.64800
C  48.14700 37.14900 31.35700
C  48.60100 37.03000 29.89100
C  46.98300 38.08300 31.58100
C  49.11300 34.93600 32.35500
C  48.93200 34.68500 33.86000
H  49.75200 35.48700 34.81000
N  49.61900 37.23400 26.94300
C  49.64400 38.26700 27.94700
C  50.25200 39.45100 27.35300
C  50.56600 39.17300 25.91600
C  50.03300 37.78000 25.77000
C  50.57900 40.75600 28.17300
C  51.19200 40.03200 24.93600
O  51.31300 39.64000 23.79900
C  51.76400 41.47600 25.25600
N  49.00900 34.82100 25.24400
C  49.46300 35.79100 24.30000
C  49.65100 35.06800 22.89600
C  49.25200 33.57500 23.28800
C  48.71300 33.65700 24.71800
C  48.95500 35.61900 21.65100
C  50.57300 32.67300 23.27000
C  50.37400 31.30500 22.54900
N  47.86900 33.44200 27.55700
C  47.62900 32.41700 26.64400
C  46.99700 31.34500 27.38400
C  46.60100 31.88100 28.59500
C  47.25100 33.17100 28.69800
C  46.70100 29.91800 26.88400
C  45.87200 31.63200 29.79000
O  45.11600 30.71300 30.11300
C  45.98000 32.99700 30.68500
C  46.43900 32.53000 32.02300
O  47.46800 31.86500 32.23900
O  45.51500 32.89900 32.98500
C  45.89800 32.51300 34.39600
H  49.37500 38.95900 29.89100
H  50.39100 37.42400 23.60300
H  48.03200 31.58400 24.71500
H  46.91100 35.49600 32.16400
H  49.01900 37.45500 31.93500
H  47.18700 39.12800 31.81300
H  46.45100 37.66600 32.43700
H  46.37400 38.08100 30.67700
H  50.02000 35.52400 32.21800
H  49.33100 34.00800 31.82700
H  49.02900 33.61600 34.05200
H  47.90600 34.99300 34.06100
H  50.15400 41.62900 27.67800
H  51.63100 41.00300 28.31600
H  50.03100 40.90500 29.10400
H  52.12100 41.95000 24.34200
H  52.52400 41.46500 26.03800
H  50.90300 42.12600 25.41200
H  50.72800 35.18700 22.77300
H  48.47300 33.15000 22.65500
H  49.53200 36.41400 21.17900
H  48.07400 36.13900 22.02900
H  48.66300 34.95900 20.83400
H  50.96700 32.39600 24.24800
H  51.36200 33.15200 22.69000
H  50.93700 31.30400 21.61600
H  49.32500 31.07300 22.36300
H  50.72100 30.42300 23.08600
H  45.85100 29.93900 26.20100
H  46.45700 29.31200 27.75600
H  47.59800 29.60000 26.35200
H  44.99700 33.42300 30.88500
H  46.35800 33.36400 34.89800
H  46.60200 31.68200 34.44100
H  44.98600 32.26400 34.93700

