158

Mg 46.77200 25.66700 28.07100
C  47.90000 27.58900 30.66500
C  46.33400 23.01200 30.30600
C  46.36100 23.63600 25.36700
C  48.03900 28.06400 25.82000
N  47.09800 25.26700 30.25600
C  47.39600 26.29400 31.10000
C  47.15000 25.95800 32.58500
C  46.87800 24.44200 32.46200
C  46.76600 24.23200 30.92900
C  47.99300 23.53600 33.10200
C  45.97800 26.68700 33.31200
C  46.38700 27.58900 34.56300
H  45.39300 27.58100 35.70900
N  46.27300 23.65600 27.87400
C  46.24100 22.69100 28.91700
C  45.80500 21.45400 28.36100
C  45.81200 21.62300 26.90400
C  46.20100 23.03200 26.62300
C  45.52000 20.18000 29.16000
C  45.48000 20.62900 25.77800
O  45.73700 20.83400 24.59400
C  44.96700 19.25500 26.07500
N  47.13400 25.74900 25.89300
C  46.80800 24.86200 24.97200
C  46.92700 25.31300 23.56600
C  47.36800 26.82200 23.73600
C  47.55600 26.90200 25.28800
C  47.82100 24.36800 22.65500
C  46.45900 27.92000 23.11900
C  47.27000 29.06800 22.30600
N  47.85900 27.38700 28.12200
C  48.27900 28.28900 27.16400
C  48.99900 29.40900 27.80100
C  48.81900 29.20800 29.16800
C  48.10800 27.97400 29.30100
C  49.65200 30.56400 27.03100
C  48.98500 29.86200 30.41900
O  49.44600 30.94200 30.67800
C  48.33700 28.82700 31.49200
C  49.38800 28.53600 32.45700
O  50.45300 28.03700 32.21100
O  49.07900 29.12500 33.63800
C  50.02900 29.06000 34.68100
H  46.21900 22.19900 31.02600
H  46.06400 23.03000 24.50800
H  48.39200 28.80500 25.09900
H  48.10700 26.10900 33.08500
H  45.90300 24.19300 32.88100
H  47.55100 22.84900 33.82300
H  48.71600 24.12500 33.66500
H  48.44400 22.94900 32.30200
H  45.23500 25.96600 33.65100
H  45.55300 27.31400 32.52800
H  46.56700 28.63300 34.30500
H  47.36500 27.16300 34.78800
H  45.70800 20.21800 30.23300
H  46.07100 19.36500 28.69100
H  44.46300 19.97400 28.98900
H  45.81700 18.80000 26.58300
H  44.61000 18.73100 25.18800
H  44.07600 19.28000 26.70300
H  45.90500 25.36900 23.19100
H  48.40700 26.84900 23.40600
H  48.80700 24.36100 23.11800
H  47.97800 24.85900 21.69500
H  47.51200 23.33000 22.53000
H  45.99100 28.38000 23.98900
H  45.66700 27.57700 22.45400
H  46.80700 29.39000 21.37300
H  48.32400 28.80100 22.22800
H  47.13700 29.88200 23.01800
H  49.01500 31.40400 26.75600
H  50.34100 30.17100 26.28300
H  50.34900 30.87000 27.81100
H  47.51400 29.39300 31.92900
H  49.62400 28.33200 35.38500
H  50.12200 30.03800 35.15300
H  51.03300 28.67800 34.49500
Mg 30.35100 57.69000 40.49800
C  27.74400 55.80900 38.96200
C  32.64200 55.46400 39.04100
C  32.81800 59.80200 41.12000
C  27.84200 60.10900 41.22400
N  30.14900 55.90000 38.99400
C  28.94500 55.26900 38.65200
C  29.26700 53.76800 38.22800
C  30.87700 53.69600 38.21000
C  31.27300 55.10900 38.84100
C  31.54300 52.49400 39.01700
C  28.61100 53.42400 36.81600
C  28.55000 54.62400 35.79700
H  29.09900 54.36300 34.42200
N  32.50500 57.66200 40.22300
C  33.20200 56.59800 39.68200
C  34.59200 57.03700 39.65200
C  34.73800 58.33200 40.14600
C  33.38100 58.63000 40.51800
C  35.65800 56.11500 39.10700
C  35.98000 59.10600 40.32400
O  37.10200 58.62900 40.15900
C  35.85700 60.55900 40.66800
N  30.30500 59.74600 41.09900
C  31.55000 60.30000 41.39200
C  31.19300 61.76400 41.87700
C  29.71600 61.69300 42.27200
C  29.18600 60.49000 41.46800
C  32.01100 62.12000 43.12200
C  28.95100 62.96300 41.85500
C  28.42200 63.75900 43.00800
N  28.19300 57.91600 40.24200
C  27.32400 58.90500 40.73500
C  26.01900 58.40400 40.62100
C  26.12600 57.21500 39.93300
C  27.48000 56.96700 39.69000
C  24.74600 59.11300 41.13900
C  25.33300 56.22800 39.32600
O  24.06500 56.02800 39.27800
C  26.32400 55.17100 38.70300
C  26.15400 53.89800 39.42200
O  26.48400 53.63400 40.59200
O  25.60400 52.94000 38.62100
C  25.26200 51.67800 39.15700
H  33.30600 54.66300 38.71100
H  33.58300 60.51700 41.43000
H  27.16000 60.80700 41.71500
H  28.97000 53.08600 39.02400
H  31.19900 53.67700 37.16800
H  32.35600 52.81700 39.66800
H  31.86600 51.79700 38.24300
H  30.81200 51.99800 39.65600
H  27.57000 53.13100 36.95300
H  29.01200 52.48700 36.43100
H  29.04900 55.50000 36.20900
H  27.49500 54.89900 35.81400
H  35.88700 56.48600 38.10800
H  35.36500 55.07100 39.00100
H  36.63100 56.16200 39.59600
H  36.83300 60.98700 40.44300
H  35.57800 60.59600 41.72100
H  35.10100 61.08500 40.08600
H  31.47500 62.47800 41.10400
H  29.52500 61.54300 43.33400
H  32.52200 62.99700 42.72300
H  32.73200 61.37400 43.45300
H  31.44800 62.34500 44.02800
H  28.02700 62.81700 41.29400
H  29.56100 63.67500 41.29900
H  27.46900 64.28600 42.95900
H  29.07000 64.61900 43.17900
H  28.46300 63.35100 44.01700
H  24.11500 58.45600 41.73800
H  24.19700 59.61900 40.34500
H  25.07800 59.90400 41.81200
H  26.05800 54.99800 37.66000
H  25.95500 50.85200 38.99400
H  24.30300 51.35200 38.75200
H  25.07000 51.83900 40.21700

