158

Mg 36.27100 2.51400 30.12500
C  33.86900 3.46000 32.68400
C  38.68000 2.77100 32.40100
C  38.46400 1.92900 27.62200
C  33.54500 2.87200 27.88000
N  36.15000 2.92000 32.35500
C  35.16700 3.20200 33.18900
C  35.54100 3.06300 34.58600
C  37.08700 3.14200 34.50600
C  37.35300 2.94500 32.96200
C  37.82400 4.37600 35.10100
C  34.90200 1.78900 35.22200
C  34.57600 1.84200 36.68700
H  35.05100 3.00400 37.52100
N  38.24500 2.21800 30.08600
C  39.09700 2.36900 31.12500
C  40.38100 1.93400 30.78600
C  40.35600 1.66200 29.34300
C  38.96300 1.97400 28.93100
C  41.50500 1.70000 31.73200
C  41.52000 1.24500 28.37400
O  41.26800 0.84400 27.23800
C  42.88200 1.19700 28.89100
N  35.99600 2.19700 27.99900
C  37.04700 1.95500 27.17100
C  36.54400 1.70100 25.83500
C  34.93800 2.07500 25.86800
C  34.80100 2.40500 27.32100
C  37.40600 2.36800 24.82000
C  33.93300 0.99800 25.54300
C  32.74900 1.46700 24.71300
N  34.18000 3.14900 30.16000
C  33.26400 3.22600 29.17200
C  31.97000 3.77200 29.66900
C  32.19000 3.85400 31.05300
C  33.49500 3.45200 31.30200
C  30.66900 3.87800 28.94400
C  31.56300 4.06100 32.41300
O  30.42200 4.39800 32.64000
C  32.67200 3.78200 33.45400
C  32.75000 4.90000 34.39000
O  33.17300 5.99100 34.04200
O  32.29600 4.56100 35.63400
C  31.81600 5.65000 36.44300
H  39.48800 2.92500 33.12000
H  39.20900 1.94900 26.82400
H  32.67700 2.99900 27.23100
H  35.22200 3.96700 35.10500
H  37.49900 2.28500 35.03800
H  37.15300 5.23500 35.13700
H  38.74100 4.64300 34.57500
H  38.16000 4.17900 36.11900
H  35.68000 1.03300 35.11600
H  34.04300 1.43200 34.65400
H  34.98100 0.93200 37.12900
H  33.53600 1.61300 36.91900
H  42.39000 2.28800 31.49200
H  41.72300 0.63400 31.80000
H  41.29700 2.00500 32.75800
H  42.94900 0.77300 29.89300
H  43.29000 2.19600 29.04500
H  43.47200 0.68200 28.13200
H  36.68100 0.62500 25.73300
H  34.82100 2.94900 25.22700
H  36.94200 3.11000 24.17100
H  37.87000 1.55400 24.26300
H  38.15400 3.01000 25.28500
H  33.58600 0.54200 26.47100
H  34.41900 0.22900 24.94300
H  32.95800 2.29400 24.03500
H  31.89200 1.71400 25.34000
H  32.56200 0.64300 24.02500
H  29.99500 4.45300 29.58000
H  30.31900 2.88000 28.68100
H  30.91200 4.55300 28.12400
H  32.38100 2.87900 33.99200
H  32.67700 5.98000 37.02400
H  30.96500 5.29700 37.02500
H  31.51500 6.54800 35.90300
Mg 9.42700 48.91700 24.76500
C  7.01600 49.63200 27.06200
C  11.84200 50.36100 26.97400
C  11.88700 48.13600 22.55200
C  7.01700 48.54000 22.35900
N  9.43000 49.81000 26.81400
C  8.25800 49.98800 27.61900
C  8.63900 50.56900 28.99100
C  10.16300 50.80700 28.89400
C  10.49400 50.35800 27.47600
C  10.62900 52.28300 29.29400
C  8.02100 49.85300 30.26100
C  8.86600 49.81600 31.61600
H  9.12500 48.38100 32.29500
N  11.61500 49.18500 24.79700
C  12.37600 49.76500 25.76500
C  13.79500 49.61600 25.36100
C  13.75500 48.84200 24.10300
C  12.36300 48.60900 23.81900
C  14.94000 49.97000 26.20300
C  14.93900 48.39300 23.25200
O  14.70300 47.74800 22.25300
C  16.36100 48.63600 23.63600
N  9.50100 48.43400 22.74000
C  10.60900 48.06100 22.06000
C  10.18000 47.65400 20.63700
C  8.65100 48.10400 20.51800
C  8.36200 48.30400 21.96600
C  11.03700 48.05800 19.42800
C  7.80800 47.07600 19.82900
C  7.34700 47.37500 18.41000
N  7.38000 48.92800 24.66400
C  6.51300 48.82700 23.58600
C  5.17400 48.86100 24.08800
C  5.35900 49.14300 25.44600
C  6.70500 49.28300 25.72700
C  3.87800 48.55600 23.31800
C  4.60100 49.37400 26.69600
O  3.42500 49.29500 27.01400
C  5.63400 49.79700 27.79600
C  5.50900 48.83200 28.86400
O  5.88900 47.65300 28.77500
O  4.87700 49.39900 29.96900
C  4.54100 48.37800 30.96300
H  12.56200 50.91800 27.57700
H  12.54600 47.90200 21.71400
H  6.21700 48.54500 21.61500
H  8.19700 51.56300 29.05700
H  10.64900 50.07900 29.54300
H  11.44100 52.08000 29.99300
H  9.73300 52.80100 29.63500
H  11.19000 52.76600 28.49400
H  7.75500 48.85100 29.92400
H  7.19500 50.52300 30.50000
H  8.27700 50.26000 32.41900
H  9.81900 50.34400 31.57900
H  14.68800 50.38200 27.18100
H  15.57800 50.73300 25.75700
H  15.51900 49.07400 26.42300
H  16.60500 48.34400 24.65700
H  16.56900 49.69000 23.45200
H  17.05700 48.09000 22.99900
H  10.16200 46.57800 20.80900
H  8.62000 49.08800 20.05000
H  12.02400 48.39800 19.74000
H  10.60700 48.86200 18.82900
H  11.14500 47.18600 18.78300
H  7.01200 46.78300 20.51300
H  8.42100 46.22200 19.54000
H  7.00500 48.40900 18.45200
H  6.58400 46.63700 18.16200
H  8.10100 47.41000 17.62400
H  3.55000 47.55000 23.58100
H  4.00500 48.64300 22.23900
H  3.16500 49.35200 23.53300
H  5.45700 50.81600 28.14200
H  3.88100 47.62900 30.52600
H  4.02200 48.94300 31.73700
H  5.45900 47.93600 31.35100

