158

Mg 1.38200 8.13800 26.99300
C  1.97600 9.77400 29.81800
C  1.33900 5.09700 28.68400
C  0.97800 6.43500 24.02900
C  2.01300 10.95800 25.12500
N  1.56100 7.54700 29.07900
C  1.60100 8.43600 30.10700
C  1.60100 7.73200 31.45600
C  1.45900 6.22900 31.06400
C  1.40300 6.26900 29.52400
C  2.62500 5.34500 31.63400
C  0.43300 8.28300 32.31500
C  0.06000 7.60300 33.65300
H  1.07400 7.57400 34.84200
N  1.05400 6.05700 26.41000
C  1.14600 5.01700 27.23800
C  0.85400 3.77200 26.55200
C  0.67800 4.19300 25.19800
C  0.85000 5.62800 25.18200
C  0.77700 2.38900 27.27800
C  0.34600 3.39700 24.01000
O  0.21800 3.89700 22.89400
C  0.25600 1.85900 24.13500
N  1.55200 8.64600 24.88300
C  1.26100 7.80100 23.87300
C  1.37600 8.50300 22.53800
C  1.45800 10.03800 22.92600
C  1.68200 9.86400 24.38400
C  2.66100 8.04800 21.83100
C  0.17400 10.93200 22.53100
C  -1.16600 10.21200 22.64600
N  1.98000 10.03600 27.36500
C  2.20800 11.09000 26.51900
C  2.50800 12.26800 27.29500
C  2.52900 11.80500 28.63300
C  2.11000 10.46300 28.58000
C  2.85900 13.68900 26.83800
C  2.74800 12.13600 30.00700
O  2.96000 13.25200 30.44800
C  2.25100 10.92700 30.85500
C  3.35300 10.64700 31.85000
O  4.18000 9.74700 31.73600
O  3.34500 11.60700 32.85200
C  4.21700 11.25500 33.94100
H  1.19400 4.16500 29.23400
H  0.93500 5.98400 23.03500
H  2.35900 11.83800 24.57900
H  2.50500 7.97300 32.01400
H  0.52300 5.77300 31.38800
H  3.21900 5.08100 30.75900
H  2.21500 4.42000 32.04000
H  3.33400 5.87100 32.27400
H  -0.52100 8.28100 31.78800
H  0.57300 9.27400 32.74800
H  -0.10200 6.54700 33.43800
H  -0.92700 7.92400 33.98500
H  1.47400 1.61800 26.95000
H  -0.26800 2.16300 27.06900
H  0.90600 2.40500 28.36100
H  -0.60800 1.57000 24.73300
H  1.14100 1.46700 24.63500
H  0.19900 1.30800 23.19600
H  0.63500 8.29000 21.76800
H  2.34900 10.54300 22.55200
H  3.39200 8.85400 21.76600
H  2.55300 7.92300 20.75400
H  3.02700 7.16500 22.35600
H  0.21600 11.16300 21.46600
H  0.17500 11.85500 23.11000
H  -1.02800 9.14600 22.82500
H  -1.81700 10.33700 21.78000
H  -1.72500 10.58300 23.50500
H  3.47600 14.24000 27.54800
H  1.94200 14.25500 26.67400
H  3.36900 13.63700 25.87700
H  1.34000 11.17000 31.40400
H  3.70300 10.52700 34.56900
H  4.34800 12.16200 34.53200
H  5.16300 10.83700 33.59700
Mg 10.01800 48.94900 26.04800
C  7.90000 49.02700 28.81500
C  12.54200 49.97000 28.04900
C  11.97800 49.02700 23.24600
C  7.23400 48.47800 24.00500
N  10.12600 49.52600 28.13800
C  9.24300 49.24200 29.16700
C  9.77900 49.51800 30.59900
C  11.27200 49.98700 30.30500
C  11.30700 49.82900 28.75900
C  11.61500 51.43000 30.81300
C  9.83400 48.25600 31.56600
C  9.17100 48.44100 32.97600
H  9.44000 47.43900 34.08000
N  11.98300 49.46400 25.68700
C  12.87700 49.87400 26.66100
C  14.24700 49.99700 26.10800
C  14.04300 49.67800 24.75200
C  12.62700 49.32900 24.49200
C  15.43000 50.34000 26.99000
C  15.10900 49.67700 23.64000
O  14.90300 49.45600 22.46500
C  16.50600 50.17200 24.00300
N  9.60700 48.90200 23.87800
C  10.61500 48.79500 22.96700
C  10.09200 48.59400 21.59800
C  8.62800 48.12200 21.90700
C  8.46500 48.50800 23.36700
C  10.25500 49.78400 20.60000
C  8.24300 46.64300 21.50300
C  8.62000 45.53600 22.58400
N  7.96900 48.72500 26.30100
C  6.98700 48.62100 25.37600
C  5.71800 48.49100 26.05700
C  5.99200 48.68600 27.39500
C  7.39600 48.87700 27.47700
C  4.32600 48.12200 25.41000
C  5.40800 48.70000 28.64300
O  4.24000 48.61700 29.08600
C  6.64200 48.75900 29.62800
C  6.65400 47.44200 30.29000
O  7.24600 46.47800 29.95100
O  6.00600 47.53900 31.50500
C  6.04200 46.39700 32.41200
H  13.37500 50.14400 28.73300
H  12.52200 49.09000 22.30100
H  6.37300 48.13000 23.43000
H  9.12900 50.21900 31.12200
H  12.14000 49.48100 30.72900
H  12.39100 51.30100 31.56700
H  10.84600 51.87700 31.44400
H  11.94400 52.09800 30.01800
H  10.87700 48.01900 31.77700
H  9.40600 47.34700 31.14200
H  8.09300 48.56300 32.87600
H  9.51200 49.41000 33.34000
H  16.19100 49.56900 26.86200
H  15.31700 50.60800 28.04100
H  15.84800 51.31100 26.72500
H  17.16800 50.27700 23.14300
H  16.98700 49.33400 24.50800
H  16.54700 51.11800 24.54200
H  10.64000 47.68200 21.36200
H  7.93000 48.78600 21.39700
H  9.21500 50.11100 20.61700
H  10.46000 49.32000 19.63500
H  11.03500 50.48900 20.88400
H  8.85400 46.37500 20.64100
H  7.19700 46.48500 21.24500
H  8.53100 45.83200 23.62900
H  9.63800 45.18000 22.42600
H  7.96400 44.70400 22.33000
H  3.45400 47.99100 26.05000
H  4.50300 47.09200 25.09800
H  4.25000 48.72100 24.50300
H  6.64000 49.61200 30.30600
H  6.04200 46.84200 33.40700
H  6.87500 45.69300 32.43100
H  5.17400 45.75100 32.28100

