158

Mg 0.70700 8.57400 25.87900
C  1.68900 10.24600 28.71700
C  1.18300 5.61400 27.55700
C  0.32700 6.91000 22.95200
C  1.04100 11.59800 23.99800
N  1.31700 7.98900 27.88400
C  1.49500 8.85300 28.88600
C  1.55000 8.16200 30.27100
C  1.58500 6.67600 29.85100
C  1.33400 6.71900 28.32400
C  2.85800 5.90900 30.26300
C  0.37400 8.46900 31.34800
C  0.67600 8.35200 32.87800
H  1.79100 7.38400 33.28200
N  0.52400 6.53700 25.38900
C  0.74000 5.47700 26.22300
C  0.49700 4.28600 25.50900
C  0.26200 4.55900 24.06100
C  0.33400 6.04800 24.08800
C  0.57700 2.89300 26.21100
C  0.04500 3.62200 22.86300
O  -0.21300 3.97100 21.71200
C  0.05400 2.22800 23.06000
N  0.72500 9.19600 23.78300
C  0.35000 8.28100 22.85400
C  0.41000 8.86200 21.50900
C  0.15300 10.36500 21.88300
C  0.66400 10.43500 23.33300
C  1.68300 8.57900 20.71000
C  -1.35800 10.83800 21.78000
C  -1.67400 11.90800 20.66600
N  1.30300 10.56200 26.28300
C  1.31800 11.69800 25.40300
C  1.68400 12.91300 26.17800
C  1.85300 12.30700 27.56900
C  1.63800 10.94300 27.49400
C  1.73000 14.31200 25.80400
C  2.16200 12.64300 28.86200
O  2.60200 13.70700 29.30200
C  1.92100 11.35900 29.77000
C  3.02200 11.11300 30.82200
O  4.02900 10.45300 30.59900
O  2.68500 11.72100 31.98900
C  3.61500 11.51200 33.01300
H  1.22900 4.71400 28.17300
H  0.25300 6.39700 21.99000
H  1.11100 12.55400 23.47400
H  2.45900 8.40100 30.82300
H  0.72800 6.13400 30.25000
H  3.48600 6.54300 30.88900
H  3.60900 5.75800 29.48800
H  2.68800 4.92000 30.68700
H  -0.51700 7.86900 31.16000
H  -0.01900 9.47300 31.19300
H  -0.26600 8.05000 33.33500
H  1.00200 9.36700 33.10700
H  0.97700 2.15600 25.51500
H  -0.43600 2.57200 26.45500
H  1.29400 2.98400 27.02700
H  -0.80500 2.01900 23.69800
H  1.00000 1.93000 23.51400
H  -0.06200 1.72200 22.10100
H  -0.48700 8.40000 21.09800
H  0.76800 10.87100 21.13900
H  2.36000 7.95500 21.29300
H  2.30300 9.37200 20.29100
H  1.27900 7.87800 19.98000
H  -1.74600 11.27500 22.70000
H  -1.92000 9.92500 21.58200
H  -0.79000 12.25400 20.13100
H  -2.02700 12.79500 21.19300
H  -2.55500 11.63600 20.08500
H  2.08100 14.45700 24.78300
H  2.29500 14.95800 26.47500
H  0.69100 14.63300 25.73200
H  1.04900 11.76200 30.28400
H  3.98000 12.50200 33.28400
H  4.53500 10.96000 32.81600
H  3.18000 11.14700 33.94300
Mg 35.58100 2.40700 30.14900
C  33.04900 3.14800 32.34100
C  37.86200 2.73700 32.65900
C  37.95100 1.83100 27.80300
C  33.22600 2.55600 27.45000
N  35.46600 2.93500 32.22800
C  34.32600 2.96200 32.94300
C  34.50700 2.93100 34.47700
C  36.06700 3.22500 34.49700
C  36.55700 2.94600 33.06500
C  36.39200 4.65600 34.87200
C  33.98400 1.66700 35.26500
C  33.60700 1.89200 36.79800
H  34.40700 2.93300 37.66400
N  37.59200 2.24900 30.29500
C  38.35100 2.45400 31.43300
C  39.77100 2.21300 31.06200
C  39.79200 1.80900 29.70900
C  38.40200 1.96100 29.22900
C  40.91400 2.19000 32.06900
C  40.94300 1.43700 28.74200
O  40.77400 0.90800 27.59400
C  42.38100 1.49200 29.18400
N  35.62400 2.39500 27.86700
C  36.76600 1.99800 27.23000
C  36.44900 1.69000 25.74700
C  34.96400 2.01700 25.65300
C  34.53800 2.42600 27.06300
C  37.35600 2.38300 24.74300
C  34.08500 0.88900 24.96500
C  33.58700 -0.27400 25.83600
N  33.50000 2.67900 29.91100
C  32.70100 2.73700 28.72600
C  31.31500 3.01600 29.15800
C  31.39800 3.25500 30.56100
C  32.73600 2.98800 30.94800
C  30.09400 3.23000 28.29700
C  30.73100 3.64800 31.79300
O  29.58100 4.06800 31.95200
C  31.74900 3.38400 33.01700
C  31.73500 4.62200 33.84700
O  32.35800 5.70900 33.69600
O  30.85100 4.40400 34.87200
C  31.06400 5.15900 36.13700
H  38.65900 2.93100 33.37900
H  38.67600 1.61300 27.01600
H  32.44400 2.48500 26.69100
H  33.98600 3.79800 34.88300
H  36.70500 2.61100 35.13300
H  37.16500 4.80900 35.62500
H  35.49600 5.17000 35.22100
H  36.61600 5.26000 33.99300
H  34.73000 0.87500 35.32500
H  33.14200 1.28300 34.68800
H  33.83300 0.94700 37.29300
H  32.53600 2.09500 36.79600
H  40.53400 2.17400 33.09100
H  41.57900 3.04100 31.92200
H  41.63100 1.37200 32.00500
H  42.97100 1.63300 28.27800
H  42.55800 0.52300 29.65100
H  42.55100 2.33800 29.85000
H  36.59300 0.61600 25.63600
H  34.87000 2.95700 25.11000
H  36.83500 2.94100 23.96400
H  37.98800 1.66300 24.22400
H  37.97500 3.03100 25.36300
H  34.67100 0.50100 24.13100
H  33.21000 1.32900 24.48500
H  34.05500 -1.15100 25.39000
H  32.49800 -0.31200 25.84600
H  33.91300 -0.14300 26.86800
H  29.17400 2.76800 28.65500
H  30.18000 2.72800 27.33400
H  30.01200 4.28900 28.05000
H  31.38300 2.59300 33.67200
H  30.82200 6.21900 36.06000
H  32.04400 4.92500 36.55400
H  30.38400 4.76000 36.89000

