158

Mg 0.83800 8.75900 26.83100
C  1.43500 11.01700 29.30600
C  0.65600 6.16600 29.17200
C  0.61000 6.47600 24.38700
C  1.14600 11.34100 24.47400
N  0.93300 8.60300 28.93000
C  1.19700 9.70300 29.78100
C  1.04700 9.27200 31.23100
C  1.19900 7.69300 31.14000
C  0.83900 7.48200 29.70200
C  2.61800 7.21200 31.66100
C  -0.34000 9.64300 31.84800
C  -0.55000 9.35400 33.32200
H  0.69800 9.05200 34.13700
N  0.61800 6.65400 26.75100
C  0.50800 5.76700 27.82200
C  0.19000 4.41100 27.33700
C  0.20900 4.46500 25.90500
C  0.51800 5.83100 25.62500
C  -0.02900 3.31500 28.24700
C  -0.17400 3.33100 24.86200
O  -0.25600 3.50100 23.61100
C  -0.55200 1.85900 25.30000
N  0.90400 8.91600 24.74200
C  0.70500 7.82100 23.97800
C  0.73300 8.25200 22.47600
C  0.44900 9.81300 22.56500
C  0.94200 10.06900 24.00400
C  1.99900 7.85100 21.73700
C  -1.10400 10.15900 22.50900
C  -1.52000 11.35100 21.56700
N  1.24500 10.78700 26.77600
C  1.38700 11.70600 25.80300
C  1.70300 12.97100 26.32400
C  1.82300 12.77800 27.68700
C  1.42400 11.43400 27.92100
C  1.90900 14.19000 25.41600
C  2.08700 13.38100 29.04200
O  2.42900 14.53800 29.31600
C  1.76600 12.27400 30.09700
C  2.92900 12.06000 30.97000
O  4.00200 11.46400 30.79600
O  2.61000 12.65200 32.21300
C  3.66900 12.50800 33.17900
H  0.62700 5.36500 29.91300
H  0.39400 5.92000 23.47200
H  1.08700 12.12700 23.71900
H  1.91100 9.72700 31.71500
H  0.49500 7.20000 31.81000
H  3.00800 7.69100 32.55900
H  3.36600 7.26600 30.87100
H  2.47400 6.20900 32.06400
H  -1.05000 8.96200 31.37900
H  -0.63400 10.63900 31.51700
H  -1.07900 8.40100 33.29300
H  -1.10000 10.17600 33.78000
H  -1.06600 3.23700 28.57400
H  0.57500 3.35000 29.15300
H  0.25300 2.42600 27.68200
H  0.33100 1.48600 25.81800
H  -0.71000 1.30700 24.37300
H  -1.44200 1.94200 25.92400
H  -0.14000 7.68400 22.15500
H  0.98800 10.42900 21.84400
H  2.75100 7.45500 22.41900
H  2.38900 8.71500 21.19900
H  1.69000 7.05600 21.05800
H  -1.33600 10.51000 23.51400
H  -1.68600 9.28100 22.23100
H  -2.14400 10.98900 20.75000
H  -0.70000 11.95000 21.17200
H  -2.02300 12.16300 22.09300
H  1.76200 15.12300 25.96000
H  1.12500 14.30700 24.66800
H  2.92200 14.18500 25.01300
H  0.86400 12.41000 30.69400
H  3.58400 13.15000 34.05600
H  4.59800 12.80100 32.68900
H  3.86600 11.48100 33.48600
Mg -9.90500 39.49000 39.63100
C  -8.78000 36.35000 38.80000
C  -6.82700 40.78300 38.76100
C  -11.30600 42.49700 39.61100
C  -13.12000 37.96900 40.24400
N  -8.02300 38.60000 39.01200
C  -7.75800 37.31700 38.71200
C  -6.20600 37.07200 38.47000
C  -5.59500 38.48700 38.86300
C  -6.88000 39.37000 38.82300
C  -4.77700 38.63400 40.12900
C  -5.94000 36.63300 36.97900
C  -6.72000 37.40800 35.95300
H  -7.60400 36.71900 34.86700
N  -9.15500 41.41600 39.23100
C  -7.87600 41.69100 38.85600
C  -7.74200 43.13800 38.79700
C  -9.02400 43.66200 39.14000
C  -9.90500 42.52000 39.36600
C  -6.39700 43.84300 38.60500
C  -9.43700 45.10600 39.21000
O  -8.60900 45.95200 38.85400
C  -10.78100 45.62300 39.62800
N  -11.94000 40.16800 39.74100
C  -12.23300 41.49500 39.86900
C  -13.72100 41.65200 40.18300
C  -14.26500 40.17200 40.34900
C  -13.02200 39.38300 40.12900
C  -14.11600 42.59700 41.36700
C  -15.41100 39.82000 39.40000
C  -16.65000 39.43100 40.09800
N  -10.78600 37.49200 39.67000
C  -12.06200 37.10100 39.95900
C  -12.13700 35.67500 39.84100
C  -10.87400 35.30200 39.30500
C  -10.08000 36.48900 39.19600
C  -13.35600 34.78000 40.06900
C  -10.04500 34.20900 38.96000
O  -10.35900 33.02000 39.02700
C  -8.67300 34.86200 38.52700
C  -7.57100 34.18700 39.25900
O  -7.41400 34.12000 40.44500
O  -6.68900 33.67700 38.36900
C  -5.42600 33.16600 38.95300
H  -5.89300 41.30800 38.55100
H  -11.72400 43.50000 39.72100
H  -14.09200 37.58100 40.55300
H  -5.87100 36.29200 39.15300
H  -4.98900 38.72900 37.99100
H  -4.12100 39.50100 40.04300
H  -4.26500 37.72600 40.44800
H  -5.35900 38.88700 41.01500
H  -6.26200 35.60700 36.80100
H  -4.87800 36.79200 36.79100
H  -6.07500 37.94700 35.25900
H  -7.33000 38.14100 36.48100
H  -6.48000 44.93000 38.64400
H  -5.92700 43.49200 37.68700
H  -5.89500 43.53400 39.52200
H  -11.10800 45.21000 40.58200
H  -11.62200 45.54400 38.93900
H  -10.73400 46.68900 39.85100
H  -14.00400 42.05500 39.21000
H  -14.40700 39.96800 41.41100
H  -14.92600 43.31500 41.23800
H  -13.22400 43.11600 41.71500
H  -14.50300 41.97400 42.17400
H  -15.08700 39.02800 38.72400
H  -15.62100 40.68300 38.76800
H  -16.62700 39.71300 41.15100
H  -16.86500 38.37100 39.96600
H  -17.41700 39.98100 39.55200
H  -14.07700 35.14900 40.79900
H  -12.96100 33.80400 40.35100
H  -13.95000 34.75100 39.15500
H  -8.57800 34.55300 37.48600
H  -5.63100 32.15600 39.30900
H  -4.95800 33.72900 39.76000
H  -4.69900 33.23900 38.14400

