158

Mg 8.43400 3.35000 27.68700
C  10.01000 2.06200 30.42600
C  6.44400 5.28500 29.79500
C  6.58600 4.29400 24.96600
C  10.26400 1.06200 25.66800
N  8.24800 3.57300 29.83900
C  8.98900 2.93600 30.81300
C  8.57100 3.43400 32.27800
C  7.45300 4.48300 31.93600
C  7.36600 4.48000 30.42100
C  6.08800 4.19300 32.60400
C  9.81600 3.98800 33.03400
C  9.52100 5.11800 34.10700
H  10.20200 5.02400 35.47800
N  6.78000 4.53800 27.38400
C  6.17900 5.32200 28.35900
C  5.18900 6.27900 27.71600
C  5.28300 6.02200 26.33200
C  6.24000 4.89500 26.16700
C  4.35200 7.29300 28.41900
C  4.57500 6.75800 25.19800
O  4.68500 6.45900 23.99300
C  3.61400 7.86200 25.50000
N  8.25300 2.56700 25.68400
C  7.49200 3.29500 24.71200
C  7.97100 2.92300 23.28900
C  9.25600 2.12900 23.52000
C  9.25100 1.90700 25.03600
C  6.79600 2.13700 22.49200
C  10.57800 2.83000 22.97100
C  11.28100 3.90100 23.86000
N  9.72300 1.71000 27.97000
C  10.40000 0.94500 27.04700
C  11.43200 0.23400 27.70700
C  11.29700 0.60300 29.12600
C  10.26400 1.49900 29.18900
C  12.47100 -0.68600 26.96900
C  11.83500 0.43400 30.43800
O  12.71800 -0.34900 30.80100
C  11.04900 1.38700 31.36500
C  10.38700 0.62300 32.43300
O  9.47300 -0.18100 32.26200
O  11.07000 0.72400 33.59900
C  10.42100 0.08800 34.72600
H  5.76500 5.89000 30.40000
H  6.21800 4.77000 24.05500
H  10.96300 0.45800 25.08700
H  8.20900 2.51100 32.73100
H  7.76400 5.49700 32.18900
H  5.49300 3.47300 32.04200
H  5.74400 5.22600 32.55900
H  6.11600 3.79500 33.61800
H  10.52600 4.34300 32.28800
H  10.35900 3.23200 33.60000
H  8.44400 5.02700 34.25300
H  9.73900 6.00000 33.50500
H  3.27800 7.24100 28.24200
H  4.67600 8.29600 28.14200
H  4.44400 7.16700 29.49800
H  2.71500 7.43000 25.94000
H  3.37400 8.16200 24.48100
H  4.14800 8.65400 26.02600
H  8.14100 3.85500 22.74900
H  9.11200 1.19900 22.97100
H  5.88400 2.08100 23.08700
H  7.02600 1.12900 22.14600
H  6.51600 2.76700 21.64800
H  10.28300 3.28000 22.02300
H  11.35200 2.08700 22.77500
H  10.70800 4.04600 24.77600
H  11.27000 4.87000 23.36200
H  12.27000 3.51900 24.11400
H  12.77800 -0.09600 26.10600
H  11.93300 -1.61200 26.76700
H  13.25700 -0.91500 27.68800
H  11.76000 2.08300 31.81000
H  9.90900 0.90900 35.22800
H  11.23300 -0.27300 35.35700
H  9.76200 -0.74500 34.48200
Mg 46.26100 3.67400 48.22400
C  44.57500 6.62900 47.18000
C  43.37900 1.92000 47.62800
C  48.09200 0.94600 48.35300
C  49.22300 5.74100 48.31000
N  44.26400 4.23600 47.44100
C  43.78900 5.51500 47.05000
C  42.31200 5.47100 46.64700
C  41.95700 3.98800 46.99500
C  43.26500 3.32900 47.39500
C  40.73400 3.85700 47.94800
C  41.94900 5.99500 45.22500
C  40.59800 6.86500 45.21500
H  39.66100 6.77900 44.07800
N  45.79600 1.64700 48.05400
C  44.60200 1.14000 47.78800
C  44.67200 -0.27100 47.70100
C  46.05800 -0.64500 47.84000
C  46.76000 0.66800 48.13500
C  43.40400 -1.11800 47.27000
C  46.57900 -2.03000 47.54400
O  45.88300 -2.93100 47.12100
C  48.02300 -2.29200 47.88200
N  48.42200 3.47500 48.33300
C  48.83900 2.20000 48.38200
C  50.37800 2.19900 48.68600
C  50.78900 3.70800 48.44500
C  49.39900 4.37200 48.38700
C  50.67800 1.64500 50.10900
C  51.40500 4.05400 47.01300
C  52.92200 4.08600 46.96300
N  46.79200 5.73900 48.01800
C  48.04400 6.44700 48.03600
C  47.78300 7.90000 47.87600
C  46.43700 7.91800 47.47200
C  45.91900 6.64500 47.56800
C  48.88300 8.86500 47.75200
C  45.42300 8.86200 46.98400
O  45.52100 10.03800 46.71100
C  44.22900 8.02400 46.85000
C  43.16600 8.52800 47.73700
O  43.07600 8.35800 48.97500
O  42.20100 9.22000 47.02700
C  41.21500 10.02200 47.74000
H  42.45300 1.41800 47.34200
H  48.74600 0.07800 48.45300
H  50.08600 6.40300 48.40500
H  41.88300 6.01800 47.48700
H  41.73700 3.36000 46.13200
H  40.24800 4.83000 48.02100
H  40.99600 3.43400 48.91800
H  40.07800 3.18700 47.39200
H  41.65900 5.23200 44.50300
H  42.77800 6.53000 44.76300
H  40.89400 7.90900 45.31300
H  40.05900 6.64900 46.13800
H  43.82100 -1.90100 46.63600
H  42.66200 -0.59700 46.66400
H  42.94900 -1.63600 48.11300
H  48.66600 -1.66100 47.26800
H  48.27400 -3.34300 47.73600
H  48.20900 -2.10000 48.93900
H  50.90300 1.58200 47.95700
H  51.25000 4.24200 49.27500
H  49.79000 1.32900 50.65500
H  51.35100 2.28900 50.67600
H  51.34000 0.79400 49.94600
H  51.05200 4.97800 46.55600
H  51.10700 3.25000 46.33800
H  53.13200 3.49000 46.07500
H  53.32300 3.52800 47.81000
H  53.24900 5.12500 46.98800
H  49.47100 8.62800 46.86600
H  49.57300 8.61600 48.55900
H  48.49600 9.88000 47.84400
H  43.76100 8.15200 45.87400
H  40.43200 9.38200 48.14800
H  40.95000 10.69400 46.92400
H  41.72900 10.54600 48.54500

