158

Mg 30.36200 58.08600 40.33400
C  27.56600 56.16100 39.33700
C  32.46100 55.68800 39.48700
C  32.89600 60.43300 40.21400
C  28.05500 60.87700 40.57800
N  29.97600 56.15300 39.54400
C  28.81900 55.51500 39.22900
C  29.09300 54.04800 38.97800
C  30.61900 53.90300 39.22900
C  31.08400 55.39000 39.40600
C  31.05400 52.78600 40.25100
C  28.54600 53.50300 37.61500
C  29.32400 53.89900 36.33300
H  28.44500 54.35400 35.23300
N  32.35900 58.06200 39.90100
C  33.07000 56.96900 39.53600
C  34.43900 57.24800 39.26200
C  34.59400 58.62100 39.59500
C  33.25800 59.12600 39.93700
C  35.39400 56.18500 38.72700
C  35.96100 59.27800 39.59800
O  36.96900 58.57300 39.37700
C  36.14700 60.70500 39.91400
N  30.46700 60.42600 40.32400
C  31.66700 61.04400 40.43400
C  31.48800 62.50200 40.70800
C  29.94600 62.63300 41.03600
C  29.38700 61.24900 40.59400
C  32.42500 63.22100 41.76100
C  29.22100 63.76800 40.24800
C  27.95100 64.42900 40.76300
N  28.21600 58.40300 40.34100
C  27.45400 59.57700 40.40400
C  26.06400 59.19500 40.44400
C  26.04600 57.88000 40.06500
C  27.37600 57.45600 39.85200
C  25.02100 60.12800 40.71200
C  25.19500 56.76000 39.74900
O  23.94900 56.64500 39.72900
C  26.10800 55.59500 39.18800
C  25.79700 54.26200 39.80300
O  26.43900 53.64700 40.65200
O  24.92900 53.60700 38.97100
C  24.62300 52.18600 39.31000
H  33.09100 54.81300 39.30700
H  33.71000 61.16100 40.18300
H  27.32400 61.67600 40.72300
H  28.54000 53.47300 39.72100
H  31.00400 53.50500 38.29000
H  30.43900 51.90300 40.07800
H  30.85800 53.17800 41.24900
H  32.09900 52.48400 40.18300
H  27.56500 53.97000 37.53300
H  28.39000 52.44100 37.80400
H  29.95300 53.06400 36.02500
H  30.14100 54.58300 36.56400
H  36.04500 56.43900 37.89000
H  34.97900 55.23800 38.38200
H  35.85900 55.74500 39.60900
H  35.72300 60.96300 40.88500
H  35.62500 61.14100 39.06300
H  37.21600 60.91300 39.95300
H  31.69500 62.98600 39.75400
H  29.62700 62.68800 42.07700
H  31.89400 63.56200 42.65000
H  32.85500 64.10500 41.29000
H  33.17600 62.51700 42.11900
H  29.11600 63.36100 39.24200
H  29.96000 64.53000 39.99700
H  28.34700 65.37800 41.12500
H  27.49900 63.98700 41.65100
H  27.27200 64.58100 39.92400
H  25.05200 60.94700 39.99300
H  24.92000 60.57400 41.70200
H  24.18000 59.47500 40.47700
H  25.71700 55.50200 38.17500
H  25.22900 51.64600 38.58200
H  23.59600 52.02600 38.98200
H  24.87800 51.93400 40.33900
Mg 27.18000 50.21100 27.51600
C  24.95900 51.33100 30.10600
C  29.44800 49.45800 30.04000
C  29.43700 49.89700 25.23500
C  24.80500 51.51600 25.12800
N  27.16400 50.41600 29.76200
C  26.11600 50.72400 30.60000
C  26.44600 50.55800 32.07000
C  27.96800 50.17100 32.03300
C  28.25200 50.08000 30.55100
C  28.97000 51.18000 32.76400
C  25.46400 49.43200 32.68600
C  24.78400 49.76200 34.02800
H  24.93800 48.73000 35.17400
N  29.13100 49.52000 27.60600
C  29.86500 49.21100 28.72100
C  31.19600 48.86800 28.23700
C  31.30000 49.14400 26.85800
C  29.96300 49.53900 26.49400
C  32.29800 48.42900 29.22900
C  32.50200 49.21800 25.94700
O  32.41700 49.74800 24.84300
C  33.85200 48.70500 26.40700
N  27.15600 50.82700 25.53600
C  28.15300 50.24600 24.78500
C  27.82400 50.40200 23.30300
C  26.33900 50.81400 23.26700
C  26.08000 51.03300 24.71300
C  28.76300 51.38200 22.60000
C  25.43000 49.76200 22.54900
C  24.62600 50.32500 21.36700
N  25.24900 51.16700 27.54900
C  24.45700 51.68200 26.52500
C  23.30300 52.35200 27.03300
C  23.48700 52.20400 28.44700
C  24.65700 51.50000 28.73200
C  22.20100 52.95100 26.25500
C  22.85500 52.51600 29.70400
O  21.77900 53.10900 29.91700
C  23.80400 51.92300 30.85400
C  24.26300 53.18500 31.58000
O  25.26800 53.83500 31.26400
O  23.54200 53.44900 32.72600
C  24.06900 54.54200 33.48200
H  30.05900 49.00600 30.82500
H  30.12700 49.52200 24.47700
H  24.05100 51.78400 24.38400
H  26.35600 51.50600 32.60100
H  28.04100 49.13400 32.36100
H  29.79900 51.39800 32.09100
H  29.34500 50.77000 33.70200
H  28.54000 52.16200 32.95900
H  25.91700 48.44100 32.69700
H  24.63800 49.14600 32.03400
H  23.73700 49.91300 33.76700
H  25.21600 50.71400 34.33600
H  32.49000 47.37500 29.02700
H  32.09700 48.41700 30.30000
H  33.14500 49.11000 29.14800
H  34.53800 48.67900 25.56100
H  33.65900 47.71400 26.81700
H  34.07500 49.34600 27.26000
H  27.91700 49.38400 22.92600
H  26.23200 51.82600 22.87600
H  28.35800 52.18600 21.98600
H  29.28900 50.67400 21.95900
H  29.50000 51.78100 23.29800
H  24.66900 49.28600 23.16600
H  26.08400 48.96900 22.18700
H  24.96700 51.33100 21.12500
H  23.53800 50.25800 21.40000
H  24.95400 49.73000 20.51500
H  21.55600 53.63300 26.80900
H  21.58300 52.23400 25.71600
H  22.59300 53.64200 25.50800
H  23.25700 51.23000 31.49400
H  23.50400 54.80400 34.37600
H  24.22700 55.46800 32.93000
H  24.99800 54.14100 33.88800

