158

Mg 45.10500 4.06000 47.00800
C  43.26500 7.12600 46.51300
C  42.37000 2.49600 45.91500
C  46.93500 1.29000 47.01700
C  48.06400 6.06800 46.96100
N  43.02100 4.74000 46.44400
C  42.50400 6.01300 46.39100
C  41.00300 5.99600 46.13000
C  40.75600 4.48700 45.93000
C  42.12100 3.87900 45.99400
C  39.91100 3.77600 47.11600
C  40.53200 6.85100 44.86000
C  41.45500 6.94600 43.57200
H  40.69000 6.80700 42.22900
N  44.66200 2.11300 46.75000
C  43.46000 1.65100 46.28900
C  43.56100 0.18300 46.15900
C  44.87800 -0.23200 46.33500
C  45.62800 1.05800 46.67200
C  42.44700 -0.69200 45.65300
C  45.48500 -1.66100 46.39400
O  44.78700 -2.61000 46.07600
C  46.94700 -2.01800 46.75800
N  47.17100 3.73100 46.86100
C  47.62400 2.46500 47.03800
C  49.16700 2.39600 47.04900
C  49.58400 3.93000 47.09900
C  48.20600 4.67500 46.88600
C  49.93900 1.58700 48.17800
C  50.68100 4.41200 46.12700
C  51.76100 5.29100 46.66800
N  45.59400 6.13300 46.88900
C  46.83000 6.75000 46.88600
C  46.61900 8.18400 46.98600
C  45.26100 8.38400 46.90500
C  44.64600 7.16300 46.75300
C  47.70100 9.22800 47.09700
C  44.19700 9.36500 46.87700
O  44.36700 10.59200 46.83700
C  42.81300 8.60000 46.67000
C  42.02100 8.70500 47.88600
O  41.99700 7.96700 48.82200
O  41.20900 9.82100 47.79000
C  40.19200 9.96100 48.83600
H  41.44400 2.05100 45.54300
H  47.69100 0.50200 46.98800
H  48.94200 6.71600 47.01400
H  40.57500 6.39500 47.05000
H  40.32000 4.21700 44.96800
H  39.38900 4.57000 47.65000
H  40.58800 3.15700 47.70400
H  39.18700 3.21800 46.52400
H  40.40000 7.87900 45.19600
H  39.58100 6.42700 44.53700
H  42.18000 6.13300 43.61300
H  41.96800 7.90400 43.48200
H  41.50500 -0.14600 45.70800
H  42.39200 -1.55600 46.31500
H  42.72200 -1.01600 44.64900
H  46.83700 -3.09600 46.87600
H  47.13300 -1.60200 47.74900
H  47.71500 -1.89700 45.99400
H  49.54200 1.99100 46.10900
H  49.91300 4.09300 48.12500
H  50.33400 0.68200 47.71600
H  49.14500 1.27800 48.85800
H  50.76000 2.04900 48.72700
H  50.08300 4.97100 45.40600
H  51.11800 3.53700 45.64600
H  51.73400 6.21300 46.08600
H  52.73700 4.81600 46.57300
H  51.59200 5.66200 47.67900
H  47.43600 9.61400 48.08100
H  47.65400 10.06700 46.40300
H  48.70100 8.80100 47.03000
H  42.25600 8.98700 45.81700
H  40.21200 9.33000 49.72400
H  39.29000 9.70200 48.28100
H  40.21800 10.99300 49.18800
Mg 26.39400 50.11900 26.71100
C  24.36500 51.38700 29.29100
C  28.58500 48.98700 29.13500
C  28.62900 49.22600 24.21900
C  24.38900 51.55100 24.39100
N  26.40800 50.26800 29.00200
C  25.34400 50.60600 29.81300
C  25.57100 50.06400 31.23200
C  27.04200 49.50800 31.17300
C  27.38300 49.58400 29.69300
C  28.06400 50.22800 32.02900
C  24.54800 49.09600 31.68000
C  24.02900 49.29500 33.10900
H  24.94500 49.01000 34.28000
N  28.33100 49.33800 26.68600
C  29.05000 48.91900 27.77600
C  30.35800 48.44700 27.35700
C  30.39000 48.42300 25.94900
C  29.06900 48.97400 25.57900
C  31.45500 48.19100 28.32000
C  31.50700 48.00300 25.00600
O  31.49100 48.18400 23.78900
C  32.68100 47.35900 25.54700
N  26.53200 50.35400 24.61800
C  27.48100 49.92400 23.80100
C  27.12700 50.17300 22.31500
C  25.72600 50.74500 22.41200
C  25.49200 50.86100 23.91000
C  28.19100 51.04900 21.61400
C  24.58500 49.97700 21.58600
C  23.94500 50.79500 20.48400
N  24.79500 51.22400 26.76500
C  24.11200 51.83000 25.75400
C  23.04700 52.64400 26.29100
C  23.09200 52.43300 27.66300
C  24.17100 51.60200 27.93000
C  22.17000 53.43100 25.36500
C  22.44200 52.75100 28.93100
O  21.41000 53.38700 29.17600
C  23.26800 52.06200 30.05300
C  23.57300 53.16800 31.03700
O  24.60200 53.79100 31.05200
O  22.56500 53.23500 31.92300
C  22.91800 54.13500 33.04000
H  29.24900 48.50300 29.85400
H  29.22200 48.97100 23.33900
H  23.65900 52.01100 23.72200
H  25.51200 50.97400 31.82900
H  26.99400 48.48800 31.55500
H  28.85600 50.75200 31.49300
H  28.61300 49.48200 32.60400
H  27.55800 50.85900 32.76000
H  25.01300 48.11000 31.69300
H  23.63100 49.17800 31.09700
H  23.18600 48.61900 33.25200
H  23.74800 50.34800 33.14000
H  31.62300 47.11800 28.41200
H  31.18600 48.40900 29.35400
H  32.27300 48.81800 27.96600
H  33.41900 48.13800 25.73800
H  33.02100 46.65600 24.78600
H  32.32800 46.70400 26.34400
H  27.00000 49.26400 21.72700
H  25.80200 51.80600 22.17400
H  28.97100 51.16400 22.36700
H  27.84600 52.02400 21.26900
H  28.55600 50.42500 20.79800
H  23.85700 49.71200 22.35200
H  24.98600 49.11300 21.05700
H  22.91900 50.82700 20.85100
H  24.11200 50.34100 19.50700
H  24.35300 51.80500 20.44500
H  21.51400 52.74900 24.82500
H  22.66900 54.09200 24.65600
H  21.58500 54.00800 26.08200
H  22.65100 51.34800 30.59800
H  22.86600 55.16400 32.68500
H  23.92800 54.00100 33.42800
H  22.25800 53.82000 33.84900

