158

Mg 24.14400 -4.15100 46.24900
C  25.96200 -1.49100 44.96800
C  21.39900 -3.11100 44.61600
C  22.75300 -7.13100 47.09600
C  27.26700 -5.45800 47.56200
N  23.84100 -2.50900 44.85600
C  24.64700 -1.49800 44.48400
C  23.92900 -0.61300 43.47200
C  22.37900 -0.94200 43.78900
C  22.55400 -2.25400 44.49000
C  21.65600 0.15900 44.61300
C  24.36500 -0.94900 41.99800
C  24.89000 0.22600 41.19700
H  24.93800 0.06100 39.66600
N  22.32700 -5.03600 45.84400
C  21.30000 -4.47200 45.13500
C  20.13000 -5.33000 45.08700
C  20.44200 -6.46200 45.91900
C  21.89100 -6.25900 46.30200
C  18.88500 -4.98900 44.31600
C  19.55500 -7.58500 46.35000
O  18.44400 -7.53200 45.95800
C  19.84500 -8.81700 47.17400
N  24.88100 -6.06200 47.31100
C  24.08100 -7.11300 47.53100
C  24.82000 -8.25500 48.27400
C  26.35200 -7.67600 48.30700
C  26.15200 -6.28500 47.75000
C  24.25200 -8.82800 49.65800
C  27.35300 -8.41400 47.36200
C  28.62700 -8.92300 48.02800
N  26.21100 -3.58800 46.44200
C  27.37700 -4.16700 46.95900
C  28.43700 -3.18300 46.88700
C  27.99200 -2.22000 46.01800
C  26.62500 -2.48500 45.75300
C  29.67100 -3.19100 47.54100
C  28.37000 -1.07200 45.29600
O  29.45500 -0.56900 45.17300
C  27.11600 -0.55000 44.45800
C  26.70400 0.79100 44.87900
O  26.47500 1.15400 46.01100
O  26.90900 1.62100 43.77000
C  26.75000 3.01400 43.96200
H  20.43700 -2.65700 44.37200
H  22.39700 -8.11900 47.39700
H  28.20300 -5.82300 47.98800
H  24.06700 0.44700 43.68800
H  21.80900 -1.03100 42.86500
H  22.22600 1.07600 44.46300
H  21.60900 -0.17200 45.65000
H  20.66900 0.48000 44.28000
H  23.62500 -1.34600 41.30300
H  25.16300 -1.68800 42.05300
H  25.89200 0.40500 41.58700
H  24.26100 1.08600 41.42600
H  18.36500 -5.77900 43.77400
H  19.11100 -4.19900 43.59900
H  18.17300 -4.60300 45.04500
H  19.18200 -9.65700 46.96800
H  20.02200 -8.47700 48.19400
H  20.82500 -9.16900 46.85100
H  25.06000 -9.10300 47.63300
H  26.74600 -7.53800 49.31400
H  24.91500 -8.53300 50.47100
H  24.22700 -9.91700 49.63300
H  23.23400 -8.50600 49.88000
H  27.68400 -7.74400 46.56800
H  26.81500 -9.19500 46.82600
H  29.41600 -8.30000 47.60600
H  28.81900 -9.96500 47.77100
H  28.51100 -8.74200 49.09600
H  29.61700 -3.42100 48.60500
H  30.14700 -2.21100 47.56700
H  30.38700 -3.87400 47.08400
H  27.12800 -0.47100 43.37100
H  26.89100 3.24800 45.01700
H  25.77700 3.30400 43.56500
H  27.62600 3.28200 43.37100
Mg -1.45300 33.81900 26.87800
C  -3.43800 32.27800 29.34100
C  -0.05600 35.83200 29.21000
C  0.38500 35.26300 24.45000
C  -3.19300 31.99500 24.33600
N  -1.98300 34.16400 29.02100
C  -2.67900 33.30800 29.85200
C  -2.37200 33.63600 31.31500
C  -1.43000 34.90700 31.29800
C  -1.12200 34.98300 29.72000
C  -2.01000 36.23600 31.86100
C  -1.72500 32.37200 32.07300
C  -2.36700 31.96100 33.43200
H  -1.44500 31.91700 34.71800
N  -0.10000 35.42000 26.81800
C  0.41800 36.05900 27.91500
C  1.57300 36.87500 27.43700
C  1.65500 36.79800 26.04600
C  0.62300 35.82300 25.70800
C  2.40200 37.70900 28.36500
C  2.59200 37.47300 25.10100
O  2.45600 37.31700 23.93500
C  3.70200 38.41500 25.42300
N  -1.56800 33.84200 24.64900
C  -0.59900 34.48600 23.88500
C  -0.79800 34.12700 22.37700
C  -1.89100 33.02400 22.42800
C  -2.24700 32.97100 23.90100
C  -1.19300 35.49100 21.54800
C  -1.35600 31.67300 21.89000
C  -0.95400 30.62300 22.93200
N  -3.07800 32.55200 26.79700
C  -3.58300 31.90300 25.71500
C  -4.61300 31.06800 26.20200
C  -4.56400 31.06300 27.58400
C  -3.60800 32.00700 27.90600
C  -5.56400 30.20600 25.35600
C  -5.15700 30.54800 28.82200
O  -6.07800 29.75500 29.01400
C  -4.34000 31.23100 30.02400
C  -5.38900 31.85500 30.87800
O  -5.94200 32.90900 30.65000
O  -5.64300 31.01200 31.88300
C  -6.54800 31.60600 32.84700
H  0.31900 36.34200 30.09900
H  1.07100 35.59400 23.66700
H  -3.62500 31.26800 23.64500
H  -3.35500 33.89500 31.70700
H  -0.56500 34.62100 31.89700
H  -1.91700 36.97100 31.06200
H  -1.27800 36.50000 32.62400
H  -3.01200 36.22000 32.28900
H  -0.66400 32.53700 32.26200
H  -1.86600 31.58900 31.32900
H  -2.82600 30.99100 33.23800
H  -3.19500 32.61200 33.71400
H  2.49800 37.01500 29.20000
H  1.81300 38.60300 28.56900
H  3.40500 37.86200 27.96500
H  3.38000 39.28300 25.99800
H  4.14100 38.69800 24.46600
H  4.45900 37.86800 25.98600
H  0.10800 33.69800 21.95000
H  -2.82400 33.30300 21.93900
H  -0.60800 35.67900 20.64800
H  -1.07000 36.28400 22.28500
H  -2.18600 35.17100 21.23000
H  -0.54400 31.77300 21.17000
H  -2.19500 31.18700 21.39200
H  -0.77300 31.13500 23.87700
H  0.02100 30.27700 22.58800
H  -1.74100 29.87200 23.00700
H  -4.91900 29.35500 25.13700
H  -5.86900 30.73700 24.45400
H  -6.40900 29.77800 25.89400
H  -3.81800 30.59900 30.74200
H  -6.04200 32.48800 33.24100
H  -6.83200 30.93000 33.65300
H  -7.45400 31.92400 32.33200

