158

Mg 16.51100 51.55500 26.79900
C  18.31000 50.39300 29.63200
C  13.98800 52.43900 28.91000
C  14.65300 52.70100 24.07500
C  18.88700 50.14300 24.86000
N  16.13200 51.09300 29.06000
C  17.03600 50.77100 30.00900
C  16.44600 51.05000 31.44900
C  14.94100 51.53800 31.11800
C  14.99100 51.77200 29.62100
C  13.95400 50.38400 31.50000
C  17.27900 52.17000 32.19600
C  17.83100 51.89900 33.63700
H  16.92200 52.48100 34.72500
N  14.59400 52.38700 26.49000
C  13.74700 52.68900 27.53900
C  12.65100 53.51600 27.05900
C  12.80200 53.60200 25.69300
C  14.11100 52.96000 25.33900
C  11.46300 53.98400 27.92200
C  11.87300 54.17300 24.64200
O  12.27000 54.31600 23.48200
C  10.44400 54.74300 24.95300
N  16.71400 51.41800 24.76500
C  15.77800 51.90600 23.78200
C  16.41900 51.84300 22.41300
C  17.91900 51.09600 22.68100
C  17.88300 50.82700 24.17800
C  15.49300 51.23500 21.34400
C  19.12200 51.97700 22.24400
C  19.35800 53.35100 22.93700
N  18.20200 50.57200 27.10800
C  19.06100 49.97700 26.22800
C  20.25800 49.36700 26.87100
C  19.93800 49.53000 28.20700
C  18.72300 50.23300 28.32500
C  21.39300 48.63100 26.28200
C  20.37900 49.24400 29.54300
O  21.36900 48.62600 29.86100
C  19.46300 49.87200 30.51800
C  19.09300 48.85600 31.54300
O  18.31800 47.88500 31.49100
O  19.68500 49.21000 32.72900
C  19.44900 48.36200 33.93500
H  13.23600 52.79800 29.61400
H  14.15000 52.93800 23.13500
H  19.58700 49.77600 24.10800
H  16.39300 50.12300 32.01900
H  14.66100 52.47000 31.60900
H  13.08300 50.80100 32.00600
H  14.33800 49.72700 32.28100
H  13.75600 49.76700 30.62400
H  16.63900 53.03200 32.38400
H  18.03600 52.46500 31.46900
H  18.83400 52.32300 33.69600
H  17.90400 50.82200 33.78300
H  11.47100 55.06400 27.77700
H  11.49200 53.81400 28.99800
H  10.52500 53.49900 27.64900
H  9.65700 54.00100 24.81900
H  10.29300 55.48500 24.17000
H  10.45700 55.23900 25.92400
H  16.62000 52.88700 22.17300
H  18.04900 50.20500 22.06800
H  14.48700 51.26300 21.76300
H  15.81500 50.20600 21.18500
H  15.36000 51.84800 20.45200
H  18.77000 52.23800 21.24600
H  20.01500 51.35300 22.19800
H  18.74300 53.53800 23.81800
H  19.02400 54.15300 22.27700
H  20.43000 53.43000 23.11400
H  21.80600 47.90200 26.97900
H  22.15400 49.32900 25.93400
H  21.10900 48.13100 25.35600
H  19.87300 50.71600 31.07300
H  19.60500 47.31400 33.67700
H  18.44900 48.45200 34.36000
H  20.16100 48.64600 34.71000
Mg -9.92700 39.77300 39.75100
C  -8.61100 36.60400 38.98600
C  -6.91400 41.16100 38.94000
C  -11.44300 42.91600 39.61700
C  -13.01500 38.33900 39.90800
N  -8.00900 38.90700 39.04500
C  -7.67900 37.60100 38.86900
C  -6.20200 37.50200 38.49300
C  -5.61700 38.92200 38.70800
C  -6.92000 39.74800 38.84800
C  -4.56100 39.12400 39.84800
C  -6.02500 36.98400 37.02200
C  -6.69700 37.79700 35.79700
H  -7.45400 37.05500 34.71300
N  -9.19500 41.80700 39.38400
C  -7.94400 42.13600 39.06200
C  -7.86900 43.55700 38.87700
C  -9.11400 44.09500 39.14000
C  -10.01700 42.93500 39.39600
C  -6.65300 44.26000 38.23700
C  -9.45600 45.65400 38.99700
O  -8.63100 46.52100 38.72600
C  -10.90700 46.15700 39.24000
N  -11.89800 40.52800 39.85800
C  -12.31000 41.82500 39.85500
C  -13.85300 42.00900 40.01500
C  -14.31400 40.54200 39.99300
C  -12.99100 39.74600 39.90000
C  -14.34400 42.80100 41.23600
C  -15.28500 40.25800 38.76700
C  -16.34600 39.12100 38.93700
N  -10.70600 37.78700 39.78700
C  -12.02500 37.39500 39.72000
C  -12.04400 35.94700 39.70200
C  -10.74800 35.57900 39.38400
C  -9.98300 36.77300 39.41700
C  -13.32900 35.11500 39.82500
C  -9.88800 34.45200 39.05500
O  -10.13200 33.27400 38.92200
C  -8.47400 35.10200 38.85700
C  -7.42000 34.50500 39.82200
O  -7.55600 34.35400 41.01900
O  -6.42300 34.01500 39.04200
C  -5.42900 33.06700 39.70100
H  -5.88500 41.51700 38.85700
H  -12.09300 43.79300 39.63700
H  -14.00600 37.89000 39.99600
H  -5.77200 36.71300 39.11000
H  -5.13900 39.26000 37.78900
H  -4.71500 40.16000 40.14900
H  -3.54000 38.94600 39.51000
H  -4.80900 38.41900 40.64100
H  -6.35300 35.96700 36.80400
H  -4.95000 37.03100 36.84900
H  -5.86800 38.22300 35.23100
H  -7.31300 38.64900 36.08400
H  -6.69400 44.51000 37.17700
H  -5.72900 43.68500 38.28600
H  -6.54400 45.13900 38.87200
H  -11.33200 45.72400 40.14600
H  -11.53600 45.74000 38.45300
H  -11.09800 47.22600 39.14700
H  -14.11600 42.62800 39.15800
H  -14.82000 40.31500 40.93100
H  -14.87000 42.25100 42.01600
H  -14.96400 43.68200 41.07100
H  -13.46800 43.27100 41.68400
H  -14.69000 40.11400 37.86600
H  -15.86000 41.16600 38.58400
H  -17.32500 39.59900 38.91600
H  -16.21500 38.62400 39.89800
H  -16.32800 38.36500 38.15200
H  -14.05900 35.60700 39.18200
H  -13.68200 35.02300 40.85200
H  -13.25300 34.05400 39.58700
H  -8.14000 34.79100 37.86700
H  -5.80200 32.09800 39.36700
H  -5.30200 32.94700 40.77700
H  -4.52600 33.07000 39.09000

