158

Mg 43.89700 5.43800 47.25800
C  41.87300 8.26000 46.69500
C  41.20300 3.42400 46.47800
C  46.05300 2.79200 47.12500
C  46.66000 7.50000 46.86500
N  41.71900 5.80400 46.57100
C  41.12700 7.03300 46.68300
C  39.68700 6.87700 46.47800
C  39.41400 5.34800 46.47700
C  40.86000 4.77400 46.55500
C  38.48300 4.75400 47.60100
C  39.04700 7.63900 45.31200
C  39.82800 7.70500 44.00700
H  39.24800 7.00500 42.74000
N  43.59000 3.36900 47.08100
C  42.46000 2.71900 46.71900
C  42.68800 1.33600 46.52100
C  44.01900 1.12400 46.92700
C  44.64700 2.45200 47.06100
C  41.68600 0.34900 46.11700
C  44.69200 -0.26300 47.09100
O  44.07400 -1.26200 46.96600
C  46.21300 -0.44600 47.41900
N  46.03400 5.21700 47.06500
C  46.66500 4.00800 47.14900
C  48.19400 4.11300 47.44000
C  48.37400 5.61900 47.04500
C  46.92200 6.16300 46.96300
C  48.61700 3.58000 48.86200
C  49.21300 5.89200 45.77900
C  48.98500 4.96100 44.54400
N  44.25500 7.42600 47.04300
C  45.40800 8.12700 46.81300
C  45.15400 9.57200 46.72200
C  43.74000 9.63700 46.78600
C  43.29000 8.32400 46.87900
C  46.16100 10.74100 46.66900
C  42.64200 10.58600 46.78500
O  42.63700 11.78700 46.62400
C  41.39900 9.65400 46.75600
C  40.62000 9.91900 47.92000
O  40.41200 9.25500 48.88400
O  40.07700 11.15500 47.70300
C  38.94600 11.41000 48.66100
H  40.36800 2.80800 46.13700
H  46.71300 1.92500 47.20400
H  47.56900 8.10500 46.83500
H  39.22100 7.27600 47.38000
H  38.96300 5.01300 45.54300
H  37.85200 3.95700 47.20800
H  37.96400 5.62700 47.99800
H  39.06100 4.34400 48.43000
H  38.91200 8.69600 45.53900
H  38.03800 7.23500 45.23300
H  40.86500 7.41400 44.17400
H  39.92000 8.77000 43.79300
H  42.10300 -0.27100 45.32400
H  40.72300 0.76100 45.81500
H  41.51900 -0.36800 46.92100
H  46.87600 -0.02900 46.66100
H  46.49400 -1.49900 47.40500
H  46.37800 0.00800 48.39600
H  48.77000 3.46100 46.78400
H  48.80100 6.16500 47.88600
H  47.84000 3.03100 49.39400
H  48.88200 4.49300 49.39500
H  49.54200 3.01600 48.75000
H  50.24200 5.83500 46.13300
H  49.04500 6.90800 45.42200
H  48.66900 5.51500 43.66000
H  48.20400 4.22300 44.72900
H  49.92900 4.44100 44.38300
H  46.63400 11.10100 47.58200
H  45.55300 11.56600 46.29900
H  46.90900 10.44700 45.93300
H  40.80600 9.91500 45.87900
H  38.29000 10.54000 48.66700
H  38.32700 12.18500 48.20900
H  39.16600 11.82700 49.64400
Mg 47.76300 25.56400 28.41300
C  48.95000 27.78900 30.85400
C  46.63800 23.46500 30.82800
C  46.92900 23.50800 25.92600
C  49.63200 27.62900 26.01400
N  47.79500 25.64800 30.57300
C  48.34100 26.60000 31.38700
C  47.95000 26.28400 32.86100
C  47.44500 24.75700 32.80900
C  47.28300 24.57500 31.31100
C  48.38100 23.76500 33.46600
C  47.04100 27.42300 33.36500
C  47.69900 27.95400 34.74900
H  46.68400 28.29200 35.87600
N  46.75800 23.70500 28.36000
C  46.43400 23.01900 29.49800
C  45.84800 21.78700 29.05200
C  45.96800 21.74000 27.61600
C  46.59100 23.03800 27.22200
C  45.12800 20.81500 30.01700
C  45.66100 20.64400 26.62700
O  45.70500 20.78300 25.37900
C  45.09500 19.39900 27.10500
N  48.43300 25.50800 26.29500
C  47.77100 24.55400 25.51500
C  48.06300 24.83100 24.04800
C  48.85100 26.19500 24.01400
C  48.99200 26.49200 25.49500
C  48.87400 23.59100 23.29600
C  48.24600 27.38600 23.25100
C  49.24200 28.08200 22.30300
N  49.09800 27.29500 28.41700
C  49.72000 27.97600 27.39000
C  50.40600 29.14400 27.95300
C  50.12800 29.08600 29.32300
C  49.26900 28.00900 29.54300
C  51.31800 30.01700 27.24100
C  50.35300 29.70900 30.58500
O  51.08800 30.65400 30.81900
C  49.65600 28.85300 31.65400
C  50.55200 28.31300 32.68500
O  51.23700 27.30700 32.56100
O  50.50700 29.12700 33.83200
C  51.28500 28.70100 35.05200
H  46.30300 22.65700 31.48200
H  46.56800 22.88000 25.10800
H  50.18900 28.13600 25.22300
H  48.93700 26.32400 33.32300
H  46.47100 24.76400 33.29700
H  47.86200 23.21000 34.24700
H  49.28500 24.26100 33.81900
H  48.74400 22.96200 32.82500
H  45.99900 27.15700 33.54300
H  47.05200 28.18700 32.58800
H  48.22200 28.90500 34.64700
H  48.39500 27.25100 35.20600
H  44.12400 20.69500 29.61100
H  44.92200 21.20000 31.01600
H  45.77200 19.94000 30.10600
H  44.84900 18.68100 26.32300
H  44.18300 19.52100 27.68800
H  45.82400 18.87300 27.72200
H  47.07400 24.94700 23.60400
H  49.88000 26.05800 23.68100
H  49.11500 22.69400 23.86700
H  49.73200 24.10900 22.86800
H  48.16100 23.17600 22.58300
H  47.71000 28.10400 23.87200
H  47.52000 26.82200 22.66700
H  50.29000 27.81600 22.43900
H  49.09800 29.16300 22.29500
H  49.07700 27.85300 21.25000
H  50.69700 30.90600 27.12700
H  51.67900 29.55800 26.32000
H  52.17800 30.32100 27.83800
H  48.97000 29.54600 32.14000
H  52.26100 28.29300 34.78900
H  50.71100 27.86500 35.45100
H  51.25500 29.50900 35.78400

