158

Mg 50.34600 45.17900 42.70800
C  47.19400 46.05100 41.58800
C  50.02800 42.10100 41.70200
C  53.74800 44.90100 42.94200
C  50.85200 48.78100 43.16600
N  48.86400 44.28000 41.66900
C  47.55200 44.74200 41.37900
C  46.65500 43.67300 40.77600
C  47.64600 42.39800 40.81600
C  48.92000 42.92700 41.46100
C  47.04200 41.18300 41.64900
C  46.27000 44.03200 39.28400
C  47.31900 44.65600 38.35500
H  47.82300 43.86100 37.16100
N  51.71400 43.66900 42.48500
C  51.34400 42.38100 42.09300
C  52.50000 41.48300 41.98800
C  53.61000 42.31600 42.39200
C  53.03500 43.67800 42.67200
C  52.33200 40.02000 41.62600
C  55.04000 41.72200 42.55800
O  55.25800 40.60500 42.19800
C  56.09600 42.47500 43.34800
N  51.99300 46.69400 43.01300
C  53.29900 46.21300 43.20900
C  54.22000 47.48200 43.37600
C  53.28600 48.68100 43.65700
C  51.98300 48.02700 43.17800
C  55.33500 47.46500 44.48900
C  53.65100 50.16300 43.17700
C  53.93400 51.09000 44.33400
N  49.29900 47.11800 42.36500
C  49.57600 48.45800 42.72000
C  48.33200 49.24100 42.67300
C  47.36400 48.28400 42.26900
C  47.96700 47.05700 42.06200
C  48.18200 50.63500 43.24800
C  45.95900 48.16100 41.84700
O  45.09500 48.97300 41.63700
C  45.73500 46.66900 41.54900
C  44.76900 46.07300 42.48800
O  43.56300 45.93600 42.23400
O  45.34300 45.63700 43.68000
C  44.39000 45.07400 44.62300
H  49.82300 41.10500 41.30500
H  54.83000 44.76000 42.89700
H  50.86100 49.85600 43.36100
H  45.78400 43.45800 41.39500
H  47.84900 41.95500 39.84100
H  46.21000 41.54500 42.25200
H  47.74600 40.94100 42.44600
H  46.94900 40.38100 40.91700
H  45.48500 44.77200 39.43900
H  45.81900 43.09500 38.95600
H  48.28800 44.71700 38.85200
H  47.00300 45.61000 37.93300
H  52.95000 39.71600 40.78100
H  51.28400 39.83100 41.39300
H  52.58400 39.49200 42.54500
H  56.61900 43.20900 42.73600
H  56.82500 41.74600 43.70100
H  55.61200 42.92800 44.21400
H  54.74700 47.46600 42.42100
H  53.10000 48.72300 44.73000
H  56.22900 47.12000 43.96900
H  55.08100 46.66700 45.18800
H  55.53200 48.45300 44.90600
H  52.86900 50.55200 42.52600
H  54.54500 50.15700 42.55200
H  54.55700 50.54600 45.04400
H  52.94800 51.29700 44.75100
H  54.46300 51.93000 43.88300
H  48.75000 51.19500 42.50500
H  48.61800 50.77300 44.23700
H  47.14200 50.96100 43.29600
H  45.30600 46.52100 40.55800
H  44.97300 44.55600 45.38500
H  43.63200 44.40300 44.21700
H  43.85700 45.85300 45.16900
Mg 17.41400 50.87400 26.34300
C  19.50100 49.64800 28.80700
C  14.93800 51.59500 28.62400
C  15.68200 51.96800 23.78200
C  20.08800 49.88200 24.09100
N  17.19100 50.61400 28.42400
C  18.21900 50.19800 29.25200
C  17.97800 50.50800 30.71700
C  16.40200 50.89100 30.61700
C  16.09700 51.05100 29.14400
C  15.48000 49.81300 31.23400
C  18.81800 51.61000 31.29000
C  18.86600 51.66100 32.87800
H  17.76500 51.04200 33.75200
N  15.49600 51.66800 26.20100
C  14.67700 51.97600 27.26300
C  13.61600 52.80100 26.79500
C  13.82700 52.95800 25.39100
C  14.97100 52.09300 25.05300
C  12.52900 53.33700 27.70600
C  12.99200 53.89800 24.38900
O  13.35600 53.94800 23.22200
C  11.73400 54.64500 24.85700
N  17.82500 50.83200 24.23100
C  16.86300 51.27800 23.39800
C  17.34900 51.10000 21.96800
C  18.83000 50.64600 22.01700
C  18.92700 50.43300 23.49200
C  16.34800 50.21500 21.24300
C  19.85400 51.83800 21.59300
C  20.67700 51.54400 20.27100
N  19.33700 49.82200 26.38300
C  20.25100 49.51300 25.41400
C  21.34600 48.82100 25.94400
C  21.13700 48.79800 27.31500
C  19.92100 49.49300 27.48300
C  22.49100 48.39200 25.15400
C  21.71300 48.49100 28.62300
O  22.74900 48.10800 28.99900
C  20.64000 49.02100 29.60900
C  20.29500 47.92600 30.61100
O  19.44800 47.11700 30.47600
O  21.01100 48.20400 31.70800
C  20.61400 47.46800 32.89600
H  14.22500 52.00200 29.34400
H  15.19600 52.40300 22.90600
H  20.93200 49.85100 23.39900
H  18.17400 49.68500 31.40400
H  16.25900 51.87600 31.06200
H  14.82800 49.34200 30.49800
H  14.94100 50.28700 32.05400
H  16.06000 48.96200 31.59100
H  18.50200 52.61100 30.99600
H  19.84000 51.50400 30.92500
H  19.11100 52.66100 33.23500
H  19.79500 51.09700 32.94800
H  11.63900 52.89800 27.25500
H  12.58400 54.42400 27.75300
H  12.65100 52.95500 28.72000
H  11.06000 54.04500 25.46800
H  11.19500 55.01600 23.98500
H  12.01300 55.54400 25.40600
H  17.36500 52.04900 21.43200
H  19.00700 49.69700 21.51000
H  16.01200 50.66600 20.31000
H  15.46000 50.15900 21.87200
H  16.70000 49.18400 21.23800
H  20.41200 52.29000 22.41300
H  19.28200 52.70800 21.27200
H  20.31900 50.66700 19.73200
H  21.75200 51.60800 20.43900
H  20.48200 52.37900 19.59800
H  23.19200 47.85500 25.79300
H  22.98500 49.18800 24.59600
H  22.13900 47.65700 24.43000
H  21.28300 49.74000 30.11500
H  19.56500 47.59300 33.16500
H  21.22700 47.90000 33.68800
H  20.88900 46.41800 32.78600

