158

Mg 26.38100 51.02500 27.58500
C  24.31300 51.99400 30.15200
C  28.80200 50.19800 29.98600
C  28.46100 50.32900 25.04400
C  24.11600 52.42500 25.37600
N  26.58300 51.15700 29.90200
C  25.52400 51.43100 30.70600
C  25.89100 51.03400 32.13000
C  27.40400 50.54400 31.98900
C  27.64600 50.61100 30.55200
C  28.38700 51.28200 32.99700
C  24.99700 50.03500 32.80500
C  24.28000 50.49300 34.09300
H  25.15700 50.94700 35.26900
N  28.27400 50.30100 27.54600
C  29.12300 49.98200 28.59000
C  30.33200 49.38400 28.12600
C  30.33800 49.50900 26.68000
C  28.98700 50.09100 26.34800
C  31.44100 48.78900 28.89100
C  31.40100 49.07300 25.61700
O  31.16100 49.08200 24.41800
C  32.74300 48.55300 26.01800
N  26.31300 51.33400 25.53500
C  27.22700 50.86600 24.67900
C  26.87800 51.06200 23.20500
C  25.45700 51.63900 23.33400
C  25.24100 51.87800 24.84500
C  27.83100 51.95600 22.33000
C  24.27000 50.75500 22.79800
C  23.07900 51.59700 22.25100
N  24.52900 52.03300 27.68900
C  23.67900 52.49100 26.71900
C  22.47900 52.98600 27.23300
C  22.69900 52.82300 28.60300
C  23.97700 52.30300 28.83000
C  21.31600 53.45700 26.53900
C  22.06000 53.06800 29.91200
O  21.02500 53.63600 30.18800
C  23.12400 52.40200 30.95900
C  23.49800 53.43900 31.97600
O  24.55300 54.05200 31.96800
O  22.44800 53.73900 32.79400
C  22.84200 54.58700 33.86700
H  29.54100 49.82600 30.69900
H  29.09100 50.05500 24.19500
H  23.30100 52.74400 24.72200
H  25.87700 52.00800 32.61900
H  27.44500 49.48000 32.22400
H  29.23000 51.73500 32.47500
H  28.77600 50.60800 33.76000
H  27.87100 52.16300 33.37900
H  25.54600 49.12600 33.05100
H  24.20600 49.85700 32.07700
H  23.66600 49.67400 34.46600
H  23.65200 51.31900 33.75900
H  31.05800 48.78700 29.91200
H  32.41200 49.28400 28.91100
H  31.56500 47.77100 28.52400
H  33.30400 48.36100 25.10400
H  32.57400 47.61500 26.54700
H  33.18300 49.28200 26.69900
H  26.75300 50.07600 22.75900
H  25.33300 52.60700 22.84900
H  28.75400 51.98600 22.90800
H  27.41500 52.94300 22.12700
H  28.08500 51.43800 21.40500
H  23.84600 50.21700 23.64700
H  24.66000 50.04200 22.07200
H  22.15000 51.16900 22.62900
H  23.05200 51.51200 21.16400
H  23.09100 52.66400 22.47200
H  20.52800 52.98700 27.12700
H  21.32100 53.09300 25.51100
H  21.29200 54.54300 26.62900
H  22.54800 51.61600 31.44800
H  23.10200 55.59200 33.53400
H  23.56400 54.02400 34.45700
H  21.95700 54.68400 34.49700
Mg 6.87100 53.84500 41.66900
C  6.73100 50.35800 41.30400
C  10.39400 53.55000 40.88900
C  7.11400 57.19900 41.57100
C  3.54400 53.98200 42.30700
N  8.36800 52.10400 41.08500
C  8.05400 50.79100 40.97800
C  9.29100 49.96300 40.58000
C  10.52500 50.99300 40.78100
C  9.69600 52.29800 40.86700
C  11.55300 50.79700 41.95700
C  9.32800 49.40400 39.13900
C  9.18600 50.49800 38.04200
H  7.94600 50.33600 37.17000
N  8.45000 55.21500 41.25700
C  9.80900 54.89200 41.03800
C  10.52800 56.16400 40.90700
C  9.62200 57.27100 41.11500
C  8.35100 56.55400 41.34600
C  12.07200 56.11200 40.59100
C  10.05200 58.76200 41.08400
O  11.14700 59.08500 40.69100
C  9.21800 59.79900 41.70100
N  5.35500 55.41600 41.50700
C  5.79100 56.63800 41.63700
C  4.66500 57.58100 41.89900
C  3.48100 56.55600 42.19100
C  4.16700 55.18900 42.05400
C  4.81200 58.65500 43.02700
C  2.32700 56.66700 41.21800
C  0.89300 56.63900 41.68700
N  5.40400 52.47100 41.77400
C  4.16700 52.70700 42.21400
C  3.55100 51.42900 42.41100
C  4.52700 50.44200 41.98400
C  5.65200 51.15500 41.71500
C  2.15700 51.19000 42.80700
C  4.75800 49.02700 41.79400
O  4.06700 48.02300 42.08900
C  6.23200 48.94100 41.36100
C  6.15900 48.15600 40.10900
O  5.94600 48.61400 38.98100
O  6.26600 46.80900 40.35300
C  5.60900 45.93400 39.33600
H  11.44500 53.69500 40.63100
H  7.09800 58.28700 41.47300
H  2.60300 53.97400 42.86000
H  9.36200 49.07900 41.21400
H  11.09700 50.90000 39.85800
H  12.56000 50.67800 41.55700
H  11.25900 49.92100 42.53500
H  11.35000 51.64700 42.60900
H  8.72600 48.50300 39.02400
H  10.31000 49.06100 38.81300
H  10.00000 50.44600 37.32000
H  9.28500 51.50300 38.45100
H  12.26500 55.53100 39.68900
H  12.44500 55.59000 41.47200
H  12.55200 57.08500 40.49000
H  9.80800 60.65500 42.02800
H  8.67400 59.31200 42.51100
H  8.52800 60.06700 40.90100
H  4.35600 58.21100 41.06500
H  3.11600 56.62000 43.21600
H  4.80400 59.61200 42.50600
H  5.81600 58.53100 43.43400
H  3.95400 58.45100 43.66700
H  2.48800 55.91000 40.45100
H  2.42800 57.63300 40.72400
H  0.38600 55.93600 41.02600
H  0.46900 57.63900 41.59400
H  0.75700 56.39500 42.74000
H  1.56700 52.10100 42.70600
H  2.11200 50.98900 43.87800
H  1.76300 50.36700 42.21100
H  6.84200 48.31500 42.01200
H  5.98100 46.15000 38.33500
H  4.53400 46.10200 39.26600
H  5.76900 44.91400 39.68500

