158

Mg 27.33300 50.32000 26.78800
C  25.15900 51.48000 29.37700
C  29.41500 49.26700 29.08700
C  29.43500 49.53800 24.17900
C  25.14600 51.93700 24.47800
N  27.21300 50.30600 28.96600
C  26.25000 50.69000 29.86900
C  26.57900 50.20700 31.19900
C  28.07500 49.92500 31.16400
C  28.25800 49.79500 29.65100
C  28.97500 50.95000 31.90700
C  25.82600 48.91900 31.58700
C  25.36200 48.81100 33.04000
H  25.72100 49.95200 34.00400
N  29.21400 49.44100 26.63600
C  29.91700 49.12100 27.75800
C  31.22400 48.60700 27.32000
C  31.20300 48.69100 25.88100
C  29.88000 49.25500 25.51600
C  32.23800 48.14500 28.21400
C  32.35400 48.43700 25.01100
O  32.35200 48.98500 23.86500
C  33.58000 47.63700 25.42000
N  27.27000 50.78000 24.57200
C  28.23700 50.19700 23.79800
C  27.81500 50.35800 22.29600
C  26.37700 50.89700 22.40900
C  26.25300 51.22100 23.87300
C  28.88800 51.23600 21.39900
C  25.28100 49.93200 21.90700
C  24.35000 49.11100 22.87400
N  25.49500 51.31600 26.86700
C  24.81400 51.93500 25.86500
C  23.64700 52.54400 26.50000
C  23.69300 52.43800 27.85300
C  24.92400 51.71700 28.02000
C  22.57100 53.23100 25.75100
C  23.17500 52.79900 29.08400
O  22.19400 53.46900 29.44500
C  24.01400 52.09600 30.16400
C  24.48700 53.06300 31.23300
O  25.57200 53.51100 31.33000
O  23.36800 53.41600 31.93500
C  23.58100 54.17700 33.19300
H  30.14800 49.04700 29.86500
H  30.02900 49.13500 23.35600
H  24.30100 52.39300 23.95800
H  26.52800 51.03700 31.90400
H  28.36000 48.98500 31.63700
H  29.37700 50.40900 32.76300
H  28.55900 51.92400 32.16400
H  29.89400 51.14200 31.35200
H  26.51900 48.09800 31.40400
H  24.96400 48.74400 30.94200
H  25.61700 47.84700 33.48100
H  24.27700 48.89500 32.99000
H  31.97000 48.55100 29.18900
H  33.22800 48.54500 27.99600
H  32.34300 47.06100 28.16200
H  34.23800 48.13000 26.13500
H  34.18100 47.58800 24.51200
H  33.35800 46.62600 25.76300
H  27.81100 49.39500 21.78500
H  26.27400 51.88200 21.95400
H  29.75500 51.49700 22.00500
H  28.39100 52.12800 21.01900
H  29.23800 50.64400 20.55300
H  25.69600 49.28500 21.13300
H  24.68200 50.56200 21.24900
H  24.63400 49.08900 23.92700
H  24.27900 48.09000 22.49900
H  23.33800 49.51700 22.85000
H  22.19800 52.69000 24.88200
H  22.92300 54.16900 25.32200
H  21.75800 53.52200 26.41700
H  23.40600 51.30000 30.59300
H  24.61800 54.10900 33.52200
H  22.90600 53.79400 33.95900
H  23.32500 55.22200 33.01900
Mg 17.27900 51.95000 27.01400
C  19.42600 50.75800 29.59200
C  15.10800 52.58200 29.44800
C  15.18900 52.84100 24.51700
C  19.62900 50.81600 24.62700
N  17.33400 51.79000 29.28700
C  18.32100 51.33700 30.08400
C  17.93600 51.37400 31.52800
C  16.38700 51.63900 31.42700
C  16.23400 52.01300 29.96500
C  15.40700 50.45900 31.71100
C  18.75700 52.48900 32.27400
C  18.40800 52.92400 33.73200
H  17.59400 52.02300 34.66300
N  15.37500 52.80500 26.94300
C  14.64800 53.00500 28.11500
C  13.31900 53.48300 27.71400
C  13.35100 53.61900 26.26100
C  14.66600 53.05100 25.80500
C  12.27200 53.92100 28.68800
C  12.36200 54.25500 25.32400
O  12.47600 54.41800 24.13500
C  11.14500 54.89000 25.96700
N  17.44000 51.84800 24.83600
C  16.38900 52.31100 24.04400
C  16.61700 52.07400 22.54500
C  18.21400 51.77100 22.59500
C  18.46800 51.42900 24.08900
C  15.70600 50.94200 22.00500
C  19.08000 52.92600 21.93800
C  20.42100 52.51500 21.46800
N  19.08200 50.87300 27.06200
C  19.95400 50.58100 26.02500
C  21.11200 49.87700 26.60100
C  20.96700 49.88900 28.00400
C  19.72300 50.57800 28.25300
C  22.28600 49.38300 25.87500
C  21.60900 49.59400 29.25600
O  22.65100 49.01600 29.46300
C  20.59600 49.91600 30.30400
C  20.14900 48.61300 30.85400
O  19.70000 47.65500 30.20100
O  20.20900 48.61700 32.22900
C  19.83300 47.42800 33.00900
H  14.41500 52.80700 30.26100
H  14.41500 53.10000 23.79100
H  20.43100 50.39100 24.01900
H  18.16900 50.38900 31.93300
H  16.07900 52.39400 32.15100
H  14.74500 50.81300 32.50200
H  15.89800 49.53600 32.01900
H  14.83900 50.25600 30.80300
H  18.57600 53.35000 31.63000
H  19.81100 52.21300 32.28700
H  17.86600 53.86900 33.70300
H  19.42300 53.03400 34.11500
H  11.30500 53.46400 28.47500
H  12.17900 54.98600 28.47700
H  12.58100 53.76600 29.72200
H  11.40600 55.71800 26.62600
H  10.60100 54.13100 26.53000
H  10.56800 55.32300 25.15000
H  16.49800 53.06200 22.10000
H  18.47600 50.86100 22.05400
H  14.95300 51.35700 21.33500
H  15.08400 50.39800 22.71500
H  16.34100 50.20300 21.51500
H  19.25400 53.68300 22.70300
H  18.64000 53.52100 21.13800
H  20.56600 51.44200 21.59600
H  21.20900 53.08700 21.95900
H  20.51300 52.81300 20.42400
H  22.64500 48.44300 26.29500
H  23.14300 50.03600 26.04300
H  22.07700 49.24800 24.81400
H  21.06700 50.52400 31.07800
H  20.48900 46.56400 32.90200
H  18.93900 46.97700 32.57800
H  19.69200 47.55400 34.08300

