158

Mg 0.57100 6.69900 24.17100
C  1.52500 8.82800 26.78000
C  0.46100 4.00200 26.40100
C  -0.21000 4.68200 21.68200
C  0.88700 9.41900 21.96500
N  1.16600 6.41000 26.19900
C  1.33700 7.40900 27.10100
C  1.57200 6.86600 28.48200
C  1.42000 5.32700 28.28100
C  0.97800 5.18500 26.87000
C  2.72300 4.54400 28.54100
C  0.52500 7.41300 29.48400
C  1.05800 7.73600 30.93300
H  2.22800 6.84400 31.47400
N  0.13500 4.65700 24.08900
C  0.13900 3.75400 25.09000
C  -0.29600 2.45900 24.57600
C  -0.44000 2.60400 23.18300
C  -0.17800 4.05500 22.92000
C  -0.44300 1.24300 25.43800
C  -0.73300 1.55500 22.16800
O  -0.70100 1.73900 21.00700
C  -0.89600 0.07000 22.63600
N  0.29600 7.03300 22.06100
C  -0.04600 6.02200 21.25700
C  -0.03600 6.45300 19.73100
C  0.22600 8.01800 19.87200
C  0.53000 8.16800 21.38000
C  1.08100 5.76500 19.08700
C  -0.96500 8.92300 19.36800
C  -0.59900 9.67700 18.14500
N  1.11900 8.68200 24.26000
C  1.10900 9.70200 23.35100
C  1.50500 10.92400 23.98900
C  1.65000 10.63000 25.33700
C  1.41000 9.29500 25.46800
C  1.80300 12.23300 23.27700
C  1.93800 11.19400 26.60400
O  2.13100 12.33400 26.95400
C  1.73400 10.04700 27.68900
C  2.95800 9.96500 28.39700
O  4.03500 9.56800 28.01600
O  2.77900 10.36100 29.71500
C  3.91900 10.28200 30.63700
H  0.36300 3.13200 27.05400
H  -0.48200 3.99500 20.87800
H  0.90200 10.30400 21.32500
H  2.53600 7.06600 28.95000
H  0.59700 4.78400 28.74600
H  3.05300 4.16400 27.57500
H  2.46500 3.71600 29.20100
H  3.45900 4.98600 29.21400
H  -0.17800 6.62800 29.76300
H  0.08400 8.29200 29.01500
H  0.23800 7.58400 31.63500
H  1.42400 8.74900 30.76400
H  -1.41500 0.77100 25.29300
H  -0.46700 1.37100 26.52000
H  0.37500 0.59300 25.12800
H  -1.77900 -0.01000 23.27000
H  0.04400 -0.35400 22.98800
H  -1.16400 -0.47800 21.73300
H  -1.00100 6.16000 19.31600
H  1.18100 8.22100 19.38700
H  2.00100 5.80600 19.67000
H  1.14500 6.19100 18.08600
H  0.74500 4.73000 19.02700
H  -1.38100 9.59300 20.12000
H  -1.78800 8.27900 19.05700
H  -1.17500 10.59000 18.29700
H  -0.81300 9.17700 17.20000
H  0.41700 10.06900 18.17800
H  1.50000 12.20300 22.23000
H  2.87000 12.44900 23.33100
H  1.29200 13.04200 23.79900
H  0.91300 10.23700 28.38100
H  4.47400 9.37000 30.41900
H  3.52700 10.22000 31.65200
H  4.55200 11.17000 30.65000
Mg -4.93300 24.93900 25.46700
C  -3.35800 26.41000 28.21500
C  -6.40000 22.74600 27.60800
C  -6.37100 23.49100 22.73000
C  -2.93200 26.89300 23.23700
N  -4.59400 24.39000 27.67400
C  -4.14600 25.29100 28.58300
C  -4.73800 24.93700 30.05000
C  -5.33400 23.47800 29.87200
C  -5.48100 23.50600 28.29500
C  -4.48700 22.33400 30.44100
C  -5.64100 26.07000 30.59300
C  -5.40400 26.63300 32.04600
H  -5.10300 25.51200 33.09300
N  -6.20000 23.37300 25.18600
C  -6.76100 22.59700 26.20200
C  -7.87900 21.82000 25.69300
C  -7.81500 21.98800 24.34500
C  -6.68400 22.95200 24.03100
C  -8.83300 20.96900 26.52200
C  -8.78200 21.41600 23.23900
O  -8.59800 21.63800 22.07000
C  -9.93600 20.52200 23.61000
N  -4.65600 25.11700 23.30900
C  -5.39700 24.45000 22.39700
C  -5.18300 24.96400 20.92600
C  -4.01900 25.98900 21.07100
C  -3.82900 26.04600 22.62200
C  -4.98000 23.72100 20.07800
C  -4.11000 27.38100 20.30600
C  -5.37700 28.19000 20.74600
N  -3.43000 26.21600 25.62000
C  -2.76000 27.02200 24.66200
C  -1.89000 28.00700 25.31300
C  -2.03400 27.73900 26.72600
C  -3.02200 26.71500 26.85400
C  -1.07700 29.11700 24.73300
C  -1.64200 28.19100 28.07600
O  -0.87000 29.03600 28.44200
C  -2.52500 27.36700 29.08100
C  -1.62000 26.55600 29.98100
O  -1.27900 25.39700 29.83200
O  -1.21200 27.31100 31.06900
C  -0.57800 26.65600 32.17200
H  -6.93100 22.05000 28.25900
H  -6.99000 23.26400 21.85900
H  -2.24400 27.47700 22.62100
H  -3.88000 24.94900 30.72200
H  -6.31400 23.45100 30.34800
H  -3.50500 22.66900 30.77500
H  -4.49300 21.58800 29.64700
H  -5.06600 21.96500 31.28700
H  -6.70300 25.82300 30.61100
H  -5.44100 26.90800 29.92600
H  -6.32900 27.10900 32.37200
H  -4.52000 27.27100 32.03700
H  -9.81800 21.39500 26.71100
H  -8.38400 20.77200 27.49600
H  -8.98000 19.99300 26.05900
H  -10.61500 20.96300 24.34000
H  -9.61300 19.57600 24.04600
H  -10.41400 20.20000 22.68500
H  -6.07500 25.41800 20.49300
H  -3.06700 25.57700 20.73800
H  -4.42400 22.97500 20.64500
H  -4.31100 24.02200 19.27100
H  -5.91200 23.30900 19.69100
H  -4.14500 27.07000 19.26200
H  -3.14600 27.84300 20.51900
H  -6.11400 28.22600 19.94500
H  -5.26100 29.25200 20.96100
H  -5.79800 27.64800 21.59400
H  -1.23000 30.04300 25.28600
H  -1.38100 29.37900 23.72000
H  -0.02200 28.85900 24.83100
H  -3.10300 28.06700 29.68400
H  -0.15300 25.70100 31.86300
H  -1.31000 26.65400 32.97900
H  0.24400 27.32700 32.42300

