158

Mg 39.62700 10.38400 29.16700
C  41.65200 11.86400 31.65700
C  37.68200 9.09000 31.75600
C  38.06900 8.67500 26.83700
C  42.20000 11.03400 26.90200
N  39.58400 10.62800 31.43800
C  40.49200 11.36800 32.21000
C  40.13000 11.32300 33.69500
C  38.98200 10.19900 33.69000
C  38.76800 9.86000 32.22400
C  39.16600 8.91200 34.57900
C  39.61300 12.62200 34.35000
C  39.11800 12.48100 35.80300
H  39.90300 13.26500 36.80200
N  37.98000 9.21400 29.24900
C  37.33600 8.68000 30.35800
C  36.23500 7.87200 29.89500
C  36.28400 7.89000 28.46000
C  37.50900 8.57000 28.10900
C  35.25500 7.16000 30.80000
C  35.23700 7.34000 27.47700
O  35.29200 7.55500 26.28500
C  34.03800 6.65200 28.01900
N  40.15400 9.83400 27.10800
C  39.26800 9.18300 26.35000
C  39.73900 9.26100 24.85300
C  40.99300 10.24700 24.93600
C  41.12800 10.36900 26.39300
C  40.14100 7.85500 24.20600
C  40.81900 11.53200 24.16700
C  40.08100 12.79000 24.96500
N  41.50900 11.20400 29.23200
C  42.41500 11.41900 28.18900
C  43.59000 12.15600 28.69700
C  43.34500 12.35000 30.06200
C  42.11600 11.77100 30.33500
C  44.82000 12.64200 27.92300
C  43.85800 12.90900 31.25200
O  44.88700 13.60400 31.40400
C  42.75600 12.73000 32.28100
C  43.32200 12.17800 33.61000
O  43.72500 11.05300 33.78900
O  43.19900 13.08900 34.60400
C  43.56600 12.70600 35.91800
H  37.00200 8.77000 32.54900
H  37.53700 8.08900 26.08400
H  42.96100 11.35500 26.18800
H  40.95500 10.87100 34.24500
H  38.04600 10.60800 34.06900
H  38.28400 8.67500 35.17400
H  39.96700 9.11600 35.29000
H  39.37800 8.02900 33.97700
H  38.86200 13.09800 33.71900
H  40.50900 13.24100 34.41100
H  39.08900 11.50200 36.28100
H  38.09800 12.84300 35.66900
H  34.35500 7.77500 30.82400
H  35.71100 7.17900 31.79000
H  34.94400 6.14700 30.54700
H  33.47000 6.32000 27.15000
H  33.47400 7.24000 28.74300
H  34.41400 5.72000 28.44200
H  38.90500 9.67300 24.28600
H  41.80000 9.74800 24.39900
H  41.22800 7.78000 24.17600
H  39.74200 7.75900 23.19700
H  39.52800 7.21400 24.84000
H  40.12800 11.42500 23.33000
H  41.75600 11.82800 23.69500
H  40.11000 12.51700 26.02000
H  39.12800 13.12300 24.55300
H  40.69700 13.68400 24.87200
H  44.65800 13.52400 27.30400
H  45.28000 11.84300 27.34000
H  45.56400 12.82200 28.69900
H  42.22800 13.66900 32.44700
H  44.64900 12.66000 36.03100
H  43.11700 11.76600 36.23700
H  43.24500 13.45000 36.64700
Mg -12.19800 17.24500 40.85700
C  -8.81600 16.22600 40.66600
C  -11.09600 20.51400 40.06700
C  -15.26100 18.16400 39.58800
C  -13.17400 13.92000 40.85300
N  -10.18300 18.26500 40.38000
C  -8.93900 17.64500 40.44200
C  -7.79800 18.60900 40.36100
C  -8.54400 19.98700 40.47900
C  -10.02400 19.60300 40.36300
C  -8.25500 20.83400 41.76700
C  -7.08100 18.36900 38.99800
C  -5.57300 18.15200 39.19800
H  -4.82700 17.08500 38.43800
N  -13.15600 19.10000 40.26900
C  -12.47000 20.32600 39.96100
C  -13.48600 21.29800 39.58500
C  -14.75500 20.61100 39.52600
C  -14.43000 19.24800 39.80600
C  -13.11900 22.66500 39.16700
C  -16.06900 21.26800 39.20100
O  -16.07500 22.47400 39.00100
C  -17.40000 20.55900 39.07900
N  -13.94500 16.17600 40.28700
C  -15.06800 16.82100 39.81300
C  -16.19000 15.77600 39.52600
C  -15.55100 14.45900 40.09100
C  -14.12600 14.84500 40.46100
C  -17.54600 16.26100 40.08400
C  -15.63200 13.26700 39.10700
C  -14.77700 13.16400 37.79300
N  -11.25900 15.41300 40.87000
C  -11.76200 14.15500 40.85700
C  -10.63500 13.16200 41.08600
C  -9.50300 13.93800 40.98700
C  -9.93300 15.25300 40.81200
C  -10.67000 11.62500 41.29800
C  -8.04800 13.86800 40.96400
O  -7.26400 12.87700 41.01700
C  -7.54900 15.36000 40.75800
C  -6.60000 15.64700 41.81700
O  -6.85400 16.25800 42.84300
O  -5.29100 15.31500 41.50100
C  -4.31800 15.42600 42.60900
H  -10.76000 21.55200 40.00800
H  -16.21400 18.41100 39.11500
H  -13.49100 12.87500 40.85300
H  -7.10300 18.44100 41.18400
H  -8.34300 20.57500 39.58300
H  -7.84300 20.10500 42.46500
H  -9.07300 21.43400 42.16700
H  -7.48500 21.59300 41.62500
H  -7.07500 19.26300 38.37400
H  -7.46300 17.46000 38.53500
H  -5.36200 17.91800 40.24200
H  -5.08600 19.12000 39.07400
H  -13.63400 22.97800 38.25900
H  -12.05900 22.78900 38.94400
H  -13.38100 23.36800 39.95900
H  -17.53900 20.29900 38.03000
H  -18.15400 21.31800 39.28700
H  -17.62000 19.69200 39.70100
H  -16.30200 15.56000 38.46300
H  -16.09700 14.25100 41.01200
H  -18.36400 15.54400 40.15300
H  -17.92400 17.06900 39.45700
H  -17.31800 16.42100 41.13800
H  -16.58600 13.44800 38.61100
H  -15.71400 12.32400 39.64800
H  -15.36200 12.78500 36.95500
H  -14.05500 12.36300 37.95800
H  -14.24600 14.07800 37.52800
H  -11.72300 11.41000 41.47600
H  -10.13100 11.21200 42.15000
H  -10.26900 11.12900 40.41300
H  -7.09400 15.36500 39.76700
H  -4.76400 15.42500 43.60300
H  -3.54700 16.14200 42.32200
H  -3.83700 14.45200 42.52100

