158

Mg 47.78700 15.63000 27.62800
C  46.08500 15.79400 30.67200
C  50.17900 17.64300 28.89700
C  49.12300 15.79300 24.54400
C  44.92900 14.02300 26.33900
N  48.11800 16.57500 29.61800
C  47.33500 16.46600 30.71300
C  47.99500 17.06300 31.88600
C  49.26600 17.80700 31.30100
C  49.12600 17.39500 29.79600
C  49.33200 19.31200 31.63100
C  48.38600 15.98800 33.01800
C  47.94700 16.38800 34.45800
H  47.76600 17.86200 34.88600
N  49.47100 16.54600 26.81500
C  50.36900 17.32100 27.53700
C  51.48300 17.84000 26.66000
C  51.19600 17.23000 25.39800
C  49.91600 16.52300 25.50900
C  52.62700 18.62000 27.13700
C  52.03000 17.19200 24.14200
O  51.74400 16.56000 23.10800
C  53.31000 17.89900 24.10200
N  47.23300 14.86000 25.74100
C  47.93200 15.12400 24.62400
C  47.14600 14.70100 23.37800
C  45.82900 14.11700 23.98700
C  45.99100 14.37300 25.45800
C  46.99000 15.91200 22.39400
C  45.46300 12.64000 23.60500
C  46.17100 11.59100 24.40700
N  45.86800 14.92100 28.42000
C  44.84200 14.30300 27.69000
C  43.71200 14.00100 28.63600
C  44.17800 14.52300 29.87700
C  45.50400 15.10000 29.68000
C  42.48700 13.22900 28.30900
C  43.91600 14.79300 31.32100
O  42.92500 14.52700 31.99000
C  45.13900 15.46900 31.89300
C  44.65100 16.74100 32.58000
O  44.58600 17.90600 32.25600
O  44.15700 16.30200 33.77300
C  43.40000 17.21800 34.63500
H  50.95500 18.26500 29.34800
H  49.49500 16.03500 23.54600
H  43.99900 13.65100 25.90500
H  47.33700 17.81200 32.32600
H  50.18300 17.27000 31.54100
H  49.23600 19.86500 30.69600
H  50.28700 19.67000 32.01700
H  48.47300 19.67600 32.19400
H  49.47100 15.93000 32.93500
H  48.05500 14.97800 32.77700
H  48.72800 15.93000 35.06500
H  47.09600 15.76800 34.73800
H  52.89100 19.56400 26.66000
H  53.50700 17.98000 27.08100
H  52.42700 18.92500 28.16400
H  53.06900 18.94000 24.31400
H  53.87700 17.73100 23.18700
H  53.92700 17.49000 24.90200
H  47.73100 13.84800 23.03300
H  45.02300 14.79900 23.71800
H  47.57200 15.65200 21.51000
H  47.51100 16.76100 22.83600
H  45.96400 16.04900 22.05400
H  45.78300 12.64900 22.56300
H  44.38700 12.47600 23.54900
H  46.73100 11.96900 25.26200
H  46.65500 10.95900 23.66300
H  45.44700 10.89600 24.83200
H  42.16700 13.36200 27.27600
H  41.60000 13.52200 28.87000
H  42.47500 12.15600 28.50400
H  45.63600 14.87900 32.66200
H  42.66100 17.82100 34.10800
H  44.11000 17.78700 35.23500
H  42.77100 16.58200 35.25700
Mg 29.30900 57.18000 40.89100
C  26.38900 55.27800 40.18000
C  31.10100 54.80200 39.33500
C  31.97400 59.33100 41.08000
C  27.18400 59.74600 41.93100
N  28.73800 55.29100 39.79700
C  27.57200 54.63200 39.67500
C  27.61100 53.30700 38.90300
C  29.16300 53.04100 39.12600
C  29.75100 54.45600 39.47600
C  29.58700 52.09500 40.23400
C  26.91200 53.05300 37.48800
C  26.44200 54.24700 36.73900
H  26.66100 54.17600 35.22900
N  31.29800 57.02000 40.33400
C  31.88800 55.92000 39.75300
C  33.29500 56.18000 39.41800
C  33.47600 57.52400 39.84800
C  32.25800 58.02800 40.55000
C  34.17100 55.22900 38.62400
C  34.76800 58.37200 39.51000
O  35.75300 57.93900 38.97800
C  34.98000 59.90300 39.73700
N  29.56700 59.23500 41.58400
C  30.76800 59.90300 41.55100
C  30.55500 61.40000 41.80800
C  29.08600 61.53300 42.07200
C  28.54300 60.10700 41.90300
C  31.44300 62.02500 42.95200
C  28.23200 62.49400 41.18300
C  27.20400 63.35300 41.87800
N  27.30300 57.46400 41.07200
C  26.53400 58.55200 41.51000
C  25.08700 58.30800 41.45100
C  25.02000 56.98300 41.02000
C  26.38500 56.53700 40.72900
C  23.96300 59.33700 41.70500
C  24.07000 55.99000 40.66100
O  22.88800 55.86400 40.77600
C  24.95900 54.78700 40.18000
C  24.69800 53.52700 40.99700
O  23.59700 52.97500 41.03800
O  25.79600 53.20200 41.76000
C  25.65600 51.92200 42.48000
H  31.66400 53.89800 39.09200
H  32.78200 60.06400 41.09600
H  26.49100 60.51600 42.27700
H  27.12700 52.61700 39.59500
H  29.65900 52.68700 38.22200
H  30.56500 52.38600 40.61800
H  29.85600 51.16700 39.73000
H  28.87600 52.05600 41.05900
H  26.03700 52.43400 37.68700
H  27.54500 52.45600 36.83100
H  27.10100 54.98700 37.19200
H  25.40200 54.50000 36.94300
H  34.59400 55.68500 37.72900
H  33.60900 54.31900 38.40900
H  34.96100 54.84100 39.26600
H  34.81300 60.09700 40.79600
H  34.21700 60.51700 39.25800
H  36.00100 60.20600 39.50600
H  30.71200 61.96600 40.89000
H  28.93600 61.70300 43.13800
H  32.09700 61.33100 43.48000
H  30.78200 62.52700 43.65900
H  32.09700 62.80300 42.55800
H  27.67900 62.01100 40.37700
H  29.00000 63.19100 40.84800
H  27.53400 64.38600 41.77200
H  27.05300 63.12300 42.93300
H  26.24500 63.29200 41.36400
H  23.02900 58.93100 41.31900
H  24.20400 60.30100 41.25800
H  23.89100 59.35600 42.79300
H  24.67600 54.50200 39.16700
H  26.66600 51.51400 42.43800
H  24.94200 51.27400 41.97200
H  25.27000 51.95700 43.49900

