158

Mg 40.82900 8.79700 29.51100
C  42.89900 9.85300 31.97500
C  38.73400 7.23600 31.75200
C  39.00500 7.47500 26.91400
C  43.43900 9.47000 27.23700
N  40.75900 8.64500 31.61200
C  41.69600 9.25600 32.40200
C  41.09400 9.32100 33.81400
C  40.01900 8.15000 33.88200
C  39.85300 7.93900 32.30500
C  40.67800 6.90900 34.56000
C  40.56500 10.70600 34.23600
C  40.09300 10.89200 35.63100
H  40.67300 11.95800 36.55700
N  39.10600 7.49600 29.35000
C  38.37500 7.02900 30.39600
C  37.34800 6.20000 29.86800
C  37.29500 6.48800 28.50100
C  38.47800 7.21600 28.19900
C  36.35300 5.39900 30.72900
C  36.10800 6.30200 27.54300
O  36.13800 6.64900 26.33400
C  34.79500 5.75100 28.05000
N  41.29400 8.35600 27.43000
C  40.24100 7.99800 26.55600
C  40.74600 8.04700 25.07200
C  42.17000 8.56300 25.15500
C  42.35800 8.86200 26.66900
C  40.71500 6.67900 24.29700
C  42.53400 9.73700 24.18100
C  41.84800 11.08700 24.49800
N  42.64600 9.61400 29.51400
C  43.56500 9.89800 28.57300
C  44.71200 10.61900 29.11700
C  44.42000 10.65400 30.43400
C  43.23100 10.05400 30.69000
C  45.96400 11.07500 28.35100
C  44.90600 11.09600 31.66200
O  45.90900 11.73100 31.97900
C  43.86500 10.62600 32.79400
C  44.63300 9.88300 33.85000
O  45.44400 9.05500 33.70300
O  44.18000 10.33500 35.04600
C  44.80200 9.61900 36.17600
H  38.04600 6.90900 32.53500
H  38.51700 7.17500 25.98400
H  44.26400 9.72900 26.57000
H  41.94700 9.04300 34.43200
H  39.08900 8.42300 34.38100
H  41.73900 7.09600 34.72600
H  40.57100 6.03500 33.91700
H  40.04800 6.66600 35.41600
H  39.68400 10.98700 33.65900
H  41.19900 11.54700 33.95500
H  40.26500 9.98400 36.20900
H  39.00300 10.89300 35.60700
H  36.62200 5.38200 31.78500
H  36.34200 4.37300 30.35900
H  35.34600 5.81300 30.76900
H  34.31400 6.33600 28.83500
H  34.95100 4.77900 28.51800
H  34.16600 5.66500 27.16400
H  40.05200 8.68800 24.52900
H  42.89100 7.79300 24.88000
H  40.10400 6.01200 24.90500
H  41.70100 6.23800 24.15400
H  40.22400 6.80000 23.33100
H  42.35700 9.48900 23.13400
H  43.61500 9.80700 24.30300
H  41.08500 11.48600 23.83000
H  42.68000 11.79200 24.49500
H  41.42900 10.94400 25.49400
H  45.73100 12.03600 27.89200
H  46.18900 10.35300 27.56600
H  46.85100 11.13100 28.98200
H  43.40000 11.55600 33.12000
H  45.82100 9.93200 36.40500
H  44.80400 8.53300 36.07900
H  44.21800 9.76500 37.08500
Mg 35.75400 48.59900 25.27000
C  35.74400 46.60700 28.26900
C  34.66400 51.25200 27.15400
C  35.36700 50.32700 22.42200
C  36.73800 45.80200 23.45400
N  35.22500 48.80200 27.52700
C  35.26600 47.91100 28.52600
C  35.08100 48.59700 29.91100
C  34.63700 50.01700 29.45900
C  34.69600 50.03100 27.93500
C  33.26600 50.42700 29.93800
C  36.29700 48.57100 30.79200
C  36.09800 48.56600 32.30800
H  34.71600 48.67100 32.97800
N  35.34000 50.58200 24.83900
C  34.83800 51.51500 25.77700
C  34.63800 52.80200 25.09300
C  34.82000 52.50100 23.74700
C  35.20600 51.09900 23.61900
C  34.16400 54.06100 25.77800
C  34.80000 53.43200 22.57500
O  35.06900 53.02900 21.47300
C  34.52800 54.85900 22.76500
N  35.85000 48.08000 23.20900
C  35.78900 49.03000 22.23800
C  36.28500 48.46700 20.85300
C  36.67100 47.03100 21.22700
C  36.50500 47.00800 22.76300
C  35.22200 48.55500 19.65200
C  38.07700 46.63600 20.74700
C  39.24000 47.17700 21.52900
N  36.00600 46.55700 25.65600
C  36.54200 45.56300 24.85600
C  36.69700 44.34900 25.70800
C  36.45200 44.75700 26.96700
C  35.99600 46.08300 26.93600
C  37.16000 42.92200 25.18700
C  36.35500 44.22100 28.30500
O  36.33800 43.05900 28.59000
C  36.03600 45.39100 29.23700
C  34.90500 45.17400 30.14500
O  33.74900 45.39300 29.91800
O  35.47300 44.72900 31.30700
C  34.45700 44.56900 32.40200
H  34.33200 52.09500 27.76400
H  35.30000 50.83900 21.46000
H  37.07400 45.02300 22.76600
H  34.27600 48.07700 30.43100
H  35.42200 50.72100 29.73500
H  33.32900 51.31400 30.56800
H  32.82900 49.66800 30.58800
H  32.57500 50.73500 29.15400
H  36.98100 49.40900 30.65600
H  36.85400 47.67900 30.50500
H  36.70800 49.35000 32.75700
H  36.52100 47.64900 32.71900
H  35.02900 54.72000 25.85300
H  33.78600 53.69300 26.73200
H  33.36000 54.57900 25.25500
H  34.84300 55.46000 21.91200
H  35.10500 55.22500 23.61400
H  33.46100 55.04100 22.89100
H  37.13900 49.08000 20.56400
H  35.91600 46.34600 20.84000
H  35.10500 47.65000 19.05500
H  35.50200 49.28500 18.89300
H  34.23700 48.85200 20.01200
H  38.05700 47.11000 19.76600
H  38.13900 45.54800 20.76400
H  39.67500 46.38100 22.13400
H  38.80000 47.92700 22.18600
H  40.08000 47.59000 20.97100
H  36.73300 42.73600 24.20200
H  36.76900 42.13100 25.82800
H  38.24600 42.97300 25.26600
H  36.90900 45.62200 29.84700
H  34.17500 43.53300 32.58700
H  33.57700 45.17500 32.18900
H  34.82100 44.85500 33.38900

