158

Mg 25.59400 2.19500 29.93000
C  27.65400 1.22300 32.61800
C  22.86100 2.11800 32.08500
C  23.44300 2.68900 27.35300
C  28.15200 1.62600 27.74600
N  25.29000 1.84100 32.09900
C  26.29300 1.55300 33.05000
C  25.80100 1.79900 34.49200
C  24.24900 1.77500 34.28400
C  24.14800 1.95300 32.71900
C  23.58800 0.46200 34.81200
C  26.35900 3.01400 35.20200
C  27.34200 2.63600 36.34700
H  27.47200 3.65300 37.49400
N  23.42800 2.45700 29.77100
C  22.53100 2.37600 30.78100
C  21.19700 2.57200 30.27000
C  21.32000 2.64500 28.83900
C  22.78500 2.58200 28.60500
C  20.00700 2.63200 31.19000
C  20.29600 2.81500 27.78800
O  20.57400 2.95500 26.56700
C  18.97500 2.90800 28.20200
N  25.77900 2.20400 27.87200
C  24.83600 2.57900 27.01200
C  25.38000 2.74600 25.54700
C  26.92800 2.42100 25.71000
C  26.95300 2.03400 27.18700
C  24.58600 1.99300 24.43900
C  27.76600 3.68000 25.40600
C  28.98800 3.27100 24.57700
N  27.50800 1.57000 30.10600
C  28.41900 1.26800 29.04600
C  29.55900 0.68500 29.61100
C  29.33300 0.76900 31.04000
C  28.08000 1.23000 31.27500
C  30.82000 0.37300 28.82200
C  30.00600 0.62300 32.34400
O  31.13500 0.28100 32.66100
C  28.93100 0.91800 33.41700
C  28.80100 -0.16900 34.44400
O  28.21900 -1.25900 34.26500
O  29.46800 0.20000 35.62500
C  29.27300 -0.65200 36.79700
H  22.09000 2.03100 32.85400
H  22.85600 2.99500 26.48500
H  28.96000 1.67600 27.01300
H  26.03200 0.90100 35.06600
H  23.66600 2.56100 34.76500
H  22.55500 0.60000 35.13000
H  24.16000 0.27000 35.71900
H  23.68100 -0.37500 34.11900
H  25.51900 3.54100 35.65400
H  26.84800 3.66200 34.47500
H  28.34800 2.63900 35.92700
H  27.20400 1.59800 36.65000
H  20.11100 2.14600 32.16000
H  19.21100 2.02400 30.76000
H  19.70500 3.65700 31.40400
H  18.64600 2.05100 28.78800
H  18.36500 3.22900 27.35700
H  19.01600 3.73800 28.90700
H  25.16600 3.79300 25.33300
H  27.30200 1.52400 25.21700
H  25.31100 1.37400 23.91100
H  24.06400 2.70600 23.80100
H  23.81500 1.40700 24.93900
H  28.09700 4.11700 26.34800
H  27.16800 4.38200 24.82400
H  29.05800 4.05700 23.82500
H  28.89200 2.30000 24.09100
H  29.88800 3.26800 25.19200
H  30.85100 -0.64600 28.43600
H  31.67600 0.37100 29.49700
H  30.88200 1.07400 27.98900
H  29.31800 1.82600 33.88000
H  28.30900 -0.38500 37.23100
H  30.09800 -0.41900 37.47000
H  29.39600 -1.73300 36.72400
Mg 9.98100 47.36900 26.02800
C  8.02700 47.33500 28.92900
C  12.63300 48.77900 27.97200
C  11.92200 47.56600 23.29000
C  7.09600 46.86600 24.14100
N  10.18000 48.01200 28.12000
C  9.35000 47.71700 29.11600
C  9.84000 48.35100 30.37200
C  11.12700 49.12100 30.02900
C  11.34200 48.55300 28.62300
C  11.02100 50.67300 30.08100
C  10.10500 47.31400 31.56300
C  9.74500 47.69100 33.01300
H  9.87900 46.60000 34.07000
N  12.02800 47.96400 25.67700
C  12.92600 48.47800 26.64100
C  14.29000 48.43400 25.97200
C  14.09500 48.09800 24.57400
C  12.61000 47.90100 24.45300
C  15.59500 48.78100 26.76500
C  15.24300 47.75900 23.52600
O  14.98600 47.45300 22.34300
C  16.68800 47.82500 23.94200
N  9.51900 47.28800 24.01300
C  10.55500 47.24700 23.09400
C  10.01900 47.07900 21.65300
C  8.50100 46.67700 21.92400
C  8.34300 46.99500 23.46200
C  10.35600 48.31000 20.78000
C  8.21800 45.21800 21.57500
C  8.47900 44.13800 22.68600
N  7.90100 47.03600 26.43500
C  6.86500 46.87100 25.57000
C  5.65600 46.77900 26.36800
C  6.04800 46.87700 27.69100
C  7.46800 47.06400 27.69900
C  4.25300 46.64900 25.80700
C  5.59100 46.88600 29.08600
O  4.43800 46.65300 29.55800
C  6.90900 47.27500 29.91200
C  7.15800 46.13300 30.82400
O  7.72500 45.13300 30.48300
O  6.58700 46.42400 32.05600
C  6.50200 45.24200 32.89200
H  13.44200 49.13800 28.61200
H  12.47700 47.50800 22.35200
H  6.20000 46.74500 23.52900
H  9.06200 49.04000 30.70000
H  12.00400 48.82600 30.60600
H  11.41400 51.06100 29.14200
H  11.52500 51.12600 30.93500
H  10.02000 51.09000 30.18700
H  11.19100 47.23100 31.59700
H  9.75800 46.30200 31.35600
H  8.70100 48.00400 33.05100
H  10.41200 48.52800 33.21600
H  15.40200 48.94000 27.82600
H  15.86200 49.74500 26.33200
H  16.32700 47.97900 26.67200
H  16.72000 46.89300 24.50600
H  16.84300 48.71600 24.54900
H  17.50200 47.91800 23.22400
H  10.50900 46.21500 21.20400
H  7.74400 47.28500 21.42900
H  10.76300 49.12900 21.37300
H  9.49800 48.83400 20.35800
H  11.11600 48.05700 20.04100
H  8.75800 44.91000 20.68000
H  7.14400 45.08800 21.44000
H  8.93800 44.32700 23.65600
H  9.23300 43.49300 22.23500
H  7.55700 43.57200 22.81900
H  4.04300 45.59600 25.62100
H  4.27100 47.15100 24.84000
H  3.57000 47.17700 26.47400
H  6.82200 48.21300 30.46000
H  6.26900 44.36100 32.29500
H  5.62500 45.35500 33.53100
H  7.36500 45.28300 33.55600

