158

Mg -2.08900 17.51700 26.33200
C  -2.57600 15.11700 28.91100
C  -2.75300 19.98200 28.64700
C  -2.03900 19.67100 23.79100
C  -2.33000 14.78500 24.00300
N  -2.77500 17.48100 28.54400
C  -2.70000 16.42800 29.37800
C  -2.66300 16.96400 30.79700
C  -2.94600 18.45400 30.64700
C  -2.69600 18.66700 29.16200
C  -4.33500 19.05900 31.11800
C  -1.44500 16.68400 31.71000
C  -1.21500 17.50800 33.02900
H  -0.68600 16.87600 34.35200
N  -2.39500 19.53900 26.24500
C  -2.57500 20.37800 27.31400
C  -2.70600 21.73000 26.81400
C  -2.72300 21.64600 25.37700
C  -2.35100 20.25000 25.05200
C  -2.90700 22.91700 27.83900
C  -2.97400 22.70200 24.32300
O  -2.91600 22.47800 23.08800
C  -3.36900 24.04200 24.70400
N  -1.88300 17.23500 24.17300
C  -2.00900 18.30900 23.33100
C  -1.89200 17.88700 21.86700
C  -2.29200 16.36000 21.91100
C  -2.12800 16.08600 23.46600
C  -2.66400 18.80500 20.85800
C  -1.39900 15.45100 20.94800
C  -2.13500 14.59900 19.94300
N  -2.17400 15.36900 26.38900
C  -2.29100 14.43300 25.37500
C  -2.43600 13.11400 25.88400
C  -2.43000 13.34000 27.29000
C  -2.33600 14.73700 27.56400
C  -2.46200 11.80000 25.17800
C  -2.53600 12.68100 28.52100
O  -2.67400 11.46900 28.65500
C  -2.65900 13.80600 29.65900
C  -1.56500 13.64300 30.54400
O  -0.43600 13.92200 30.24600
O  -1.92000 12.89200 31.65500
C  -0.94100 12.49800 32.63500
H  -2.93600 20.78600 29.36300
H  -2.15900 20.30600 22.91100
H  -2.50900 14.02000 23.24400
H  -3.52700 16.49500 31.26800
H  -2.26100 19.04900 31.25000
H  -4.15300 19.74500 31.94500
H  -4.90400 18.20700 31.48900
H  -4.90700 19.54200 30.32600
H  -0.58500 16.68200 31.04100
H  -1.57800 15.63300 31.96600
H  -2.16500 18.01900 33.18600
H  -0.49000 18.25500 32.70500
H  -2.15900 23.66300 27.56800
H  -2.54600 22.59600 28.81600
H  -3.91000 23.34300 27.81700
H  -4.36800 24.11600 25.13500
H  -3.57300 24.53900 23.75500
H  -2.70700 24.61200 25.35700
H  -0.82500 17.91400 21.64400
H  -3.33000 16.27900 21.58600
H  -1.98000 19.14700 20.08200
H  -3.22800 19.56700 21.39600
H  -3.37900 18.23100 20.26900
H  -0.85600 14.86200 21.68700
H  -0.69800 15.99600 20.31600
H  -1.91600 13.57600 20.25000
H  -1.62400 14.75300 18.99300
H  -3.21900 14.71000 19.94000
H  -3.48600 11.64500 24.84000
H  -2.27900 10.98700 25.88100
H  -1.89600 11.81500 24.24700
H  -3.55600 13.61400 30.24700
H  -0.12200 11.91900 32.20600
H  -1.45500 12.09500 33.50800
H  -0.40300 13.37700 32.98800
Mg 47.18700 16.66100 28.55100
C  45.09100 16.24700 31.27800
C  49.34700 18.39300 30.61900
C  48.74600 18.08100 25.96500
C  44.76100 15.17800 26.56500
N  47.07000 17.30700 30.70000
C  46.24800 16.88900 31.63900
C  46.74000 17.26400 33.07700
C  47.98700 18.18500 32.78200
C  48.17400 17.99600 31.28800
C  47.78200 19.67000 33.03600
C  47.10900 16.05000 33.95800
C  46.65300 16.13400 35.48100
H  46.27600 17.54500 35.98600
N  48.93100 17.82100 28.29400
C  49.71300 18.27100 29.29000
C  50.90600 18.90200 28.76700
C  50.70000 18.95400 27.38400
C  49.41800 18.30800 27.10900
C  52.11000 19.36600 29.65900
C  51.56400 19.44500 26.20500
O  51.29700 19.36000 25.06300
C  52.93800 19.95700 26.59700
N  46.89300 16.53600 26.56600
C  47.56000 17.33900 25.68500
C  46.89300 17.22700 24.27400
C  45.83600 16.10800 24.53900
C  45.82000 15.94600 25.98800
C  46.27600 18.51300 23.85300
C  46.06500 14.74300 23.82600
C  46.95400 13.71300 24.63500
N  45.35900 15.65700 28.88500
C  44.48800 15.21100 27.94900
C  43.31400 14.69700 28.58400
C  43.48300 15.02900 29.95500
C  44.68700 15.71000 30.01800
C  42.11700 14.07100 27.90500
C  42.91300 15.06800 31.29800
O  41.82700 14.71200 31.75700
C  43.97200 15.79900 32.26200
C  43.25600 16.94400 32.95400
O  42.84200 17.99100 32.47400
O  43.05600 16.59600 34.30900
C  42.24300 17.55600 35.11200
H  50.13100 18.82100 31.24700
H  49.06400 18.66100 25.09600
H  43.91300 14.75700 26.02200
H  45.99900 17.87500 33.59400
H  48.84900 17.78600 33.31500
H  46.69800 19.59800 32.94800
H  48.15000 20.27300 32.20500
H  48.14700 19.98900 34.01200
H  48.19400 15.94600 33.95900
H  46.79800 15.13400 33.45600
H  47.48200 15.72800 36.06100
H  45.79500 15.46600 35.55800
H  52.26300 20.43000 29.47900
H  53.04000 18.93500 29.28800
H  51.99900 19.28500 30.74000
H  53.52400 19.12600 26.99000
H  52.80500 20.65100 27.42700
H  53.38100 20.46500 25.74000
H  47.69500 16.99300 23.57400
H  44.85100 16.46000 24.23300
H  46.60100 19.31400 24.51700
H  45.18600 18.53500 23.88000
H  46.68500 18.73400 22.86700
H  46.51200 14.95800 22.85500
H  45.09300 14.25200 23.87600
H  47.59000 14.11100 25.42600
H  47.69700 13.35600 23.92300
H  46.33700 12.97200 25.14300
H  41.23300 14.70400 27.97300
H  41.91400 13.19100 28.51400
H  42.25200 13.77300 26.86500
H  44.15400 14.99500 32.97500
H  41.16700 17.49100 34.95100
H  42.56400 18.55500 34.81600
H  42.41700 17.34300 36.16700

