158

Mg -1.68300 35.09000 26.75700
C  -3.00700 32.74800 29.16000
C  -0.91500 37.16700 29.23100
C  -0.85300 37.22300 24.25200
C  -2.88400 32.93000 24.30300
N  -1.96200 34.94400 28.97100
C  -2.38400 33.85400 29.71300
C  -2.14800 34.16800 31.22900
C  -1.66000 35.66400 31.23200
C  -1.47700 35.98700 29.70900
C  -2.59500 36.73600 31.96100
C  -1.33600 33.11100 31.93100
C  -1.95400 32.63700 33.32900
H  -0.97200 32.44800 34.54300
N  -0.84000 36.87700 26.78500
C  -0.52400 37.56300 27.90400
C  0.08400 38.76700 27.46800
C  0.00900 38.82800 26.03800
C  -0.56700 37.60200 25.61500
C  0.59200 39.84800 28.43700
C  0.49000 39.97500 25.08400
O  0.49800 39.94000 23.86600
C  1.06500 41.27800 25.71100
N  -1.75000 34.99100 24.59400
C  -1.42100 36.02800 23.81000
C  -1.90000 35.74700 22.28200
C  -2.17600 34.21300 22.30800
C  -2.30400 34.05800 23.79700
C  -3.25000 36.38600 21.83100
C  -0.94900 33.34400 21.80900
C  0.24300 33.04400 22.77900
N  -2.84700 33.29800 26.65700
C  -3.11700 32.54500 25.57200
C  -3.78100 31.35000 25.96700
C  -3.84400 31.40200 27.37500
C  -3.19400 32.59300 27.75200
C  -4.36100 30.24500 25.08700
C  -4.32200 30.76300 28.67700
O  -4.86500 29.74200 28.92000
C  -3.75800 31.60700 29.89000
C  -4.88100 32.24500 30.68100
O  -5.41200 33.33100 30.43900
O  -5.20400 31.44900 31.69400
C  -6.08500 32.04200 32.68400
H  -0.65300 37.89300 30.00400
H  -0.62400 37.89500 23.42300
H  -3.21900 32.18100 23.58300
H  -3.12000 34.11700 31.72000
H  -0.68000 35.81200 31.68600
H  -3.35900 36.29300 32.60000
H  -2.94700 37.46900 31.23500
H  -1.89100 37.16800 32.67200
H  -0.34100 33.55000 32.00600
H  -1.25400 32.24500 31.27500
H  -2.44300 31.67200 33.19400
H  -2.73200 33.35100 33.59900
H  1.58500 40.16100 28.11500
H  0.60700 39.48800 29.46500
H  -0.00100 40.76200 28.43100
H  0.99800 41.98900 24.88700
H  2.11000 41.19500 26.00800
H  0.43800 41.72900 26.48100
H  -1.14600 35.88500 21.50700
H  -3.06000 33.92000 21.74200
H  -3.22300 36.50900 20.74900
H  -3.26700 37.42000 22.17500
H  -4.06300 35.78800 22.24500
H  -0.73600 33.71700 20.80700
H  -1.30400 32.35300 21.52600
H  0.48400 33.86000 23.46000
H  1.16600 32.86100 22.22900
H  0.07700 32.16800 23.40600
H  -5.42400 30.37600 24.88700
H  -4.25400 29.30100 25.62200
H  -3.74500 30.14500 24.19300
H  -3.02900 31.17700 30.57700
H  -5.48600 32.69900 33.31500
H  -6.50500 31.25800 33.31400
H  -6.85900 32.64600 32.21000
Mg -4.41700 24.70100 26.44300
C  -3.25700 26.38400 29.10200
C  -5.88400 22.45600 28.52000
C  -6.02100 23.24400 23.79300
C  -2.79000 26.82400 24.37100
N  -4.55800 24.44900 28.54900
C  -4.13400 25.39000 29.49800
C  -4.64800 25.04400 30.88600
C  -5.25200 23.62000 30.77900
C  -5.23900 23.44200 29.20500
C  -4.57200 22.48400 31.58900
C  -5.50700 26.19300 31.39800
C  -5.18400 26.61800 32.85200
H  -4.92300 25.55600 33.92000
N  -5.65000 23.04900 26.20400
C  -6.13600 22.26700 27.19600
C  -6.90900 21.16100 26.64500
C  -6.86900 21.34400 25.29900
C  -6.13300 22.59500 25.03900
C  -7.36100 20.06600 27.59700
C  -7.53500 20.40600 24.23800
O  -7.47600 20.54100 23.00100
C  -8.18400 19.13200 24.66400
N  -4.25900 24.91600 24.38200
C  -5.08400 24.25100 23.51300
C  -4.98700 24.89800 22.07500
C  -4.03100 26.05500 22.25900
C  -3.53600 25.88000 23.74400
C  -4.56500 23.86300 20.97700
C  -4.76400 27.44300 22.04400
C  -3.82100 28.60600 21.54800
N  -3.24400 26.26800 26.67600
C  -2.59200 27.01900 25.69900
C  -1.91500 28.18100 26.40400
C  -2.07400 27.86500 27.76000
C  -2.87600 26.76600 27.81900
C  -1.16900 29.37700 25.82900
C  -1.73800 28.23500 29.10100
O  -1.05800 29.21600 29.45500
C  -2.47800 27.36500 30.06400
C  -1.50800 26.70000 30.98400
O  -0.87800 25.61900 30.83500
O  -1.47400 27.40900 32.18900
C  -0.97600 26.59700 33.32000
H  -6.49700 21.85300 29.19400
H  -6.60000 22.78400 22.99000
H  -2.38300 27.56000 23.67400
H  -3.82300 24.96700 31.59400
H  -6.26500 23.64700 31.18200
H  -5.31600 22.09200 32.28200
H  -3.77100 22.87100 32.21800
H  -4.20500 21.70300 30.92200
H  -6.58300 26.02700 31.35800
H  -5.41000 27.11500 30.82600
H  -5.93800 27.24400 33.32800
H  -4.27500 27.21900 32.87700
H  -8.22700 19.54700 27.18700
H  -7.76100 20.41400 28.54900
H  -6.55000 19.35400 27.75500
H  -7.53500 18.60000 25.36000
H  -8.27700 18.54400 23.75100
H  -9.19400 19.35800 25.00700
H  -6.02100 25.23600 21.99600
H  -3.12700 26.03800 21.64900
H  -4.53500 22.86800 21.42200
H  -3.72600 24.31000 20.44500
H  -5.33200 23.90900 20.20400
H  -5.15600 27.77800 23.00500
H  -5.62100 27.36300 21.37400
H  -3.91600 28.83000 20.48600
H  -2.80800 28.32900 21.84100
H  -4.05300 29.40800 22.24900
H  -0.10800 29.25400 25.60800
H  -1.27100 30.32400 26.35800
H  -1.53900 29.48900 24.81000
H  -3.24700 27.96300 30.55400
H  0.06000 26.92000 33.42300
H  -1.04700 25.51000 33.27900
H  -1.56700 26.94200 34.16900

