158

Mg 46.31200 24.80400 28.56800
C  47.09500 27.21200 31.22900
C  45.17600 22.77200 30.86500
C  46.81400 22.32200 26.37200
C  47.91000 26.96600 26.41800
N  46.35000 24.92300 30.85400
C  46.48800 26.04500 31.72700
C  45.92500 25.75600 33.04800
C  45.35800 24.31000 32.94700
C  45.63400 23.96500 31.44400
C  45.81900 23.27000 33.93700
C  44.92600 26.85900 33.57400
C  45.34600 27.57100 34.86100
H  44.23100 27.83500 35.85600
N  45.74500 22.86700 28.56300
C  45.19900 22.18400 29.64200
C  44.74200 20.93600 29.18300
C  45.35300 20.72600 27.82900
C  46.11900 21.96800 27.54100
C  43.85500 19.93500 30.00400
C  45.39900 19.43100 26.98200
O  45.90100 19.47600 25.82800
C  44.79900 18.15700 27.52300
N  47.23800 24.67800 26.62300
C  47.33200 23.55600 25.93700
C  47.80000 23.80100 24.49100
C  47.92000 25.39100 24.40100
C  47.63600 25.76800 25.92400
C  49.08200 22.97400 24.05000
C  46.96900 26.01100 23.31700
C  45.60000 26.61600 23.71500
N  47.29100 26.78200 28.74700
C  47.75500 27.50600 27.70400
C  48.20900 28.75400 28.29200
C  47.99100 28.68800 29.67200
C  47.42500 27.45200 29.90100
C  48.67300 29.98300 27.52000
C  48.16500 29.45900 30.91100
O  48.60600 30.55000 31.19300
C  47.51300 28.46000 31.96200
C  48.62800 28.15100 32.92200
O  49.59400 27.42100 32.64500
O  48.44300 28.70200 34.11700
C  49.11300 28.00200 35.24900
H  44.66700 22.14700 31.60100
H  46.78500 21.52100 25.63100
H  48.30500 27.70000 25.71300
H  46.81800 25.73500 33.67300
H  44.30800 24.59700 33.00900
H  46.81800 22.98600 33.60800
H  45.07400 22.48300 34.04800
H  45.86100 23.70700 34.93500
H  43.95800 26.39600 33.76200
H  44.98400 27.57300 32.75300
H  45.62700 28.61500 34.72300
H  46.16900 27.06300 35.36400
H  42.99300 19.57800 29.44000
H  43.42700 20.49900 30.83200
H  44.53800 19.17400 30.38200
H  45.05400 17.92700 28.55700
H  45.15000 17.40100 26.82100
H  43.71200 18.07700 27.55000
H  46.88800 23.55600 23.94700
H  48.90600 25.68300 24.03900
H  48.83000 22.11100 23.43400
H  49.66500 22.50300 24.84200
H  49.78200 23.60200 23.49900
H  46.71200 25.27000 22.56000
H  47.56300 26.71200 22.73000
H  45.35300 26.34900 24.74300
H  44.79600 26.20400 23.10500
H  45.63400 27.68700 23.51300
H  47.92300 30.08400 26.73500
H  49.69500 29.80600 27.18600
H  48.52500 30.87800 28.12400
H  46.72400 28.84700 32.60600
H  48.23400 27.72300 35.83000
H  49.72000 28.66900 35.86100
H  49.51800 27.00100 35.09900
Mg -8.42900 40.11000 42.90800
C  -7.40500 36.86900 42.06400
C  -5.61400 41.26100 41.24700
C  -9.71500 43.23800 43.12000
C  -11.38800 38.79500 44.12200
N  -6.75800 39.15000 41.67500
C  -6.52300 37.80500 41.54100
C  -5.26000 37.58800 40.73300
C  -4.48500 38.93200 40.84700
C  -5.69400 39.83400 41.26000
C  -3.26000 38.82500 41.87700
C  -5.57600 37.15500 39.26900
C  -5.28700 35.74700 38.72000
H  -4.19400 35.55600 37.64600
N  -7.74900 41.98100 42.39600
C  -6.53300 42.25800 41.66300
C  -6.38300 43.67100 41.45100
C  -7.45900 44.24500 42.08500
C  -8.41700 43.13200 42.57800
C  -5.17900 44.29500 40.73300
C  -7.68300 45.71600 42.12500
O  -7.01100 46.47500 41.51600
C  -8.76400 46.34700 42.96600
N  -10.36900 40.88900 43.45900
C  -10.59800 42.23200 43.55100
C  -12.03800 42.48300 44.06100
C  -12.48000 41.02700 44.49000
C  -11.39500 40.18700 43.97600
C  -12.15600 43.54800 45.23500
C  -13.93000 40.61900 44.08500
C  -14.02900 40.28200 42.57900
N  -9.25900 38.20900 43.09300
C  -10.45600 37.81500 43.73000
C  -10.55100 36.38200 43.66500
C  -9.38200 36.00700 43.04700
C  -8.61100 37.11300 42.69900
C  -11.77500 35.67000 44.17800
C  -8.50800 34.82200 42.71300
O  -8.73400 33.63700 42.91700
C  -7.28300 35.36100 41.89200
C  -6.02600 34.85300 42.47600
O  -5.37800 35.30600 43.44200
O  -5.66100 33.73300 41.83800
C  -4.41000 33.04900 42.19500
H  -4.67200 41.62000 40.82700
H  -10.09600 44.25300 43.25200
H  -12.30400 38.37400 44.54200
H  -4.68900 36.80500 41.23300
H  -4.11400 39.26900 39.88000
H  -3.12900 39.68400 42.53400
H  -2.41800 38.71000 41.19400
H  -3.29300 37.92600 42.49300
H  -5.09700 37.82700 38.55700
H  -6.66000 37.23500 39.18800
H  -6.17400 35.23700 38.34300
H  -4.92700 35.33300 39.66300
H  -5.39700 45.24500 40.24500
H  -4.74100 43.67500 39.95100
H  -4.39100 44.36400 41.48300
H  -8.51800 47.39800 43.12200
H  -8.90500 45.91600 43.95800
H  -9.66000 46.20100 42.36200
H  -12.61800 42.80000 43.19400
H  -12.33800 40.85600 45.55700
H  -11.28000 44.19500 45.19200
H  -12.17900 43.03400 46.19600
H  -12.98300 44.25000 45.13600
H  -14.60300 41.44800 44.30200
H  -14.17600 39.70600 44.62900
H  -13.87300 39.21600 42.41500
H  -13.49200 40.98400 41.94100
H  -15.09500 40.37300 42.37000
H  -11.32600 34.68300 44.28600
H  -12.61000 35.77700 43.48600
H  -12.05000 36.07200 45.15400
H  -7.23400 35.08000 40.84000
H  -3.56600 33.69700 42.43000
H  -4.13200 32.30500 41.44900
H  -4.56300 32.38900 43.04900

