158

Mg 24.46000 -4.86500 45.37800
C  27.04800 -2.66300 43.93500
C  22.19300 -3.33600 43.25200
C  22.52900 -7.48300 45.88900
C  27.08300 -6.23500 47.41300
N  24.65800 -3.16100 43.78400
C  25.76600 -2.37900 43.39500
C  25.36000 -1.30500 42.45500
C  23.80000 -1.52300 42.39100
C  23.48500 -2.77000 43.21500
C  22.91300 -0.31700 42.91000
C  25.95900 -1.33600 40.96900
C  26.00600 0.00900 40.13800
H  25.20300 -0.06100 38.80300
N  22.54300 -5.35100 44.62700
C  21.75900 -4.55800 43.81100
C  20.62200 -5.34400 43.57800
C  20.69200 -6.55900 44.26800
C  21.97000 -6.56000 44.95400
C  19.49400 -4.92800 42.63700
C  19.58600 -7.68400 44.21700
O  18.61300 -7.57800 43.46100
C  19.72600 -8.94100 45.06000
N  24.69900 -6.47000 46.63400
C  23.72700 -7.44700 46.63500
C  24.14500 -8.57700 47.61200
C  25.40600 -7.99200 48.30700
C  25.79300 -6.85800 47.39500
C  23.08300 -9.11700 48.57500
C  26.52000 -8.96900 48.58400
C  26.97600 -9.21600 50.04900
N  26.56700 -4.54700 45.68100
C  27.53500 -5.19000 46.55100
C  28.81800 -4.53300 46.44700
C  28.58700 -3.51900 45.48500
C  27.27500 -3.62400 44.95000
C  30.10500 -4.86700 47.25900
C  29.30800 -2.45700 44.81000
O  30.42400 -2.08800 45.03600
C  28.30700 -1.87300 43.77400
C  28.15600 -0.44400 44.02300
O  28.06600 0.03000 45.14800
O  28.13500 0.22400 42.85700
C  28.10600 1.69200 42.98900
H  21.44700 -2.81900 42.64500
H  22.00100 -8.43800 45.90000
H  27.83500 -6.62100 48.10400
H  25.50400 -0.36600 42.98900
H  23.53100 -1.59500 41.33700
H  23.55000 0.53700 43.13800
H  22.48200 -0.67200 43.84700
H  22.15100 -0.06400 42.17200
H  25.40500 -2.09800 40.42100
H  26.99500 -1.67300 40.96700
H  27.03400 0.31000 39.93800
H  25.69900 0.86900 40.73200
H  19.49100 -5.47500 41.69400
H  19.55800 -3.84800 42.50300
H  18.55400 -5.16000 43.13700
H  19.73900 -8.79600 46.14100
H  20.58400 -9.48400 44.66300
H  18.84600 -9.55200 44.86400
H  24.53200 -9.39900 47.00900
H  25.13800 -7.44500 49.21100
H  22.19200 -8.50600 48.42800
H  23.33500 -9.07200 49.63400
H  22.81800 -10.16100 48.41000
H  27.46300 -8.73000 48.09300
H  26.33900 -10.00400 48.29300
H  26.40500 -10.01700 50.51900
H  26.90900 -8.25600 50.56100
H  28.02800 -9.49800 50.06000
H  30.73600 -3.97800 47.25700
H  30.59900 -5.72000 46.79400
H  29.67700 -5.08000 48.23900
H  28.70700 -2.03300 42.77300
H  29.09400 2.15200 43.02300
H  27.60900 2.06800 43.88300
H  27.64900 2.04600 42.06500
Mg 48.65300 15.85600 29.34000
C  46.38900 15.30300 31.92400
C  50.83000 17.23300 31.59800
C  50.77500 16.29100 26.71400
C  46.30200 14.44200 27.12100
N  48.54100 16.30200 31.57300
C  47.60000 15.84000 32.42100
C  48.10200 15.99400 33.86500
C  49.34100 16.94500 33.71300
C  49.67300 16.76600 32.19100
C  49.18100 18.41500 34.16300
C  48.50500 14.60500 34.45400
C  48.36100 14.26300 36.00700
H  48.08200 15.52200 36.84300
N  50.53200 16.65600 29.18700
C  51.23300 17.21900 30.20100
C  52.43200 17.70100 29.63600
C  52.48800 17.38900 28.25700
C  51.19500 16.82000 27.98400
C  53.45000 18.47600 30.46700
C  53.50500 17.77400 27.14900
O  53.26500 17.68100 25.91100
C  54.83100 18.25600 27.61400
N  48.53100 15.38800 27.15100
C  49.47300 15.81200 26.31900
C  49.11300 15.54900 24.83400
C  47.77400 14.77100 25.02900
C  47.49500 14.86200 26.48900
C  48.92400 16.85600 24.07900
C  47.79700 13.24000 24.66000
C  47.00600 12.71600 23.48200
N  46.69900 15.21600 29.41100
C  45.85400 14.63100 28.45500
C  44.62000 14.18700 29.01000
C  44.84100 14.42700 30.39200
C  46.04900 15.13900 30.56700
C  43.56300 13.29400 28.28900
C  44.27000 14.26500 31.72400
O  43.28500 13.63600 32.04600
C  45.22000 14.84100 32.75400
C  44.44200 15.78500 33.60600
O  44.26300 16.92600 33.26800
O  44.16800 15.20700 34.80900
C  43.40200 16.07200 35.76900
H  51.55100 17.67100 32.29200
H  51.41200 16.32000 25.82800
H  45.58600 14.03700 26.40300
H  47.28700 16.43200 34.44100
H  50.24600 16.65000 34.24500
H  49.63900 19.18100 33.53700
H  49.69300 18.52300 35.11900
H  48.13400 18.70300 34.25900
H  49.54400 14.48300 34.14700
H  47.93700 13.90400 33.84300
H  49.27900 13.72800 36.25000
H  47.51800 13.58100 36.11900
H  53.99900 19.19500 29.85800
H  54.09900 17.73800 30.93900
H  52.86100 19.05400 31.17900
H  54.62400 19.32100 27.72200
H  55.62400 18.04500 26.89600
H  55.01200 17.72400 28.54700
H  49.81200 14.95300 24.24700
H  46.95700 15.16700 24.42700
H  49.13700 16.59300 23.04300
H  49.53900 17.68400 24.43400
H  47.90500 17.23600 24.15000
H  47.47300 12.61200 25.49000
H  48.84200 12.97900 24.49200
H  46.85700 13.55300 22.79900
H  45.98700 12.43000 23.74400
H  47.50900 11.88200 22.99300
H  42.92200 13.93300 27.68200
H  42.96300 12.68100 28.96100
H  44.04400 12.61300 27.58700
H  45.59600 14.01300 33.35500
H  42.39600 15.65300 35.76700
H  43.35800 17.14000 35.55200
H  43.92600 16.08700 36.72500

