158

Mg 2.30100 -0.82500 43.56600
C  5.56800 0.46000 43.65200
C  1.26900 2.23600 42.40000
C  -0.46600 -2.22900 42.67500
C  3.70100 -3.95400 44.29000
N  3.30300 1.00800 42.99800
C  4.62300 1.30900 43.18000
C  4.86500 2.84300 42.95800
C  3.41300 3.41400 42.81100
C  2.56200 2.13100 42.73800
C  2.99400 4.35700 43.96800
C  5.88600 3.26900 41.84700
C  6.09100 2.48900 40.52900
H  5.68100 3.24200 39.24800
N  0.54800 -0.09600 42.73500
C  0.31300 1.19200 42.37500
C  -1.08200 1.27400 42.04600
C  -1.70600 0.01200 42.06500
C  -0.50300 -0.87300 42.46800
C  -1.66000 2.64500 41.89200
C  -3.16100 -0.26600 41.62400
O  -3.96500 0.59700 41.39400
C  -3.60900 -1.70800 41.54100
N  1.81000 -2.95500 43.16400
C  0.53200 -3.15500 43.06000
C  0.13400 -4.61800 43.41400
C  1.57700 -5.19000 43.81600
C  2.42200 -3.97800 43.73400
C  -0.95000 -4.64000 44.56900
C  2.08200 -6.36900 42.92800
C  1.66500 -7.76100 43.47000
N  4.25000 -1.67200 43.97600
C  4.71200 -2.89900 44.27200
C  6.08900 -2.88500 44.63100
C  6.44200 -1.55700 44.42600
C  5.32800 -0.87500 43.95800
C  6.93100 -4.04100 44.93900
C  7.56600 -0.59200 44.43800
O  8.77400 -0.77000 44.68800
C  7.03200 0.77500 44.00800
C  7.29800 1.76000 45.09900
O  8.15000 2.58000 44.99600
O  6.34900 1.70200 46.08500
C  6.48100 2.67500 47.15300
H  1.01000 3.18100 41.91800
H  -1.45000 -2.67100 42.50500
H  4.01200 -4.88100 44.77600
H  5.44800 3.09600 43.84400
H  3.27700 3.91500 41.85300
H  3.78300 4.30900 44.71900
H  2.03400 4.10500 44.42000
H  2.87400 5.39900 43.67200
H  6.82000 3.48000 42.36700
H  5.55200 4.27900 41.60700
H  5.33700 1.70200 40.53900
H  7.14300 2.22700 40.41300
H  -2.70100 2.74100 42.20000
H  -1.53200 2.89200 40.83800
H  -1.12700 3.36700 42.51200
H  -4.66700 -1.67000 41.27900
H  -3.58300 -2.17800 42.52400
H  -3.04800 -2.28400 40.80500
H  -0.36900 -5.25400 42.68600
H  1.64000 -5.36900 44.88900
H  -1.85700 -5.16300 44.26500
H  -1.15400 -3.65400 44.98700
H  -0.55900 -5.31700 45.32800
H  3.17000 -6.42400 42.96000
H  1.88200 -6.34000 41.85700
H  1.26000 -8.37700 42.66700
H  0.93700 -7.75600 44.28100
H  2.59200 -8.24900 43.76900
H  6.53900 -4.69700 45.71600
H  7.89500 -3.59100 45.17800
H  7.17300 -4.66500 44.08000
H  7.68800 1.01200 43.17000
H  6.30500 3.67900 46.76600
H  7.44200 2.65700 47.66600
H  5.69600 2.58000 47.90400
Mg -1.59900 34.46900 26.99800
C  -2.70200 32.63700 29.84400
C  0.09500 36.55900 28.96600
C  -0.99900 36.27200 24.20300
C  -3.38800 32.14000 24.93800
N  -1.36900 34.61500 29.17800
C  -1.90600 33.75400 30.16800
C  -1.36300 34.18100 31.55200
C  -0.62900 35.51100 31.22800
C  -0.58000 35.56000 29.68500
C  -1.15400 36.84100 31.92500
C  -0.61700 33.06400 32.35500
C  0.13800 33.43300 33.65900
H  -0.02000 32.73800 35.00500
N  -0.62300 36.24000 26.66600
C  0.18600 36.89400 27.62500
C  0.74000 38.02500 27.07300
C  0.39000 38.01200 25.62600
C  -0.51800 36.87600 25.43900
C  1.65300 38.96500 27.82800
C  0.75600 39.01700 24.46600
O  0.20800 38.98000 23.37600
C  1.68800 40.19700 24.77300
N  -2.25500 34.31800 24.87100
C  -1.71200 35.13700 23.96200
C  -2.19000 34.84400 22.51100
C  -2.73300 33.37200 22.68300
C  -2.86200 33.21600 24.23600
C  -3.30600 35.82200 21.95400
C  -1.86600 32.23800 22.08500
C  -0.36000 32.08800 22.46400
N  -2.75300 32.76500 27.27200
C  -3.36200 31.91700 26.30400
C  -4.15000 30.94000 26.99900
C  -3.82400 31.11000 28.34900
C  -3.06800 32.30900 28.49800
C  -4.94300 29.85900 26.40800
C  -4.10000 30.60100 29.67000
O  -4.79700 29.70400 30.05900
C  -3.24700 31.48600 30.70800
C  -4.33600 31.90200 31.74000
O  -5.21500 32.66300 31.49600
O  -4.08900 31.32200 33.03600
C  -5.11700 31.56100 34.04300
H  0.72400 37.12800 29.65300
H  -0.74600 36.90000 23.34600
H  -3.88600 31.38600 24.32500
H  -2.31100 34.28700 32.07900
H  0.37400 35.40600 31.64200
H  -1.35700 37.61900 31.19000
H  -0.40400 37.10000 32.67300
H  -2.06300 36.69600 32.50900
H  0.14900 32.65400 31.69700
H  -1.41000 32.33400 32.51600
H  0.01300 34.49900 33.84700
H  1.18600 33.31200 33.38500
H  2.01900 38.68000 28.81400
H  0.95900 39.77400 28.05800
H  2.42800 39.15300 27.08600
H  2.65200 39.68800 24.80100
H  1.30800 40.54100 25.73500
H  1.46600 40.83000 23.91400
H  -1.30400 34.81800 21.87700
H  -3.71700 33.35300 22.21400
H  -3.99000 36.15400 22.73500
H  -3.81000 35.36100 21.10400
H  -2.84800 36.69200 21.48300
H  -1.93700 32.09200 21.00700
H  -2.25800 31.35100 22.58300
H  -0.32300 31.24100 23.14800
H  0.13500 32.91000 22.98100
H  0.19600 31.97600 21.53300
H  -4.80800 29.91700 25.32800
H  -5.99800 29.86100 26.68000
H  -4.54500 28.86200 26.59400
H  -2.46600 30.84700 31.12000
H  -5.45700 30.62300 34.48200
H  -5.90400 32.23100 33.69700
H  -4.62800 32.10800 34.85000

