158

Mg 40.53400 7.58700 29.94900
C  42.48000 8.91600 32.53700
C  38.39200 6.38000 32.29600
C  38.92200 5.92200 27.37000
C  43.16700 8.19400 27.76700
N  40.49500 7.61200 32.19400
C  41.26800 8.38500 33.03200
C  40.78300 8.28200 34.47900
C  39.56500 7.29500 34.33600
C  39.50900 6.95600 32.82300
C  39.75700 5.94000 35.19500
C  40.54700 9.69800 35.09200
C  39.61800 9.76100 36.37700
H  40.39400 9.96600 37.70400
N  38.81300 6.50900 29.78700
C  38.03000 6.05900 30.90400
C  36.82900 5.41400 30.43200
C  36.89100 5.37000 28.97400
C  38.25000 5.97200 28.65200
C  35.76700 4.96700 31.37000
C  35.84000 4.88900 28.00400
O  36.06500 4.89400 26.77700
C  34.55800 4.42200 28.53100
N  40.99200 7.19000 27.76900
C  40.19900 6.45000 26.97600
C  40.83400 6.32800 25.61700
C  42.15900 7.15400 25.67700
C  42.12700 7.62300 27.13500
C  40.97600 4.84200 25.09800
C  42.25800 8.37400 24.63600
C  41.42600 9.49400 24.99500
N  42.45600 8.30700 30.08500
C  43.42600 8.47100 29.10100
C  44.48500 9.21500 29.70300
C  44.20100 9.37800 31.07700
C  42.94100 8.84400 31.18700
C  45.76700 9.55700 28.88100
C  44.75300 9.83600 32.34500
O  45.82300 10.28800 32.60500
C  43.59300 9.53100 33.40200
C  44.11500 8.64000 34.51400
O  44.15600 7.40500 34.54000
O  44.50100 9.36300 35.60000
C  45.07800 8.78100 36.68600
H  37.69200 5.94700 33.01400
H  38.38200 5.39500 26.58000
H  43.90800 8.43500 27.00200
H  41.65700 7.84600 34.96400
H  38.59600 7.69900 34.62700
H  38.87100 5.65600 35.76300
H  40.71300 6.05200 35.70600
H  39.81400 5.11200 34.48900
H  40.18600 10.35100 34.29600
H  41.52600 10.13300 35.29200
H  39.19500 8.75900 36.45000
H  38.88600 10.56900 36.37300
H  35.01300 5.73900 31.53100
H  36.27000 4.67400 32.29100
H  35.21500 4.10000 31.00700
H  34.15800 5.15800 29.22800
H  34.69200 3.44300 28.99200
H  33.88000 4.28500 27.68900
H  40.11500 6.95500 25.08900
H  42.98000 6.45200 25.52500
H  41.87600 4.47300 24.60600
H  40.16900 4.72800 24.37400
H  40.65100 4.32100 25.99900
H  41.86300 7.88600 23.74400
H  43.30300 8.66000 24.51600
H  40.66200 9.23900 25.73000
H  40.73400 9.60800 24.16100
H  42.03200 10.37200 25.22100
H  46.63300 9.42000 29.52900
H  45.69000 10.62600 28.68500
H  45.82500 8.87300 28.03400
H  43.28800 10.48500 33.83200
H  45.92500 8.21500 36.29600
H  44.33900 8.07200 37.05900
H  45.33400 9.38800 37.55400
Mg 6.82900 56.60700 42.61800
C  6.32900 53.08900 42.11500
C  9.97200 56.22500 41.29900
C  7.06900 60.01900 42.36300
C  3.46500 56.89100 43.57400
N  8.01800 54.81400 41.94300
C  7.64000 53.51000 41.74800
C  8.74700 52.61500 41.11800
C  9.95200 53.60900 41.21000
C  9.33700 54.97100 41.56900
C  11.09300 53.05800 42.04300
C  8.31100 52.15100 39.69900
C  8.77600 50.80600 39.26300
H  9.05300 50.53600 37.74300
N  8.31800 57.95200 41.90600
C  9.51600 57.56300 41.40700
C  10.35000 58.72600 41.14500
C  9.57200 59.84700 41.53100
C  8.28300 59.32000 41.94700
C  11.88500 58.57800 40.83400
C  10.04000 61.24000 41.47300
O  11.19100 61.52800 41.22200
C  9.06000 62.38300 41.71500
N  5.38300 58.25700 42.84400
C  5.80700 59.54500 42.89200
C  4.55600 60.48200 43.17400
C  3.37900 59.47800 43.52200
C  4.11800 58.16100 43.36700
C  4.77200 61.61000 44.20500
C  2.12100 59.60500 42.64800
C  0.88000 59.92800 43.51400
N  5.28600 55.31200 42.88700
C  4.04500 55.56900 43.40500
C  3.32600 54.32200 43.58100
C  4.22300 53.39900 43.12900
C  5.32300 53.98800 42.62500
C  1.92500 54.08700 44.19200
C  4.34700 51.95300 42.82000
O  3.49500 51.05100 42.79700
C  5.76200 51.71800 42.19800
C  5.33900 51.16300 40.84800
O  4.67100 51.77900 40.01800
O  5.74500 49.82000 40.73200
C  5.39000 48.98900 39.53100
H  10.96900 56.03100 40.89700
H  7.11100 61.10400 42.47500
H  2.48100 56.86900 44.04600
H  8.89800 51.72900 41.73600
H  10.38500 53.69600 40.21300
H  11.85100 52.73500 41.32900
H  10.85500 52.14100 42.58200
H  11.58100 53.72200 42.75700
H  8.85900 52.81600 39.03200
H  7.27300 52.34700 39.42700
H  8.05400 50.02500 39.50400
H  9.69500 50.54900 39.78900
H  12.08400 57.96300 39.95700
H  12.49300 58.11800 41.61300
H  12.22600 59.58200 40.58200
H  8.77000 62.43300 42.76500
H  8.18900 62.44000 41.06300
H  9.56400 63.34100 41.58300
H  4.24300 61.05700 42.30300
H  3.09600 59.45600 44.57400
H  4.64600 62.62900 43.83700
H  5.79400 61.58800 44.58300
H  4.03900 61.43400 44.99300
H  2.03400 58.69900 42.04800
H  2.23000 60.44500 41.96200
H  0.41200 58.94600 43.58500
H  0.32000 60.68300 42.96200
H  1.17900 60.36800 44.46600
H  1.28500 54.96900 44.18000
H  2.02300 53.81300 45.24300
H  1.37900 53.23200 43.79300
H  6.19100 50.94400 42.83400
H  5.15000 49.67900 38.72100
H  4.39100 48.63600 39.78900
H  6.04200 48.18100 39.19900

