158

Mg 34.43600 3.58400 29.48300
C  32.27500 4.52700 32.10400
C  36.98300 3.37600 31.74700
C  36.59300 3.21000 26.99100
C  31.95800 4.26500 27.18500
N  34.58600 3.83000 31.65900
C  33.56900 4.24800 32.57100
C  34.05900 4.21200 34.03500
C  35.64800 4.05500 33.85300
C  35.73600 3.69400 32.35700
C  36.59400 5.26200 34.18900
C  33.34000 3.08800 34.85000
C  33.01700 3.31200 36.32700
H  34.07800 4.11500 37.05700
N  36.43100 3.14000 29.40100
C  37.31000 2.96000 30.46200
C  38.57800 2.49700 29.97900
C  38.52900 2.50100 28.56800
C  37.11900 2.94200 28.26300
C  39.64600 1.97400 30.88100
C  39.59500 2.28900 27.52900
O  39.43000 2.31300 26.30300
C  40.98200 1.98300 27.94100
N  34.30200 3.84000 27.30000
C  35.32200 3.61000 26.50100
C  34.91300 3.79900 25.04100
C  33.36100 3.92200 25.10500
C  33.16500 3.95200 26.61700
C  35.74500 4.82600 24.14800
C  32.60500 2.77600 24.44200
C  31.18900 3.14300 24.02800
N  32.46900 4.18900 29.61700
C  31.60200 4.37400 28.55700
C  30.33200 4.74400 29.12700
C  30.55300 4.88900 30.50400
C  31.84000 4.39500 30.76900
C  29.07900 5.12100 28.36800
C  29.96900 5.33200 31.79800
O  28.84800 5.78000 32.07800
C  31.05100 5.02800 32.86200
C  31.29200 6.34500 33.71000
O  31.87400 7.35100 33.34200
O  30.74500 6.16200 35.01100
C  30.66300 7.33900 35.86600
H  37.74700 3.12700 32.48700
H  37.22000 2.90100 26.15200
H  31.17800 4.65500 26.52900
H  33.80200 5.18100 34.46400
H  35.95400 3.17100 34.41200
H  37.28500 4.95900 34.97500
H  36.04500 6.09100 34.63400
H  37.10600 5.51400 33.26000
H  33.95300 2.18700 34.85100
H  32.40400 2.86400 34.33700
H  32.88000 2.34500 36.81000
H  32.00900 3.71600 36.41800
H  40.16800 1.12600 30.43800
H  39.15800 1.58000 31.77300
H  40.41600 2.72900 31.04100
H  41.70100 2.39100 27.23000
H  41.11300 0.91000 28.08100
H  41.32400 2.36600 28.90300
H  35.32800 2.88900 24.60700
H  33.06700 4.92100 24.78300
H  36.44100 4.31500 23.48300
H  36.32100 5.50600 24.77600
H  35.17900 5.41000 23.42400
H  32.50200 1.94000 25.13300
H  33.05300 2.33100 23.55400
H  30.98700 3.31400 22.97000
H  30.79600 3.96600 24.62500
H  30.60200 2.26600 24.30000
H  28.96900 4.58400 27.42600
H  28.91000 6.17300 28.14100
H  28.21200 4.72600 28.89800
H  30.71700 4.20600 33.49500
H  29.59500 7.37900 36.08000
H  31.06900 8.27700 35.48700
H  31.33200 7.10700 36.69500
Mg 48.15000 25.52800 29.76600
C  49.77300 27.50800 32.08800
C  47.08500 23.52500 32.48300
C  47.05200 23.24000 27.67500
C  49.71800 27.25500 27.10100
N  48.55800 25.43400 32.10700
C  49.15200 26.45300 32.80700
C  48.88400 26.34400 34.29300
C  48.21100 24.91100 34.37200
C  47.92600 24.55900 32.91700
C  49.03800 23.80900 35.15800
C  48.01400 27.51500 34.98500
C  48.67500 28.25400 36.19700
H  47.66400 28.65300 37.34800
N  47.16200 23.77000 30.04300
C  46.78700 23.07700 31.16800
C  46.06100 21.93600 30.86700
C  46.08600 21.77200 29.47300
C  46.77200 23.00100 28.98200
C  45.46000 20.97800 31.96200
C  45.49500 20.69500 28.61700
O  45.60500 20.60500 27.40100
C  44.76800 19.56100 29.21300
N  48.54900 25.16600 27.68300
C  47.83700 24.20100 27.01600
C  47.87200 24.32400 25.46800
C  48.68200 25.72000 25.37300
C  48.97400 26.11900 26.81000
C  48.69200 23.24400 24.68800
C  47.92800 26.76000 24.47600
C  48.64500 27.05000 23.16300
N  49.45500 27.08600 29.55700
C  49.98700 27.68600 28.41600
C  50.68600 28.94700 28.86800
C  50.67600 28.82300 30.22200
C  49.98600 27.67500 30.66500
C  51.40000 29.94800 28.01200
C  51.09000 29.53800 31.40300
O  51.67000 30.60600 31.51600
C  50.53200 28.67600 32.62600
C  51.73500 28.17400 33.48500
O  52.34200 27.17500 33.31400
O  51.87400 29.09500 34.53300
C  52.77100 28.82700 35.65100
H  46.56500 23.04800 33.31700
H  46.37800 22.72900 26.98400
H  50.02000 27.94600 26.31200
H  49.84200 26.32900 34.81100
H  47.22100 24.98900 34.82000
H  49.72700 24.26700 35.86800
H  49.76600 23.28300 34.54000
H  48.25600 23.25600 35.67800
H  47.04300 27.10000 35.25600
H  47.92800 28.23600 34.17300
H  49.25400 29.07600 35.77600
H  49.42800 27.56100 36.57100
H  45.78300 21.16000 32.98600
H  45.73800 19.93900 31.78600
H  44.38300 21.09800 32.08500
H  45.29500 19.02400 30.00100
H  44.49100 18.88400 28.40400
H  43.89500 20.02800 29.66700
H  46.82900 24.40000 25.15800
H  49.66500 25.55500 24.93300
H  48.06300 22.40600 24.38900
H  49.27700 22.82800 25.50800
H  49.32000 23.64800 23.89400
H  47.61600 27.59000 25.11000
H  46.92100 26.37900 24.30600
H  47.93200 26.96800 22.34300
H  49.54300 26.46700 22.96000
H  49.05200 28.05500 23.04700
H  51.63600 29.48200 27.05500
H  52.35700 30.05400 28.52500
H  50.78000 30.81200 27.77500
H  49.92800 29.40600 33.16500
H  53.52300 28.09800 35.35100
H  52.19700 28.35200 36.44700
H  53.25800 29.74700 35.97400

