158

Mg 8.57600 4.49800 27.61600
C  9.91400 2.86000 30.40400
C  6.67000 6.45900 29.69400
C  7.27200 5.93400 24.93700
C  10.10000 2.14700 25.52500
N  8.34600 4.60800 29.81800
C  9.04500 3.91700 30.73300
C  8.74300 4.39000 32.18800
C  7.72300 5.57600 31.92500
C  7.50000 5.53700 30.33900
C  6.36300 5.48900 32.65800
C  9.95900 4.72000 33.12600
C  9.77500 5.89500 34.07600
H  10.11700 5.56300 35.50200
N  7.14900 5.98700 27.38400
C  6.49500 6.71200 28.32000
C  5.61700 7.74700 27.74900
C  5.83700 7.55900 26.33500
C  6.79000 6.39900 26.15300
C  4.77800 8.69900 28.52600
C  5.32400 8.38300 25.17300
O  5.44500 8.05700 24.01100
C  4.72100 9.69900 25.47200
N  8.65600 4.06000 25.50700
C  8.10700 4.82600 24.56400
C  8.41400 4.40600 23.11700
C  9.31800 3.21000 23.34900
C  9.45300 3.14600 24.85300
C  7.15900 4.12800 22.34100
C  10.70400 3.27200 22.67200
C  11.15100 1.92500 22.12500
N  9.73300 2.85200 27.87400
C  10.26900 1.99900 26.93400
C  11.04000 0.97200 27.62600
C  11.00500 1.34200 28.98900
C  10.13300 2.41100 29.07900
C  11.71400 -0.19200 27.02200
C  11.44800 0.97400 30.31200
O  12.24500 0.09500 30.54700
C  10.77700 1.99000 31.32200
C  9.94300 1.24900 32.43000
O  8.78600 0.83300 32.34100
O  10.76900 1.23000 33.51500
C  10.09500 0.78700 34.73200
H  6.13200 7.11300 30.38200
H  6.86500 6.42000 24.04700
H  10.64200 1.46300 24.86800
H  8.20000 3.65800 32.78600
H  8.20900 6.52500 32.15300
H  5.46100 5.49300 32.04600
H  6.37300 6.39200 33.26800
H  6.29700 4.64600 33.34500
H  10.85100 4.89100 32.52400
H  10.29600 3.80900 33.62100
H  8.80600 6.39400 34.10900
H  10.37900 6.68400 33.62700
H  5.18800 9.70800 28.51600
H  4.64900 8.30800 29.53500
H  3.78800 8.74900 28.07000
H  5.44200 10.23400 26.08900
H  3.82000 9.37400 25.99200
H  4.43200 10.20300 24.55000
H  8.96300 5.29700 22.81400
H  8.71700 2.32600 23.13700
H  6.32200 3.91500 23.00600
H  7.16000 3.25800 21.68400
H  7.01200 5.07100 21.81400
H  11.45100 3.66300 23.36300
H  10.71900 4.04600 21.90400
H  10.38700 1.15000 22.06700
H  11.96600 1.55900 22.74900
H  11.64500 2.00900 21.15600
H  11.01700 -0.49900 26.24200
H  11.79900 -1.00000 27.74800
H  12.64800 0.05100 26.51500
H  11.57300 2.58600 31.76800
H  9.60200 1.59400 35.27400
H  10.74600 0.36800 35.49900
H  9.33600 0.04500 34.48500
Mg -1.22700 35.08800 26.68700
C  -3.07800 33.28800 29.08800
C  -0.28500 37.36100 29.01900
C  0.55600 36.73000 24.28600
C  -2.56400 32.92000 24.15400
N  -1.77700 35.31700 28.76400
C  -2.45700 34.44100 29.62600
C  -2.41000 34.95400 31.04800
C  -1.53400 36.25500 30.93200
C  -1.20100 36.32700 29.46000
C  -2.22400 37.53400 31.55200
C  -1.99600 33.88200 32.05500
C  -1.50900 34.42600 33.49500
H  -2.28300 33.74600 34.68800
N  -0.02900 36.87400 26.67500
C  0.28700 37.62700 27.74300
C  1.26400 38.62000 27.32800
C  1.54100 38.36000 25.97700
C  0.64100 37.25900 25.58000
C  1.91100 39.66000 28.28700
C  2.63500 38.96300 25.18000
O  2.88700 38.53500 24.05200
C  3.55400 39.98300 25.79600
N  -1.00600 34.83500 24.52000
C  -0.14900 35.61600 23.82700
C  0.01100 35.13600 22.38500
C  -0.91300 33.88400 22.35000
C  -1.50400 33.84400 23.77500
C  -0.22300 36.24100 21.39000
C  -0.18400 32.55100 21.99900
C  -1.12600 31.53600 21.21500
N  -2.53200 33.47800 26.50800
C  -3.03200 32.75300 25.42800
C  -3.94000 31.74200 25.88200
C  -3.93200 31.91600 27.32600
C  -3.06700 33.03500 27.63700
C  -4.74600 30.78800 24.96600
C  -4.45500 31.39700 28.57500
O  -5.11400 30.40700 28.90900
C  -4.02600 32.33200 29.70700
C  -5.25700 32.91900 30.23300
O  -6.06900 33.49200 29.54300
O  -5.33800 32.70100 31.58000
C  -6.43400 33.37800 32.18200
H  0.00200 38.00200 29.85500
H  1.16900 37.22300 23.52800
H  -2.99600 32.27000 23.39100
H  -3.45800 35.21700 31.18900
H  -0.60100 36.14800 31.48400
H  -2.49200 38.17700 30.71400
H  -1.45800 38.01300 32.16100
H  -3.07900 37.31800 32.19300
H  -1.16100 33.33500 31.61700
H  -2.74000 33.11600 32.27400
H  -1.78600 35.48000 33.51600
H  -0.43100 34.27400 33.54300
H  2.93800 39.41200 28.55800
H  1.35200 39.55900 29.21700
H  1.92500 40.68200 27.90900
H  4.36600 40.11800 25.08100
H  4.08500 39.63000 26.68000
H  3.19000 41.01000 25.81100
H  1.03800 34.78000 22.29800
H  -1.68500 34.10400 21.61300
H  -0.77100 37.01400 21.92700
H  -0.87800 35.89900 20.58900
H  0.67300 36.65600 20.92900
H  0.21700 32.06500 22.88900
H  0.67500 32.72500 21.35100
H  -2.02100 31.89400 20.70600
H  -1.44600 30.78800 21.94000
H  -0.41600 31.11300 20.50300
H  -4.06800 30.35300 24.23200
H  -5.44300 31.36800 24.36200
H  -5.28300 30.06700 25.58400
H  -3.47900 31.84000 30.51200
H  -7.02300 32.56300 32.60300
H  -6.90400 34.09300 31.50600
H  -6.18900 33.83000 33.14300

