158

Mg -2.31200 16.91400 26.33500
C  -2.76700 14.56800 29.02800
C  -2.58000 19.45800 28.62200
C  -2.42300 19.17400 23.88000
C  -2.77100 14.30100 24.11000
N  -2.59100 16.92700 28.50300
C  -2.77600 15.90800 29.43500
C  -2.84400 16.46000 30.87800
C  -2.89000 17.98400 30.63000
C  -2.70100 18.13000 29.14000
C  -4.11700 18.74200 31.06100
C  -1.76000 15.94100 31.78300
C  -1.28800 16.75500 32.99800
H  -0.69600 15.88400 34.12300
N  -2.28400 19.04300 26.28700
C  -2.31400 19.92100 27.34200
C  -2.26700 21.27100 26.84900
C  -2.19800 21.21800 25.43100
C  -2.34600 19.78200 25.13300
C  -2.36100 22.53400 27.69700
C  -1.91200 22.28900 24.34000
O  -1.78200 22.02300 23.14900
C  -1.74100 23.65500 24.76000
N  -2.56800 16.72800 24.34100
C  -2.40000 17.80100 23.48400
C  -2.51200 17.35800 21.98700
C  -2.39600 15.81300 22.14100
C  -2.61900 15.58300 23.61700
C  -3.91100 17.84800 21.37800
C  -0.94800 15.17900 21.83900
C  -0.90600 13.93400 20.94500
N  -2.49000 14.81700 26.46000
C  -2.78600 13.88900 25.47900
C  -2.89700 12.58700 26.08100
C  -2.85000 12.82800 27.44300
C  -2.61800 14.21300 27.65700
C  -2.99200 11.30100 25.43400
C  -3.13100 12.22000 28.67500
O  -3.41400 11.10000 29.01000
C  -2.89100 13.28100 29.79200
C  -1.59200 12.93500 30.52400
O  -0.48100 13.34300 30.37100
O  -1.91200 11.99800 31.39500
C  -0.96200 11.52300 32.36300
H  -2.64800 20.20300 29.41800
H  -2.41200 19.81500 22.99700
H  -3.02700 13.54500 23.36500
H  -3.77500 16.19100 31.37700
H  -1.94400 18.37900 31.00000
H  -3.80600 19.74400 31.35800
H  -4.61800 18.32900 31.93600
H  -4.79900 18.84800 30.21700
H  -0.88100 15.68800 31.18900
H  -2.21300 15.02100 32.15100
H  -2.08100 17.34900 33.45300
H  -0.41500 17.34900 32.72900
H  -1.42100 23.06900 27.56500
H  -2.47300 22.23200 28.73900
H  -3.28800 23.06300 27.48100
H  -1.89100 24.24300 23.85400
H  -0.78000 23.80900 25.25000
H  -2.50600 23.97300 25.46900
H  -1.62100 17.84100 21.58600
H  -3.04100 15.25800 21.46000
H  -4.57400 16.99300 21.24400
H  -3.80500 18.55100 20.55100
H  -4.38800 18.52100 22.09100
H  -0.38000 14.94200 22.73800
H  -0.32600 15.90400 21.31500
H  -0.24000 14.28500 20.15700
H  -1.90200 13.81500 20.51800
H  -0.58600 13.03700 21.47700
H  -1.97100 10.92600 25.50900
H  -3.30000 11.29200 24.38800
H  -3.69900 10.71600 26.02300
H  -3.72400 13.30800 30.49400
H  -0.59000 12.35900 32.95600
H  -0.12500 11.03700 31.86400
H  -1.34200 10.77000 33.05400
Mg 36.15600 50.21500 25.11400
C  36.53300 48.46200 28.08700
C  34.55800 52.74700 26.79200
C  35.82100 51.87100 22.14300
C  37.65000 47.58500 23.46200
N  35.65200 50.57900 27.17900
C  35.96600 49.73100 28.24100
C  35.62900 50.35400 29.60000
C  34.81100 51.65400 29.14900
C  35.01400 51.72400 27.61400
C  33.28200 51.67600 29.52400
C  36.92300 50.58900 30.50900
C  36.81700 50.24900 31.96700
H  35.42200 50.00200 32.53800
N  35.46800 52.16700 24.56000
C  34.70800 52.95900 25.35600
C  34.18900 54.07900 24.51300
C  34.66900 53.93800 23.21800
C  35.42900 52.62400 23.24000
C  33.31400 55.12600 25.21300
C  34.40900 54.81200 21.95600
O  34.83400 54.57700 20.80100
C  33.65700 56.07700 22.20300
N  36.73200 49.77400 23.06500
C  36.47800 50.65200 22.03400
C  36.74000 49.88800 20.67000
C  37.52200 48.63300 21.14500
C  37.28800 48.60800 22.63700
C  35.34300 49.50600 20.06400
C  38.95400 48.49400 20.57500
C  40.11000 48.38200 21.63800
N  36.85900 48.32800 25.58400
C  37.44900 47.33300 24.82700
C  37.69500 46.12400 25.59900
C  37.43100 46.55500 26.91700
C  36.98400 47.86600 26.88000
C  38.31600 44.84600 25.17800
C  37.46600 46.18100 28.29900
O  37.76500 45.06700 28.75300
C  37.00200 47.45400 29.13700
C  35.96600 46.90700 30.06000
O  34.78600 46.87800 29.82100
O  36.52100 46.33900 31.19700
C  35.55300 45.62700 32.04000
H  34.05200 53.55200 27.33100
H  35.67600 52.39000 21.19400
H  38.20200 46.86600 22.85200
H  35.03100 49.64100 30.16700
H  35.26200 52.52600 29.62200
H  32.84600 50.68100 29.61500
H  32.70200 52.17200 28.74600
H  33.06600 52.22000 30.44300
H  37.13900 51.65200 30.40100
H  37.77000 50.14800 29.98400
H  37.22900 51.00700 32.63300
H  37.40400 49.36700 32.22500
H  33.95500 55.95000 25.52300
H  32.76600 54.63600 26.01800
H  32.55400 55.64700 24.63000
H  32.58000 55.96500 22.33200
H  33.78000 56.74000 21.34600
H  34.09100 56.61500 23.04600
H  37.34900 50.40600 19.93000
H  36.90300 47.83500 20.73500
H  34.50500 50.12000 20.39400
H  35.14900 48.46900 20.33900
H  35.44800 49.65400 18.99000
H  39.18200 49.40400 20.02000
H  39.05500 47.64900 19.89400
H  39.86400 48.80400 22.61200
H  40.89800 49.07800 21.35000
H  40.46600 47.35600 21.72900
H  38.24000 44.77100 24.09300
H  37.93500 43.90800 25.58200
H  39.36700 44.87800 25.46500
H  37.77600 47.78000 29.83200
H  35.28900 44.68900 31.55200
H  34.66300 46.17900 32.34300
H  36.05300 45.31600 32.95700

