158

Mg 8.04900 2.44100 27.37000
C  9.72500 0.94000 30.29000
C  6.44200 4.59600 29.45200
C  6.18900 3.44600 24.73700
C  9.71700 0.10000 25.43900
N  8.08000 2.61100 29.58100
C  8.89500 2.01800 30.60200
C  8.66100 2.65600 31.90100
C  7.46400 3.55900 31.60200
C  7.34800 3.67800 30.07300
C  6.08400 3.15500 32.23100
C  9.89400 3.26800 32.65300
C  10.47900 2.52700 33.93300
H  11.12000 3.36700 35.07200
N  6.41900 3.68300 27.18400
C  5.95100 4.55900 28.10800
C  4.86000 5.38400 27.59100
C  4.81200 5.08700 26.23500
C  5.84700 3.98400 26.00300
C  4.04700 6.35600 28.46000
C  3.80600 5.57800 25.18400
O  3.74100 5.22400 23.99800
C  2.74800 6.46800 25.68000
N  7.92600 1.86900 25.41400
C  7.12400 2.46100 24.44200
C  7.45300 1.88600 23.05400
C  8.60000 0.90500 23.24000
C  8.73700 0.88800 24.80800
C  6.26000 1.27600 22.26400
C  9.95500 1.14500 22.52800
C  10.44300 0.14800 21.50800
N  9.49300 0.77000 27.73200
C  10.02700 -0.07400 26.79900
C  10.95700 -0.93600 27.49900
C  10.88200 -0.62000 28.85100
C  9.96700 0.46400 28.91700
C  11.78000 -2.06400 26.79200
C  11.35600 -0.94000 30.18700
O  12.15800 -1.78500 30.48600
C  10.75300 0.10700 31.17700
C  10.13100 -0.54200 32.38600
O  8.89100 -0.79000 32.52800
O  11.05200 -0.82300 33.38600
C  10.34800 -1.06000 34.64500
H  5.99000 5.31500 30.13800
H  5.64100 3.93600 23.92900
H  10.19600 -0.57900 24.73100
H  8.14500 1.94200 32.54200
H  7.56000 4.57600 31.98100
H  5.37000 3.91900 32.53900
H  6.31400 2.65200 33.17000
H  5.50000 2.65500 31.45900
H  9.64600 4.25700 33.03800
H  10.62300 3.34500 31.84600
H  11.24100 1.83400 33.57600
H  9.69000 1.98700 34.45700
H  4.47000 6.46100 29.45800
H  3.04000 5.94200 28.52200
H  4.09500 7.29500 27.90900
H  2.04000 5.94500 26.32200
H  2.12700 6.85000 24.86900
H  3.25100 7.33200 26.11400
H  7.79500 2.74000 22.47000
H  8.38800 -0.13100 22.97400
H  5.33200 1.47300 22.80200
H  6.28600 0.20400 22.06900
H  6.39400 1.83000 21.33600
H  10.67500 1.18400 23.34600
H  10.03400 2.14800 22.10800
H  10.75300 0.86100 20.74400
H  9.65600 -0.54800 21.21800
H  11.28800 -0.46500 21.82200
H  11.60600 -3.01600 27.29300
H  12.83300 -1.78500 26.84000
H  11.43500 -2.20200 25.76800
H  11.53600 0.72200 31.61900
H  9.75000 -0.22700 35.01400
H  11.05300 -1.23900 35.45700
H  9.57100 -1.82400 34.61600
Mg 24.46600 -5.25900 45.99600
C  26.60600 -2.69300 44.33300
C  22.05700 -4.30400 43.83700
C  22.84000 -7.97500 46.98800
C  27.42100 -6.21700 47.66500
N  24.42300 -3.68700 44.25200
C  25.31400 -2.77500 43.78500
C  24.71200 -1.92600 42.67600
C  23.13500 -2.21100 42.76900
C  23.18600 -3.52600 43.63700
C  22.15700 -1.01800 43.25600
C  25.28600 -2.28400 41.28600
C  26.23900 -1.25500 40.55900
H  26.17000 -1.21200 39.02300
N  22.65300 -5.96400 45.53700
C  21.77600 -5.39700 44.69100
C  20.50900 -6.24100 44.71100
C  20.77500 -7.39100 45.56100
C  22.14200 -7.10400 46.12200
C  19.26200 -5.96500 43.84600
C  19.82800 -8.66000 45.83500
O  18.78600 -8.67700 45.22100
C  20.12200 -9.78300 46.69600
N  25.05900 -6.89700 47.13400
C  24.20400 -7.85100 47.43700
C  24.98300 -8.96100 48.38100
C  26.33500 -8.26800 48.65300
C  26.24700 -7.09600 47.72000
C  24.32300 -9.32000 49.72100
C  27.47900 -9.17400 48.21000
C  28.59200 -9.29800 49.16500
N  26.59100 -4.60400 46.08600
C  27.57500 -5.09500 46.86400
C  28.78800 -4.32700 46.57900
C  28.38700 -3.38300 45.66600
C  27.07300 -3.59300 45.34300
C  30.18900 -4.49300 47.11500
C  28.94500 -2.27800 44.85000
O  30.06500 -1.73000 44.81800
C  27.72100 -1.75600 44.08500
C  27.59700 -0.32800 44.49300
O  26.68000 0.07800 45.21000
O  28.37700 0.49300 43.76300
C  27.90400 1.86500 43.73900
H  21.23500 -3.96000 43.20500
H  22.37000 -8.90400 47.32000
H  28.34000 -6.49000 48.18800
H  24.84400 -0.86200 42.87400
H  22.77800 -2.48700 41.77700
H  21.44500 -1.38700 43.99400
H  21.67900 -0.65800 42.34500
H  22.76200 -0.21800 43.68100
H  24.44000 -2.44000 40.61600
H  25.89100 -3.18700 41.35700
H  27.28700 -1.25900 40.85800
H  25.93500 -0.29700 40.98200
H  19.34900 -5.09900 43.19000
H  18.43600 -5.86700 44.55000
H  19.05400 -6.77200 43.14400
H  19.21800 -10.38500 46.79900
H  20.21300 -9.35900 47.69600
H  20.93700 -10.44200 46.39700
H  24.93900 -9.85900 47.76300
H  26.59600 -7.84800 49.62500
H  23.76700 -10.23500 49.52000
H  23.62100 -8.58000 50.10400
H  25.03400 -9.47400 50.53200
H  27.80600 -8.81800 47.23300
H  27.13900 -10.19800 48.05700
H  28.87400 -8.29500 49.48400
H  29.43600 -9.73300 48.62800
H  28.16200 -9.86500 49.99000
H  30.26100 -4.64100 48.19200
H  30.79700 -3.59100 47.04900
H  30.64200 -5.27800 46.50900
H  27.75700 -1.65800 43.00000
H  27.99600 2.20500 44.77000
H  26.90600 1.97300 43.31300
H  28.53400 2.43300 43.05500

