158

Mg 7.41500 3.47700 27.05700
C  9.16400 2.07500 29.82900
C  5.31200 5.08400 29.20800
C  5.70100 4.61200 24.37200
C  9.00500 1.19800 25.01100
N  7.26900 3.52600 29.23800
C  8.16200 3.00600 30.19000
C  7.80900 3.58400 31.54800
C  6.50100 4.35400 31.31300
C  6.31700 4.31700 29.82600
C  5.17900 3.92700 32.08300
C  9.08200 4.36900 32.10900
C  8.88200 5.13200 33.42900
H  9.70800 4.66400 34.66900
N  5.75500 4.81500 26.85300
C  4.99100 5.36600 27.80200
C  3.92900 6.15800 27.25300
C  4.16100 6.17700 25.82900
C  5.23300 5.13000 25.64800
C  3.09200 7.10700 28.13500
C  3.47800 6.93100 24.80300
O  3.83500 6.76700 23.66500
C  2.38900 7.88500 25.07000
N  7.32200 2.97700 25.02300
C  6.65900 3.72400 24.08000
C  6.94900 3.18900 22.65200
C  8.18000 2.21600 22.84000
C  8.11400 2.06100 24.37700
C  5.75900 2.53800 21.90100
C  9.51900 2.85300 22.30800
C  9.79700 2.28700 20.89700
N  8.86700 1.95400 27.37200
C  9.36500 1.12000 26.45600
C  10.31900 0.23100 27.03000
C  10.32600 0.62800 28.42600
C  9.41000 1.68600 28.53200
C  10.93300 -0.97100 26.43200
C  10.84100 0.37100 29.73600
O  11.67100 -0.48100 30.08900
C  10.13300 1.30600 30.73600
C  9.54000 0.57000 31.95100
O  8.62300 -0.22700 31.92500
O  10.20000 1.00100 33.10900
C  9.81000 0.33600 34.45200
H  4.68100 5.59500 29.93800
H  5.29600 4.99400 23.43300
H  9.49300 0.47800 24.35000
H  7.62000 2.76100 32.23700
H  6.67100 5.39900 31.57100
H  5.44000 3.17500 32.82800
H  4.44500 3.62900 31.33400
H  4.80900 4.80600 32.61000
H  9.37000 5.02800 31.29100
H  9.93400 3.71100 32.27800
H  7.90600 5.08200 33.91100
H  9.17400 6.16600 33.24400
H  3.68200 7.37000 29.01300
H  2.24700 6.49300 28.44800
H  2.76600 7.99600 27.59500
H  2.05700 8.24200 24.09500
H  2.96300 8.68500 25.53600
H  1.56100 7.48900 25.65900
H  7.19700 4.08900 22.09000
H  8.09800 1.21600 22.41600
H  4.88100 2.81600 22.48400
H  5.86400 1.45300 21.88600
H  5.57700 2.98600 20.92400
H  10.31900 2.60800 23.00700
H  9.48700 3.94200 22.27300
H  9.63900 2.91800 20.02200
H  9.12900 1.46000 20.65700
H  10.81100 1.88900 20.85600
H  11.39600 -1.45300 27.29200
H  11.71200 -0.60100 25.76500
H  10.25000 -1.59600 25.85600
H  10.84700 2.05100 31.08700
H  8.97300 -0.35000 34.32200
H  9.48800 1.11600 35.14200
H  10.67800 -0.11800 34.93000
Mg 50.18800 34.56200 27.89100
C  48.05200 33.63100 30.54500
C  50.88200 37.38200 29.49700
C  51.95100 35.47500 25.21800
C  48.99000 31.69300 26.21400
N  49.58100 35.33000 29.80100
C  48.81000 34.71300 30.81600
C  49.08700 35.44700 32.13000
C  49.47100 36.92300 31.66400
C  50.09900 36.52600 30.22700
C  48.31900 37.93600 31.56800
C  50.21400 34.76700 32.90700
C  50.27300 34.92100 34.51700
H  49.18000 35.77800 35.24200
N  51.31000 36.17800 27.43000
C  51.49100 37.28800 28.21200
C  52.45800 38.13200 27.55700
C  52.73600 37.58400 26.25800
C  52.03500 36.34500 26.26800
C  52.95400 39.36200 28.29000
C  53.65300 38.06000 25.18900
O  53.86300 37.46800 24.13800
C  54.57400 39.17000 25.50300
N  50.15000 33.82600 25.85200
C  51.10800 34.34600 25.03600
C  51.43300 33.44000 23.87900
C  50.65100 32.08200 24.27300
C  49.83100 32.58700 25.52600
C  51.02700 34.08800 22.54000
C  51.61000 30.92200 24.60000
C  51.13300 29.51100 24.10600
N  48.77600 32.96500 28.18800
C  48.47100 31.86300 27.51100
C  47.58700 30.97700 28.23900
C  47.31500 31.67900 29.38900
C  48.12000 32.84200 29.37900
C  47.08300 29.68400 27.67900
C  46.52900 31.65800 30.61900
O  45.80400 30.83700 31.10500
C  47.01100 32.95800 31.44600
C  47.37400 32.46500 32.79300
O  48.34600 31.78200 32.95000
O  46.41800 32.92800 33.71400
C  46.63400 32.46700 35.06700
H  51.14300 38.20000 30.17100
H  52.75800 35.53700 24.48500
H  48.90500 30.77700 25.62500
H  48.18900 35.47400 32.74800
H  50.13400 37.45600 32.34500
H  47.67000 37.94400 32.44300
H  47.72500 37.58400 30.72500
H  48.68100 38.94900 31.39400
H  51.15700 35.13100 32.49900
H  50.07800 33.68900 32.81900
H  51.29500 35.15600 34.81300
H  50.15000 33.89600 34.86400
H  54.04200 39.36900 28.34500
H  52.54400 39.57600 29.27700
H  52.70100 40.22800 27.67900
H  54.11900 40.06800 25.92300
H  55.19500 39.45000 24.65300
H  55.25500 38.80500 26.27200
H  52.51200 33.29600 23.91900
H  50.02500 31.80600 23.42500
H  50.71900 35.10500 22.78000
H  50.16100 33.59700 22.09500
H  51.94200 34.05600 21.94700
H  51.69100 30.86200 25.68500
H  52.61300 30.91500 24.17300
H  52.02100 28.96900 23.78100
H  50.44600 29.56800 23.26200
H  50.74300 29.07900 25.02800
H  47.41300 29.62800 26.64200
H  45.99600 29.72900 27.73900
H  47.49300 28.83000 28.21800
H  46.11200 33.57100 31.51000
H  47.60300 32.79400 35.44400
H  46.58200 31.37900 35.09700
H  45.82900 32.73100 35.75300

