158

Mg 16.82600 -2.62100 28.87900
C  15.60600 -0.24300 31.14300
C  18.58800 -4.09300 31.36700
C  17.99600 -4.60400 26.52100
C  15.04100 -0.91500 26.22400
N  17.27100 -1.98800 30.99000
C  16.54600 -1.08700 31.76500
C  16.93400 -1.25000 33.24000
C  18.04800 -2.39900 33.22600
C  17.94800 -2.86400 31.75500
C  19.54900 -1.87300 33.62900
C  15.73800 -1.48900 34.16600
C  15.55700 -0.73800 35.49000
H  16.83300 -0.07600 35.97500
N  18.07000 -4.22300 28.95400
C  18.69100 -4.70900 30.05000
C  19.45300 -5.81400 29.70200
C  19.43200 -5.99100 28.28400
C  18.40000 -4.99400 27.85100
C  20.27300 -6.54400 30.75000
C  20.21300 -6.83600 27.31800
O  19.96100 -6.69400 26.09800
C  21.20900 -7.85000 27.78900
N  16.56500 -2.65900 26.63700
C  17.21700 -3.60400 25.92500
C  17.12100 -3.24800 24.42800
C  15.95100 -2.24400 24.36200
C  15.84200 -1.90800 25.79900
C  18.38400 -2.68600 23.86300
C  14.65300 -2.84000 23.60600
C  14.45500 -2.32300 22.14800
N  15.49400 -1.01100 28.72400
C  14.85600 -0.42400 27.60000
C  14.12100 0.76600 28.02200
C  14.30400 0.82900 29.39700
C  15.10400 -0.24700 29.81100
C  13.26100 1.66500 27.19300
C  13.93200 1.50200 30.64800
O  13.17800 2.39700 30.86500
C  14.77000 0.85400 31.80300
C  15.63100 1.91800 32.34300
O  16.62400 2.48200 31.87100
O  15.13000 2.17300 33.57600
C  15.68000 3.28100 34.32500
H  18.98600 -4.72300 32.16500
H  18.46300 -5.18700 25.72400
H  14.57700 -0.29600 25.45300
H  17.33300 -0.27600 33.52200
H  17.81600 -3.18500 33.94500
H  19.74700 -2.36500 34.58100
H  19.53500 -0.81300 33.88200
H  20.18000 -1.95600 32.74400
H  15.58900 -2.55700 34.32300
H  14.83100 -1.37200 33.57300
H  15.11700 -1.31600 36.30300
H  14.89600 0.10300 35.28200
H  20.41600 -6.02700 31.69800
H  21.30400 -6.59900 30.40000
H  19.92400 -7.57000 30.86900
H  20.94500 -8.35200 28.71900
H  22.20000 -7.39600 27.82900
H  21.17100 -8.58400 26.98400
H  16.85200 -4.19000 23.94900
H  16.21900 -1.36300 23.77800
H  18.58400 -1.65300 24.14700
H  18.38800 -2.71000 22.77300
H  19.24700 -3.32200 24.06300
H  13.68400 -2.70200 24.08500
H  14.66500 -3.91300 23.41600
H  15.12800 -1.47900 21.99600
H  13.52200 -1.77500 22.01400
H  14.35700 -3.10600 21.39600
H  12.88000 1.33200 26.22700
H  13.87800 2.54900 27.03000
H  12.37900 1.89200 27.79100
H  14.08000 0.49200 32.56600
H  16.71700 3.49300 34.06600
H  15.70200 3.02600 35.38400
H  14.97900 4.09800 34.15400
Mg 35.24400 1.90300 29.27800
C  33.04800 2.98500 31.88900
C  37.78000 1.85300 31.72700
C  37.40500 0.96800 26.89400
C  32.68500 2.31100 27.07200
N  35.39600 2.27400 31.49100
C  34.31100 2.68800 32.33800
C  34.80200 2.70600 33.80800
C  36.35200 2.69700 33.69500
C  36.55600 2.22200 32.25200
C  37.00600 4.17000 33.85700
C  34.20600 1.66000 34.81200
C  33.81800 2.15300 36.24600
H  34.60800 3.29400 36.83400
N  37.32200 1.45000 29.38200
C  38.17200 1.55400 30.41300
C  39.47900 1.06900 29.98900
C  39.36900 0.70400 28.59900
C  38.00800 1.08800 28.20700
C  40.67900 1.15100 30.83600
C  40.44800 0.26000 27.66800
O  40.18400 -0.03500 26.50000
C  41.88300 0.00600 28.11900
N  35.16400 1.80700 27.20700
C  36.18100 1.34700 26.44700
C  35.72200 1.24000 24.97700
C  34.14200 1.36800 25.08500
C  33.97800 1.90600 26.54300
C  36.41600 2.27700 24.01500
C  33.34900 0.10100 24.91100
C  32.02000 0.23400 24.26700
N  33.31400 2.57000 29.41600
C  32.40800 2.67600 28.41500
C  31.17400 3.12100 28.93000
C  31.31100 3.21500 30.30300
C  32.62100 2.84600 30.54300
C  29.84300 3.20800 28.18000
C  30.62900 3.55300 31.60000
O  29.48800 3.78700 31.93900
C  31.80800 3.41400 32.68000
C  31.92200 4.68200 33.39000
O  32.68600 5.65200 33.17300
O  31.05000 4.63000 34.48300
C  31.33400 5.55100 35.59300
H  38.55400 1.94800 32.49000
H  38.03400 0.58800 26.08600
H  31.90100 2.33600 26.31300
H  34.56300 3.72000 34.13000
H  36.77700 2.08200 34.48800
H  36.29100 4.77900 34.41100
H  37.21900 4.71300 32.93600
H  37.89800 4.09500 34.47900
H  34.96000 0.88200 34.92800
H  33.30100 1.12100 34.53100
H  34.12200 1.32300 36.88300
H  32.77300 2.33300 36.50000
H  41.21800 0.20800 30.74500
H  40.45100 1.48900 31.84700
H  41.36200 1.92400 30.48300
H  42.21000 0.81000 28.77900
H  42.52700 -0.06900 27.24200
H  41.84600 -0.88400 28.74700
H  36.02900 0.22300 24.73300
H  33.90700 2.11400 24.32600
H  36.88500 1.89400 23.10900
H  37.27700 2.60100 24.59900
H  35.75200 3.11800 23.81700
H  33.25500 -0.34000 25.90400
H  33.88900 -0.55400 24.22800
H  31.95100 -0.34700 23.34700
H  31.80900 1.29600 24.14200
H  31.18500 -0.18300 24.83000
H  29.40400 2.21400 28.09000
H  30.01600 3.52000 27.15000
H  29.14400 3.88300 28.67300
H  31.56900 2.51700 33.25100
H  30.92700 5.16300 36.52700
H  30.67400 6.41600 35.52500
H  32.28900 6.06400 35.70500

