158

Mg 47.41100 15.81500 28.31200
C  45.46600 15.21200 31.11000
C  49.57700 17.67300 30.10200
C  49.03100 16.74500 25.39400
C  44.85900 14.44500 26.37300
N  47.46200 16.38200 30.34500
C  46.62200 16.00900 31.35300
C  47.08700 16.55900 32.76500
C  48.26700 17.51900 32.27400
C  48.42300 17.26000 30.76200
C  48.10900 19.05500 32.57600
C  47.72000 15.31800 33.68400
C  47.67600 15.53400 35.22900
H  47.26400 16.88800 35.74000
N  49.17100 17.02400 27.88600
C  49.94800 17.66700 28.77800
C  51.09400 18.30300 28.11400
C  50.88200 18.02700 26.73900
C  49.66700 17.23300 26.59100
C  52.26500 18.93500 28.84400
C  51.76100 18.43800 25.58200
O  51.53300 18.13500 24.40300
C  52.95200 19.34500 25.86100
N  47.02200 15.55800 26.25600
C  47.81700 16.04100 25.22500
C  47.24700 15.76000 23.87100
C  45.92400 15.00900 24.20500
C  45.90700 15.04100 25.76000
C  47.01100 16.97600 22.88000
C  45.97600 13.58000 23.59200
C  46.57300 12.44300 24.46600
N  45.63400 14.86100 28.64000
C  44.63900 14.31600 27.75100
C  43.50300 13.77000 28.47400
C  43.83000 14.10000 29.81200
C  45.08400 14.75100 29.84800
C  42.22400 13.01700 27.89300
C  43.36900 14.03000 31.13900
O  42.26300 13.60600 31.57400
C  44.44000 14.69600 32.09100
C  43.67400 15.82600 32.64600
O  43.20200 16.77200 32.02300
O  43.47500 15.55100 33.94700
C  42.71800 16.57700 34.74700
H  50.18000 18.33700 30.72500
H  49.48900 16.93300 24.42000
H  44.01400 14.05000 25.80600
H  46.25900 17.08400 33.24100
H  49.19800 17.29100 32.79300
H  47.21000 19.02500 33.19200
H  47.94300 19.61400 31.65500
H  48.93600 19.54800 33.08600
H  48.80200 15.22300 33.59100
H  47.28900 14.36500 33.37900
H  48.67500 15.48100 35.66100
H  47.04500 14.78300 35.70400
H  52.16700 18.77000 29.91700
H  52.15900 20.01300 28.72000
H  53.23500 18.50600 28.59400
H  53.74600 18.68100 26.20500
H  52.68800 20.19900 26.48400
H  53.23400 19.71200 24.87400
H  48.07700 15.20100 23.43900
H  45.02100 15.57100 23.96500
H  45.97100 17.06500 22.56800
H  47.72400 16.82700 22.06900
H  47.32300 17.87500 23.41200
H  46.55500 13.55700 22.66800
H  45.00300 13.16000 23.33600
H  45.81900 12.01000 25.12400
H  47.42400 12.88900 24.98000
H  46.88700 11.59600 23.85600
H  42.45300 12.72300 26.86800
H  41.46000 13.79000 27.81600
H  41.94600 12.18900 28.54500
H  44.83200 13.98900 32.82200
H  42.78900 17.61000 34.40600
H  43.04400 16.51100 35.78500
H  41.66600 16.29400 34.75800
Mg -12.30800 38.75400 42.16000
C  -10.01900 36.40700 40.85200
C  -10.60500 41.13700 40.68500
C  -14.93500 40.81300 42.67200
C  -14.33100 36.03300 43.25300
N  -10.50700 38.70400 40.90100
C  -9.74700 37.71400 40.47000
C  -8.63100 38.17300 39.60000
C  -8.59200 39.69700 40.01400
C  -10.03900 39.87900 40.51700
C  -7.42700 40.08600 40.97400
C  -9.03300 37.74700 38.12400
C  -7.94600 37.08500 37.30700
H  -7.30400 37.77200 36.18200
N  -12.65500 40.73200 41.79500
C  -11.81400 41.54200 41.22000
C  -12.26000 42.91900 41.40500
C  -13.54300 42.84700 41.95700
C  -13.77800 41.42900 42.18600
C  -11.40300 44.13700 41.03000
C  -14.40900 44.05600 42.22900
O  -14.12300 45.18300 41.79600
C  -15.68900 44.01100 42.90500
N  -14.40400 38.45300 42.73600
C  -15.20400 39.47300 43.03600
C  -16.60700 39.03600 43.59600
C  -16.28300 37.53800 43.74000
C  -14.91300 37.30200 43.25000
C  -17.02800 39.80000 44.88000
C  -17.49900 36.71700 43.14400
C  -17.34100 36.29600 41.73300
N  -12.26900 36.64900 42.01100
C  -13.08200 35.70100 42.62300
C  -12.53500 34.38900 42.36400
C  -11.38000 34.63800 41.62500
C  -11.22300 36.03200 41.52300
C  -12.85500 33.05000 42.88600
C  -10.24100 33.98700 40.94100
O  -10.01500 32.79300 40.87200
C  -9.27000 35.13300 40.44800
C  -7.93100 34.88900 41.14500
O  -7.78200 34.98600 42.34200
O  -6.91500 34.60500 40.25700
C  -5.64800 34.07400 40.83400
H  -9.90900 41.91100 40.35600
H  -15.72500 41.53100 42.90100
H  -14.86000 35.15100 43.62100
H  -7.73000 37.69000 39.97900
H  -8.51600 40.24700 39.07700
H  -6.51300 39.49200 40.97700
H  -7.90400 40.19100 41.94900
H  -7.03800 41.02500 40.58000
H  -9.31800 38.61700 37.53300
H  -9.85600 37.04100 38.23300
H  -8.45500 36.19900 36.92800
H  -7.23700 36.76700 38.07200
H  -11.92000 44.46200 40.12700
H  -10.34100 43.96800 40.85300
H  -11.36000 44.98800 41.71000
H  -16.52800 43.76200 42.25500
H  -15.94200 44.92800 43.43700
H  -15.60000 43.37900 43.78900
H  -17.38000 39.18600 42.84200
H  -16.29700 37.25100 44.79200
H  -17.65600 40.65000 44.61600
H  -16.24500 40.23800 45.49900
H  -17.66600 39.13600 45.46200
H  -18.34200 37.40300 43.22300
H  -17.52400 35.81500 43.75600
H  -17.63700 35.24700 41.73400
H  -16.28400 36.32700 41.46800
H  -17.94900 36.85300 41.02000
H  -13.91400 32.95800 43.12900
H  -12.30700 32.81800 43.79900
H  -12.58200 32.31300 42.13200
H  -9.12000 34.99200 39.37700
H  -5.80900 33.49100 41.74000
H  -4.86200 34.79900 41.04500
H  -5.20500 33.30300 40.20300

