158

Mg 49.22000 47.06500 42.93200
C  45.99500 48.07600 42.14700
C  48.93800 44.31700 40.83200
C  52.51000 46.51000 43.11000
C  49.67500 50.58200 43.68500
N  47.59400 46.33100 41.58700
C  46.40700 46.92400 41.41300
C  45.72500 46.31200 40.22700
C  46.60600 45.04200 39.87500
C  47.76900 45.22100 40.87800
C  45.80800 43.75600 39.82100
C  45.50500 47.29500 39.09000
C  44.03600 47.31800 38.61400
H  43.71500 46.93800 37.20800
N  50.43700 45.44000 42.33000
C  50.15200 44.41300 41.54200
C  51.23800 43.47400 41.57600
C  52.30000 44.04700 42.28700
C  51.77800 45.41000 42.62500
C  51.18900 42.05800 40.96000
C  53.73700 43.31800 42.48900
O  53.96700 42.23900 41.96300
C  54.79900 44.05800 43.25600
N  50.79800 48.40300 43.17800
C  52.09300 47.86700 43.28400
C  53.14400 48.86200 43.76600
C  52.22400 50.18900 43.78100
C  50.80000 49.69800 43.63400
C  53.82500 48.57700 45.09300
C  52.69300 51.22900 42.78700
C  53.57000 52.44200 43.29500
N  48.03900 48.87800 43.33500
C  48.35600 50.17900 43.54200
C  47.11300 50.99400 43.67600
C  46.17000 50.13800 43.26400
C  46.79000 48.93200 42.93500
C  47.09600 52.44900 44.15200
C  44.73700 50.05500 43.00100
O  43.77700 50.78000 43.18900
C  44.60200 48.72900 42.16600
C  43.46400 47.86900 42.71500
O  43.23800 47.53300 43.89500
O  42.87100 47.32800 41.66300
C  41.93500 46.21100 41.76100
H  48.74100 43.48800 40.15000
H  53.54500 46.26400 43.35600
H  49.86300 51.59500 44.04600
H  44.80000 45.94200 40.67000
H  47.06000 45.15300 38.89000
H  44.73600 43.85600 39.99400
H  46.06000 43.10900 40.66100
H  46.05800 43.37700 38.83000
H  46.15200 47.05800 38.24500
H  45.72500 48.29900 39.45300
H  43.53800 48.27800 38.75000
H  43.46300 46.63200 39.23800
H  52.03200 41.87500 40.29500
H  50.26200 41.87200 40.41700
H  51.32000 41.35700 41.78500
H  55.45600 43.30900 43.69800
H  54.32000 44.53800 44.10800
H  55.21900 44.85100 42.63700
H  53.94100 49.06800 43.05200
H  52.32800 50.72200 44.72600
H  53.03700 48.76100 45.82400
H  54.67400 49.23800 45.26800
H  54.06700 47.51800 45.17400
H  51.73100 51.67500 42.53500
H  52.98800 50.85600 41.80700
H  53.29000 52.69800 44.31700
H  53.58900 53.34400 42.68300
H  54.54800 51.96200 43.30300
H  48.10700 52.74300 44.43600
H  46.40600 52.43100 44.99600
H  46.61200 52.96800 43.32500
H  44.27100 49.02800 41.17100
H  40.93600 46.35100 41.34900
H  41.96000 45.89000 42.80200
H  42.31600 45.35200 41.20800
Mg -11.91400 16.14200 42.66600
C  -8.88000 14.79200 42.16400
C  -10.88300 19.15900 41.19600
C  -15.08500 17.31000 42.69600
C  -13.04300 13.10200 43.84800
N  -10.10000 16.91800 41.72800
C  -8.94400 16.16100 41.70600
C  -7.79800 17.05500 41.15400
C  -8.40600 18.46300 40.97600
C  -9.89800 18.23400 41.45700
C  -7.63500 19.62500 41.68900
C  -7.13000 16.52900 39.87900
C  -5.60200 16.38600 39.99500
H  -5.07100 15.24300 39.09300
N  -12.86100 17.96700 42.14200
C  -12.27600 19.08900 41.53500
C  -13.29900 20.02300 41.09100
C  -14.53500 19.47200 41.52400
C  -14.18300 18.23000 42.17700
C  -13.02900 21.29400 40.31400
C  -15.91700 20.13900 41.18600
O  -15.92000 21.20500 40.63000
C  -17.21800 19.56900 41.62100
N  -13.77300 15.34000 43.33200
C  -14.98900 15.95800 43.16200
C  -16.21700 14.99600 43.59500
C  -15.46600 13.82100 44.15400
C  -14.00500 14.06100 43.71700
C  -17.35100 15.62600 44.46600
C  -16.00800 12.49400 43.57200
C  -15.99000 11.24100 44.51300
N  -11.14600 14.29900 42.95300
C  -11.68000 13.16200 43.46900
C  -10.69200 12.13300 43.56500
C  -9.51900 12.75900 43.14000
C  -9.92000 14.01400 42.71900
C  -10.92900 10.77500 44.13900
C  -8.11000 12.55600 42.91700
O  -7.35200 11.54100 43.08900
C  -7.61800 13.86800 42.40700
C  -6.79500 14.43300 43.44400
O  -7.19800 15.21500 44.29600
O  -5.47400 14.11000 43.23400
C  -4.55000 14.63300 44.27900
H  -10.65800 20.19800 40.94600
H  -16.12900 17.63100 42.66000
H  -13.54100 12.23400 44.28700
H  -7.04800 17.02600 41.94400
H  -8.37300 18.76500 39.92900
H  -7.04400 19.12600 42.45600
H  -8.39400 20.18300 42.23700
H  -7.05700 20.28000 41.03700
H  -7.19100 17.25400 39.06700
H  -7.49400 15.55600 39.54800
H  -5.34100 16.14900 41.02600
H  -5.13600 17.34200 39.75500
H  -13.24100 22.19100 40.89600
H  -13.71800 21.22000 39.47200
H  -12.00200 21.42500 39.97300
H  -17.35900 18.63400 41.07900
H  -17.95500 20.35400 41.45500
H  -17.13500 19.36000 42.68800
H  -16.71700 14.86800 42.63500
H  -15.48000 13.74700 45.24100
H  -18.18100 16.01700 43.87800
H  -17.08400 16.45200 45.12500
H  -17.79000 14.89300 45.14200
H  -15.56100 12.37800 42.58500
H  -17.07100 12.51000 43.33100
H  -15.71500 10.36600 43.92300
H  -16.86500 10.99300 45.11300
H  -15.16400 11.44500 45.19400
H  -10.12400 10.58200 44.84800
H  -10.93200 10.16600 43.23500
H  -11.89500 10.64200 44.62400
H  -6.99800 13.72500 41.52100
H  -4.36700 15.70700 44.31600
H  -3.59100 14.11600 44.23500
H  -4.98500 14.32000 45.22900

