158

Mg 25.58700 1.40500 29.45000
C  27.49300 1.44800 32.47900
C  22.65900 1.46500 31.38600
C  23.82100 1.47200 26.57600
C  28.53100 0.98600 27.61200
N  25.13000 1.31400 31.78000
C  26.04900 1.64300 32.69900
C  25.40100 1.94200 34.03300
C  23.92200 1.62600 33.66800
C  23.89600 1.49600 32.18600
C  23.33800 0.34300 34.34500
C  25.77200 3.26800 34.65500
C  26.32300 3.19700 36.09700
H  25.98200 4.23800 37.11900
N  23.58800 1.39700 29.02800
C  22.53400 1.44600 29.94800
C  21.32600 1.43800 29.21600
C  21.64400 1.48600 27.80100
C  23.06700 1.56800 27.77600
C  20.00200 1.60000 29.85900
C  20.71900 1.27000 26.63100
O  21.08200 1.34600 25.47000
C  19.31100 0.95200 26.91500
N  26.12600 1.40200 27.35300
C  25.19900 1.41800 26.36500
C  25.94900 1.64400 25.01000
C  27.47100 1.75200 25.42100
C  27.38200 1.25800 26.88200
C  25.55100 0.57200 23.90100
C  28.15900 3.05100 25.10200
C  27.44900 4.25400 25.61800
N  27.53100 1.13300 29.94100
C  28.64700 0.88500 29.02300
C  29.88000 0.94100 29.80500
C  29.43700 0.96500 31.17000
C  28.03600 1.18400 31.19900
C  31.27200 0.86600 29.33700
C  29.87500 0.91600 32.52700
O  30.99100 0.61200 32.92200
C  28.65400 1.38700 33.39200
C  28.63100 0.37300 34.51900
O  28.09400 -0.70300 34.40500
O  29.30900 0.87000 35.60400
C  29.44500 -0.00700 36.81200
H  21.80400 1.58200 32.05500
H  23.26900 1.57400 25.63900
H  29.41500 1.00000 26.97100
H  25.72400 1.16400 34.72400
H  23.36800 2.49200 34.02900
H  22.81500 -0.22300 33.57500
H  22.77600 0.60700 35.24100
H  24.11500 -0.33000 34.70800
H  24.99500 4.02600 34.54900
H  26.63400 3.55300 34.05100
H  27.39900 3.37100 36.10000
H  26.29200 2.27300 36.67400
H  19.40900 0.68600 29.84400
H  19.40300 2.36300 29.36200
H  20.11800 2.01400 30.86100
H  19.26700 -0.00800 27.43000
H  18.85200 0.91800 25.92700
H  18.84500 1.78500 27.44000
H  25.57200 2.58000 24.59800
H  28.04000 1.03300 24.83200
H  26.38000 0.42400 23.20900
H  24.69400 1.03100 23.40700
H  25.20800 -0.31800 24.42900
H  28.32700 3.13100 24.02800
H  29.17200 2.86800 25.46000
H  26.61200 4.09000 26.29600
H  26.99200 4.87900 24.85100
H  28.12600 4.81700 26.26100
H  31.34000 1.36900 28.37300
H  31.54300 -0.19000 29.35400
H  31.93800 1.40200 30.01200
H  28.71800 2.37700 33.84300
H  28.55600 -0.03600 37.44200
H  30.23100 0.31500 37.49500
H  29.60100 -1.04500 36.52000
Mg 6.92300 53.05800 40.31300
C  6.76500 49.66900 40.10900
C  10.29900 52.94800 39.94000
C  7.04000 56.50300 39.93300
C  3.48700 53.19900 40.49600
N  8.32500 51.49700 39.96100
C  8.07200 50.16100 39.93700
C  9.34500 49.31400 39.72900
C  10.45400 50.40800 39.83100
C  9.63000 51.71900 39.88300
C  11.34200 50.25100 41.04900
C  9.42100 48.57800 38.33500
C  9.25700 49.33400 36.97500
H  8.48500 50.73500 36.99200
N  8.46300 54.56500 39.98300
C  9.83800 54.27800 40.00100
C  10.62100 55.49700 39.89500
C  9.65000 56.60100 39.83600
C  8.35300 55.97400 39.93500
C  12.10600 55.55500 39.96100
C  10.03100 58.01400 39.62200
O  11.22100 58.22800 39.40300
C  9.05800 59.13100 39.65600
N  5.43500 54.65000 39.98200
C  5.72000 55.97800 39.98700
C  4.51300 56.81100 40.21300
C  3.39000 55.81000 40.52900
C  4.12900 54.44500 40.26800
C  4.70400 57.90200 41.29900
C  2.12300 56.01000 39.68800
C  0.69600 55.47600 40.32000
N  5.45000 51.74300 40.33600
C  4.04500 51.94400 40.56900
C  3.34400 50.68600 40.90000
C  4.43300 49.75900 40.82900
C  5.61300 50.44100 40.37100
C  1.91900 50.46800 41.40600
C  4.86300 48.38900 41.05900
O  4.24000 47.50200 41.59500
C  6.29300 48.22400 40.44200
C  6.11000 47.31300 39.23700
O  5.63900 47.65000 38.18700
O  6.37300 45.98700 39.59300
C  5.66700 45.05300 38.68100
H  11.37100 52.74100 39.91600
H  6.86700 57.56900 39.77000
H  2.45200 53.38200 40.79300
H  9.36400 48.64300 40.58800
H  11.13800 50.50300 38.98700
H  11.20200 49.32000 41.59800
H  11.24500 51.17800 41.61400
H  12.39700 50.19800 40.78100
H  8.72700 47.73800 38.29200
H  10.42800 48.16300 38.27900
H  8.49700 48.73200 36.47700
H  10.20200 49.31000 36.43200
H  12.59100 55.45400 38.99000
H  12.60000 54.75600 40.51400
H  12.46200 56.49600 40.38000
H  9.46100 60.14300 39.63000
H  8.31300 59.08400 40.45000
H  8.57900 59.06100 38.67900
H  4.37000 57.20400 39.20700
H  3.19100 55.73500 41.59800
H  4.93300 58.89600 40.91300
H  5.47400 57.65300 42.02900
H  3.79800 58.08900 41.87600
H  2.33700 55.48600 38.75600
H  1.96300 57.05800 39.43600
H  0.95300 54.95100 41.24000
H  0.19100 54.83100 39.60100
H  -0.02100 56.24000 40.62000
H  1.51400 49.54300 40.99700
H  1.41800 51.34100 40.98600
H  1.84700 50.42500 42.49300
H  6.99900 47.65900 41.05000
H  5.98900 45.17400 37.64700
H  4.58100 45.13900 38.67400
H  5.83100 44.04400 39.06000

