158

Mg 10.13100 48.10300 26.38600
C  8.45800 47.94100 29.35500
C  12.89800 49.51300 28.00900
C  11.81400 48.26000 23.38800
C  7.24000 47.00400 24.78000
N  10.56700 48.70600 28.39000
C  9.82900 48.37500 29.48500
C  10.47800 48.83400 30.81900
C  11.68900 49.63300 30.23100
C  11.75600 49.24100 28.78300
C  11.69700 51.14400 30.52900
C  10.93100 47.71000 31.74400
C  10.24800 47.57600 33.12300
H  10.53100 48.45800 34.39300
N  12.05400 48.88700 25.79100
C  13.02500 49.22000 26.61800
C  14.21600 49.47500 25.87800
C  13.91200 49.17000 24.52700
C  12.49800 48.79700 24.51600
C  15.47500 50.06700 26.46800
C  14.82200 49.20600 23.31500
O  14.45700 49.01100 22.15000
C  16.31200 49.50300 23.52000
N  9.55500 47.89600 24.29500
C  10.45300 47.82300 23.35000
C  9.77300 47.28100 22.09100
C  8.47000 46.65700 22.55300
C  8.37100 47.21700 23.95600
C  9.59700 48.30700 20.98200
C  8.40700 45.05500 22.51800
C  9.30000 44.20900 23.42400
N  8.18700 47.69400 26.95100
C  7.13100 47.26200 26.12900
C  5.95000 47.11800 26.91800
C  6.46700 47.34700 28.22900
C  7.82100 47.66900 28.16000
C  4.52300 46.86100 26.44900
C  6.03800 47.39800 29.60500
O  4.97400 47.16300 30.20500
C  7.39700 47.61800 30.43500
C  7.75500 46.41600 31.27700
O  8.64100 45.59600 31.04900
O  6.92500 46.43100 32.40600
C  7.27000 45.55200 33.52900
H  13.71800 50.00500 28.53600
H  12.26100 48.28800 22.39300
H  6.44900 46.52700 24.19700
H  9.77400 49.50300 31.31500
H  12.61300 49.29700 30.70100
H  12.65700 51.53700 30.86200
H  10.98800 51.46600 31.29200
H  11.49300 51.60900 29.56500
H  12.00100 47.83700 31.90600
H  10.66900 46.79100 31.21900
H  10.34400 46.53900 33.44500
H  9.15900 47.60800 33.08100
H  16.16800 49.27300 26.74700
H  15.32000 50.55900 27.42800
H  16.12500 50.72600 25.89200
H  16.84900 49.10700 24.38200
H  16.39000 50.58100 23.66000
H  16.89300 49.34100 22.61200
H  10.36100 46.52100 21.57500
H  7.64900 46.97400 21.91000
H  10.26500 48.14800 20.13500
H  10.02200 49.24400 21.34200
H  8.59800 48.50500 20.59400
H  8.45400 44.64900 21.50700
H  7.37400 44.83500 22.78500
H  10.22100 44.63100 23.82500
H  9.56300 43.37600 22.77100
H  8.64300 43.93800 24.25000
H  4.07000 47.75200 26.01300
H  3.90400 46.51200 27.27600
H  4.57300 46.17700 25.60200
H  7.25400 48.44000 31.13600
H  6.93500 44.53600 33.32300
H  6.66700 45.99600 34.32100
H  8.35100 45.56900 33.67000
Mg -11.06800 16.87400 41.27700
C  -7.58600 16.17600 41.86900
C  -10.14200 20.18000 41.10800
C  -14.16400 17.58300 40.27700
C  -11.66100 13.43900 41.06900
N  -8.99100 17.97000 41.28800
C  -7.77000 17.48800 41.48500
C  -6.74100 18.54600 41.34400
C  -7.63300 19.83600 41.67200
C  -9.03000 19.33500 41.30400
C  -7.52400 20.31000 43.13000
C  -6.25100 18.54000 39.82900
C  -5.00900 17.77300 39.47700
H  -5.05800 16.36900 38.82100
N  -12.05100 18.64200 40.73100
C  -11.43600 19.86800 40.63100
C  -12.44000 20.80300 40.07800
C  -13.66400 20.08300 39.93000
C  -13.36500 18.69500 40.34200
C  -12.03600 22.21400 39.75900
C  -14.92700 20.71700 39.33100
O  -15.01000 21.89900 39.07500
C  -16.23900 19.96500 39.18300
N  -12.64900 15.69800 40.77600
C  -13.84800 16.24100 40.54800
C  -14.98300 15.17700 40.73300
C  -14.21000 13.77700 40.73800
C  -12.70800 14.34600 40.84500
C  -15.75600 15.45300 42.01300
C  -14.41700 12.89400 39.46200
C  -14.76600 11.42700 39.66000
N  -9.86400 15.09600 41.55600
C  -10.27700 13.77000 41.46700
C  -9.14300 12.94600 41.74800
C  -8.10000 13.85500 42.07000
C  -8.56900 15.14400 41.78100
C  -9.17300 11.46100 41.85700
C  -6.78600 13.97200 42.50500
O  -6.03400 13.05100 42.79100
C  -6.38600 15.55900 42.51400
C  -6.34300 16.01500 43.96400
O  -7.24800 16.59600 44.52800
O  -5.15400 15.72800 44.54600
C  -4.94200 16.18400 45.90400
H  -9.94100 21.25000 41.19000
H  -15.22100 17.63500 40.00700
H  -11.81900 12.36100 41.00500
H  -5.83200 18.41700 41.93200
H  -7.61800 20.59500 40.89000
H  -6.69500 19.83000 43.64900
H  -8.43300 20.27500 43.73000
H  -7.32700 21.36900 42.96700
H  -6.08300 19.52600 39.39400
H  -6.95400 17.99300 39.20100
H  -4.51800 17.66700 40.44500
H  -4.31900 18.38700 38.89900
H  -11.56600 22.20300 38.77500
H  -11.39400 22.65400 40.52100
H  -12.82800 22.96300 39.75600
H  -16.11700 19.01500 38.66400
H  -16.72300 20.64300 38.48000
H  -16.67500 19.79300 40.16700
H  -15.62200 15.30300 39.85800
H  -14.44200 13.28800 41.68400
H  -16.29800 14.59200 42.40500
H  -16.60800 16.05600 41.70100
H  -15.22100 15.97400 42.80700
H  -13.49200 13.01900 38.89900
H  -15.22800 13.27800 38.84400
H  -13.93000 10.78200 39.39100
H  -15.59100 11.11500 39.01900
H  -15.13900 11.11800 40.63700
H  -8.37100 11.25600 42.56500
H  -9.00500 10.85500 40.96600
H  -10.11100 11.24900 42.37100
H  -5.37000 15.78600 42.19200
H  -4.43000 17.14600 45.94600
H  -4.21100 15.48100 46.30100
H  -5.82000 16.23000 46.54800

