158

Mg -0.34800 18.27700 27.19400
C  -1.11700 16.06900 29.88700
C  -1.41800 20.89000 29.19400
C  -0.06700 20.23900 24.75100
C  -0.23800 15.44900 25.08100
N  -1.19400 18.37300 29.32200
C  -1.17300 17.42900 30.26600
C  -1.51200 18.07800 31.67600
C  -1.83300 19.56500 31.26900
C  -1.45200 19.59500 29.82100
C  -3.28700 19.97400 31.66000
C  -0.37600 17.84000 32.67000
C  -0.94600 17.23700 34.01300
H  0.01300 16.89000 35.13000
N  -0.65900 20.30300 26.99100
C  -0.97700 21.21100 27.93700
C  -0.98200 22.53700 27.42800
C  -0.36500 22.35300 26.11600
C  -0.36000 20.91200 25.88200
C  -1.59500 23.63100 28.21700
C  0.11500 23.49500 25.02700
O  0.59700 23.20100 23.89800
C  -0.00900 24.94500 25.36100
N  -0.35600 17.86600 25.08300
C  -0.08000 18.89800 24.36300
C  0.12000 18.51700 22.92800
C  0.31400 16.97800 23.04100
C  -0.10900 16.70700 24.48900
C  -1.06600 18.95500 21.91200
C  1.75400 16.44700 22.65400
C  2.78400 16.31100 23.74700
N  -0.57100 16.18200 27.34500
C  -0.50200 15.20100 26.45300
C  -0.60000 13.96900 27.10800
C  -0.90300 14.24800 28.44900
C  -0.84000 15.63900 28.55000
C  -0.50100 12.53800 26.45900
C  -1.07200 13.61900 29.78300
O  -1.13700 12.46700 30.21300
C  -1.21200 14.84300 30.79400
C  -0.07000 14.68700 31.75100
O  1.02700 15.15900 31.60000
O  -0.44900 13.95600 32.92300
C  0.73300 13.54200 33.77500
H  -1.64000 21.74800 29.83200
H  0.30500 20.79700 23.88900
H  -0.14500 14.57600 24.43200
H  -2.41800 17.50500 31.87400
H  -1.16900 20.20800 31.84800
H  -4.01000 19.90200 30.84800
H  -3.28600 21.02700 31.94300
H  -3.55600 19.48500 32.59600
H  -0.03300 18.79200 33.07700
H  0.54000 17.32500 32.38300
H  -1.62800 16.42000 33.77600
H  -1.60500 18.04700 34.32500
H  -1.17900 23.77300 29.21400
H  -2.59100 23.35100 28.55800
H  -1.45700 24.56800 27.67700
H  0.23900 25.02000 26.42000
H  -1.00400 25.31300 25.11200
H  0.77200 25.48800 24.83000
H  1.09600 18.95400 22.71600
H  -0.46300 16.46300 22.47600
H  -2.04200 19.02000 22.39500
H  -1.30100 18.15700 21.20800
H  -0.80400 19.85000 21.34800
H  2.18100 17.23100 22.02900
H  1.80400 15.62500 21.94000
H  3.73700 16.74200 23.44000
H  3.08500 15.30800 24.05000
H  2.63000 16.85500 24.67900
H  -1.50600 12.12100 26.39500
H  0.10300 11.94900 27.15000
H  0.01800 12.47200 25.50300
H  -2.15800 14.82100 31.33500
H  1.69600 13.83700 33.35700
H  0.66700 12.45600 33.83200
H  0.68700 13.93800 34.78900
Mg 2.15500 -1.73600 44.81500
C  5.50600 -1.01200 44.26900
C  1.44700 1.00300 42.72900
C  -1.16300 -2.55000 44.88100
C  3.02200 -4.89900 45.88700
N  3.36700 -0.13800 43.67100
C  4.69400 -0.24300 43.46400
C  5.17600 0.74000 42.36400
C  3.90800 1.63700 42.18800
C  2.79300 0.73300 42.83100
C  4.06800 3.14600 42.70500
C  5.60400 -0.16600 41.16600
C  7.16800 -0.14600 40.94100
H  7.71200 0.41700 39.63600
N  0.37400 -0.77600 44.05500
C  0.30100 0.30400 43.23900
C  -1.10300 0.61400 43.01100
C  -1.85000 -0.46300 43.54100
C  -0.88500 -1.27600 44.27100
C  -1.62100 1.80700 42.23800
C  -3.40600 -0.72000 43.26000
O  -4.03700 0.07500 42.62700
C  -4.18600 -1.86500 43.82000
N  1.11300 -3.47400 45.12700
C  -0.30000 -3.54600 45.29400
C  -0.68900 -4.82700 45.94400
C  0.63500 -5.68000 45.95000
C  1.68900 -4.62300 45.61900
C  -1.38100 -4.62300 47.34600
C  0.75800 -7.04400 45.16400
C  0.00800 -7.14100 43.76400
N  3.86200 -2.73000 45.18800
C  4.15800 -4.00500 45.70400
C  5.60500 -4.14900 45.85900
C  6.14600 -2.95100 45.39100
C  5.07000 -2.12100 44.95900
C  6.17300 -5.47200 46.28300
C  7.40000 -2.21000 45.19100
O  8.62700 -2.42700 45.37400
C  7.02800 -0.82800 44.51400
C  7.21500 0.30500 45.39300
O  7.02000 0.33600 46.61600
O  7.85300 1.37300 44.71000
C  8.23200 2.46200 45.57700
H  1.20100 1.97600 42.29700
H  -2.13800 -3.04000 44.92200
H  3.22100 -5.92600 46.20000
H  5.97300 1.39600 42.71600
H  3.65600 1.82800 41.14400
H  4.18500 3.90800 41.93400
H  5.00100 3.25000 43.25700
H  3.24200 3.27500 43.40500
H  5.05100 0.13800 40.27700
H  5.22700 -1.18100 41.29200
H  7.50600 -1.18200 40.95300
H  7.76900 0.29800 41.73400
H  -2.12200 1.47400 41.32900
H  -0.84900 2.51100 41.92500
H  -2.37800 2.24600 42.88800
H  -5.18800 -1.88700 43.39000
H  -4.24200 -1.82800 44.90800
H  -3.67900 -2.74000 43.41300
H  -1.54900 -5.20500 45.39000
H  0.84000 -5.91100 46.99500
H  -1.36900 -3.57800 47.65400
H  -0.90800 -5.29000 48.06700
H  -2.41900 -4.85600 47.10800
H  0.18200 -7.69000 45.82600
H  1.75400 -7.42300 44.93300
H  0.66400 -7.36100 42.92100
H  -0.53100 -6.21200 43.57700
H  -0.74800 -7.92600 43.78100
H  6.12900 -6.10400 45.39600
H  5.51100 -5.86000 47.05800
H  7.16900 -5.54700 46.72000
H  7.66100 -0.71700 43.63400
H  8.64200 3.33200 45.06600
H  8.96900 2.07700 46.28200
H  7.33200 2.78100 46.10400

