158

Mg 25.26500 -0.76700 28.99700
C  27.20400 -0.46800 31.89800
C  22.31200 -0.28600 30.97400
C  23.29100 -1.01800 26.38500
C  28.09000 -1.64200 27.35600
N  24.87900 -0.50100 31.22300
C  25.86400 -0.29500 32.19600
C  25.11000 -0.03300 33.56500
C  23.58800 -0.22500 33.21500
C  23.53400 -0.42400 31.71100
C  22.84300 -1.39200 34.03800
C  25.49600 1.47200 34.15700
C  26.40200 1.39400 35.48500
H  26.18300 2.35800 36.57200
N  23.07100 -0.68300 28.67600
C  22.08000 -0.37200 29.62000
C  20.81700 -0.24100 28.94200
C  21.09700 -0.51000 27.59200
C  22.52600 -0.77400 27.43100
C  19.55500 0.05700 29.68900
C  20.07100 -0.59200 26.42500
O  20.40500 -0.89300 25.32400
C  18.67200 -0.32400 26.64900
N  25.56100 -1.62900 27.23600
C  24.64200 -1.34500 26.24900
C  25.20900 -1.41200 24.80500
C  26.75300 -1.57800 25.14600
C  26.81600 -1.67000 26.71100
C  24.55900 -2.52400 23.88600
C  27.58300 -0.44000 24.51400
C  27.51900 0.99200 25.08600
N  27.22500 -0.97200 29.47400
C  28.29800 -1.40200 28.69800
C  29.56600 -1.33200 29.40400
C  29.20500 -0.97300 30.72300
C  27.77100 -0.78600 30.64300
C  30.88000 -1.60400 28.79700
C  29.69300 -0.63000 32.06400
O  30.79000 -0.54200 32.52100
C  28.38700 -0.35900 32.89700
C  28.46100 -1.28700 34.07000
O  28.24200 -2.49200 34.04200
O  28.80100 -0.46000 35.15000
C  28.74600 -1.16700 36.43500
H  21.48100 0.01400 31.61600
H  22.86300 -0.86200 25.39200
H  28.93100 -1.76500 26.67000
H  25.54200 -0.78800 34.22100
H  22.90700 0.55800 33.54700
H  23.43700 -1.85000 34.82900
H  22.45000 -2.15800 33.36900
H  22.10700 -0.91000 34.68100
H  24.60700 1.98900 34.51700
H  25.93200 2.05900 33.35000
H  27.42500 1.43000 35.11300
H  26.20000 0.41900 35.92800
H  19.58100 -0.25600 30.73300
H  18.62100 -0.41300 29.38100
H  19.45200 1.13800 29.78500
H  18.26200 -1.04000 27.36100
H  18.09300 -0.25900 25.72800
H  18.72500 0.71700 26.96800
H  25.00800 -0.44300 24.34700
H  27.04500 -2.54300 24.73300
H  25.34800 -3.02400 23.32300
H  23.79700 -2.02400 23.28900
H  23.96000 -3.20100 24.49300
H  27.14300 -0.29200 23.52800
H  28.61200 -0.76900 24.37300
H  26.87800 1.05700 25.96600
H  26.99600 1.64300 24.38600
H  28.47800 1.47300 25.27800
H  31.28400 -0.76100 28.23600
H  30.86300 -2.41100 28.06500
H  31.50500 -1.91600 29.63500
H  28.47000 0.67900 33.21700
H  27.81300 -0.79900 36.86100
H  29.64500 -0.93600 37.00600
H  28.67500 -2.24900 36.32300
Mg 43.41800 3.58500 47.54500
C  41.24700 6.35300 47.20500
C  40.81600 1.47900 47.22400
C  45.73200 1.09600 47.43400
C  46.07900 5.94400 47.21000
N  41.36600 3.89400 47.14800
C  40.68100 5.09100 47.06200
C  39.18000 4.84300 46.76000
C  39.10600 3.31300 46.94900
C  40.50300 2.83600 47.16700
C  38.09400 2.75900 48.01300
C  38.75100 5.42300 45.40200
C  37.69100 6.45300 45.38500
H  37.92300 7.59700 44.35100
N  43.28800 1.56400 47.42200
C  42.08900 0.85300 47.34700
C  42.42700 -0.55500 47.18700
C  43.84200 -0.67400 47.29700
C  44.37200 0.73400 47.42200
C  41.39500 -1.59900 46.89600
C  44.67300 -1.94900 47.12400
O  44.07000 -3.01300 46.93100
C  46.18500 -2.13600 47.22100
N  45.52700 3.54100 47.28600
C  46.31000 2.40300 47.29800
C  47.75700 2.67800 47.43300
C  47.86200 4.19800 47.06500
C  46.41700 4.59000 47.22700
C  48.32900 2.23500 48.83500
C  48.48600 4.39200 45.67600
C  49.35900 5.59200 45.67400
N  43.63700 5.70200 47.19300
C  44.77500 6.47800 47.21300
C  44.40600 7.81400 47.28600
C  43.02100 7.83900 47.27600
C  42.61800 6.52200 47.20700
C  45.30000 9.01100 47.31100
C  41.83300 8.71300 47.41600
O  41.71700 9.89500 47.60400
C  40.60700 7.72100 47.21800
C  39.63900 7.91800 48.28300
O  39.67500 7.31900 49.36600
O  38.82500 9.02300 47.95600
C  37.76100 9.36700 48.93200
H  39.95100 0.87400 46.94400
H  46.51900 0.34300 47.52000
H  46.81100 6.73000 47.01400
H  38.56800 5.12200 47.61700
H  38.71500 2.91300 46.01400
H  37.65200 3.57500 48.58600
H  38.61300 2.07100 48.67900
H  37.25400 2.20800 47.59000
H  38.41500 4.62300 44.74200
H  39.63800 5.71400 44.83800
H  37.61100 6.94900 46.35300
H  36.77900 5.88800 45.19400
H  41.70200 -2.55100 47.33100
H  41.19400 -1.82000 45.84800
H  40.47700 -1.20400 47.33100
H  46.78500 -1.48300 46.58700
H  46.20900 -3.13800 46.79200
H  46.37400 -1.98500 48.28400
H  48.26900 2.02400 46.72700
H  48.42500 4.72700 47.83400
H  47.69300 1.58200 49.43300
H  48.51700 3.09600 49.47600
H  49.23600 1.65900 48.65300
H  47.64400 4.39400 44.98400
H  49.15800 3.53600 45.61100
H  50.39300 5.27500 45.54200
H  49.18500 6.37400 46.41400
H  49.12700 6.22300 44.81700
H  45.09700 9.56300 48.22800
H  45.17100 9.69700 46.47400
H  46.37000 8.80900 47.36600
H  40.16600 7.75200 46.22100
H  38.13700 9.28200 49.95200
H  36.82100 8.82900 48.81100
H  37.52800 10.42000 48.77400

