158

Mg 41.67400 9.09800 29.38500
C  43.49400 10.53700 31.94700
C  39.52600 7.67100 31.59200
C  40.13700 7.63100 26.69100
C  44.29500 9.99800 27.16800
N  41.59500 9.01100 31.57800
C  42.33400 9.85100 32.42100
C  41.77100 9.81200 33.89600
C  40.62300 8.76800 33.76500
C  40.63700 8.34900 32.19600
C  40.64400 7.57300 34.70400
C  41.52000 11.23100 34.51700
C  40.36000 11.29800 35.54600
H  40.51700 12.11500 36.86100
N  40.02100 7.87100 29.11400
C  39.24900 7.31500 30.17800
C  38.10500 6.69000 29.65500
C  38.12700 6.80100 28.21700
C  39.47400 7.42400 27.91700
C  37.06500 6.03100 30.66000
C  37.15000 6.39200 27.22000
O  37.29500 6.41300 26.01000
C  35.88900 5.95500 27.73800
N  42.23000 8.74800 27.23700
C  41.35200 8.24600 26.34700
C  41.94900 8.29500 24.92500
C  43.26800 9.10500 25.06700
C  43.27100 9.25000 26.57800
C  42.13500 6.84700 24.43200
C  43.22200 10.51600 24.31800
C  42.05400 11.47600 24.61000
N  43.40100 10.16500 29.47100
C  44.39600 10.37500 28.54500
C  45.43400 11.21000 29.08500
C  45.09300 11.37500 30.48700
C  43.85000 10.64700 30.61300
C  46.51600 11.76200 28.25300
C  45.48800 11.91700 31.75700
O  46.45200 12.58500 32.13700
C  44.41600 11.37700 32.75700
C  45.10100 10.65800 33.86900
O  45.96000 9.81200 33.75600
O  44.68900 11.13200 35.13300
C  45.39000 10.68900 36.43000
H  38.88800 7.20500 32.34600
H  39.51500 7.13400 25.94300
H  45.06500 10.49800 26.57600
H  42.53300 9.49300 34.60800
H  39.63400 9.20700 33.89700
H  40.38100 6.69800 34.10900
H  39.86500 7.76400 35.44300
H  41.54400 7.55700 35.31800
H  41.39600 11.86400 33.63800
H  42.30000 11.55100 35.20700
H  40.14700 10.26000 35.80400
H  39.54800 11.79100 35.01200
H  36.16200 6.64000 30.67900
H  37.42300 5.97000 31.68800
H  36.67000 5.09100 30.27500
H  35.24500 5.70300 26.89500
H  35.35000 6.61400 28.41900
H  36.04500 5.03400 28.29900
H  41.23000 8.74000 24.23800
H  44.13000 8.55600 24.68800
H  41.74900 6.18700 25.20900
H  43.19200 6.65500 24.24500
H  41.54500 6.73100 23.52300
H  43.16700 10.33100 23.24500
H  44.15500 11.04800 24.50000
H  42.40600 12.40300 25.06300
H  41.29400 11.09700 25.29300
H  41.52400 11.63700 23.67100
H  47.09200 12.49800 28.81400
H  46.17400 12.16500 27.30000
H  47.19600 10.95800 27.97000
H  43.89400 12.28100 33.07100
H  46.03800 9.85700 36.15300
H  44.71500 10.25800 37.16900
H  45.98600 11.54000 36.76000
Mg -6.36000 25.03600 25.97300
C  -4.57000 26.59100 28.51900
C  -8.13200 23.30600 28.38400
C  -7.48400 22.89300 23.56800
C  -4.16000 26.52900 23.68900
N  -6.20900 24.85300 28.25100
C  -5.48400 25.70200 29.09200
C  -5.88200 25.50600 30.54700
C  -6.90100 24.31500 30.46700
C  -7.09000 24.11600 28.93100
C  -6.48400 22.99800 31.28500
C  -6.36600 26.83600 31.19000
C  -6.04000 27.00500 32.64100
H  -5.84900 25.84100 33.55300
N  -7.71300 23.38900 25.96400
C  -8.44800 22.96100 27.02800
C  -9.43400 22.02700 26.50700
C  -9.22600 21.89400 25.07700
C  -8.06000 22.70000 24.81800
C  -10.49600 21.39100 27.35400
C  -10.04300 20.96700 24.01100
O  -9.80900 21.00800 22.78800
C  -11.13900 20.07500 24.52900
N  -5.83000 24.75100 23.96500
C  -6.42900 23.78800 23.11200
C  -5.65600 23.70700 21.76100
C  -4.95500 25.16000 21.73600
C  -4.94600 25.49900 23.24200
C  -4.70600 22.47500 21.76300
C  -5.67300 26.29500 20.93200
C  -4.72700 27.13300 19.97400
N  -4.84900 26.40400 25.97200
C  -4.10400 26.90900 25.00600
C  -3.15700 27.89300 25.55000
C  -3.40400 27.80000 26.95200
C  -4.36700 26.84900 27.12600
C  -2.12300 28.66200 24.79000
C  -2.86900 28.29500 28.22300
O  -1.89600 28.99800 28.48300
C  -3.63600 27.45400 29.35000
C  -2.63000 26.77500 30.24000
O  -2.41700 25.56500 30.23000
O  -2.26600 27.57500 31.24800
C  -1.68100 27.04800 32.47200
H  -8.61500 22.67600 29.13400
H  -7.86000 22.26800 22.75500
H  -3.44000 27.02100 23.03300
H  -4.97100 25.19600 31.05900
H  -7.80400 24.73600 30.91000
H  -6.38800 22.11400 30.65400
H  -7.17800 22.90600 32.12000
H  -5.48100 23.06700 31.70500
H  -7.44300 26.89900 31.34400
H  -6.08600 27.68300 30.56400
H  -6.68600 27.76300 33.08200
H  -5.02300 27.39300 32.70300
H  -11.47100 21.46900 26.87400
H  -10.55000 21.86000 28.33600
H  -10.35400 20.31400 27.43600
H  -12.06700 20.59000 24.77600
H  -10.69900 19.39800 25.26100
H  -11.37400 19.41200 23.69600
H  -6.27200 23.57800 20.87100
H  -3.92600 25.08600 21.38300
H  -4.88800 21.99300 20.80300
H  -4.91200 21.79500 22.58900
H  -3.68500 22.85600 21.78100
H  -6.26900 26.93700 21.58000
H  -6.39700 25.72300 20.35000
H  -4.81100 28.15700 20.33800
H  -5.18300 27.09200 18.98500
H  -3.65700 26.94900 20.07200
H  -1.71600 28.18000 23.90200
H  -1.32900 28.88700 25.50200
H  -2.53100 29.58700 24.38100
H  -4.20300 28.22800 29.86600
H  -0.87700 26.34100 32.26600
H  -2.50300 26.63500 33.05600
H  -1.26400 27.93200 32.95300

