158

Mg -2.59500 16.93400 26.67000
C  -2.92400 14.80600 29.34200
C  -2.53800 19.56300 28.79000
C  -2.57900 18.91400 23.98300
C  -2.65100 14.22400 24.56000
N  -2.85300 17.13500 28.80500
C  -2.94500 16.16000 29.72300
C  -2.83700 16.66500 31.18800
C  -3.01300 18.22600 30.91500
C  -2.69500 18.34100 29.38800
C  -4.43300 18.71300 31.30600
C  -1.58100 16.12000 31.83600
C  -0.77900 16.93400 32.86300
H  -0.36200 16.29100 34.17600
N  -2.58800 18.96500 26.44300
C  -2.57800 19.86400 27.44000
C  -2.66200 21.20400 26.83600
C  -2.55200 21.05800 25.44300
C  -2.55100 19.59800 25.22400
C  -2.67600 22.48300 27.64000
C  -2.39400 22.16700 24.36600
O  -2.31800 21.91100 23.15200
C  -2.30900 23.55100 24.78600
N  -2.83400 16.64100 24.58400
C  -2.72500 17.55500 23.64700
C  -2.80900 17.09800 22.19900
C  -2.58100 15.57100 22.43100
C  -2.69600 15.46800 23.94800
C  -4.15100 17.38600 21.57500
C  -1.19800 15.07800 21.96700
C  -1.13300 13.87300 21.02200
N  -2.94000 14.91300 26.88600
C  -2.86900 13.91500 25.92000
C  -2.86800 12.60300 26.50700
C  -2.95800 12.91100 27.80100
C  -2.94300 14.30800 28.06500
C  -2.86500 11.24600 25.92700
C  -3.01400 12.33100 29.10500
O  -3.06900 11.14700 29.36300
C  -2.91500 13.54700 30.16300
C  -1.74200 13.23700 30.91300
O  -0.63800 13.39000 30.49800
O  -2.18500 12.76900 32.13100
C  -1.21200 12.40300 33.11600
H  -2.48500 20.41100 29.47500
H  -2.55000 19.55800 23.10200
H  -2.45600 13.36100 23.92100
H  -3.64100 16.17900 31.74200
H  -2.24300 18.78500 31.44700
H  -5.04900 18.89800 30.42600
H  -4.29700 19.59500 31.93300
H  -4.99600 17.96900 31.87000
H  -0.94900 15.87200 30.98400
H  -1.78800 15.23800 32.44200
H  -1.36400 17.82100 33.10800
H  0.09900 17.33700 32.35700
H  -2.89300 22.26500 28.68600
H  -3.52900 23.11600 27.39500
H  -1.78200 23.09600 27.52600
H  -3.30300 23.89000 25.07800
H  -1.98000 24.08200 23.89300
H  -1.56200 23.86600 25.51400
H  -1.98900 17.47400 21.58800
H  -3.29000 14.89000 21.96000
H  -4.88600 17.79400 22.26900
H  -4.59000 16.49900 21.11700
H  -4.17600 18.13900 20.78700
H  -0.54600 14.90600 22.82300
H  -0.61000 15.80300 21.40400
H  -0.41300 13.08000 21.22900
H  -0.98000 14.25300 20.01200
H  -2.06300 13.30700 20.96700
H  -3.86900 10.82300 25.87700
H  -2.24100 10.51900 26.44700
H  -2.58400 11.25100 24.87400
H  -3.84200 13.54200 30.73600
H  -1.37600 11.34400 33.31100
H  -1.30400 12.98600 34.03200
H  -0.17400 12.54600 32.81600
Mg -2.24400 33.72400 26.58900
C  -3.85300 31.94500 29.07700
C  -0.78800 35.78300 28.94500
C  -0.97300 35.59100 24.06100
C  -4.17000 31.94900 24.18900
N  -2.53500 33.91300 28.82000
C  -3.09600 32.97800 29.68400
C  -2.78300 33.31600 31.09800
C  -1.83000 34.54900 30.99200
C  -1.71700 34.82000 29.50900
C  -2.34200 35.80700 31.80500
C  -2.13100 32.09800 31.89100
C  -2.81600 31.75600 33.19100
H  -1.94600 31.46900 34.39100
N  -1.00100 35.41000 26.47000
C  -0.48600 36.11800 27.53300
C  0.51400 37.10700 27.03600
C  0.37400 37.05400 25.56300
C  -0.57200 35.95100 25.31700
C  1.33100 37.97400 27.98500
C  1.07400 37.89200 24.47300
O  0.73800 37.98000 23.27600
C  2.17700 38.69900 24.87400
N  -2.70800 33.89700 24.35900
C  -1.98500 34.70600 23.55700
C  -2.30200 34.47300 21.96200
C  -3.06200 33.13100 22.17400
C  -3.40200 32.96600 23.64900
C  -3.16400 35.69700 21.54400
C  -2.40100 31.90500 21.44900
C  -1.42700 31.12200 22.29000
N  -3.66500 32.20600 26.59000
C  -4.38500 31.58500 25.57300
C  -5.23800 30.57400 26.14400
C  -5.05500 30.71600 27.51300
C  -4.08000 31.67400 27.72100
C  -6.19100 29.74000 25.37100
C  -5.50400 30.22000 28.75000
O  -6.29800 29.36300 29.00800
C  -4.72500 31.00500 29.91500
C  -5.70900 31.65700 30.76400
O  -6.30500 32.68400 30.47300
O  -5.99500 30.85000 31.86000
C  -7.01900 31.36300 32.79700
H  -0.34200 36.45800 29.67900
H  -0.47300 36.16000 23.27500
H  -4.77400 31.40600 23.45900
H  -3.67100 33.59100 31.66700
H  -0.83500 34.31000 31.36900
H  -1.82200 35.84200 32.76200
H  -3.40900 35.69400 31.99500
H  -2.29800 36.68600 31.16300
H  -1.12000 32.37000 32.19500
H  -1.94500 31.28600 31.18800
H  -3.45800 30.91900 32.91500
H  -3.43500 32.56700 33.57400
H  2.31200 37.68200 27.61100
H  1.24900 37.67800 29.03100
H  1.22900 39.04100 27.78500
H  1.85100 39.50300 25.53400
H  2.62200 39.19600 24.01200
H  3.04000 38.13000 25.22100
H  -1.36600 34.40300 21.40700
H  -4.07100 33.32200 21.81100
H  -3.47600 36.43800 22.28000
H  -4.05200 35.26400 21.08400
H  -2.63600 36.17100 20.71700
H  -1.86500 32.11100 20.52300
H  -3.28000 31.29900 21.23000
H  -1.00300 31.83200 23.00000
H  -0.75900 30.62900 21.58400
H  -1.97200 30.35000 22.83200
H  -6.38100 30.28100 24.44400
H  -7.04900 29.67300 26.04000
H  -5.81800 28.73300 25.18300
H  -4.13700 30.31600 30.52100
H  -7.89300 31.70700 32.24500
H  -6.62400 32.20300 33.36900
H  -7.35400 30.63800 33.53900

