158

Mg -9.48500 41.17700 42.42900
C  -8.55500 38.05400 41.17800
C  -7.11700 42.61700 40.36900
C  -10.86300 44.05000 43.15700
C  -12.27900 39.54500 43.66600
N  -8.04000 40.51700 40.97700
C  -7.76600 39.18700 40.73600
C  -6.45000 39.00400 40.01100
C  -5.91900 40.46000 39.86700
C  -7.09100 41.26000 40.51900
C  -4.54600 40.75400 40.58700
C  -6.61200 38.31600 38.65100
C  -5.97700 36.93200 38.43200
H  -4.89100 36.73900 37.39000
N  -9.03900 43.12400 41.88100
C  -8.01300 43.46900 41.06600
C  -7.93200 44.90900 41.14200
C  -8.99900 45.38900 41.92300
C  -9.72300 44.17700 42.35700
C  -6.94500 45.78100 40.35100
C  -9.41000 46.88200 42.18800
O  -8.58500 47.79000 41.89200
C  -10.71600 47.29400 42.72100
N  -11.27600 41.71600 43.20700
C  -11.59200 42.98500 43.52400
C  -12.98100 43.12900 44.21700
C  -13.42700 41.59100 44.23100
C  -12.27900 40.92900 43.67500
C  -12.86200 43.68100 45.65800
C  -14.69500 41.25200 43.35400
C  -15.48000 40.07600 43.97700
N  -10.25800 39.18200 42.55000
C  -11.35000 38.68500 43.14500
C  -11.41600 37.28500 43.08100
C  -10.29000 36.98800 42.23000
C  -9.69500 38.17700 41.96600
C  -12.48400 36.18800 43.61500
C  -9.63100 35.81500 41.56400
O  -9.90600 34.60500 41.60500
C  -8.37300 36.45300 40.89600
C  -7.21600 35.78200 41.54300
O  -6.59300 36.25400 42.43200
O  -6.92200 34.67300 40.77000
C  -5.82000 33.82500 41.29700
H  -6.29200 43.12500 39.86500
H  -11.34700 44.90200 43.64000
H  -13.13500 38.96900 44.02300
H  -5.76200 38.49900 40.68900
H  -5.89700 40.75400 38.81800
H  -3.76500 40.00400 40.46100
H  -4.61300 40.96000 41.65500
H  -4.20000 41.61500 40.01400
H  -6.06400 38.89900 37.91100
H  -7.62000 38.35100 38.23800
H  -6.73600 36.20300 38.14700
H  -5.62700 36.49600 39.36800
H  -6.11600 45.28700 39.84400
H  -6.48400 46.39500 41.12400
H  -7.44700 46.40700 39.61200
H  -10.69600 47.10400 43.79400
H  -11.49800 46.93600 42.05200
H  -10.80200 48.37800 42.64000
H  -13.70300 43.67200 43.60800
H  -13.71200 41.13800 45.18100
H  -13.16800 42.89400 46.34700
H  -13.60100 44.48200 45.63600
H  -11.96300 44.25900 45.86900
H  -14.29800 41.09300 42.35100
H  -15.37900 42.08700 43.20200
H  -15.26100 39.84000 45.01800
H  -15.39100 39.19500 43.34200
H  -16.52700 40.37600 43.94300
H  -13.50600 36.31100 43.25700
H  -12.47200 36.34200 44.69400
H  -12.04700 35.21500 43.39000
H  -8.30500 36.23600 39.82900
H  -5.20300 34.21700 42.10500
H  -5.21800 33.41500 40.48600
H  -6.48300 33.00200 41.56600
Mg -9.46400 18.75600 42.50800
C  -6.10500 17.71600 42.49100
C  -8.41300 21.96300 41.72400
C  -12.62800 19.46500 41.91500
C  -10.29900 15.35500 43.05000
N  -7.40700 19.69700 41.76800
C  -6.21200 19.07800 42.11900
C  -5.07100 20.07300 42.13500
C  -5.83200 21.45900 42.20000
C  -7.30700 21.07300 41.91900
C  -5.75100 22.20800 43.57500
C  -3.85000 19.94400 41.18200
C  -4.12300 19.14800 39.84200
H  -3.65200 19.78800 38.54400
N  -10.43300 20.62000 41.97200
C  -9.81000 21.75900 41.70100
C  -10.84600 22.70400 41.45400
C  -12.10000 22.13700 41.68600
C  -11.80200 20.66000 41.87100
C  -10.61800 24.07600 41.00400
C  -13.42500 22.76400 41.59700
O  -13.38000 23.99800 41.48700
C  -14.78000 22.06600 41.84700
N  -11.22400 17.50900 42.45100
C  -12.35500 18.08800 42.14400
C  -13.52300 17.10600 42.29800
C  -12.81800 15.76200 42.61300
C  -11.37500 16.22400 42.70300
C  -14.66100 17.55000 43.25400
C  -12.99700 14.58000 41.57900
C  -14.41800 13.96500 41.33700
N  -8.47700 16.89700 42.73600
C  -8.94600 15.63500 43.03400
C  -7.87100 14.73300 43.27200
C  -6.69300 15.52800 43.10000
C  -7.15900 16.80400 42.72900
C  -7.93000 13.24700 43.58500
C  -5.26100 15.56200 43.22100
O  -4.57400 14.61300 43.49700
C  -4.80900 16.93200 42.82100
C  -3.87500 17.50100 43.87100
O  -2.72000 17.82300 43.58800
O  -4.43800 17.42900 45.11400
C  -3.68500 17.86600 46.26200
H  -8.03100 22.98000 41.61900
H  -13.70000 19.59700 41.75300
H  -10.60100 14.32200 43.23500
H  -4.62700 20.00100 43.12800
H  -5.45000 22.07300 41.38400
H  -4.76600 22.67100 43.62800
H  -5.95200 21.52400 44.40000
H  -6.50700 22.99000 43.64000
H  -3.00600 19.47900 41.69200
H  -3.63900 20.95400 40.83100
H  -5.20500 19.02000 39.87400
H  -3.68200 18.16200 39.99200
H  -11.13800 24.38000 40.09600
H  -9.55600 24.31100 40.94000
H  -11.00700 24.74200 41.77400
H  -14.60100 21.39400 42.68600
H  -14.93200 21.49600 40.93100
H  -15.54700 22.83000 41.97700
H  -13.91100 17.05000 41.28000
H  -13.15200 15.46800 43.60800
H  -14.62000 17.03200 44.21200
H  -15.61500 17.14800 42.91400
H  -14.55600 18.61600 43.45600
H  -12.25800 13.79000 41.70800
H  -12.67700 15.10200 40.67700
H  -15.31900 14.28100 41.86200
H  -14.27400 12.93700 41.66900
H  -14.68500 13.94500 40.28000
H  -6.93600 12.83200 43.75300
H  -8.52400 12.72100 42.83800
H  -8.55500 13.20600 44.47700
H  -4.28900 16.89200 41.86400
H  -4.42800 18.28300 46.94200
H  -2.92000 18.63600 46.16000
H  -3.11800 17.10400 46.79700

