158

Mg 8.54700 4.24600 27.79600
C  10.06100 2.96200 30.78200
C  6.55300 6.13900 29.86500
C  7.30000 5.54800 25.10200
C  10.11300 1.82900 25.97200
N  8.27800 4.36300 30.09500
C  9.07000 3.87000 31.09000
C  8.66200 4.36700 32.45300
C  7.37900 5.15300 32.13400
C  7.43000 5.28100 30.59600
C  6.00800 4.51800 32.51800
C  9.83900 5.11800 33.20400
C  10.49000 4.55700 34.49300
H  10.64800 5.39000 35.84400
N  7.28900 5.75000 27.53100
C  6.49600 6.37300 28.46000
C  5.75000 7.42100 27.74200
C  6.10800 7.37800 26.38000
C  6.93000 6.18500 26.32300
C  4.72300 8.30900 28.35600
C  5.63600 8.21600 25.21700
O  5.76600 7.94600 24.09100
C  4.97200 9.54600 25.49600
N  8.46200 3.60000 25.84000
C  8.03200 4.38200 24.91400
C  8.42200 3.95500 23.46100
C  9.32400 2.66200 23.75400
C  9.34000 2.75600 25.29900
C  7.13600 3.71600 22.58400
C  10.74200 2.71100 23.12400
C  11.10300 1.55400 22.16800
N  9.87800 2.71400 28.22700
C  10.41400 1.79600 27.39300
C  11.20400 0.84100 28.14000
C  11.15600 1.32200 29.51400
C  10.35400 2.42700 29.47600
C  12.01300 -0.19400 27.47400
C  11.55100 1.09500 30.84400
O  12.19500 0.12300 31.28200
C  10.96400 2.18400 31.75200
C  10.17700 1.36800 32.67600
O  9.20300 0.70900 32.42600
O  10.82000 1.38400 33.90300
C  10.07800 0.81900 35.09300
H  5.97000 6.77700 30.53300
H  7.20300 6.09900 24.16500
H  10.52700 1.10200 25.27000
H  8.41400 3.50800 33.07700
H  7.39500 6.08900 32.69300
H  5.61000 5.12900 33.32700
H  6.13400 3.50100 32.89000
H  5.25000 4.51400 31.73500
H  9.64400 6.14900 33.49800
H  10.66700 5.21100 32.50100
H  11.51100 4.31000 34.20300
H  9.83000 3.77500 34.87000
H  4.57200 8.13400 29.42100
H  3.74100 8.30200 27.88100
H  5.15900 9.30800 28.35600
H  4.02200 9.42500 26.01600
H  4.68500 9.92300 24.51500
H  5.72300 10.14200 26.01500
H  8.91200 4.75400 22.90300
H  8.62100 1.85400 23.54900
H  6.25000 3.78500 23.21500
H  7.28100 2.68100 22.27400
H  7.02000 4.24200 21.63700
H  11.49400 2.88000 23.89500
H  10.85600 3.58400 22.48200
H  11.57600 2.05300 21.32300
H  10.26400 0.91900 21.88300
H  11.81300 0.89100 22.66100
H  12.39100 0.13800 26.50800
H  11.37600 -1.06200 27.30400
H  12.84200 -0.50500 28.11000
H  11.63100 2.90100 32.23200
H  9.47300 1.61300 35.53100
H  10.88500 0.56200 35.77800
H  9.62000 -0.11600 34.77000
Mg -10.70400 17.20600 40.95400
C  -7.16900 17.16300 41.04600
C  -10.57800 20.56500 40.48500
C  -14.04500 17.14500 40.29600
C  -10.56000 13.71300 41.11800
N  -9.03800 18.65000 40.59000
C  -7.68900 18.42900 40.71000
C  -6.85600 19.65600 40.48900
C  -7.99300 20.75600 40.70900
C  -9.30900 19.96600 40.61700
C  -7.93000 21.63400 42.03600
C  -6.34300 19.67100 39.01700
C  -4.84100 19.46900 38.88000
H  -4.35000 18.48500 37.80900
N  -12.11400 18.66000 40.53800
C  -11.83800 19.93700 40.32300
C  -12.97000 20.66200 39.99800
C  -14.11200 19.80500 39.93300
C  -13.49700 18.46300 40.30700
C  -12.92000 22.21800 39.58200
C  -15.58500 20.16800 39.67600
O  -15.90600 21.32300 39.53500
C  -16.63600 19.20400 39.62800
N  -12.08500 15.66300 40.62700
C  -13.36500 15.87200 40.44800
C  -14.17300 14.55500 40.47600
C  -13.07200 13.49200 40.64800
C  -11.79200 14.34300 40.74100
C  -15.35700 14.53000 41.48400
C  -13.06000 12.33500 39.55700
C  -12.78900 12.74200 38.09000
N  -9.17400 15.67500 41.02300
C  -9.30400 14.32900 41.23700
C  -8.06900 13.75500 41.60400
C  -7.20200 14.86900 41.50800
C  -7.96400 15.98900 41.12700
C  -7.73100 12.30700 41.88400
C  -5.79800 15.27500 41.68400
O  -4.78000 14.67000 41.93800
C  -5.75400 16.78400 41.38100
C  -5.06100 17.50900 42.53400
O  -3.88000 17.83600 42.53600
O  -5.97100 17.74100 43.49900
C  -5.33300 18.05900 44.79400
H  -10.51600 21.65200 40.56800
H  -15.07400 17.05000 39.94200
H  -10.63200 12.64600 41.33800
H  -6.14600 19.79900 41.30400
H  -8.06300 21.47900 39.89600
H  -7.98800 22.68200 41.74100
H  -6.97400 21.49700 42.54200
H  -8.75400 21.44400 42.72400
H  -6.61500 20.64100 38.60000
H  -6.77800 18.97100 38.30400
H  -4.44000 19.21300 39.86000
H  -4.46400 20.42900 38.52800
H  -12.65600 22.23200 38.52400
H  -12.19200 22.71700 40.22100
H  -13.88700 22.70900 39.69400
H  -16.48000 18.43200 38.87500
H  -17.57800 19.71300 39.42100
H  -16.69600 18.72200 40.60400
H  -14.64200 14.33400 39.51700
H  -13.16900 13.19200 41.69200
H  -15.26700 15.25200 42.29600
H  -15.58800 13.47300 41.61700
H  -16.13000 14.81500 40.76900
H  -14.07600 11.95800 39.43600
H  -12.34900 11.65000 40.01800
H  -11.76100 12.45200 37.87000
H  -12.86700 13.82700 38.02700
H  -13.43600 12.27700 37.34700
H  -8.38100 11.89600 42.65600
H  -6.65800 12.31200 42.07500
H  -7.99400 11.74300 40.98900
H  -5.10200 16.89300 40.51300
H  -6.03100 18.48900 45.51300
H  -4.53900 18.80500 44.73600
H  -4.93900 17.15400 45.25600

