158

Mg 17.45400 -1.26300 28.47300
C  16.12900 0.74000 31.04500
C  19.09600 -3.16700 30.83600
C  19.15800 -2.67100 25.95700
C  15.97000 0.88100 26.15200
N  17.74900 -1.12900 30.69900
C  16.98500 -0.30800 31.51000
C  17.25200 -0.73300 32.97900
C  18.11900 -2.03500 32.90500
C  18.41200 -2.05100 31.39600
C  19.43000 -1.77200 33.70200
C  15.93000 -0.96200 33.83800
C  15.85400 -0.33900 35.22300
H  17.08900 -0.00600 36.08100
N  18.87500 -2.72100 28.37200
C  19.42100 -3.46200 29.45300
C  20.08600 -4.65600 28.82600
C  20.23100 -4.40700 27.44500
C  19.46500 -3.17300 27.20100
C  20.52100 -5.79400 29.68900
C  20.84300 -5.27900 26.26700
O  20.82600 -4.82900 25.10700
C  21.44300 -6.67000 26.54400
N  17.63500 -0.96800 26.37800
C  18.39700 -1.63600 25.51100
C  18.04900 -1.33900 24.02700
C  16.72800 -0.55000 24.15200
C  16.73600 -0.20600 25.66000
C  19.18800 -0.63500 23.30600
C  15.50100 -1.36300 23.74600
C  14.56800 -0.63800 22.71800
N  16.27800 0.40800 28.58500
C  15.72100 1.16500 27.54400
C  14.87800 2.21400 28.08900
C  15.09200 2.15200 29.50800
C  15.90300 1.02500 29.72500
C  14.10300 3.27100 27.28900
C  14.75900 2.81300 30.74100
O  14.01500 3.71000 31.04200
C  15.42200 1.89900 31.87100
C  16.38600 2.72900 32.59600
O  17.36400 3.16200 32.08200
O  16.05300 2.79800 33.93800
C  17.06300 3.43800 34.75500
H  19.35900 -3.95700 31.54300
H  19.54000 -3.08900 25.02300
H  15.42900 1.54600 25.47500
H  17.78100 0.13300 33.37500
H  17.53800 -2.93400 33.11300
H  20.07500 -1.16600 33.06600
H  19.97700 -2.71300 33.77400
H  19.13100 -1.45300 34.70000
H  15.59900 -1.98200 34.03600
H  15.10000 -0.58200 33.24200
H  15.22700 -0.95400 35.86800
H  15.24400 0.55400 35.08900
H  21.60900 -5.76400 29.75700
H  20.23800 -6.74100 29.23100
H  20.00700 -5.69500 30.64500
H  22.03900 -6.77600 27.45100
H  22.08200 -7.00000 25.72500
H  20.66700 -7.41300 26.72600
H  17.88800 -2.31200 23.56200
H  16.86800 0.37000 23.58400
H  19.21400 0.45000 23.41000
H  19.14600 -0.85100 22.23800
H  20.12200 -1.02600 23.70900
H  14.95300 -1.75800 24.60200
H  15.77400 -2.30200 23.26300
H  14.40100 -1.23500 21.82100
H  14.96000 0.32900 22.40300
H  13.61900 -0.42900 23.21100
H  13.83500 4.10900 27.93200
H  13.18600 2.84600 26.88200
H  14.74500 3.64700 26.49300
H  14.66100 1.57700 32.58200
H  17.14800 4.46900 34.41100
H  18.05700 2.99500 34.68400
H  16.73900 3.39200 35.79400
Mg 6.68300 53.67900 41.69800
C  5.69400 50.21000 41.01600
C  9.74300 52.83700 40.68600
C  7.29800 56.88600 41.60400
C  3.29400 54.28900 42.46700
N  7.48600 51.79000 40.81300
C  6.94900 50.55000 40.63000
C  7.91500 49.57100 40.03500
C  9.33200 50.25700 40.42000
C  8.85500 51.73900 40.64700
C  10.10900 49.62900 41.64100
C  7.74700 49.14400 38.60000
C  7.46900 50.29300 37.52500
H  6.67500 50.04400 36.31400
N  8.19700 54.74000 41.07700
C  9.47800 54.21300 40.79100
C  10.37500 55.33400 40.56500
C  9.63900 56.50600 40.88100
C  8.32600 56.04100 41.22100
C  11.77000 55.17500 40.17500
C  10.28300 57.87100 40.71400
O  11.41600 58.11200 40.40700
C  9.53900 59.08300 41.00600
N  5.44100 55.37600 41.88400
C  5.99700 56.60900 41.97300
C  4.88000 57.64000 42.13700
C  3.61200 56.80200 42.55000
C  4.11300 55.36600 42.23000
C  5.26500 58.79500 43.11900
C  2.24300 57.08700 41.76900
C  1.59700 58.51300 42.10100
N  4.82000 52.50500 41.79700
C  3.55000 52.91300 42.21900
C  2.68800 51.72000 42.34200
C  3.49600 50.66800 41.82800
C  4.77100 51.20300 41.58800
C  1.22000 51.72600 42.89900
C  3.50100 49.28700 41.49200
O  2.59800 48.47000 41.51600
C  4.94400 48.93300 40.96700
C  4.81100 48.24700 39.61100
O  4.39600 48.74800 38.58700
O  4.91100 46.88200 39.81800
C  4.35900 46.01800 38.76900
H  10.78000 52.58500 40.45800
H  7.47600 57.96200 41.64300
H  2.30000 54.49700 42.86900
H  7.78100 48.70900 40.68900
H  10.04000 50.34500 39.59600
H  10.20200 50.39600 42.40900
H  11.06700 49.23100 41.30600
H  9.46200 48.81900 41.97800
H  7.06400 48.29900 38.51400
H  8.77200 48.79400 38.47600
H  8.42500 50.61400 37.11100
H  7.05400 51.20200 37.96200
H  12.37600 55.69900 40.91400
H  12.21700 55.54400 39.25200
H  12.10100 54.14900 40.33700
H  8.72700 59.16000 40.28400
H  10.01800 60.05900 40.92600
H  9.23100 58.97500 42.04600
H  4.71800 58.03200 41.13300
H  3.41700 56.80300 43.62200
H  4.48600 58.87000 43.87800
H  5.38000 59.72100 42.55500
H  6.18300 58.50400 43.62900
H  1.43200 56.42400 42.07000
H  2.50100 57.00600 40.71300
H  2.32700 59.12700 42.63000
H  0.69200 58.29000 42.66600
H  1.40700 58.93600 41.11500
H  0.49900 51.59900 42.09200
H  1.12500 52.71800 43.34300
H  1.30300 50.94700 43.65700
H  5.34700 48.31900 41.77200
H  4.88200 46.28300 37.85100
H  3.28600 46.20600 38.74400
H  4.45900 44.95100 38.96600

