158

Mg 17.06200 -2.72000 29.01500
C  15.93200 -0.50200 31.54700
C  18.75600 -4.45500 31.29300
C  18.33400 -4.50300 26.44300
C  15.53600 -0.60400 26.66100
N  17.39900 -2.45100 31.21100
C  16.77200 -1.50400 32.04600
C  17.14300 -1.76800 33.55100
C  18.21000 -2.99300 33.45100
C  18.08100 -3.38800 31.93600
C  19.72300 -2.72100 33.82000
C  15.92400 -2.07800 34.43400
C  16.06700 -1.67000 35.90400
H  17.47200 -1.21800 36.45200
N  18.25800 -4.33100 28.93000
C  18.82400 -4.97600 29.96400
C  19.40100 -6.17700 29.43600
C  19.22600 -6.23100 28.04700
C  18.58200 -4.94400 27.75300
C  19.94400 -7.26800 30.33200
C  19.48500 -7.37400 27.12600
O  19.27700 -7.30900 25.92700
C  19.99300 -8.65400 27.63700
N  16.99700 -2.53400 26.83700
C  17.53500 -3.47100 26.01000
C  17.27000 -3.21800 24.55800
C  16.53200 -1.79100 24.60800
C  16.20800 -1.73000 26.12300
C  18.55600 -3.25600 23.69000
C  15.27600 -1.54700 23.66600
C  15.72500 -1.32300 22.15800
N  15.90200 -0.96500 29.01500
C  15.26200 -0.23200 28.00500
C  14.64000 0.96500 28.59800
C  14.87600 0.76100 29.91900
C  15.68400 -0.31300 30.18000
C  13.93500 2.10300 27.82300
C  14.58100 1.49500 31.14700
O  14.04800 2.57500 31.33700
C  15.13500 0.52500 32.22500
C  16.04500 1.45600 33.05400
O  17.20600 1.78700 32.80400
O  15.42200 1.80900 34.24400
C  16.13700 2.62800 35.15100
H  19.17000 -5.05900 32.10300
H  18.83000 -5.09200 25.67000
H  15.05600 0.08200 25.95900
H  17.68500 -0.89600 33.91700
H  17.82800 -3.84600 34.01200
H  19.86400 -1.74700 34.28900
H  20.37600 -2.81200 32.95200
H  19.95900 -3.44300 34.60200
H  15.72800 -3.15000 34.44500
H  15.03000 -1.52800 34.14100
H  15.80000 -2.56100 36.47300
H  15.30500 -0.91500 36.09400
H  19.13200 -7.98000 30.47600
H  20.20600 -6.90600 31.32700
H  20.90800 -7.64200 29.98700
H  19.35000 -9.11800 28.38600
H  20.99400 -8.49000 28.03600
H  20.03500 -9.29900 26.76000
H  16.51900 -3.96100 24.29200
H  17.22600 -0.98500 24.37000
H  19.40300 -2.80400 24.20600
H  18.27000 -2.52300 22.93600
H  18.76700 -4.23900 23.26900
H  14.66200 -0.69600 23.95800
H  14.65200 -2.44000 23.64200
H  15.14600 -0.47400 21.79400
H  15.50500 -2.20700 21.55900
H  16.78500 -1.07500 22.09900
H  12.87600 1.93800 28.01900
H  14.13400 1.97000 26.76000
H  14.27800 3.06700 28.19900
H  14.41800 0.20400 32.98100
H  17.20700 2.61300 34.94500
H  15.98400 2.30600 36.18100
H  15.86000 3.67500 35.02500
Mg 43.41500 3.34200 47.15500
C  41.47800 6.27000 47.12300
C  40.68600 1.45100 47.06300
C  45.46800 0.71400 46.84100
C  46.28200 5.52200 46.39500
N  41.31500 3.90200 47.07200
C  40.70300 5.08800 47.14900
C  39.18700 4.91000 46.99500
C  39.05300 3.37700 47.19700
C  40.44100 2.82000 47.04300
C  38.27400 2.87000 48.49200
C  38.52100 5.39900 45.68500
C  38.99100 4.75400 44.30300
H  39.67700 5.62200 43.24200
N  43.10600 1.27400 47.15800
C  41.85500 0.68900 47.20800
C  42.00600 -0.78700 47.11000
C  43.43200 -1.01900 47.08200
C  44.09200 0.33600 47.03300
C  40.83500 -1.76800 47.23000
C  44.16200 -2.37600 47.07700
O  43.46800 -3.36200 47.10400
C  45.65700 -2.61700 47.05400
N  45.52700 3.20000 46.72600
C  46.14600 1.97800 46.76900
C  47.70900 2.03600 46.74200
C  47.90200 3.56100 46.44600
C  46.45600 4.14900 46.42400
C  48.39700 1.46800 48.00500
C  48.79800 3.86700 45.16900
C  49.90800 4.86200 45.45300
N  43.90800 5.47100 46.76000
C  45.02600 6.18700 46.53300
C  44.75300 7.58900 46.56400
C  43.35900 7.66000 46.75800
C  42.87900 6.32800 46.85200
C  45.64200 8.71700 46.55200
C  42.26000 8.60700 46.86000
O  42.19400 9.82300 46.85000
C  40.92100 7.66700 47.00400
C  40.05600 8.04200 48.16100
O  40.27100 7.77600 49.29100
O  39.10600 8.98300 47.71700
C  38.28900 9.58400 48.81000
H  39.80000 0.82400 46.94500
H  46.08400 -0.18200 46.73900
H  47.11900 6.15900 46.10200
H  38.77600 5.51500 47.80300
H  38.50300 2.96200 46.35200
H  37.94500 3.73700 49.06500
H  38.89200 2.14800 49.02600
H  37.38100 2.34000 48.16100
H  38.61800 6.47800 45.57400
H  37.47500 5.09200 45.72600
H  38.16700 4.31300 43.74200
H  39.66500 3.90400 44.40800
H  39.90900 -1.25600 47.48900
H  40.97200 -2.50100 48.02500
H  40.89500 -2.31200 46.28700
H  46.08300 -2.33200 46.09200
H  45.78700 -3.68500 46.87500
H  46.19800 -2.29100 47.94300
H  48.16700 1.48200 45.92200
H  48.35700 4.01500 47.32700
H  47.59500 1.46200 48.74400
H  49.21700 2.13500 48.27300
H  48.70700 0.44400 47.79800
H  48.19900 4.20900 44.32500
H  49.21300 2.90600 44.86600
H  50.85000 4.41400 45.13600
H  50.09400 5.24900 46.45500
H  49.70900 5.79500 44.92500
H  45.41800 9.36200 45.70300
H  46.66000 8.32700 46.56600
H  45.43000 9.34000 47.42100
H  40.51100 7.94600 46.03300
H  38.72800 10.49100 49.22500
H  38.04500 8.91100 49.63200
H  37.32400 9.71100 48.31900

