158

Mg -1.13800 17.28100 26.07400
C  -1.58200 15.02900 28.66600
C  -1.88800 19.84200 28.25000
C  -0.86500 19.32500 23.45800
C  -1.15400 14.58300 23.82400
N  -1.52500 17.40100 28.27100
C  -1.50900 16.37900 29.15100
C  -1.74400 16.93800 30.57900
C  -1.99000 18.42800 30.36100
C  -1.78400 18.59000 28.92000
C  -3.23300 19.22800 30.99900
C  -0.70100 16.38800 31.66900
C  -0.36600 17.27500 32.82000
H  -0.43100 16.61700 34.24700
N  -1.31600 19.34300 25.87500
C  -1.69500 20.16700 26.88000
C  -1.82900 21.51700 26.24400
C  -1.41000 21.43400 24.88700
C  -1.18300 19.98100 24.67300
C  -2.25800 22.82300 27.05600
C  -1.38600 22.50700 23.86300
O  -1.28600 22.30800 22.65500
C  -1.53800 23.90100 24.23900
N  -1.03800 16.97100 23.92600
C  -0.80800 18.01600 23.02600
C  -0.52100 17.48400 21.61400
C  -0.54300 15.93400 21.86400
C  -1.03400 15.83200 23.26400
C  -1.57500 17.97900 20.43600
C  0.91200 15.32800 21.62800
C  2.10000 15.69400 22.57700
N  -1.29900 15.19000 26.17000
C  -1.33400 14.24800 25.18800
C  -1.47100 12.94000 25.86000
C  -1.47700 13.19000 27.26800
C  -1.47700 14.61600 27.35800
C  -1.61800 11.65400 25.17900
C  -1.65900 12.51200 28.53200
O  -1.85200 11.38500 28.84500
C  -1.63800 13.70700 29.55200
C  -0.50100 13.49600 30.43300
O  0.64600 13.73000 30.18300
O  -1.02900 12.93400 31.59200
C  0.12000 12.79600 32.60900
H  -2.00700 20.62900 28.99700
H  -0.65400 19.92300 22.56900
H  -1.15200 13.69200 23.19300
H  -2.72000 16.53300 30.84500
H  -1.08200 18.97500 30.61500
H  -3.62900 18.60900 31.80400
H  -4.08200 19.51500 30.37900
H  -2.95300 20.19700 31.41200
H  0.14900 16.14200 31.03300
H  -1.20000 15.50300 32.06300
H  -1.04700 18.12000 32.91600
H  0.65500 17.65400 32.76700
H  -1.33900 23.25400 27.45200
H  -2.79800 22.50000 27.94700
H  -2.83200 23.55600 26.48900
H  -2.59300 24.01300 24.48900
H  -1.33900 24.64700 23.47000
H  -0.91300 24.11200 25.10700
H  0.46500 17.84200 21.31600
H  -1.23400 15.45000 21.17400
H  -2.21000 18.69500 20.95800
H  -2.33700 17.30800 20.03900
H  -1.06600 18.56600 19.67200
H  1.02100 15.48400 20.55500
H  0.73600 14.25200 21.63700
H  2.84000 16.15500 21.92200
H  2.54000 14.77700 22.97100
H  1.78200 16.48000 23.26100
H  -1.39500 11.83300 24.12700
H  -2.65500 11.32000 25.21200
H  -0.99100 10.88000 25.62100
H  -2.52400 13.77200 30.18400
H  0.61300 13.71600 32.92200
H  0.93900 12.11900 32.36400
H  -0.31700 12.30400 33.47800
Mg 16.97300 51.19800 26.31100
C  18.80800 50.40500 29.16800
C  14.44500 52.30100 28.35600
C  14.97300 51.82900 23.64500
C  19.31900 49.93800 24.36000
N  16.62800 51.16300 28.50500
C  17.60500 51.02600 29.48000
C  17.12500 51.39900 30.87100
C  15.66300 51.80200 30.60000
C  15.54600 51.77300 29.03800
C  14.59300 51.00600 31.32200
C  18.02200 52.50200 31.54300
C  18.36000 52.12900 33.04400
H  17.40100 51.23400 33.84300
N  14.92300 52.02000 26.03300
C  14.09300 52.40300 27.02200
C  12.83500 52.81300 26.49500
C  13.02500 52.72900 25.03800
C  14.35000 52.16700 24.83800
C  11.59100 53.13600 27.32500
C  12.01800 53.15100 23.92400
O  12.33200 53.01500 22.78500
C  10.64800 53.66200 24.30600
N  17.15700 51.02100 24.23100
C  16.22900 51.28300 23.30300
C  16.63600 50.85000 21.94100
C  18.11400 50.38700 22.09000
C  18.29000 50.49300 23.67000
C  15.62800 49.89100 21.26900
C  19.28900 51.16400 21.35800
C  20.07900 50.44200 20.29800
N  18.75000 50.31600 26.62200
C  19.61500 49.86400 25.71200
C  20.70900 49.32500 26.41200
C  20.50500 49.58400 27.76800
C  19.24600 50.17800 27.88200
C  21.91900 48.67800 25.74200
C  21.01100 49.35400 29.12000
O  21.95700 48.66700 29.51400
C  19.92100 49.93300 30.10800
C  19.56300 48.76600 31.08000
O  18.60300 48.04200 31.04200
O  20.32600 48.85500 32.15400
C  20.16400 47.86200 33.24600
H  13.72600 52.56700 29.13400
H  14.38100 52.08000 22.76200
H  20.07600 49.44900 23.74300
H  17.25000 50.46600 31.42000
H  15.52600 52.84900 30.87000
H  13.99200 51.72600 31.87800
H  15.07200 50.20000 31.87700
H  13.79900 50.61300 30.68800
H  17.42100 53.40900 31.60000
H  18.92400 52.72200 30.97300
H  18.26200 53.09200 33.54300
H  19.38400 51.76200 33.12100
H  11.38200 54.19300 27.15700
H  11.79400 53.05300 28.39300
H  10.77600 52.48600 27.00900
H  10.05100 53.77100 23.40100
H  10.84500 54.51900 24.95000
H  10.09200 52.88500 24.83100
H  16.56300 51.73200 21.30600
H  18.10600 49.32200 21.85600
H  16.07400 48.95800 20.92300
H  15.08800 50.40000 20.47000
H  14.90900 49.60700 22.03700
H  19.97700 51.48600 22.14000
H  18.81200 52.05000 20.94100
H  19.69700 49.43500 20.13000
H  21.10000 50.34700 20.67000
H  20.08700 51.06300 19.40300
H  21.87300 48.64000 24.65400
H  22.22400 47.76500 26.25300
H  22.75800 49.36400 25.86000
H  20.33100 50.84000 30.55100
H  20.93100 48.04600 33.99800
H  20.44200 46.86500 32.90700
H  19.18100 48.07000 33.66900

