158

Mg 24.06700 -7.16600 45.85200
C  26.35700 -4.87700 44.52600
C  21.81600 -5.99600 43.57700
C  22.32300 -9.81000 46.54900
C  26.86000 -8.65500 47.65400
N  24.19000 -5.78700 44.04300
C  25.23600 -4.94000 43.76000
C  24.98200 -4.15200 42.48500
C  23.41000 -4.24800 42.35300
C  23.09900 -5.42400 43.34100
C  22.58900 -2.93500 42.70300
C  25.79400 -4.77400 41.24200
C  26.44800 -3.62300 40.27900
H  25.85300 -3.36900 38.93800
N  22.23300 -7.76300 45.22000
C  21.43300 -7.13100 44.33200
C  20.15000 -7.77800 44.19200
C  20.21300 -8.92600 45.10100
C  21.60600 -8.93600 45.65300
C  18.95500 -7.43000 43.29000
C  19.09000 -9.86400 45.45100
O  17.97700 -9.72600 44.99000
C  19.24800 -10.93200 46.49500
N  24.61900 -9.06200 46.76600
C  23.60600 -9.87400 47.09900
C  24.03400 -10.99500 48.06300
C  25.44000 -10.57600 48.46400
C  25.65400 -9.34600 47.57500
C  23.02700 -11.30900 49.22300
C  26.48500 -11.68900 48.51500
C  27.63700 -11.64300 49.53100
N  26.16400 -6.76700 46.27600
C  27.19700 -7.48400 46.93300
C  28.40000 -6.64300 47.00400
C  28.11400 -5.68800 45.99300
C  26.74700 -5.75000 45.61100
C  29.65700 -7.01000 47.86500
C  28.74100 -4.58300 45.25000
O  29.83900 -4.03600 45.36900
C  27.62200 -4.05100 44.31200
C  27.35200 -2.60800 44.59600
O  27.24700 -1.99400 45.65300
O  27.31900 -1.90800 43.43100
C  27.04900 -0.47300 43.40700
H  21.04100 -5.65000 42.89000
H  21.73900 -10.70300 46.78000
H  27.65900 -9.07100 48.27100
H  25.21500 -3.09200 42.58900
H  23.19500 -4.57700 41.33600
H  23.26100 -2.09600 42.88500
H  21.98900 -3.02600 43.60800
H  21.95400 -2.66100 41.86100
H  25.09200 -5.34200 40.63100
H  26.57700 -5.43000 41.62000
H  27.51300 -3.84200 40.20200
H  26.33000 -2.65900 40.77400
H  18.64800 -8.35500 42.80300
H  19.27900 -6.73700 42.51400
H  18.05500 -6.98600 43.71500
H  19.46100 -10.40100 47.42200
H  20.03000 -11.64100 46.22300
H  18.37700 -11.57800 46.60900
H  24.06900 -11.90900 47.47000
H  25.37900 -10.23000 49.49600
H  22.46300 -12.19700 48.93800
H  22.26900 -10.54400 49.39300
H  23.42200 -11.62600 50.18800
H  26.86300 -11.91100 47.51700
H  26.03400 -12.63300 48.82000
H  27.75800 -12.56400 50.10000
H  27.41100 -10.83800 50.23000
H  28.50500 -11.64300 48.87200
H  29.41600 -7.19300 48.91200
H  30.30900 -6.14500 47.97500
H  30.16700 -7.90800 47.51700
H  27.87600 -3.99600 43.25300
H  26.27300 -0.22200 44.13000
H  26.75200 -0.22400 42.38800
H  27.96600 0.05500 43.66800
Mg 35.99500 49.02500 24.91200
C  36.21200 47.53400 28.07700
C  34.63800 51.85300 26.25000
C  35.47900 50.06900 21.77700
C  36.94100 45.93300 23.49000
N  35.59500 49.57200 26.92700
C  35.77200 48.82300 28.11100
C  35.40200 49.66100 29.30200
C  34.75200 50.97500 28.69800
C  35.01200 50.81500 27.18200
C  33.31200 51.35300 29.01500
C  36.63600 49.87400 30.20200
C  36.39700 49.75700 31.74600
H  35.50800 50.80400 32.42500
N  35.14400 50.71900 24.08600
C  34.68000 51.80300 24.83400
C  34.24100 52.85700 23.91400
C  34.34900 52.27800 22.58000
C  35.03000 50.93600 22.76000
C  33.74700 54.18500 24.35000
C  33.94200 52.82800 21.24800
O  34.09200 52.26400 20.15900
C  33.25600 54.14200 21.25200
N  36.38300 48.20100 22.90000
C  36.05900 48.83500 21.74700
C  36.39300 47.97200 20.49700
C  37.00900 46.71600 21.15700
C  36.79500 46.94200 22.63600
C  35.14500 47.73100 19.58100
C  38.53600 46.54800 20.77200
C  39.58400 47.60400 21.10700
N  36.45200 47.13600 25.57900
C  36.79400 46.00600 24.91300
C  37.01700 44.86800 25.85600
C  36.74100 45.41700 27.06300
C  36.50200 46.77900 26.86600
C  37.56900 43.48600 25.53000
C  36.56100 45.11700 28.41900
O  36.68700 44.07800 29.02300
C  36.28400 46.50300 29.18200
C  34.98900 46.28900 29.74100
O  33.92500 46.24700 29.12100
O  35.09000 45.99200 31.13200
C  33.84100 45.69700 31.84300
H  34.26300 52.74400 26.75800
H  35.33300 50.50900 20.78900
H  37.19000 44.93500 23.12200
H  34.64600 49.16600 29.91200
H  35.39600 51.79900 29.00300
H  33.23900 52.35000 29.44900
H  32.94000 50.63800 29.74800
H  32.72400 51.37200 28.09800
H  37.00700 50.88200 30.01800
H  37.47400 49.22100 29.95800
H  37.30000 49.56000 32.32500
H  35.74000 48.88800 31.77700
H  33.92000 54.32300 25.41700
H  32.72300 54.23900 23.97900
H  34.30300 55.02200 23.92700
H  33.94700 54.89600 21.62800
H  32.34000 54.09600 21.84000
H  32.96700 54.29100 20.21100
H  37.06300 48.61100 19.92300
H  36.30700 45.90600 20.95700
H  34.97000 48.69300 19.09900
H  34.24400 47.58700 20.17700
H  35.27000 46.97100 18.80900
H  38.55000 46.54500 19.68200
H  38.92800 45.60600 21.15600
H  39.09800 48.29400 21.79800
H  39.88700 48.19300 20.24100
H  40.44500 47.24300 21.66900
H  37.98300 43.41800 24.52400
H  36.81500 42.72100 25.71600
H  38.45700 43.30900 26.13700
H  37.00300 46.74300 29.96500
H  32.95500 46.17600 31.42500
H  33.90000 45.93300 32.90600
H  33.69300 44.62200 31.74400

