158

Mg 9.51600 3.57100 27.57200
C  10.53200 1.84300 30.38100
C  7.61200 5.62000 29.68600
C  8.04900 4.91000 24.80800
C  10.88700 1.03800 25.52800
N  9.12600 3.72500 29.81300
C  9.64900 2.89100 30.75200
C  9.51600 3.53400 32.13700
C  8.54100 4.72600 31.82900
C  8.40800 4.72100 30.40500
C  7.13400 4.76100 32.48200
C  10.85300 4.08000 32.82200
C  10.59700 4.88200 34.06900
H  11.37500 4.26000 35.28600
N  8.29100 5.18600 27.28000
C  7.54800 5.85500 28.30700
C  6.73800 6.88500 27.64200
C  6.90100 6.74900 26.24400
C  7.81800 5.60100 26.02300
C  5.87200 7.79100 28.42400
C  6.30500 7.52600 25.09100
O  6.69000 7.42200 23.88800
C  5.30000 8.53400 25.44900
N  9.37900 2.99600 25.42500
C  8.78400 3.70500 24.55500
C  8.82300 2.94200 23.16500
C  9.95400 1.99000 23.38000
C  10.09400 1.96200 24.82300
C  7.44800 2.32500 22.79500
C  11.30300 2.39600 22.68800
C  12.07900 1.31500 22.02200
N  10.54500 1.82200 27.83600
C  11.07000 0.91100 26.94600
C  11.61100 -0.22800 27.63800
C  11.58000 0.17600 29.00800
C  10.85500 1.36700 29.04100
C  12.15000 -1.50000 27.10600
C  11.91400 -0.20400 30.37400
O  12.63100 -1.13500 30.76900
C  11.28000 0.87800 31.28000
C  10.44600 0.24400 32.39900
O  9.49600 -0.51000 32.27100
O  10.82900 0.74700 33.60900
C  10.07400 0.15600 34.76200
H  7.09300 6.35500 30.30400
H  7.34000 5.26400 24.05700
H  11.48600 0.31800 24.96700
H  9.11100 2.83400 32.86900
H  9.09400 5.65300 31.98300
H  6.55700 4.25100 31.71100
H  6.76700 5.76100 32.71000
H  6.97700 4.18500 33.39400
H  11.45300 4.61700 32.08700
H  11.52800 3.26200 33.07200
H  9.53400 4.89400 34.30800
H  10.99400 5.89500 33.99900
H  5.67400 7.63200 29.48400
H  4.89900 7.87400 27.94000
H  6.31300 8.78600 28.36900
H  5.73300 9.22100 26.17600
H  4.45100 7.98100 25.85200
H  4.88100 8.99600 24.55500
H  9.13700 3.77400 22.53400
H  9.82600 0.93600 23.13300
H  6.69700 2.30300 23.58400
H  7.71300 1.29700 22.54700
H  7.15000 2.84200 21.88300
H  11.99600 2.76100 23.44600
H  11.15300 3.19600 21.96300
H  11.41800 0.86000 21.28400
H  12.47400 0.63000 22.77200
H  12.96500 1.74000 21.54900
H  12.97100 -1.77600 27.76700
H  12.51800 -1.47000 26.08100
H  11.37400 -2.26100 27.19700
H  12.12500 1.39100 31.74000
H  10.28000 -0.91400 34.75400
H  9.00200 0.32800 34.85500
H  10.55800 0.53600 35.66200
Mg 17.15400 -2.25800 28.13500
C  16.13700 -0.05400 30.80700
C  18.99800 -3.88200 30.42800
C  18.74100 -3.62900 25.50600
C  15.80400 0.17800 25.91900
N  17.47700 -1.93500 30.43700
C  16.87300 -1.14400 31.28700
C  17.30600 -1.45000 32.68200
C  18.30400 -2.61300 32.53000
C  18.26500 -2.81000 31.01100
C  19.74200 -2.31300 32.99400
C  16.13700 -1.62900 33.66900
C  16.59500 -2.19700 35.01300
H  17.85800 -1.66800 35.75200
N  18.52200 -3.72100 28.04300
C  19.15000 -4.31900 29.08800
C  19.97000 -5.37600 28.51100
C  19.97000 -5.31800 27.06700
C  18.99900 -4.19400 26.78200
C  20.64600 -6.41100 29.40900
C  20.67200 -6.19400 26.02800
O  20.45300 -6.05400 24.83300
C  21.61200 -7.30100 26.41000
N  17.08500 -1.87900 25.96600
C  17.90800 -2.52700 25.15900
C  17.80100 -2.02900 23.74000
C  16.75200 -0.87000 23.81200
C  16.57400 -0.83200 25.28200
C  19.19300 -1.68700 23.04100
C  15.54100 -1.11000 22.96000
C  14.26200 -1.67900 23.70300
N  15.99600 -0.46000 28.23800
C  15.54400 0.39300 27.22900
C  14.99300 1.56000 27.81100
C  15.16500 1.39600 29.18200
C  15.85800 0.19700 29.41800
C  14.43800 2.64300 27.07200
C  14.81100 2.00700 30.39900
O  14.27100 3.05900 30.65400
C  15.40200 1.03000 31.52100
C  16.35000 1.79500 32.49500
O  17.49900 2.07500 32.18900
O  15.70800 2.23400 33.62400
C  16.44000 3.14600 34.40500
H  19.58800 -4.50500 31.10300
H  19.31700 -4.07400 24.69100
H  15.38200 0.94600 25.26800
H  17.91100 -0.55300 32.81700
H  17.89500 -3.48700 33.03500
H  19.85400 -1.36200 33.51500
H  20.37200 -2.24500 32.10700
H  20.06600 -3.14900 33.61400
H  15.44200 -2.33400 33.21200
H  15.78300 -0.61700 33.87000
H  16.59400 -3.27400 34.84600
H  15.76200 -2.01700 35.69400
H  20.54200 -7.36300 28.88900
H  20.48300 -6.40300 30.48700
H  21.68800 -6.10300 29.32100
H  22.24500 -7.06000 27.26500
H  22.32500 -7.56900 25.63000
H  21.03800 -8.21300 26.57200
H  17.39200 -2.93000 23.28400
H  17.31400 -0.03200 23.39800
H  19.31300 -0.64900 22.72800
H  19.48900 -2.34800 22.22700
H  19.96300 -1.80800 23.80300
H  15.70300 -1.77600 22.11300
H  15.14200 -0.15600 22.61400
H  13.70800 -0.80800 24.05300
H  14.57700 -2.39200 24.46500
H  13.68200 -2.27700 23.00000
H  13.87400 3.31600 27.71700
H  13.64600 2.29300 26.41000
H  15.25600 3.12000 26.53000
H  14.60800 0.66100 32.17000
H  15.93800 3.47700 35.31400
H  16.70100 4.03500 33.83000
H  17.36600 2.68700 34.75100

