158

Mg 25.72800 1.70900 29.51400
C  27.84000 1.31400 32.24000
C  23.07600 1.77900 31.65500
C  23.56900 1.65600 26.85000
C  28.47400 1.14700 27.42400
N  25.48100 1.52400 31.65700
C  26.54200 1.65300 32.51000
C  25.98400 1.87200 33.92600
C  24.40600 1.88100 33.76900
C  24.28000 1.68100 32.29200
C  23.66400 0.79800 34.57600
C  26.60500 3.03300 34.70900
C  27.26200 2.62900 36.02300
H  26.36700 2.92600 37.18500
N  23.60700 1.85300 29.25100
C  22.68400 1.82900 30.31300
C  21.35500 2.01600 29.75300
C  21.50600 2.11100 28.32400
C  22.92600 1.80400 28.09100
C  20.10100 2.25100 30.66500
C  20.44700 2.17800 27.22500
O  20.70800 2.21900 26.01300
C  19.03100 2.10600 27.73500
N  25.98100 1.34600 27.40500
C  24.93900 1.50900 26.54900
C  25.51100 1.83900 25.06300
C  27.16000 1.70700 25.25400
C  27.25400 1.33800 26.78800
C  24.94700 1.10000 23.78500
C  27.98600 2.90900 24.91400
C  27.47700 4.24700 25.40100
N  27.70500 1.21100 29.69200
C  28.72100 1.01600 28.81400
C  29.97600 0.67800 29.53000
C  29.66600 0.83900 30.87400
C  28.32700 1.13700 30.92100
C  31.30500 0.29100 29.00300
C  30.27000 0.75200 32.20600
O  31.42700 0.48400 32.47600
C  29.06300 1.08800 33.21400
C  28.99100 -0.02500 34.18900
O  28.26400 -0.97800 34.10100
O  29.83800 0.17500 35.18700
C  29.88800 -0.64200 36.35700
H  22.20300 1.74100 32.31000
H  23.02700 1.82200 25.91700
H  29.33600 1.23600 26.75900
H  26.27900 0.99300 34.49900
H  23.97100 2.84500 34.03000
H  23.25200 0.03600 33.91400
H  22.86800 1.27100 35.15200
H  24.42600 0.32800 35.19800
H  25.84700 3.79600 34.88600
H  27.43500 3.40200 34.10500
H  28.17700 3.21200 36.12600
H  27.61200 1.59700 36.04800
H  19.87900 3.31700 30.61100
H  20.11100 2.02900 31.73200
H  19.28400 1.64100 30.28000
H  18.81000 3.00300 28.31500
H  18.82100 1.20400 28.30900
H  18.30100 2.12400 26.92500
H  25.25100 2.88100 24.87500
H  27.43800 0.95500 24.51600
H  24.31200 0.24800 24.02900
H  25.76100 0.84100 23.10700
H  24.35600 1.76100 23.15200
H  27.89200 2.81000 23.83300
H  28.98700 2.65900 25.26800
H  26.72700 4.24600 26.19200
H  27.03000 4.73000 24.53300
H  28.27700 4.88700 25.77500
H  31.96400 1.06900 28.61900
H  31.09600 -0.42300 28.20700
H  31.75500 -0.38300 29.73200
H  29.33600 2.03900 33.67100
H  29.84800 -1.70500 36.12200
H  29.22400 -0.25500 37.13000
H  30.85800 -0.56300 36.84800
Mg 30.84800 58.43600 41.45900
C  28.05900 57.02400 39.88600
C  32.77000 55.85100 40.23500
C  33.65800 60.33600 42.12900
C  28.94300 61.33700 41.95600
N  30.47800 56.68100 40.04400
C  29.25000 56.26500 39.57900
C  29.42900 54.89600 38.85200
C  30.87600 54.43300 39.25300
C  31.41300 55.70300 39.90400
C  30.90500 53.31300 40.26000
C  29.31800 55.08600 37.28600
C  28.19900 54.31300 36.54100
H  27.24000 55.16400 35.77100
N  32.95900 58.08400 41.32200
C  33.54700 56.96400 40.75100
C  34.94900 57.23000 40.68500
C  35.23900 58.44500 41.40500
C  33.90600 58.97800 41.70800
C  35.92700 56.20400 40.13100
C  36.61600 59.07200 41.73800
O  37.63900 58.58500 41.27400
C  36.72000 60.26900 42.63400
N  31.26600 60.49300 42.10800
C  32.51300 61.03800 42.21000
C  32.46200 62.56600 42.46100
C  30.94200 62.82200 42.71600
C  30.26600 61.47500 42.37700
C  33.52200 63.01900 43.60500
C  30.43300 64.13200 42.01100
C  31.12700 65.41700 42.35800
N  28.80400 58.96800 41.37500
C  28.19000 60.22100 41.52800
C  26.80200 60.05800 41.16500
C  26.70900 58.71800 40.67300
C  27.94400 58.20500 40.66100
C  25.61200 60.94400 41.24800
C  25.80200 57.79500 40.02800
O  24.54600 57.80100 39.88400
C  26.62800 56.61700 39.46900
C  26.20400 55.29300 40.07200
O  26.78600 54.77700 41.04300
O  25.17300 54.76900 39.34700
C  24.76200 53.40800 39.78500
H  33.39800 54.99700 39.97400
H  34.48500 61.01300 42.35200
H  28.33300 62.22900 42.11200
H  28.62000 54.18300 39.01800
H  31.51100 54.03800 38.46000
H  30.03200 52.66100 40.26400
H  31.03100 53.72500 41.26200
H  31.77500 52.66700 40.13600
H  30.20400 54.67500 36.80300
H  29.29400 56.13800 37.00400
H  27.53300 53.73900 37.18600
H  28.70300 53.59300 35.89700
H  36.94500 56.57700 40.02000
H  35.52200 55.73900 39.23200
H  36.05900 55.51000 40.96200
H  36.13900 60.25800 43.55600
H  36.31600 60.97800 41.91000
H  37.77800 60.46700 42.80800
H  32.80300 63.27900 41.70900
H  30.78000 62.82600 43.79400
H  33.03400 63.67400 44.32800
H  34.32400 63.55400 43.09600
H  33.87800 62.11800 44.10400
H  29.36100 64.22300 42.18700
H  30.50200 63.89600 40.94900
H  31.99800 65.25300 42.99200
H  30.44400 65.92300 43.04000
H  31.40300 66.02900 41.49900
H  24.73400 60.30000 41.19500
H  25.72500 61.57700 40.36800
H  25.70200 61.47900 42.19400
H  26.47600 56.63200 38.38900
H  25.65000 52.77800 39.73600
H  24.00900 53.00700 39.10600
H  24.31800 53.32300 40.77700

