158

Mg 49.04700 16.88800 29.27300
C  46.90000 16.75700 31.98300
C  51.30900 18.73400 31.04500
C  50.83600 17.14900 26.44700
C  46.24500 15.62500 27.30900
N  49.02800 17.73400 31.20900
C  48.08900 17.51500 32.19100
C  48.58400 18.02700 33.51600
C  49.85300 18.82700 33.17400
C  50.13100 18.41100 31.76500
C  49.66300 20.38400 33.24700
C  48.83900 16.92000 34.53200
C  48.35800 17.24000 35.97500
H  47.78100 18.60400 36.24300
N  50.95000 17.63500 28.85800
C  51.72100 18.32000 29.76100
C  52.98300 18.70800 29.11300
C  52.92700 18.16000 27.81400
C  51.56200 17.59800 27.61500
C  54.00300 19.64400 29.84000
C  53.97000 18.12900 26.65100
O  53.82800 17.61700 25.54900
C  55.29000 18.91400 26.86200
N  48.46400 16.59900 27.14300
C  49.49400 16.79500 26.22700
C  49.00500 16.61100 24.81600
C  47.72000 15.81000 25.08100
C  47.41400 16.05300 26.60200
C  48.71500 17.77900 23.87300
C  47.87400 14.32100 24.73600
C  46.70600 13.53800 24.00200
N  47.01900 16.20700 29.57000
C  46.02400 15.70400 28.69800
C  44.92900 15.31700 29.50600
C  45.18400 15.75600 30.77600
C  46.48500 16.29900 30.73700
C  43.71100 14.62300 29.06200
C  44.64400 15.80400 32.07100
O  43.58700 15.39900 32.52900
C  45.76200 16.40800 32.98600
C  45.10400 17.63000 33.51700
O  45.08800 18.77300 32.99000
O  44.33000 17.13000 34.57800
C  43.34600 18.12400 35.07700
H  52.03700 19.38200 31.53700
H  51.38400 17.07800 25.50500
H  45.58600 15.05300 26.65200
H  47.76200 18.68800 33.79000
H  50.64300 18.77300 33.92300
H  48.62700 20.53000 33.55200
H  49.72600 20.84800 32.26200
H  50.39900 20.76400 33.95500
H  49.92300 16.83200 34.60600
H  48.41800 15.94500 34.28500
H  49.16100 16.94800 36.65000
H  47.51200 16.62100 36.27300
H  54.65400 18.99000 30.42000
H  53.49700 20.43300 30.39600
H  54.60900 20.32400 29.24200
H  55.97900 18.84100 26.02100
H  55.81700 18.43400 27.68700
H  55.05000 19.95100 27.09800
H  49.70300 15.95800 24.29200
H  46.94300 16.09500 24.37200
H  48.91400 17.52700 22.83200
H  49.42300 18.58300 24.07800
H  47.72100 18.18800 24.05100
H  48.07400 13.88700 25.71600
H  48.76200 14.18900 24.11800
H  47.06800 12.71800 23.38200
H  46.12700 14.21200 23.37100
H  46.00900 13.10800 24.72100
H  43.96600 13.79400 28.40200
H  43.00000 15.26000 28.53600
H  43.24600 14.20900 29.95700
H  46.00700 15.63800 33.71800
H  43.72600 18.99800 35.60700
H  42.61800 17.59200 35.68900
H  42.76300 18.39900 34.19800
Mg -12.93700 16.03400 42.80900
C  -10.13300 14.03000 42.00600
C  -11.48700 18.58900 41.19400
C  -15.94400 17.49200 42.72400
C  -14.43200 12.90900 43.81300
N  -10.99400 16.18700 41.66200
C  -10.00300 15.32100 41.51500
C  -8.77600 16.05900 40.84000
C  -9.19300 17.52800 40.87700
C  -10.65600 17.43500 41.18500
C  -8.32300 18.59100 41.62400
C  -8.35100 15.43000 39.48900
C  -6.88300 15.08200 39.22600
H  -6.16200 15.84600 38.07300
N  -13.58700 17.93300 42.09900
C  -12.84400 18.83000 41.54100
C  -13.61700 20.02600 41.36600
C  -14.92500 19.78600 41.91300
C  -14.88500 18.36400 42.25700
C  -13.12600 21.25000 40.63000
C  -16.05500 20.75900 42.16700
O  -15.82100 21.90000 41.96300
C  -17.41800 20.33700 42.67600
N  -14.91400 15.32600 43.13300
C  -15.99000 16.14600 43.00000
C  -17.22500 15.39400 43.43100
C  -16.73500 13.88700 43.59000
C  -15.21400 14.04800 43.58900
C  -17.93500 15.91200 44.69600
C  -17.26400 12.83100 42.60700
C  -17.55500 11.48300 43.17700
N  -12.31700 13.98100 43.26500
C  -13.03000 12.81100 43.63900
C  -12.11900 11.69200 43.77100
C  -10.98700 12.14200 43.14000
C  -11.18400 13.52000 42.79300
C  -12.37400 10.31400 44.39500
C  -9.66500 11.77800 42.76900
O  -9.01500 10.82200 43.07100
C  -9.05900 12.95600 41.92400
C  -7.88000 13.39800 42.64000
O  -7.88500 13.87000 43.77900
O  -6.77700 13.15400 41.83200
C  -5.45900 13.44600 42.38500
H  -11.06400 19.47300 40.71300
H  -16.93600 17.94900 42.72000
H  -14.99900 11.99600 44.00700
H  -7.99400 15.96000 41.59200
H  -9.09800 17.98800 39.89400
H  -7.93700 19.30300 40.89400
H  -7.47200 18.03600 42.01800
H  -8.85200 19.09300 42.43300
H  -8.67600 16.10500 38.69700
H  -8.92500 14.52700 39.28000
H  -6.88600 14.05000 38.87700
H  -6.23600 15.19100 40.09700
H  -12.23900 21.60200 41.15600
H  -13.88800 22.03000 40.62200
H  -12.86900 20.95300 39.61300
H  -17.99300 19.67900 42.02500
H  -18.02500 21.20900 42.92000
H  -17.29500 19.84200 43.64000
H  -17.90200 15.44000 42.57800
H  -17.01100 13.58000 44.59900
H  -17.11600 16.27700 45.31600
H  -18.54600 15.28600 45.34700
H  -18.52000 16.79100 44.42700
H  -16.48400 12.73900 41.85100
H  -18.15400 13.23600 42.12500
H  -17.62000 11.44300 44.26400
H  -16.76200 10.82000 42.83000
H  -18.45200 11.14700 42.65700
H  -13.07100 10.43100 45.22500
H  -11.37800 10.00500 44.71300
H  -12.84800 9.59800 43.72300
H  -8.76300 12.62000 40.93000
H  -5.30300 14.49500 42.13400
H  -4.66100 12.82500 41.97900
H  -5.46400 13.37900 43.47300

