158

Mg 44.92000 4.60200 47.00500
C  42.71600 7.26900 46.35700
C  42.32800 2.36700 46.44100
C  47.09000 2.07000 47.15400
C  47.64100 6.89100 46.64400
N  42.70000 4.82700 46.45500
C  42.05600 6.00300 46.22000
C  40.58100 5.64500 45.92500
C  40.42600 4.13400 46.32700
C  41.87600 3.73400 46.40400
C  39.62500 3.71200 47.49500
C  40.27000 6.01400 44.41700
C  38.88900 6.78100 44.29200
H  38.91400 8.00900 43.38000
N  44.77100 2.48600 46.81400
C  43.66200 1.78500 46.64000
C  43.91800 0.32700 46.77400
C  45.30000 0.22100 46.79400
C  45.77800 1.63400 47.02400
C  42.84600 -0.81200 46.76200
C  46.00300 -0.97500 46.50300
O  45.35500 -2.03900 46.33500
C  47.50800 -1.08900 46.37500
N  47.08600 4.50000 46.94000
C  47.72500 3.31900 47.15800
C  49.13600 3.59200 47.65000
C  49.36500 5.09600 47.27900
C  47.96000 5.53900 46.90900
C  49.33300 3.45800 49.16400
C  50.16400 5.16100 45.91600
C  51.75600 4.93700 46.00900
N  45.17100 6.64900 46.61700
C  46.32800 7.40800 46.54300
C  46.02300 8.82800 46.41500
C  44.57700 8.79900 46.36300
C  44.13100 7.44700 46.46300
C  47.04800 9.93800 46.20400
C  43.40800 9.57700 46.10200
O  43.35000 10.80200 45.85200
C  42.18700 8.65600 46.13600
C  41.15700 8.98000 47.17700
O  41.17000 8.60000 48.37500
O  40.23000 9.87600 46.61900
C  39.20000 10.34700 47.62100
H  41.47800 1.68600 46.35300
H  47.84000 1.30600 47.36600
H  48.43600 7.63900 46.66000
H  39.90400 6.25200 46.52600
H  40.00400 3.56700 45.49700
H  40.04700 2.85800 48.02600
H  38.61200 3.37700 47.27300
H  39.46400 4.51700 48.21200
H  40.13500 5.10600 43.82900
H  41.00600 6.56900 43.83700
H  38.21700 6.77200 45.15000
H  38.31000 6.06300 43.71100
H  41.89000 -0.46000 47.14800
H  43.07900 -1.64000 47.43300
H  42.72500 -1.22500 45.76100
H  48.03900 -0.90800 47.31000
H  47.79500 -0.36200 45.61600
H  47.72100 -2.10600 46.04900
H  49.80200 2.88200 47.16000
H  49.86800 5.73400 48.00500
H  50.11900 2.72100 49.32600
H  48.44000 3.00800 49.59800
H  49.58600 4.31200 49.79300
H  50.06800 6.18700 45.56000
H  49.71800 4.63500 45.07200
H  51.95500 3.86700 45.94800
H  52.13800 5.37100 46.93300
H  52.21200 5.39100 45.12800
H  47.63000 9.99300 47.12400
H  46.44500 10.84300 46.28200
H  47.66400 9.82200 45.31200
H  41.69800 8.65700 45.16200
H  38.75300 11.21100 47.12900
H  39.46800 10.73700 48.60300
H  38.46700 9.54900 47.74300
Mg -1.46400 33.78300 26.98000
C  -3.48200 32.65800 29.59100
C  0.03000 35.91700 29.16700
C  -0.02100 35.39000 24.43600
C  -3.50500 32.03700 24.78200
N  -1.64200 34.16800 29.13400
C  -2.59500 33.60900 29.97600
C  -2.31300 33.93900 31.40300
C  -1.24900 35.13800 31.23100
C  -1.01500 35.19600 29.71600
C  -1.60700 36.47800 31.86100
C  -1.76000 32.71800 32.26100
C  -1.19800 33.15300 33.62500
H  -1.73900 32.59800 34.84000
N  -0.01000 35.28500 26.82300
C  0.54100 36.00700 27.83800
C  1.48800 36.89300 27.38500
C  1.47000 36.90600 25.96700
C  0.44600 35.87100 25.65600
C  2.34600 37.75800 28.36400
C  2.29500 37.60400 24.91700
O  2.20400 37.44700 23.75400
C  3.42100 38.48900 25.29700
N  -1.74800 33.70000 24.88400
C  -0.99500 34.45100 24.07300
C  -1.12800 34.05300 22.60100
C  -2.18000 32.89200 22.74200
C  -2.52300 32.85000 24.16100
C  -1.53700 35.20100 21.62300
C  -1.87200 31.51700 21.99700
C  -0.43700 31.08500 21.58900
N  -3.02200 32.52600 27.14800
C  -3.77700 31.92600 26.17500
C  -4.80500 31.07400 26.75200
C  -4.69400 31.36300 28.09400
C  -3.66900 32.26500 28.25900
C  -5.62800 30.05600 26.00000
C  -5.30800 30.93100 29.31600
O  -6.27200 30.18300 29.53500
C  -4.60000 31.85000 30.36200
C  -5.58700 32.69700 31.03900
O  -6.13000 33.70400 30.58900
O  -5.83500 32.20000 32.28800
C  -7.07300 32.68900 32.91000
H  0.48000 36.63900 29.85200
H  0.57600 35.75000 23.59500
H  -4.13900 31.49200 24.08000
H  -3.21500 34.40400 31.80100
H  -0.34000 34.85500 31.76200
H  -2.56100 36.50200 32.38700
H  -1.83200 37.20800 31.08400
H  -0.77500 36.84200 32.46400
H  -0.97100 32.28900 31.64400
H  -2.48200 31.93400 32.49000
H  -1.23000 34.24200 33.60200
H  -0.12200 32.97800 33.60200
H  2.33200 37.22700 29.31600
H  1.86700 38.72600 28.50800
H  3.37200 37.88700 28.02100
H  4.18400 37.89400 25.79900
H  3.01100 39.19600 26.01800
H  3.84400 39.04800 24.46200
H  -0.15200 33.78300 22.19800
H  -3.12000 33.26600 22.33800
H  -0.71100 35.37400 20.93300
H  -1.71300 36.11700 22.18700
H  -2.44100 35.01200 21.04400
H  -2.48300 31.59200 21.09800
H  -2.29800 30.72600 22.61300
H  0.33500 31.78700 21.90300
H  -0.36700 31.13100 20.50200
H  -0.23700 30.06000 21.90200
H  -6.54700 30.32900 25.48100
H  -5.68900 29.25200 26.73400
H  -5.05300 29.68700 25.15100
H  -4.14600 31.14400 31.05600
H  -7.63700 33.46200 32.38800
H  -6.70700 33.16100 33.82200
H  -7.57700 31.78800 33.26200

