158

Mg 30.91900 59.80200 39.44900
C  27.98900 58.32200 38.20200
C  32.71700 56.88600 38.48900
C  33.83400 61.46700 39.90000
C  29.19900 62.81700 39.71600
N  30.37200 57.90700 38.33700
C  29.10600 57.46800 38.04000
C  29.14200 56.17300 37.28500
C  30.62700 55.65100 37.56700
C  31.29300 56.84200 38.29100
C  30.75100 54.36800 38.49700
C  28.79700 56.08900 35.74900
C  27.50500 55.32600 35.40100
H  26.64400 55.83800 34.33500
N  33.05900 59.27000 39.15800
C  33.49400 58.00500 38.83600
C  34.87700 58.06800 38.80500
C  35.30400 59.43300 39.06600
C  34.08800 60.19200 39.41000
C  35.77400 56.85600 38.53400
C  36.77700 59.85500 39.13100
O  37.69700 59.12300 38.81500
C  37.09700 61.23500 39.57100
N  31.40800 61.65300 39.72200
C  32.65500 62.14200 39.99200
C  32.76600 63.68800 40.09400
C  31.24600 64.04800 39.99100
C  30.57100 62.74600 39.82000
C  33.44300 64.15800 41.44200
C  30.95200 65.13900 38.94800
C  30.22700 66.43200 39.46300
N  28.90900 60.52200 39.12400
C  28.38100 61.76500 39.19400
C  27.00300 61.68100 39.05200
C  26.74800 60.36200 38.57700
C  28.01100 59.67800 38.64700
C  26.07100 62.77300 39.46700
C  25.71900 59.35600 38.19000
O  24.51900 59.45500 38.17800
C  26.52600 58.06700 37.84900
C  25.95700 57.00200 38.68000
O  26.20100 56.83000 39.84200
O  25.23300 56.14600 37.87000
C  24.64000 55.03400 38.57000
H  33.23200 55.97800 38.16700
H  34.77000 62.00400 40.07100
H  28.70600 63.78000 39.86600
H  28.48200 55.50900 37.84200
H  31.09900 55.50500 36.59500
H  31.07300 53.46900 37.97300
H  29.81900 54.09900 38.99500
H  31.41500 54.63600 39.31800
H  29.58100 55.59800 35.17400
H  28.64900 57.12900 35.45500
H  27.00900 55.02100 36.32200
H  27.95500 54.42400 34.98800
H  36.48200 56.66400 39.34100
H  36.38500 57.23300 37.71400
H  35.28300 55.92400 38.25200
H  38.15200 61.50600 39.53400
H  36.61600 61.48600 40.51600
H  36.72200 61.89900 38.79200
H  33.30900 64.14400 39.26600
H  31.01300 64.34200 41.01500
H  33.81100 63.34700 42.07000
H  32.77000 64.78100 42.03200
H  34.27400 64.81800 41.19100
H  30.53400 64.54400 38.13500
H  31.91700 65.48200 38.57500
H  29.27100 66.21800 38.98500
H  30.70700 67.33200 39.07700
H  30.03600 66.33100 40.53200
H  26.54500 63.73200 39.67600
H  25.53600 62.46600 40.36500
H  25.26100 62.92800 38.75400
H  26.42300 57.76600 36.80600
H  23.88500 55.35000 39.28900
H  25.42000 54.40600 39.00000
H  24.24400 54.31900 37.84800
Mg -8.78700 40.30200 43.07100
C  -8.03300 37.00700 41.79900
C  -5.83300 41.39300 41.62000
C  -9.86500 43.53600 43.51600
C  -11.75800 39.14400 44.30500
N  -7.21800 39.29600 41.69700
C  -7.11200 37.99100 41.37600
C  -5.75100 37.69200 40.71700
C  -5.02700 39.04700 40.89200
C  -6.09000 40.02100 41.40500
C  -3.78400 39.04800 41.81900
C  -5.81700 37.25700 39.16300
C  -5.18600 35.93600 38.80900
H  -3.98700 36.21100 37.85700
N  -7.97500 42.20200 42.69600
C  -6.69200 42.43500 42.06400
C  -6.48800 43.90800 42.03500
C  -7.60700 44.53800 42.60800
C  -8.59200 43.44300 42.94900
C  -5.20800 44.62700 41.46000
C  -7.83000 45.96200 42.76800
O  -7.00900 46.72600 42.21700
C  -8.90700 46.63400 43.62700
N  -10.57400 41.24800 43.70000
C  -10.73000 42.54100 43.92500
C  -12.02200 42.78100 44.60200
C  -12.74800 41.38200 44.77200
C  -11.61800 40.52400 44.27400
C  -11.88700 43.50900 45.99200
C  -14.14400 41.20200 44.07100
C  -15.22200 40.90700 45.08900
N  -9.68300 38.49200 43.15000
C  -10.88400 38.14800 43.80200
C  -11.12100 36.69800 43.72700
C  -10.00600 36.22500 42.98000
C  -9.22900 37.35700 42.57400
C  -12.27200 35.92600 44.19000
C  -9.49800 35.05100 42.34400
O  -9.82800 33.88000 42.54800
C  -8.19500 35.46200 41.61800
C  -7.03100 34.69700 42.06100
O  -6.46400 34.79800 43.12900
O  -6.84700 33.76400 41.08400
C  -5.61300 32.93800 41.31800
H  -4.83600 41.72600 41.32500
H  -10.20100 44.54300 43.77000
H  -12.66300 38.80100 44.81100
H  -5.26100 36.90300 41.28700
H  -4.69900 39.35700 39.89900
H  -4.08800 39.40400 42.80300
H  -3.01500 39.74800 41.49400
H  -3.48800 38.00000 41.85500
H  -5.33900 38.06000 38.60200
H  -6.88400 37.20400 38.94500
H  -5.86100 35.22500 38.33200
H  -4.71100 35.49900 39.68700
H  -5.42100 45.06400 40.48400
H  -4.40400 43.89100 41.44100
H  -4.80300 45.40100 42.11200
H  -8.65300 47.69100 43.69600
H  -9.08100 46.13900 44.58300
H  -9.85600 46.56300 43.09500
H  -12.64400 43.45900 44.01700
H  -12.77100 41.05900 45.81300
H  -10.84300 43.72300 46.21700
H  -12.20900 42.84500 46.79500
H  -12.39300 44.47400 46.01900
H  -14.21800 40.51400 43.22900
H  -14.40800 42.14200 43.58700
H  -15.47900 41.67600 45.81800
H  -14.86600 40.04300 45.65000
H  -16.15700 40.52600 44.67600
H  -13.16300 36.55500 44.20700
H  -12.11700 35.32800 45.08800
H  -12.33600 35.18400 43.39400
H  -8.37000 35.25200 40.56300
H  -4.80100 33.66500 41.33400
H  -5.40700 32.46000 40.36000
H  -5.64400 32.33200 42.22300

