158

Mg 36.24500 50.20100 25.04600
C  36.30000 48.11500 27.87900
C  35.31500 52.74500 27.01900
C  35.64700 52.06300 22.17600
C  36.99600 47.34800 23.13900
N  35.71100 50.33700 27.19600
C  36.05200 49.45800 28.22900
C  35.97700 50.13200 29.63300
C  35.47100 51.56100 29.28500
C  35.55400 51.60200 27.75300
C  34.17900 52.05300 29.85700
C  37.34100 50.02200 30.41400
C  37.36500 49.92600 31.93900
H  36.10600 49.50000 32.66700
N  35.62800 52.12600 24.64800
C  35.35200 53.06200 25.66600
C  35.14400 54.32000 25.06100
C  35.22200 54.16200 23.61200
C  35.47600 52.72700 23.41900
C  34.97400 55.59100 25.86800
C  35.09400 55.23500 22.52400
O  35.09100 54.93700 21.33100
C  34.98200 56.65800 22.88900
N  36.26100 49.74300 23.03100
C  36.02100 50.67400 22.01700
C  36.01700 49.99800 20.64600
C  36.81900 48.60900 20.94000
C  36.69900 48.48200 22.46300
C  34.64500 49.83600 19.91600
C  38.29900 48.55800 20.56400
C  38.96100 47.20700 20.11800
N  36.49400 48.12000 25.35300
C  36.80700 47.10000 24.50500
C  36.98500 45.84700 25.25800
C  36.79500 46.19100 26.58800
C  36.43700 47.59300 26.60700
C  37.26700 44.42700 24.65800
C  36.85100 45.67300 28.02500
O  37.22800 44.62400 28.49600
C  36.46800 46.93100 28.89000
C  35.27200 46.45300 29.56600
O  34.13900 46.81000 29.33700
O  35.60200 45.55700 30.58600
C  34.49500 45.37000 31.46500
H  35.11300 53.59400 27.67600
H  35.47400 52.68200 21.29400
H  37.25400 46.57100 22.41600
H  35.21500 49.65200 30.24800
H  36.27200 52.22500 29.61000
H  34.46900 52.77100 30.62300
H  33.54500 51.25800 30.25000
H  33.64500 52.62500 29.09800
H  37.99200 50.83200 30.08400
H  37.88100 49.11400 30.14600
H  37.62400 50.89000 32.37700
H  38.13100 49.16300 32.07900
H  35.78500 56.29400 25.67900
H  34.91200 55.40400 26.94000
H  34.08500 56.15000 25.57500
H  35.76900 56.98600 23.56800
H  34.01600 56.84700 23.35700
H  35.13300 57.15000 21.92900
H  36.69200 50.65300 20.09500
H  36.28500 47.82500 20.40100
H  34.57900 50.50900 19.06100
H  33.86800 50.12900 20.62200
H  34.47900 48.80900 19.59000
H  38.89900 48.69900 21.46300
H  38.44600 49.34500 19.82500
H  39.86600 47.33800 19.52400
H  38.23000 46.58100 19.60700
H  39.15100 46.62000 21.01700
H  37.90100 44.53200 23.77800
H  36.32500 44.01600 24.29600
H  37.59800 43.62000 25.31100
H  37.29700 47.25000 29.52200
H  34.17000 46.23600 32.04100
H  34.70100 44.67300 32.27700
H  33.59700 44.98900 30.97900
Mg 16.93200 52.81600 26.62300
C  18.75900 51.32200 29.22600
C  14.51700 53.62400 28.89600
C  14.82300 53.73800 24.12100
C  19.27900 51.76100 24.34900
N  16.76900 52.64500 28.84400
C  17.63400 52.04700 29.67300
C  17.07300 51.91300 31.12400
C  15.67700 52.66400 31.00900
C  15.58900 52.96700 29.47200
C  14.43300 51.84200 31.61200
C  17.83700 52.62800 32.22000
C  17.60900 51.69800 33.47800
H  17.21100 52.52400 34.71500
N  15.03000 53.56300 26.53200
C  14.17200 53.87400 27.55300
C  12.89600 54.41900 27.11500
C  13.06800 54.68000 25.71400
C  14.36100 53.94100 25.41300
C  11.91800 54.83700 28.04600
C  12.20300 55.30800 24.71400
O  12.52100 55.44900 23.54400
C  10.93400 55.95500 25.11800
N  17.19000 52.94100 24.55000
C  16.12700 53.19500 23.72100
C  16.49200 53.05600 22.19800
C  18.07800 52.75800 22.35800
C  18.24700 52.50800 23.81400
C  15.87400 51.93400 21.38600
C  19.04500 53.98100 21.96200
C  20.36000 53.76100 21.08000
N  18.73100 51.80600 26.74100
C  19.51700 51.39900 25.66800
C  20.55100 50.58200 26.18700
C  20.35400 50.53700 27.57300
C  19.19400 51.29500 27.87600
C  21.53300 49.86700 25.26400
C  20.72300 49.92200 28.83500
O  21.65200 49.15200 29.05900
C  19.74600 50.50600 29.96400
C  19.09000 49.31000 30.65600
O  18.45600 48.38100 30.11500
O  19.60700 49.18800 31.94200
C  19.15400 48.03200 32.63100
H  13.68200 53.87800 29.55200
H  14.22900 53.99800 23.24200
H  20.00200 51.46000 23.58700
H  16.76800 50.88100 31.29600
H  15.64500 53.62100 31.53000
H  13.89200 52.35500 32.40700
H  14.90400 50.96100 32.04800
H  13.79400 51.65400 30.74900
H  17.52600 53.64800 32.44600
H  18.89100 52.63900 31.94600
H  18.52000 51.22000 33.83900
H  16.92600 50.86600 33.31000
H  12.25400 55.78300 28.47000
H  11.70900 54.11300 28.83400
H  10.95300 54.97400 27.55800
H  11.13000 56.62000 25.95900
H  10.31100 55.20100 25.60000
H  10.40600 56.35400 24.25200
H  16.35100 54.03700 21.74500
H  18.41400 51.90200 21.77200
H  15.10700 51.45400 21.99500
H  16.56200 51.21900 20.93400
H  15.36600 52.27100 20.48300
H  19.29600 54.55500 22.85400
H  18.45900 54.64200 21.32400
H  20.65400 54.63100 20.49200
H  20.16900 52.92600 20.40500
H  21.27500 53.43500 21.57400
H  22.23900 50.62700 24.92900
H  21.16900 49.40500 24.34500
H  21.92100 49.00000 25.79800
H  20.31600 51.12400 30.65700
H  19.74100 48.11600 33.54600
H  19.34500 47.12800 32.05300
H  18.09200 48.12100 32.85800

