158

Mg 1.61400 -1.12500 44.45300
C  4.96300 0.04600 44.02700
C  0.57300 1.76300 42.78300
C  -1.35000 -2.51700 44.31100
C  3.02200 -4.01100 45.97200
N  2.64900 0.69400 43.56000
C  3.99500 0.85200 43.44000
C  4.21000 2.16500 42.73100
C  2.89600 2.90500 42.73900
C  1.99500 1.65900 42.95900
C  2.78900 3.99900 43.88100
C  4.89000 1.86900 41.27100
C  6.29600 2.54000 41.02700
H  7.38300 1.68100 40.33300
N  -0.14700 -0.51100 43.67900
C  -0.38900 0.76600 43.11200
C  -1.75900 0.78200 42.63900
C  -2.39900 -0.42300 43.10300
C  -1.33700 -1.20500 43.76500
C  -2.37000 1.97700 41.94000
C  -3.84300 -0.74100 42.93500
O  -4.61100 0.12100 42.42400
C  -4.37900 -2.12600 43.19800
N  1.00100 -3.07900 44.87900
C  -0.33600 -3.34300 44.89500
C  -0.74000 -4.68400 45.51800
C  0.71000 -5.21900 46.00900
C  1.68300 -4.05400 45.68100
C  -1.82300 -4.59000 46.61400
C  1.12500 -6.57100 45.32800
C  1.75400 -7.62000 46.27800
N  3.56100 -1.88800 44.81900
C  3.94600 -3.00600 45.48300
C  5.37300 -3.08100 45.62300
C  5.83100 -1.83600 45.09500
C  4.68600 -1.17900 44.58200
C  6.14800 -4.22000 46.13600
C  7.01100 -0.97900 44.84500
O  8.18700 -1.15000 45.12500
C  6.46800 0.27000 44.01600
C  6.85900 1.42200 44.96000
O  6.10500 1.92000 45.78800
O  8.08200 1.91000 44.59900
C  8.52900 3.03100 45.44600
H  0.29200 2.63900 42.19500
H  -2.34900 -2.89300 44.54400
H  3.41800 -4.92500 46.42000
H  4.93700 2.79900 43.23800
H  2.69500 3.32100 41.75200
H  3.70300 4.30100 44.39300
H  2.20300 3.69000 44.74600
H  2.39200 4.90000 43.41400
H  4.24100 2.36300 40.54800
H  4.70200 0.84900 40.93400
H  6.75400 2.81900 41.97600
H  6.22700 3.48100 40.48200
H  -2.98400 2.55800 42.62700
H  -2.91000 1.60000 41.07100
H  -1.62800 2.62700 41.47800
H  -3.94800 -2.86300 42.52100
H  -5.45200 -2.16600 43.01000
H  -4.23600 -2.42200 44.23700
H  -1.07000 -5.23300 44.63600
H  0.64000 -5.35400 47.08800
H  -1.55500 -4.84100 47.64000
H  -2.70800 -5.13400 46.28200
H  -2.16700 -3.56300 46.73100
H  1.87900 -6.33900 44.57500
H  0.23000 -6.91900 44.81300
H  2.77900 -7.76600 45.93600
H  1.30600 -8.61100 46.34800
H  1.86400 -7.24100 47.29400
H  7.01200 -3.75100 46.60600
H  6.40900 -4.88700 45.31400
H  5.57100 -4.69900 46.92700
H  6.84400 0.47400 43.01300
H  8.30400 4.05700 45.15300
H  9.61400 2.96700 45.51800
H  8.16700 3.00900 46.47400
Mg -5.82900 25.44600 25.98700
C  -4.26500 26.65200 28.93800
C  -7.82300 23.51700 28.13300
C  -6.98000 23.83100 23.32100
C  -3.49600 27.12900 24.12200
N  -5.92200 25.15500 28.27300
C  -5.30100 25.78900 29.24300
C  -5.78300 25.36600 30.66400
C  -6.66400 24.15100 30.33200
C  -6.82300 24.23600 28.80100
C  -6.19400 22.89800 30.99200
C  -6.47700 26.53600 31.36600
C  -6.23500 26.81700 32.83800
H  -6.16800 25.52500 33.72700
N  -7.25600 23.91800 25.74700
C  -7.97500 23.28800 26.73600
C  -9.01200 22.50600 26.14800
C  -8.76000 22.53000 24.73900
C  -7.62700 23.43400 24.53000
C  -10.19800 21.84700 26.95600
C  -9.46900 21.70200 23.67200
O  -9.09200 21.68800 22.48500
C  -10.76000 20.98400 24.05300
N  -5.30400 25.51500 24.02200
C  -5.94600 24.81600 23.10900
C  -5.36300 24.98900 21.67600
C  -4.25100 26.04900 21.92000
C  -4.37200 26.27200 23.45000
C  -4.95100 23.77700 20.88800
C  -4.63600 27.45900 21.21700
C  -3.83200 27.64500 19.86900
N  -4.20200 26.72900 26.37500
C  -3.30400 27.33100 25.51200
C  -2.31300 28.06200 26.31800
C  -2.64300 27.86700 27.65100
C  -3.78400 27.01100 27.61600
C  -1.11700 28.91100 25.81600
C  -2.28800 28.18100 29.03300
O  -1.43900 28.92200 29.55400
C  -3.29900 27.35100 29.91600
C  -2.50700 26.45900 30.75900
O  -1.84200 25.55900 30.32700
O  -2.44300 26.96100 32.03100
C  -1.33400 26.52200 32.91700
H  -8.51000 23.09900 28.87300
H  -7.29900 23.38500 22.37700
H  -2.70700 27.60700 23.53800
H  -4.84100 25.07700 31.12900
H  -7.62600 24.29800 30.82200
H  -5.54600 23.15100 31.83100
H  -5.60600 22.32300 30.27600
H  -7.01200 22.26700 31.33800
H  -7.56000 26.49000 31.24900
H  -6.17000 27.43200 30.82500
H  -6.97900 27.46400 33.30200
H  -5.24100 27.26000 32.90100
H  -11.08900 22.28700 26.50800
H  -10.17000 22.24900 27.96900
H  -10.18600 20.78500 26.71100
H  -11.27500 20.66000 23.14800
H  -11.41100 21.75300 24.46800
H  -10.68100 20.13900 24.73700
H  -6.17500 25.38600 21.06500
H  -3.23200 25.73600 21.69000
H  -5.66300 22.95400 20.81400
H  -4.02400 23.42000 21.33800
H  -4.69300 24.09700 19.87900
H  -4.37300 28.33200 21.81300
H  -5.71300 27.50400 21.05100
H  -3.52600 26.77100 19.29300
H  -3.05100 28.39200 20.01800
H  -4.51600 28.23300 19.25700
H  -0.79700 28.48100 24.86700
H  -0.20300 28.85500 26.40800
H  -1.39600 29.95700 25.69000
H  -3.97200 27.97700 30.50100
H  -1.71000 25.56000 33.26600
H  -1.13300 27.20700 33.74100
H  -0.40000 26.34600 32.38200

