158

Mg 41.08500 9.57800 29.49400
C  43.27600 10.88500 32.03400
C  38.97100 8.40600 31.95500
C  39.25500 8.49400 27.04800
C  43.59900 10.44500 27.17600
N  41.24000 9.51500 31.78600
C  42.10500 10.20700 32.58300
C  41.64800 10.29800 34.02100
C  40.39200 9.32300 34.05300
C  40.21900 8.91300 32.50800
C  40.53900 8.04000 34.83700
C  41.40000 11.74400 34.50400
C  40.41000 12.05500 35.59500
H  40.85700 12.79400 36.91500
N  39.40000 8.59500 29.49600
C  38.62300 8.24500 30.59200
C  37.43800 7.59500 30.12600
C  37.39800 7.67900 28.68700
C  38.73100 8.31100 28.33900
C  36.50200 6.94100 31.08000
C  36.34400 7.20400 27.68100
O  36.39300 7.24400 26.48000
C  35.06700 6.56700 28.31200
N  41.50800 9.18900 27.38800
C  40.44100 8.93500 26.54700
C  40.73800 9.16400 25.10000
C  42.25600 9.76300 25.15200
C  42.49800 9.73900 26.68600
C  40.52800 7.94400 24.23800
C  42.63400 11.08700 24.45000
C  42.01200 12.30600 25.16600
N  43.08600 10.37300 29.55300
C  43.90700 10.70000 28.51200
C  45.14800 11.27600 29.07900
C  44.90800 11.39900 30.45100
C  43.67600 10.84300 30.68000
C  46.27900 11.91000 28.28000
C  45.50100 11.86500 31.69100
O  46.60300 12.25000 32.07300
C  44.39600 11.69600 32.75000
C  44.95200 11.03000 33.91700
O  45.04900 9.85800 34.06900
O  45.35200 12.04900 34.86300
C  45.41000 11.68600 36.32200
H  38.15300 8.20500 32.65000
H  38.63900 8.19200 26.19800
H  44.26500 10.74900 26.36600
H  42.48300 9.94200 34.62400
H  39.47800 9.79900 34.40900
H  41.49800 7.94900 35.34900
H  40.26500 7.12200 34.31700
H  39.76800 8.02400 35.60700
H  41.08600 12.33400 33.64300
H  42.36700 12.14900 34.80200
H  39.88500 11.15300 35.90700
H  39.61100 12.69600 35.22400
H  35.68200 7.61600 31.32200
H  36.82800 6.69500 32.09100
H  36.05600 6.06100 30.61600
H  35.42300 5.62100 28.71800
H  34.38700 6.33000 27.49400
H  34.61600 7.21000 29.06700
H  40.16000 10.00800 24.72300
H  42.82900 8.95300 24.70000
H  40.48500 7.15100 24.98500
H  41.40400 7.74700 23.61900
H  39.52200 8.02500 23.82700
H  42.27500 11.15600 23.42300
H  43.71800 11.19400 24.42800
H  42.90900 12.88000 25.39600
H  41.26700 12.03500 25.91500
H  41.53100 12.87500 24.37100
H  45.89900 12.24100 27.31400
H  47.07600 11.17800 28.14700
H  46.68200 12.72500 28.88100
H  44.11300 12.72100 32.99100
H  44.41800 11.53400 36.74800
H  45.89600 12.50200 36.85600
H  45.93300 10.73600 36.43700
Mg 48.56300 25.13100 27.97100
C  49.43100 27.26300 30.70800
C  47.55600 22.83100 30.50700
C  48.01500 22.84100 25.54300
C  50.10500 27.19000 25.80300
N  48.39900 25.15300 30.36500
C  48.85800 26.12200 31.22300
C  48.62800 25.72300 32.68000
C  48.00500 24.24600 32.56900
C  47.97600 24.05600 31.04000
C  48.73900 23.16100 33.44400
C  47.70100 26.79100 33.41700
C  47.15700 26.36400 34.82300
H  47.58500 27.15800 36.06900
N  47.77800 23.20300 27.97900
C  47.37700 22.40700 29.10500
C  46.83000 21.12200 28.60200
C  46.83600 21.15700 27.14400
C  47.59100 22.40900 26.81200
C  46.42000 19.95000 29.45900
C  46.42800 20.14800 26.08200
O  46.58600 20.10900 24.85000
C  45.61600 18.95900 26.70500
N  49.03500 24.94700 25.92000
C  48.76500 23.94000 25.09400
C  48.95000 24.36700 23.56000
C  49.32000 25.86900 23.72100
C  49.58600 26.02500 25.23300
C  50.20500 23.58100 22.99800
C  48.18200 26.80500 23.30400
C  48.48100 27.56600 22.01500
N  49.58700 26.78400 28.11900
C  50.08800 27.65800 27.16100
C  50.65200 28.76900 27.76800
C  50.57600 28.63300 29.10900
C  49.77500 27.46700 29.34000
C  51.33200 29.88900 27.02000
C  50.89300 29.27500 30.39800
O  51.57000 30.25800 30.61500
C  50.16800 28.40800 31.51100
C  51.24900 27.78900 32.25300
O  51.84200 26.76700 31.95800
O  51.50800 28.58000 33.32000
C  52.70300 28.36600 34.10600
H  47.14300 22.08900 31.19300
H  47.80400 22.18600 24.69600
H  50.32100 28.04700 25.16100
H  49.56800 25.61200 33.22000
H  46.95200 24.14100 32.83100
H  49.08400 22.29300 32.88300
H  47.99000 22.89700 34.19100
H  49.66900 23.53600 33.87100
H  46.84700 26.97300 32.76400
H  48.38000 27.63900 33.50800
H  47.32800 25.32200 35.09200
H  46.07100 26.35200 34.72900
H  46.72700 18.99500 29.03300
H  45.38600 20.10100 29.77100
H  46.91100 19.97600 30.43200
H  46.33200 18.21600 27.05700
H  44.96900 18.51200 25.95000
H  44.98100 19.36600 27.49100
H  47.97000 24.22900 23.10300
H  50.28300 26.11100 23.27100
H  50.37700 22.70000 23.61700
H  51.13500 24.14900 23.01500
H  49.92000 23.27200 21.99300
H  48.12400 27.55900 24.08800
H  47.19000 26.35500 23.26200
H  47.72000 27.45600 21.24300
H  49.40100 27.14300 21.60900
H  48.61900 28.59500 22.34600
H  50.62400 30.17100 26.24000
H  52.18000 29.53200 26.43600
H  51.60600 30.70300 27.69100
H  49.53200 29.04200 32.12900
H  53.60400 28.29600 33.49800
H  52.61000 27.44600 34.68400
H  52.82900 29.17700 34.82400

