158

Mg 1.95000 -1.47200 43.93400
C  5.48300 -1.16000 43.47600
C  1.57000 1.38900 42.02300
C  -1.25300 -2.10100 43.57100
C  2.55700 -4.60300 45.31800
N  3.37600 -0.25800 42.62000
C  4.76400 -0.21700 42.72600
C  5.25500 0.94600 41.85000
C  3.97200 1.84000 41.68900
C  2.86500 0.91200 42.11900
C  4.06900 3.11900 42.43900
C  5.80300 0.37100 40.51300
C  7.00200 1.14900 39.93400
H  6.76800 1.70700 38.53700
N  0.30700 -0.41200 43.11300
C  0.33200 0.76600 42.39800
C  -1.03500 1.35400 42.31100
C  -1.88200 0.31900 42.80300
C  -0.92600 -0.77700 43.16900
C  -1.31000 2.72200 41.73100
C  -3.35400 0.37000 42.75600
O  -4.07300 1.23000 42.21600
C  -4.08300 -0.74100 43.56200
N  0.90600 -3.23600 44.06100
C  -0.43100 -3.16700 43.98600
C  -1.00100 -4.44800 44.59200
C  0.17200 -5.10900 45.26800
C  1.31700 -4.28200 44.86700
C  -2.21400 -4.28500 45.49600
C  0.39800 -6.61300 44.89600
C  0.72500 -7.63100 46.02900
N  3.60100 -2.68600 44.44800
C  3.71400 -3.93000 44.99600
C  5.13700 -4.17800 45.37500
C  5.81900 -3.11100 44.80800
C  4.88500 -2.24300 44.23300
C  5.60000 -5.30000 46.28700
C  7.12600 -2.46100 44.71300
O  8.24400 -2.88500 45.11900
C  6.99900 -1.21300 43.79100
C  7.31200 0.04200 44.59700
O  6.93800 0.12200 45.74300
O  8.07600 0.90700 43.88200
C  8.38600 2.13600 44.56900
H  1.44300 2.37000 41.56100
H  -2.30100 -2.40800 43.55400
H  2.71100 -5.44600 45.99500
H  6.00700 1.50700 42.40400
H  3.77900 2.24500 40.69600
H  3.85100 2.92600 43.48900
H  3.59000 3.92900 41.88900
H  5.13100 3.35100 42.35700
H  5.06900 0.35000 39.70800
H  6.13400 -0.66700 40.51800
H  7.98700 0.70000 40.05800
H  7.04100 2.10000 40.46500
H  -2.39400 2.81500 41.66400
H  -0.83600 2.91400 40.76900
H  -0.95600 3.48100 42.42900
H  -5.09100 -0.40900 43.81100
H  -3.50500 -0.78400 44.48600
H  -4.09500 -1.64100 42.94800
H  -1.45700 -5.08400 43.83400
H  -0.01200 -5.10800 46.34200
H  -2.00200 -4.84600 46.40600
H  -3.16100 -4.61500 45.06900
H  -2.30900 -3.24400 45.80600
H  1.00100 -6.72200 43.99400
H  -0.59000 -7.00200 44.64900
H  -0.13600 -8.23800 46.30800
H  1.09000 -7.04000 46.86800
H  1.64500 -8.16300 45.78500
H  4.87500 -5.26200 47.10100
H  6.59200 -5.04300 46.65800
H  5.70800 -6.22000 45.71300
H  7.63400 -1.29500 42.90900
H  7.49300 2.74300 44.42100
H  9.18600 2.67900 44.06500
H  8.63400 2.05800 45.62800
Mg -10.65200 40.24600 39.53900
C  -9.21300 36.98900 38.86800
C  -7.82400 41.60600 38.28200
C  -12.25200 43.10500 39.36300
C  -13.56300 38.56500 40.55700
N  -8.82000 39.39700 38.68200
C  -8.41000 38.06900 38.44800
C  -6.95800 37.99400 37.92100
C  -6.53100 39.40700 38.52100
C  -7.76600 40.23400 38.39000
C  -5.97000 39.34700 40.00200
C  -6.88500 37.88200 36.35900
C  -6.16600 36.66000 35.82700
H  -6.85800 35.91300 34.72500
N  -10.08300 42.12600 38.93800
C  -8.83600 42.54600 38.49700
C  -8.83200 43.94800 38.37900
C  -10.08300 44.42000 38.69300
C  -10.86600 43.22300 39.03700
C  -7.53600 44.73000 37.93000
C  -10.57400 45.81700 38.52400
O  -9.78300 46.61100 38.13200
C  -11.95700 46.35700 38.81500
N  -12.63000 40.76100 39.83900
C  -13.08500 42.04500 39.69300
C  -14.49700 42.21100 40.17700
C  -14.90200 40.73500 40.46400
C  -13.64600 39.97700 40.30800
C  -14.56500 43.00000 41.41600
C  -15.95500 40.22500 39.47300
C  -17.37400 40.15600 40.00900
N  -11.25200 38.16900 39.88500
C  -12.45600 37.69200 40.30000
C  -12.32100 36.23500 40.60300
C  -11.13500 35.93800 39.95300
C  -10.51600 37.15000 39.52400
C  -13.26800 35.30000 41.26900
C  -10.21800 34.83400 39.53800
O  -10.36700 33.64800 39.70900
C  -8.99400 35.48200 38.79800
C  -7.77500 35.00800 39.45700
O  -7.35700 35.51300 40.53900
O  -7.12300 34.00700 38.69800
C  -5.77800 33.68900 39.21100
H  -6.88900 41.93200 37.82100
H  -12.78400 44.05500 39.44100
H  -14.51200 38.09900 40.82900
H  -6.41800 37.16200 38.37300
H  -5.86100 39.97800 37.87900
H  -6.76500 39.67500 40.67100
H  -5.14900 40.05400 40.12300
H  -5.75400 38.31300 40.27100
H  -6.29600 38.73100 36.01200
H  -7.87900 37.82700 35.91500
H  -6.01200 35.87800 36.57100
H  -5.21100 36.90800 35.36400
H  -7.52000 44.91200 36.85600
H  -6.67400 44.12000 38.20100
H  -7.39400 45.66200 38.47800
H  -12.60600 46.08500 37.98300
H  -11.76200 47.42500 38.72000
H  -12.26700 45.96900 39.78600
H  -15.09900 42.71000 39.41800
H  -15.26600 40.62800 41.48600
H  -13.84300 42.53700 42.08800
H  -15.57600 43.08700 41.81400
H  -14.47900 44.08500 41.35200
H  -15.79700 39.22100 39.08000
H  -15.94000 40.96900 38.67700
H  -17.85600 39.28800 39.55900
H  -17.99000 41.03800 39.83400
H  -17.41300 40.02600 41.09000
H  -13.29200 35.52500 42.33500
H  -12.93700 34.30500 40.97100
H  -14.22700 35.35800 40.75500
H  -8.90300 35.18800 37.75200
H  -5.73000 33.71600 40.29900
H  -4.97400 34.38900 38.98000
H  -5.51400 32.66100 38.96300

