158

Mg -0.12700 7.52500 26.59600
C  0.56200 9.54300 29.43800
C  -0.32100 4.80200 28.72900
C  -0.58600 5.55100 23.94600
C  0.53400 10.21900 24.55100
N  -0.09400 7.29400 28.82500
C  0.14700 8.21200 29.81000
C  0.06900 7.70600 31.16900
C  -0.10300 6.11200 30.92100
C  -0.28200 6.07600 29.35600
C  0.95900 5.13000 31.48700
C  -1.00000 8.41200 32.02700
C  -0.76900 8.57000 33.53300
H  0.43000 8.07100 34.26000
N  -0.39000 5.45000 26.33200
C  -0.37300 4.49500 27.30100
C  -0.49700 3.20000 26.65500
C  -0.66900 3.40800 25.27400
C  -0.59900 4.89700 25.13300
C  -0.41100 1.97800 27.43900
C  -1.04000 2.35500 24.18600
O  -1.23500 2.79400 23.05700
C  -1.28200 0.87600 24.51000
N  -0.06400 7.87600 24.55400
C  -0.35900 6.88900 23.58400
C  -0.28500 7.40900 22.10600
C  -0.19900 8.94000 22.42200
C  0.14700 9.03700 23.94600
C  0.80200 6.66100 21.30600
C  -1.46300 9.77300 22.08300
C  -1.29400 10.76500 20.87600
N  0.49200 9.47000 26.89400
C  0.69000 10.42200 25.90600
C  1.23300 11.57200 26.58100
C  1.29700 11.27200 27.95000
C  0.74200 9.98700 28.10100
C  1.70500 12.75300 25.93700
C  1.63700 11.78100 29.23000
O  2.20200 12.85000 29.57500
C  1.16200 10.67000 30.27700
C  2.31400 10.21900 31.15600
O  3.07700 9.36900 30.82900
O  2.53300 11.00300 32.20500
C  3.63600 10.80000 33.14800
H  -0.47500 3.88200 29.29700
H  -0.83200 4.98100 23.04800
H  0.77200 11.09200 23.94100
H  1.02000 7.83900 31.68500
H  -1.09800 5.84800 31.28100
H  0.42200 4.31800 31.97800
H  1.54700 5.69600 32.20900
H  1.60800 4.87200 30.65000
H  -1.95600 7.94900 31.78200
H  -1.04600 9.39800 31.56400
H  -1.67700 8.19400 34.00300
H  -0.74600 9.64100 33.73300
H  -0.15700 1.08900 26.86200
H  -1.36100 1.78700 27.93700
H  0.41200 2.17400 28.12700
H  -1.68400 0.39100 23.62100
H  -1.98400 0.76300 25.33600
H  -0.39100 0.32800 24.81900
H  -1.19900 7.19400 21.55200
H  0.63000 9.37900 21.86700
H  1.11500 5.74600 21.81000
H  1.71900 7.24800 21.24900
H  0.58200 6.31700 20.29600
H  -1.53200 10.47200 22.91700
H  -2.42800 9.27600 21.98700
H  -0.79300 10.23300 20.06700
H  -0.75400 11.69700 21.04400
H  -2.29800 11.03900 20.55400
H  1.02300 13.05600 25.14300
H  2.72700 12.62200 25.58100
H  1.70300 13.62700 26.58900
H  0.31800 11.04400 30.85600
H  4.10000 11.78700 33.14700
H  4.34600 10.11100 32.69200
H  3.32300 10.51700 34.15300
Mg 25.21700 1.22800 30.22800
C  27.40500 1.33100 32.90200
C  22.59100 1.49200 32.54600
C  23.15500 1.21800 27.72500
C  27.93500 0.91100 28.06000
N  25.07800 1.36400 32.50000
C  26.07800 1.42800 33.37400
C  25.66300 1.67600 34.82300
C  24.12100 1.52500 34.71200
C  23.89100 1.45800 33.15100
C  23.51600 0.38800 35.64700
C  26.20100 3.07500 35.36600
C  26.86200 2.99700 36.75500
H  26.52400 4.00300 37.84300
N  23.17000 1.20200 30.14200
C  22.28900 1.33700 31.18500
C  20.94200 1.17800 30.66700
C  21.05600 1.19100 29.21300
C  22.53700 1.14900 28.98300
C  19.75000 1.15700 31.52800
C  19.95500 1.25400 28.27100
O  20.21100 1.11200 27.08400
C  18.51600 1.58100 28.68400
N  25.54200 1.05500 28.11000
C  24.46700 1.17700 27.28200
C  24.92100 1.06800 25.80500
C  26.48900 1.03000 25.97800
C  26.71200 1.03300 27.43900
C  24.33700 -0.08500 24.90900
C  27.21000 2.19800 25.13900
C  26.79100 3.64500 25.52700
N  27.19800 0.98500 30.40500
C  28.16400 0.91800 29.44200
C  29.44300 0.72300 30.14800
C  29.21900 0.91500 31.46500
C  27.82400 1.05200 31.56900
C  30.74100 0.45600 29.39200
C  29.86000 0.94500 32.77300
O  31.02400 0.82200 33.21900
C  28.70100 1.31500 33.71300
C  28.63200 0.41700 34.90500
O  28.06700 -0.67300 34.87800
O  29.12100 1.05600 35.98500
C  29.07000 0.31300 37.24400
H  21.73000 1.64200 33.20000
H  22.45600 1.39200 26.90400
H  28.89800 0.79800 27.55700
H  26.08800 0.81200 35.33300
H  23.71900 2.49700 34.99800
H  24.33000 -0.12200 36.16100
H  23.00800 -0.38400 35.07000
H  22.74500 0.91100 36.21200
H  25.51700 3.92400 35.38700
H  27.01700 3.33700 34.69400
H  27.94500 2.89000 36.69200
H  26.55500 2.04400 37.18500
H  18.76200 0.85900 31.17700
H  19.78800 2.05900 32.13800
H  19.99000 0.42500 32.30000
H  18.56600 2.46400 29.32100
H  17.99900 0.84300 29.29800
H  17.89800 1.81300 27.81600
H  24.79100 2.00800 25.26700
H  26.82600 0.15700 25.41800
H  23.46800 -0.54400 25.37900
H  25.02000 -0.92700 24.79500
H  24.06700 0.40300 23.97200
H  26.99700 2.02600 24.08400
H  28.29300 2.07600 25.16400
H  26.09900 3.72100 26.36600
H  26.23700 3.99700 24.65600
H  27.61200 4.35500 25.62900
H  30.72700 1.16300 28.56300
H  30.86600 -0.56700 29.03500
H  31.50900 0.77100 30.09900
H  29.04800 2.22600 34.20000
H  29.95800 -0.31900 37.21200
H  28.13700 -0.25100 37.25800
H  29.06500 0.95200 38.12700

