158

Mg 23.86100 -6.80200 47.36100
C  26.54400 -4.66000 46.26900
C  21.84200 -5.14900 45.10300
C  21.57300 -9.20100 47.82700
C  26.26100 -8.65300 49.07200
N  24.19200 -5.07100 45.93300
C  25.30400 -4.36200 45.65100
C  25.14100 -3.41200 44.45600
C  23.57300 -3.42600 44.32800
C  23.16400 -4.65700 45.13300
C  22.79100 -2.19500 44.75500
C  25.87300 -4.01200 43.24100
C  27.10300 -3.13500 42.74400
H  27.10200 -2.49900 41.38300
N  21.90400 -7.05300 46.67400
C  21.24000 -6.22900 45.77800
C  19.89100 -6.74300 45.57800
C  19.81200 -7.93500 46.26700
C  21.13900 -8.10400 46.99500
C  18.78200 -5.95400 44.88000
C  18.61300 -8.86500 46.41600
O  17.59700 -8.51700 45.80200
C  18.52300 -10.08600 47.25000
N  23.91800 -8.72200 48.28800
C  22.79300 -9.55600 48.40700
C  23.12000 -10.93100 49.04300
C  24.66900 -10.71200 49.39800
C  24.98400 -9.27000 48.91500
C  22.30100 -11.33800 50.30100
C  25.73500 -11.65500 48.75500
C  26.84300 -12.07200 49.83600
N  25.96200 -6.61800 47.78800
C  26.78400 -7.49200 48.45600
C  28.07100 -6.86600 48.61300
C  28.04700 -5.63500 47.84600
C  26.75100 -5.63100 47.24600
C  29.34400 -7.45900 49.22100
C  28.74200 -4.48000 47.37100
O  29.80000 -4.04800 47.60500
C  27.76900 -3.81400 46.26400
C  27.38100 -2.46000 46.66900
O  26.86900 -2.23200 47.76700
O  27.84800 -1.51500 45.79800
C  27.78400 -0.10100 46.26000
H  21.18600 -4.54100 44.47700
H  20.98800 -10.10500 47.64400
H  27.07300 -9.24300 49.50200
H  25.43400 -2.38100 44.65400
H  23.26800 -3.59700 43.29500
H  23.44500 -1.45300 45.21200
H  22.04100 -2.52500 45.47400
H  22.25000 -1.87700 43.86400
H  25.14700 -4.10700 42.43400
H  26.23300 -5.03000 43.38600
H  28.02900 -3.69700 42.86200
H  27.20400 -2.33100 43.47200
H  17.90700 -5.69900 45.47600
H  18.59300 -6.33200 43.87500
H  19.25200 -4.97200 44.82200
H  17.49300 -10.44300 47.27800
H  18.81000 -9.85600 48.27600
H  19.23100 -10.85000 46.92900
H  23.04400 -11.63600 48.21500
H  24.85400 -10.70900 50.47200
H  21.68400 -10.48400 50.57800
H  22.96600 -11.60300 51.12300
H  21.62700 -12.15500 50.04300
H  26.20500 -11.15000 47.91100
H  25.24500 -12.55700 48.38900
H  26.70200 -13.14600 49.95600
H  26.64800 -11.68400 50.83600
H  27.83700 -11.90700 49.42100
H  30.12500 -6.70100 49.27200
H  29.61800 -8.37400 48.69400
H  29.14100 -7.66000 50.27200
H  28.32800 -3.94100 45.33700
H  26.74700 0.14200 46.49200
H  28.20200 0.50200 45.45500
H  28.41500 0.05900 47.13400
Mg 6.45200 53.97800 42.69000
C  5.62200 50.69400 42.19600
C  9.31300 53.58600 40.69000
C  6.86400 57.42600 42.53800
C  3.10600 54.55400 43.83400
N  7.39000 52.33100 41.70800
C  6.86100 51.11000 41.54400
C  7.83200 50.19700 40.78500
C  9.16500 51.03800 40.72700
C  8.67000 52.41700 41.14900
C  10.39900 50.49800 41.57500
C  7.32400 49.64900 39.41100
C  6.52900 50.69900 38.50300
H  6.59200 50.54700 36.93400
N  8.01700 55.30000 41.93500
C  9.07000 54.91100 41.15300
C  9.89300 56.09500 40.97300
C  9.30200 57.19200 41.54600
C  7.99300 56.72000 42.08300
C  11.26000 56.03000 40.27200
C  9.92700 58.62300 41.59800
O  11.06200 58.84600 41.19600
C  9.26400 59.79700 42.40900
N  5.16100 55.68800 43.06800
C  5.55800 56.99800 42.96100
C  4.53000 58.01400 43.44000
C  3.25200 57.12600 43.47500
C  3.82500 55.71900 43.48400
C  5.03400 58.75200 44.82700
C  2.16400 57.32500 42.31700
C  0.99500 58.19700 42.64000
N  4.73000 52.92600 43.05300
C  3.53600 53.19400 43.69000
C  2.85200 51.96100 44.01200
C  3.57600 50.98500 43.32400
C  4.74800 51.60900 42.82000
C  1.60000 51.84400 44.80600
C  3.56900 49.52900 43.20600
O  2.88400 48.61000 43.59400
C  5.04600 49.22700 42.42400
C  4.59000 48.63600 41.10600
O  3.79000 49.16100 40.32800
O  5.27300 47.44900 40.82000
C  4.64500 46.61500 39.78900
H  10.19200 53.52200 40.04500
H  7.04400 58.50200 42.51100
H  2.05600 54.45800 44.12100
H  8.01200 49.23300 41.26200
H  9.59700 51.07300 39.72600
H  10.71000 51.29300 42.25200
H  11.18700 50.30200 40.84800
H  10.26900 49.56100 42.11700
H  6.72900 48.77300 39.67000
H  8.19600 49.30800 38.85300
H  6.85700 51.73100 38.62800
H  5.53000 50.73900 38.93700
H  11.42700 56.98500 39.77400
H  11.27000 55.33700 39.43000
H  12.04600 55.77700 40.98400
H  8.58400 60.23300 41.67800
H  10.04900 60.52000 42.63000
H  8.70000 59.42000 43.26300
H  4.43600 58.77400 42.66500
H  2.75500 57.33000 44.42400
H  4.74800 59.79800 44.94100
H  6.12100 58.67400 44.81500
H  4.68300 58.16100 45.67200
H  1.87100 56.29900 42.09600
H  2.70200 57.54600 41.39500
H  1.20400 58.71500 43.57600
H  0.13600 57.52900 42.70000
H  0.82200 58.80800 41.75400
H  1.33100 52.74300 45.36100
H  1.68700 51.09300 45.59100
H  0.78000 51.61000 44.12700
H  5.74000 48.53300 42.89800
H  4.35200 45.76000 40.39800
H  5.37700 46.31000 39.04100
H  3.74500 47.07000 39.37600

