158

Mg 41.79200 41.06200 26.10000
C  40.99700 43.31200 28.67300
C  42.86300 38.74400 28.57100
C  42.84300 39.07800 23.68600
C  41.13800 43.60300 23.76600
N  41.79600 41.03800 28.35000
C  41.39800 42.10000 29.15600
C  41.45600 41.65200 30.65600
C  42.25800 40.23600 30.55000
C  42.21200 39.94200 29.07800
C  43.66600 40.28800 31.10000
C  40.13400 41.45400 31.40200
C  39.67300 42.61300 32.32200
H  39.78000 42.50800 33.84000
N  42.63900 39.13100 26.13200
C  43.12200 38.39100 27.21900
C  43.66000 37.14100 26.68700
C  43.54700 37.18000 25.26800
C  42.97900 38.45600 24.96300
C  44.02000 36.09600 27.60800
C  43.99200 36.16900 24.15400
O  43.97000 36.39500 22.95000
C  44.52800 34.82300 24.61300
N  42.04700 41.31500 24.09700
C  42.39800 40.24400 23.32000
C  42.17100 40.55600 21.80700
C  41.30100 41.83000 21.83200
C  41.56700 42.33500 23.30000
C  43.51900 40.70700 21.06700
C  39.81100 41.75100 21.47600
C  38.96100 40.74000 22.29500
N  41.22600 43.06200 26.11500
C  41.00900 44.01200 25.06000
C  40.51800 45.23700 25.61000
C  40.44300 45.00500 26.97300
C  40.91900 43.72100 27.20100
C  40.08100 46.46900 24.82700
C  40.16900 45.59300 28.22900
O  39.85500 46.74800 28.51100
C  40.57500 44.51000 29.37000
C  41.66300 45.15600 30.18800
O  42.83600 45.26100 29.83300
O  41.18500 45.54300 31.40600
C  42.20400 46.32900 32.21300
H  43.20900 37.95300 29.24000
H  43.10400 38.53100 22.77700
H  40.77200 44.27900 22.99000
H  42.03600 42.44200 31.13300
H  41.73300 39.38200 30.97800
H  43.68600 39.98400 32.14700
H  43.96900 41.33100 31.00600
H  44.32000 39.70700 30.44900
H  40.14800 40.51600 31.95800
H  39.44900 41.28800 30.57100
H  38.66000 42.82300 31.97800
H  40.35200 43.41000 32.01800
H  43.16400 35.42100 27.62400
H  44.31500 36.35300 28.62500
H  44.83800 35.53800 27.15100
H  43.88100 34.24700 25.27500
H  45.44000 35.03100 25.17300
H  44.76800 34.29200 23.69200
H  41.56400 39.75500 21.38600
H  41.73600 42.56500 21.15500
H  43.95300 39.74000 20.81400
H  44.21700 41.34700 21.60700
H  43.26400 41.27300 20.17100
H  39.72400 41.61800 20.39800
H  39.37600 42.74500 21.57800
H  38.04600 41.20300 22.66500
H  39.54000 40.35300 23.13300
H  38.66000 39.90000 21.66900
H  39.13700 46.22700 24.33800
H  40.88000 46.78000 24.15400
H  39.94200 47.23800 25.58600
H  39.84500 44.43100 30.17600
H  42.25400 47.37300 31.90200
H  43.14100 45.77300 32.23100
H  41.81900 46.26700 33.23100
Mg 26.09900 49.37800 25.93400
C  24.13400 51.01200 28.36200
C  28.57900 48.95000 28.20500
C  28.12700 48.48100 23.43300
C  23.69800 50.51700 23.45600
N  26.27700 49.79000 28.05700
C  25.28100 50.36800 28.80300
C  25.61400 50.16800 30.25800
C  27.19200 49.79200 30.15500
C  27.44400 49.56100 28.72100
C  28.22000 50.77500 30.78100
C  24.67200 49.19000 31.10100
C  24.11000 49.76800 32.40100
H  25.13800 50.11800 33.46800
N  28.02800 48.62000 25.84200
C  28.92900 48.56500 26.85000
C  30.14200 47.99400 26.41800
C  30.05400 47.95500 24.99100
C  28.68700 48.38300 24.65800
C  31.31100 47.74100 27.38000
C  31.22400 47.69000 23.95300
O  30.98200 47.78900 22.75400
C  32.57900 47.45300 24.38500
N  25.89900 49.54100 23.78700
C  26.84900 48.90900 22.98800
C  26.40000 48.92700 21.46800
C  24.90500 49.42900 21.58700
C  24.78000 49.82000 23.02200
C  27.33800 49.81600 20.58400
C  23.87500 48.23100 21.33300
C  23.93200 46.95100 22.24600
N  24.31100 50.55700 25.89100
C  23.41800 50.85100 24.85400
C  22.33600 51.61900 25.44400
C  22.52600 51.66400 26.79500
C  23.76800 51.10400 27.03200
C  21.19300 52.12800 24.68600
C  21.96900 52.08800 28.03800
O  20.93500 52.68500 28.19600
C  22.90400 51.51800 29.12700
C  23.28300 52.61700 30.07900
O  24.35000 53.19100 30.13800
O  22.42500 52.60800 31.13600
C  22.80500 53.52900 32.22300
H  29.37200 48.74800 28.92800
H  28.74900 48.11900 22.61100
H  23.08900 50.92400 22.64600
H  25.57800 51.14000 30.75000
H  27.27300 48.85600 30.70800
H  27.68200 51.36700 31.52100
H  28.85400 51.28800 30.05700
H  28.88300 50.14900 31.37800
H  25.34000 48.36500 31.34700
H  23.75800 48.85300 30.61100
H  23.40500 49.06300 32.84000
H  23.62200 50.71200 32.15800
H  31.90800 46.94700 26.93200
H  31.07200 47.36800 28.37600
H  31.89100 48.65000 27.54000
H  33.13800 47.70200 23.48300
H  32.62100 46.38400 24.59300
H  32.85400 48.09800 25.22000
H  26.48100 47.92100 21.05600
H  24.74100 50.30800 20.96400
H  28.34200 49.73800 20.99900
H  26.91400 50.81700 20.50500
H  27.26600 49.30400 19.62400
H  24.04900 47.84000 20.33000
H  22.86000 48.63000 21.33000
H  23.96900 46.12600 21.53500
H  23.01500 46.82700 22.82100
H  24.78600 46.93300 22.92400
H  21.57500 52.99600 24.14700
H  20.35800 52.38900 25.33600
H  20.96500 51.37000 23.93700
H  22.44900 50.85100 29.86000
H  23.40000 52.95500 32.93300
H  21.88600 53.77500 32.75400
H  23.36000 54.44600 32.02600

