158

Mg 42.44900 41.97100 25.78800
C  41.91600 44.44100 28.45800
C  43.60500 39.98200 28.35900
C  43.30700 39.93600 23.44600
C  41.86400 44.60200 23.53300
N  42.73000 42.25600 28.14800
C  42.34600 43.24800 29.06200
C  42.25000 42.70000 30.52500
C  43.08100 41.38200 30.36500
C  43.19600 41.20000 28.84400
C  44.55000 41.40500 31.00600
C  40.81000 42.59200 31.04400
C  40.57600 41.89800 32.41700
H  39.87500 42.79000 33.48900
N  43.21700 40.15200 25.89600
C  43.59400 39.41400 27.05100
C  44.01000 38.11800 26.60500
C  43.86700 38.04300 25.21300
C  43.50300 39.39500 24.80300
C  44.52400 37.06000 27.59300
C  44.08900 36.80700 24.30200
O  44.10400 36.82900 23.11200
C  44.41000 35.50800 25.01100
N  42.66900 42.26700 23.79400
C  43.04700 41.23700 22.98000
C  43.10800 41.75900 21.51500
C  42.69400 43.27500 21.54300
C  42.29900 43.35200 23.03400
C  44.49100 41.37200 20.90900
C  41.57000 43.74300 20.51000
C  40.18100 43.12700 20.66000
N  41.97800 44.07700 25.93500
C  41.80000 44.99700 24.93000
C  41.32900 46.23500 25.50700
C  41.33700 46.02200 26.87000
C  41.89400 44.77000 27.07800
C  40.93100 47.52200 24.71100
C  41.15500 46.71100 28.08200
O  40.83800 47.89200 28.27500
C  41.44600 45.68100 29.19600
C  42.47800 46.19300 30.15400
O  43.54200 46.71800 29.87800
O  41.91100 46.14900 31.44000
C  42.84600 46.39800 32.55700
H  43.91600 39.31500 29.16600
H  43.52700 39.17900 22.69100
H  41.65700 45.36600 22.78100
H  42.72600 43.47600 31.12400
H  42.60100 40.45800 30.68700
H  44.98400 42.40400 31.01400
H  45.24400 40.78100 30.44100
H  44.56700 41.04300 32.03400
H  40.14400 42.03000 30.38900
H  40.41400 43.60600 31.10700
H  41.51800 41.49300 32.78700
H  39.89800 41.04500 32.42800
H  43.93200 36.17700 27.35200
H  44.39100 37.40000 28.61900
H  45.56500 36.78700 27.41600
H  44.65000 34.81400 24.20600
H  43.52900 35.13100 25.53100
H  45.30000 35.61400 25.63200
H  42.24800 41.28400 21.04300
H  43.59200 43.87900 21.41300
H  44.92000 42.29600 20.52300
H  44.36400 40.66200 20.09200
H  45.16600 40.91100 21.63000
H  41.95700 43.51300 19.51700
H  41.48500 44.82100 20.64700
H  39.84500 42.49000 19.84200
H  39.47100 43.91000 20.92500
H  40.05900 42.59200 21.60200
H  41.04700 47.43000 23.63100
H  41.56500 48.32600 25.08400
H  39.88600 47.78500 24.87600
H  40.45500 45.61000 29.64400
H  42.71700 47.46600 32.73400
H  43.87900 46.19800 32.27400
H  42.52700 45.71200 33.34100
Mg 9.71000 48.04900 26.62600
C  7.66300 48.19100 29.51800
C  12.19000 49.58400 28.53600
C  11.54800 48.02400 23.91100
C  6.83100 47.49800 24.71700
N  9.88100 48.88500 28.81000
C  8.97800 48.55300 29.77100
C  9.61200 48.91300 31.15300
C  10.76200 49.88700 30.74500
C  11.00100 49.43400 29.32000
C  10.43800 51.40400 30.90500
C  10.14800 47.72400 32.00500
C  9.92000 47.98700 33.48200
H  9.69900 46.81100 34.40700
N  11.62200 48.55800 26.31100
C  12.53500 49.09700 27.25100
C  13.86900 49.03600 26.59000
C  13.71000 48.65400 25.26100
C  12.22700 48.38800 25.06900
C  15.06600 49.38500 27.36900
C  14.79200 48.56100 24.15100
O  14.49000 48.29600 22.95900
C  16.21000 48.76200 24.48900
N  9.23000 47.99300 24.61100
C  10.16500 47.98300 23.65200
C  9.56500 47.76200 22.25300
C  8.09000 47.49100 22.46300
C  8.06400 47.57700 24.07100
C  9.78200 48.95300 21.26700
C  7.46600 46.18200 21.91300
C  7.41400 46.06700 20.39600
N  7.67500 47.82500 26.99700
C  6.59500 47.64200 26.08400
C  5.31800 47.56300 26.81900
C  5.74400 47.86100 28.13300
C  7.12700 47.96600 28.24900
C  3.99200 47.13300 26.28500
C  5.28900 47.93300 29.54800
O  4.18000 47.96300 30.10200
C  6.53900 48.02200 30.45300
C  6.58200 46.76700 31.31200
O  7.48000 45.92700 31.25100
O  5.54000 46.65800 32.15400
C  5.61000 45.73400 33.27900
H  12.99700 50.06700 29.09100
H  12.16300 47.82300 23.03100
H  5.91700 47.42700 24.12300
H  8.94600 49.50700 31.77900
H  11.66300 49.64600 31.30900
H  10.02000 51.67500 31.87500
H  9.74600 51.60600 30.08800
H  11.30500 51.99200 30.60200
H  11.22100 47.67600 31.81700
H  9.72000 46.75400 31.74800
H  9.00700 48.58200 33.51000
H  10.70900 48.58800 33.93300
H  15.78800 48.57200 27.29300
H  15.01500 49.56900 28.44200
H  15.44900 50.35900 27.06300
H  16.23400 49.72000 25.00900
H  16.83700 48.96400 23.62000
H  16.62200 47.95400 25.09500
H  10.01200 46.84800 21.85900
H  7.44900 48.30600 22.12700
H  8.86900 49.26400 20.75800
H  10.49800 48.61800 20.51700
H  10.33000 49.83000 21.61100
H  6.46100 45.99200 22.29100
H  8.03900 45.39600 22.40400
H  6.44800 45.61900 20.16200
H  8.09300 45.25200 20.14600
H  7.59900 46.96800 19.81200
H  3.60900 48.00900 25.76200
H  3.27600 46.98500 27.09400
H  4.12500 46.18900 25.75800
H  6.43200 48.92300 31.05600
H  6.44800 45.03700 33.27900
H  4.65300 45.23700 33.43700
H  5.83600 46.48400 34.03700

