158

Mg 23.96300 -6.77000 46.29900
C  26.39700 -4.60700 45.16400
C  21.63800 -5.19400 44.36500
C  21.92000 -9.55300 46.55900
C  26.55000 -8.65600 47.90100
N  24.11600 -5.22400 44.85800
C  25.15100 -4.42700 44.58000
C  24.76800 -3.32200 43.53600
C  23.19800 -3.39600 43.59400
C  22.96500 -4.66300 44.29700
C  22.43100 -2.24500 44.27000
C  25.46500 -3.67500 42.13500
C  26.01400 -2.43300 41.34100
H  25.85400 -2.38800 39.84800
N  21.97400 -7.20200 45.72000
C  21.20600 -6.40700 44.95600
C  19.96800 -7.13400 44.69300
C  20.06600 -8.39600 45.33300
C  21.35500 -8.37600 45.96600
C  19.00000 -6.61800 43.60200
C  18.85600 -9.40200 45.37200
O  17.86300 -9.26200 44.64000
C  18.85300 -10.59900 46.24000
N  24.18100 -8.73100 47.20700
C  23.17300 -9.71100 47.15500
C  23.57200 -10.95000 47.99900
C  25.04700 -10.57500 48.53500
C  25.28500 -9.26900 47.86800
C  22.53600 -11.52700 48.99100
C  26.11500 -11.66800 48.26500
C  26.68200 -12.31800 49.50500
N  26.01200 -6.60600 46.61000
C  26.90200 -7.39900 47.30400
C  28.24500 -6.75200 47.42900
C  28.12900 -5.68000 46.49800
C  26.75800 -5.66200 46.05500
C  29.42200 -7.32700 48.17200
C  28.72200 -4.52700 45.85400
O  29.85000 -4.14300 45.81600
C  27.63500 -3.81500 44.99600
C  27.48000 -2.51700 45.67200
O  26.70800 -2.27300 46.61800
O  28.32900 -1.63200 45.14500
C  28.33600 -0.33800 45.92800
H  20.84700 -4.61800 43.88000
H  21.20700 -10.35900 46.74100
H  27.35400 -9.06900 48.51500
H  25.14600 -2.36300 43.89100
H  22.73500 -3.56000 42.62100
H  23.01500 -1.32500 44.24700
H  22.09500 -2.51500 45.27100
H  21.48200 -2.10100 43.75300
H  24.86200 -4.12600 41.34700
H  26.37400 -4.17600 42.46800
H  26.98800 -2.08500 41.68400
H  25.36400 -1.65400 41.73900
H  18.40900 -7.46700 43.25900
H  19.59200 -6.31200 42.73900
H  18.41200 -5.74300 43.88100
H  19.12700 -10.33000 47.26000
H  19.53500 -11.36200 45.86400
H  17.83800 -10.99500 46.26600
H  23.74100 -11.68600 47.21300
H  24.96400 -10.38300 49.60400
H  22.98500 -11.63700 49.97800
H  22.35000 -12.53000 48.60800
H  21.68900 -10.84000 49.00800
H  26.92800 -11.33400 47.62000
H  25.60800 -12.51300 47.79800
H  26.14700 -13.25100 49.68400
H  26.66300 -11.67800 50.38700
H  27.71900 -12.54100 49.25700
H  29.80000 -8.25500 47.74300
H  29.23100 -7.53200 49.22600
H  30.20500 -6.57700 48.06700
H  27.85900 -3.61100 43.94900
H  28.48200 -0.60800 46.97400
H  27.48100 0.28000 45.65700
H  29.20100 0.06300 45.40100
Mg 47.43700 24.61400 28.94900
C  48.10200 26.79700 31.52900
C  46.38700 22.25600 31.14500
C  47.90300 22.19300 26.59100
C  49.18200 26.87700 26.85200
N  47.11600 24.60000 31.01000
C  47.57000 25.57200 31.91700
C  47.47200 25.13800 33.40400
C  47.06300 23.64600 33.25500
C  46.73700 23.47400 31.67800
C  48.17600 22.50400 33.75900
C  46.47500 26.03800 34.20800
C  46.72300 25.91000 35.75200
H  45.58800 26.46500 36.65800
N  46.82200 22.52900 28.82100
C  46.36300 21.79700 29.83200
C  45.96700 20.50900 29.28300
C  46.37800 20.49800 27.96600
C  47.07500 21.74300 27.70900
C  45.16600 19.42400 30.04600
C  46.32500 19.37800 26.92300
O  46.75600 19.64700 25.82300
C  45.76800 18.03100 27.26900
N  48.53100 24.57400 27.12700
C  48.47300 23.45100 26.31800
C  49.39900 23.62300 25.15300
C  49.43900 25.21300 25.02200
C  48.97200 25.63700 26.35400
C  50.77700 22.93600 25.22600
C  48.67100 25.92400 23.89200
C  47.18200 26.35700 24.19600
N  48.21800 26.54400 29.10000
C  48.79300 27.32000 28.13300
C  49.02100 28.66300 28.63700
C  48.82100 28.44600 30.03600
C  48.41800 27.17800 30.24400
C  49.40800 29.87000 27.75300
C  49.02600 29.04800 31.38300
O  49.34300 30.17500 31.71600
C  48.57900 27.97700 32.38400
C  49.71200 27.65800 33.32000
O  50.60500 26.83300 33.08000
O  49.55500 28.39700 34.47500
C  50.57500 28.03700 35.48600
H  46.07700 21.46800 31.83500
H  48.07800 21.47800 25.78400
H  49.61700 27.56400 26.12300
H  48.46600 25.01600 33.83500
H  46.24400 23.46400 33.95100
H  47.79300 21.69400 34.38000
H  49.06700 22.99500 34.15100
H  48.52200 22.12000 32.80000
H  45.50200 25.59200 33.99900
H  46.46200 27.06500 33.84300
H  47.65800 26.38400 36.05000
H  46.76800 24.85300 36.01500
H  44.91700 19.75700 31.05300
H  45.77300 18.51900 30.00300
H  44.27300 19.20800 29.46000
H  44.70700 18.17900 27.47300
H  46.36300 17.71500 28.12600
H  45.94000 17.39800 26.39900
H  48.86900 23.22400 24.28800
H  50.43400 25.64300 24.90300
H  51.59600 23.58500 25.53500
H  51.01200 22.41100 24.30000
H  50.78800 22.18300 26.01400
H  48.76000 25.36000 22.96300
H  49.13300 26.90800 23.82300
H  46.63300 26.16800 23.27300
H  47.02000 27.39500 24.48700
H  46.65500 25.79700 24.96800
H  48.94800 29.66900 26.78500
H  50.49100 29.83900 27.63200
H  49.06800 30.86000 28.05700
H  47.84200 28.57500 32.91900
H  50.67000 28.89700 36.14900
H  51.51400 27.63400 35.10600
H  50.13300 27.26900 36.12100

