158

Mg 44.08200 5.43800 47.49100
C  41.66600 7.86200 47.27300
C  41.61400 3.13100 47.08100
C  46.56700 3.00400 47.12800
C  46.50800 7.80100 47.59000
N  41.82800 5.52700 47.30200
C  41.06100 6.61000 47.26100
C  39.57800 6.30200 47.00600
C  39.54300 4.75600 47.03100
C  41.03100 4.40500 47.15300
C  38.83900 4.07100 48.16100
C  39.03500 6.80200 45.66500
C  40.03300 6.67400 44.40800
H  39.37400 6.85900 43.06100
N  44.09200 3.40300 47.21900
C  42.96600 2.59300 47.04400
C  43.39900 1.24800 46.77100
C  44.77100 1.20300 46.71200
C  45.23400 2.57100 47.06300
C  42.38700 0.07700 46.57200
C  45.50700 -0.02600 46.52500
O  44.91000 -1.06200 46.22100
C  47.03800 -0.12700 46.48700
N  46.24200 5.40300 47.38400
C  47.05200 4.25400 47.34300
C  48.51700 4.69600 47.34500
C  48.48600 6.22600 47.61400
C  46.96600 6.49300 47.59500
C  49.64900 3.80800 48.19400
C  49.33100 7.08300 46.64000
C  50.87900 7.23800 46.89000
N  44.18000 7.42200 47.39200
C  45.21100 8.30100 47.42700
C  44.67000 9.66900 47.25200
C  43.27800 9.57100 47.34100
C  43.00700 8.17100 47.37300
C  45.47700 10.95100 47.35700
C  42.04300 10.31500 47.49400
O  41.88100 11.49400 47.63100
C  40.90300 9.13100 47.41100
C  40.19700 9.30500 48.67800
O  40.51200 8.80100 49.76700
O  39.16400 10.12100 48.40600
C  38.22500 10.43100 49.48900
H  40.81300 2.39200 47.15100
H  47.36300 2.30900 46.85400
H  47.31800 8.49500 47.82500
H  38.87000 6.67900 47.74300
H  39.31700 4.39400 46.02700
H  37.86600 4.55400 48.25400
H  39.48200 4.14300 49.03800
H  38.72100 3.03500 47.84500
H  38.63200 7.78400 45.91300
H  38.12900 6.28100 45.35500
H  40.58000 5.73200 44.45700
H  40.72800 7.50300 44.54200
H  42.59300 -0.33700 45.58500
H  41.34100 0.37600 46.64900
H  42.49800 -0.64600 47.37900
H  47.59100 0.09200 47.40100
H  47.50500 0.36300 45.63300
H  47.16300 -1.18700 46.26500
H  48.74500 4.58600 46.28400
H  48.98100 6.48000 48.55100
H  50.19800 3.04200 47.64600
H  49.20100 3.29900 49.04800
H  50.42200 4.55900 48.35900
H  48.89500 8.06200 46.44200
H  49.21900 6.58700 45.67600
H  51.29500 6.59600 46.11400
H  51.11500 6.89900 47.89900
H  51.19900 8.26200 46.69800
H  44.77900 11.75400 47.11900
H  46.33500 11.03100 46.68900
H  45.81000 11.09400 48.38500
H  40.37200 9.38500 46.49400
H  38.51400 11.44600 49.76000
H  38.36800 9.84500 50.39700
H  37.20400 10.41700 49.10900
Mg -9.65500 40.55100 39.50600
C  -8.61700 37.38600 38.68300
C  -6.55300 41.71700 38.73100
C  -10.91900 43.65700 39.57200
C  -12.89400 39.23300 39.96300
N  -7.81200 39.57700 38.78400
C  -7.58300 38.24800 38.55600
C  -6.04500 38.00800 38.12900
C  -5.41900 39.41100 38.40400
C  -6.66300 40.29200 38.63800
C  -4.49800 39.48700 39.69900
C  -5.89300 37.45200 36.65400
C  -6.69700 38.26400 35.54400
H  -7.58500 37.42100 34.64000
N  -8.91200 42.45200 39.05500
C  -7.58500 42.72900 38.80800
C  -7.39300 44.13600 38.58000
C  -8.59300 44.78200 39.08800
C  -9.52600 43.66400 39.30600
C  -6.13400 44.77600 38.17900
C  -8.79300 46.23900 39.21400
O  -8.03400 47.03700 38.66000
C  -9.92100 46.75300 39.97000
N  -11.69800 41.30500 39.48000
C  -11.86000 42.60000 39.65100
C  -13.36700 42.92900 39.84800
C  -14.01300 41.53500 40.05800
C  -12.78700 40.58600 39.94800
C  -13.64400 43.81600 41.06200
C  -15.21400 41.11700 39.20000
C  -16.49500 40.71500 39.97300
N  -10.56600 38.69000 39.45600
C  -11.88900 38.35400 39.61300
C  -12.09300 36.93500 39.48300
C  -10.77900 36.45300 39.07700
C  -9.90000 37.61400 39.08100
C  -13.35900 36.14900 39.68100
C  -10.02600 35.27800 38.72900
O  -10.39600 34.10400 38.72300
C  -8.52100 35.85600 38.50000
C  -7.53800 35.05500 39.33700
O  -7.72100 34.90400 40.54300
O  -6.48300 34.48700 38.65800
C  -5.37500 34.03700 39.49000
H  -5.52500 42.08300 38.69200
H  -11.23600 44.67400 39.81000
H  -13.87200 38.75000 40.01100
H  -5.73100 37.23300 38.82700
H  -4.81500 39.72500 37.55200
H  -4.98600 40.13200 40.42900
H  -3.45600 39.71500 39.47300
H  -4.50700 38.45400 40.04700
H  -6.09400 36.38600 36.54900
H  -4.83900 37.55800 36.39900
H  -5.94800 38.59500 34.82500
H  -7.31300 39.06800 35.94600
H  -6.38400 45.56300 37.46700
H  -5.36200 44.04500 37.93800
H  -5.77400 45.31700 39.05400
H  -9.99000 46.16400 40.88500
H  -10.84400 46.59600 39.41200
H  -9.80400 47.82000 40.15700
H  -13.73900 43.34800 38.91300
H  -14.28900 41.38600 41.10200
H  -14.31100 43.42100 41.82800
H  -14.01000 44.80200 40.77500
H  -12.66600 43.89200 41.53600
H  -14.85400 40.28300 38.59800
H  -15.38000 41.92300 38.48500
H  -17.19600 41.50200 39.69400
H  -16.27700 40.62900 41.03700
H  -16.83100 39.79800 39.48700
H  -14.22700 36.29400 39.03900
H  -13.76300 36.53500 40.61700
H  -13.04600 35.10500 39.69900
H  -8.30500 35.57100 37.47000
H  -4.46800 34.22500 38.91600
H  -5.46300 32.97400 39.71500
H  -5.41400 34.54100 40.45500

