158

Mg 50.06900 46.42900 43.80800
C  46.99800 47.42500 42.41400
C  49.61600 43.43800 41.92200
C  53.37000 45.78400 44.00000
C  50.45900 49.67800 44.83000
N  48.41100 45.50400 42.45800
C  47.30500 46.12200 42.01500
C  46.47700 45.24500 41.01400
C  47.16000 43.83700 41.28500
C  48.45800 44.20200 42.02200
C  46.26100 42.71500 41.97300
C  46.64100 45.93400 39.61700
C  45.25000 46.12900 38.89000
H  45.01100 44.94200 37.89100
N  51.26300 44.75400 43.24700
C  50.95500 43.65300 42.40500
C  52.03500 42.72000 42.44300
C  53.13700 43.44200 42.96300
C  52.62600 44.74400 43.40300
C  52.02500 41.34100 41.80500
C  54.55300 42.90800 43.05400
O  54.78200 41.80800 42.61300
C  55.68900 43.64400 43.58700
N  51.69600 47.54000 44.33300
C  52.95200 47.04600 44.38800
C  53.90800 48.11600 44.96700
C  52.93800 49.32900 45.32900
C  51.61500 48.87700 44.82000
C  54.72500 47.68800 46.13600
C  53.34600 50.67300 44.59200
C  53.32500 51.83000 45.48000
N  48.96200 48.20500 43.90300
C  49.18500 49.45600 44.37100
C  48.02500 50.33400 44.19700
C  47.11400 49.51000 43.52700
C  47.78300 48.26400 43.30100
C  47.83100 51.78000 44.58900
C  45.83400 49.50400 42.76900
O  44.93600 50.34700 42.66400
C  45.68900 48.15900 42.10100
C  44.46200 47.51900 42.60000
O  44.37400 46.81300 43.55300
O  43.51300 47.72900 41.68000
C  42.25000 46.95900 41.95700
H  49.40700 42.65400 41.19100
H  54.44300 45.63400 44.13800
H  50.66000 50.69200 45.18200
H  45.42900 45.30200 41.30700
H  47.47100 43.48400 40.30100
H  46.80100 42.40500 42.86800
H  46.04700 41.85400 41.34000
H  45.32200 43.21800 42.20600
H  47.26100 45.25400 39.03400
H  47.28100 46.81600 39.65800
H  45.24700 47.14000 38.48300
H  44.43600 46.04100 39.60900
H  51.01000 41.07700 41.50900
H  52.37400 40.57400 42.49600
H  52.65800 41.33700 40.91800
H  56.63700 43.10700 43.56200
H  55.47600 43.98200 44.60100
H  55.72900 44.54900 42.98200
H  54.55600 48.29000 44.10800
H  52.72600 49.52600 46.38000
H  54.52900 48.09100 47.12900
H  55.76000 47.95900 45.92600
H  54.80500 46.60100 46.11500
H  52.66400 50.93100 43.78200
H  54.34600 50.58100 44.16900
H  53.15300 51.58500 46.52700
H  52.52100 52.53700 45.27400
H  54.23100 52.42400 45.35900
H  46.77300 52.04100 44.54300
H  48.46800 52.27700 43.85700
H  48.12000 52.07700 45.59700
H  45.71000 48.25400 41.01600
H  41.63300 46.96300 41.05900
H  41.71400 47.42700 42.78200
H  42.48200 45.91400 42.16200
Mg 5.87400 55.58400 40.95500
C  4.32400 52.46100 41.10300
C  8.43000 54.15500 39.22100
C  7.16800 58.60300 40.71200
C  2.67300 57.04400 41.92600
N  6.10500 53.64600 39.94700
C  5.40300 52.50200 40.23600
C  5.88600 51.37000 39.29900
C  7.33300 51.81600 39.10500
C  7.30800 53.33300 39.44800
C  8.55000 51.03300 39.61200
C  4.97100 51.17500 37.98100
C  4.78000 49.75800 37.53200
H  5.43200 49.32300 36.21100
N  7.69100 56.23000 40.30900
C  8.69700 55.50900 39.64300
C  9.83700 56.35300 39.41300
C  9.53400 57.62100 39.92000
C  8.09700 57.58700 40.36100
C  11.23800 55.82500 39.05600
C  10.44400 58.91900 39.82200
O  11.60500 58.88500 39.40600
C  9.83900 60.24000 40.18300
N  4.92600 57.50000 41.15200
C  5.82000 58.62200 41.03300
C  5.07600 59.94500 41.33700
C  3.74500 59.40700 41.93400
C  3.75800 57.89200 41.75500
C  6.00100 60.96900 42.07200
C  2.49000 60.02100 41.26200
C  1.50600 60.79900 42.23400
N  3.84600 54.90600 41.45200
C  2.67900 55.62100 41.85200
C  1.66900 54.67000 42.10500
C  2.31600 53.39300 42.01000
C  3.57000 53.61400 41.50100
C  0.26900 54.94000 42.51200
C  2.18500 51.90800 42.20900
O  1.24900 51.28200 42.70000
C  3.53600 51.23500 41.64400
C  3.13000 50.16300 40.71600
O  2.36000 50.13000 39.77200
O  3.88500 49.00100 41.01500
C  3.54800 47.84500 40.18200
H  9.34000 53.70700 38.81800
H  7.40400 59.65400 40.53300
H  1.76700 57.46000 42.37300
H  6.05100 50.45900 39.87300
H  7.55000 51.82300 38.03600
H  8.21200 50.29800 40.34200
H  9.31500 51.69900 40.01200
H  8.99100 50.60000 38.71500
H  5.44700 51.68200 37.14100
H  3.99400 51.65700 38.03500
H  3.70200 49.62700 37.44700
H  5.05500 49.05000 38.31300
H  11.24500 54.74700 38.89800
H  12.04900 56.08600 39.73600
H  11.60800 56.40100 38.20800
H  10.56600 61.05000 40.23500
H  9.31800 60.12300 41.13400
H  9.10400 60.47600 39.41400
H  4.92500 60.33500 40.33000
H  3.78200 59.48000 43.02100
H  6.70600 60.31400 42.58400
H  5.50400 61.63700 42.77500
H  6.51700 61.72000 41.47400
H  1.81200 59.24800 40.90000
H  2.81500 60.70000 40.47400
H  1.90200 60.66100 43.24000
H  0.48700 60.42400 42.14300
H  1.51100 61.87600 42.06300
H  -0.27300 55.68100 41.92300
H  0.22100 55.07100 43.59300
H  -0.27200 54.01200 42.32600
H  4.01200 50.80500 42.52500
H  4.34800 47.10600 40.14900
H  3.41600 48.00400 39.11200
H  2.65600 47.38400 40.60600

