158

Mg 6.68100 53.74700 41.82600
C  6.22600 50.19800 41.58400
C  9.79400 53.13000 40.48800
C  7.21100 57.08200 41.78200
C  3.39600 54.15900 42.50600
N  7.85900 51.81000 41.16400
C  7.49000 50.55800 41.06900
C  8.56800 49.68800 40.47200
C  9.84200 50.60000 40.46700
C  9.09800 51.94100 40.69300
C  10.96200 50.39700 41.52700
C  8.14000 49.03500 39.19100
C  7.52900 49.94700 38.04600
H  6.94700 49.34700 36.75500
N  8.29700 54.94700 41.16800
C  9.44800 54.48400 40.55900
C  10.29700 55.63100 40.17200
C  9.69000 56.79200 40.72300
C  8.34700 56.34800 41.31500
C  11.65000 55.42600 39.36000
C  10.19900 58.17900 40.62400
O  11.28400 58.44400 40.10800
C  9.60400 59.29100 41.33900
N  5.51400 55.37100 42.14400
C  5.93300 56.68400 42.15400
C  4.87100 57.66500 42.65700
C  3.61500 56.70600 42.79800
C  4.20300 55.31700 42.46700
C  5.35700 58.28500 43.98400
C  2.34700 57.20000 41.94700
C  0.92400 56.89300 42.53100
N  5.12200 52.49400 42.27100
C  3.78100 52.75200 42.52300
C  3.09500 51.59300 42.74800
C  4.02600 50.52900 42.52400
C  5.22200 51.11400 42.11400
C  1.68000 51.44200 43.15400
C  4.22700 49.09100 42.48000
O  3.47000 48.23100 42.83700
C  5.57100 48.80300 41.83400
C  5.31200 48.11200 40.50900
O  4.95100 48.68400 39.45100
O  5.48600 46.73000 40.62400
C  5.31800 46.05600 39.37500
H  10.80100 52.96400 40.09700
H  7.46500 58.14400 41.81600
H  2.32600 54.30500 42.66600
H  8.69800 48.93400 41.24800
H  10.19000 50.53600 39.43600
H  10.72700 49.50200 42.10300
H  11.09900 51.23600 42.20800
H  11.94500 50.21400 41.09300
H  7.47100 48.20900 39.43400
H  9.10300 48.62000 38.89300
H  8.37400 50.52500 37.67300
H  6.89200 50.66100 38.56800
H  11.85100 56.28700 38.72200
H  11.66200 54.44800 38.87900
H  12.46800 55.32100 40.07300
H  8.84400 59.48200 40.58000
H  10.30500 60.12400 41.36800
H  9.35500 58.91800 42.33200
H  4.65200 58.48200 41.97000
H  3.39300 56.74600 43.86400
H  4.78100 57.89000 44.82100
H  5.05400 59.33000 44.05900
H  6.38500 58.03900 44.25200
H  2.36800 56.66000 41.00000
H  2.36800 58.26100 41.69500
H  0.42300 57.75900 42.96400
H  1.09000 56.11100 43.27100
H  0.42400 56.41500 41.68900
H  1.36100 52.17400 43.89600
H  1.33400 50.48900 43.55500
H  1.13900 51.74600 42.25800
H  6.24500 48.19800 42.44200
H  6.13900 46.34100 38.71700
H  4.37700 46.12500 38.83000
H  5.39100 44.98900 39.58700
Mg 1.16900 41.40000 26.52300
C  3.49200 42.16100 29.08400
C  -1.10400 40.85100 28.98400
C  -0.97900 41.04700 24.07300
C  3.72100 42.32600 24.17700
N  1.13800 41.65700 28.70200
C  2.15900 42.04600 29.51700
C  1.70200 42.19100 30.95900
C  0.37300 41.45400 31.01100
C  0.08800 41.26700 29.45700
C  0.42800 40.19700 31.87900
C  1.55800 43.72200 31.22100
C  1.09600 44.19400 32.66500
H  1.03300 43.11000 33.73800
N  -0.74900 40.86400 26.53500
C  -1.54400 40.64700 27.61500
C  -2.75600 40.10100 27.13300
C  -2.84300 40.24100 25.77400
C  -1.51300 40.76700 25.35900
C  -3.78800 39.68000 28.16800
C  -3.99600 40.03600 24.85400
O  -3.91000 40.20400 23.64100
C  -5.31500 39.64500 25.43300
N  1.40100 41.67800 24.44600
C  0.33000 41.35300 23.62100
C  0.69900 41.55500 22.12900
C  2.17200 42.08200 22.20400
C  2.46800 42.02000 23.68300
C  0.42000 40.17700 21.39000
C  2.55200 43.44800 21.59700
C  1.91900 44.70900 22.11600
N  3.18100 42.03400 26.59600
C  4.08500 42.34200 25.53600
C  5.43700 42.49900 26.16700
C  5.22400 42.49100 27.56400
C  3.89400 42.15100 27.75000
C  6.62200 42.90200 25.32000
C  5.88100 42.52700 28.83600
O  7.07000 42.66100 29.08100
C  4.68100 42.38900 29.90700
C  4.98100 41.36900 30.97800
O  4.88100 40.19200 30.85400
O  5.20100 41.95800 32.22400
C  4.95800 41.19200 33.46200
H  -1.77700 40.67200 29.82500
H  -1.67000 40.82300 23.25800
H  4.55000 42.49200 23.48500
H  2.40500 41.72900 31.65300
H  -0.41500 42.06800 31.44700
H  1.27200 40.21700 32.56800
H  0.53000 39.32400 31.23400
H  -0.43200 40.05300 32.53200
H  0.67900 44.01900 30.64900
H  2.33000 44.37100 30.80800
H  0.18100 44.77900 32.56800
H  1.80100 44.89700 33.10900
H  -4.16000 38.70000 27.87200
H  -4.49500 40.51000 28.16400
H  -3.41100 39.63000 29.18900
H  -5.87400 40.54400 25.69200
H  -5.28100 38.99600 26.30900
H  -5.78900 39.09000 24.62400
H  0.05900 42.37100 21.79100
H  2.72700 41.20900 21.85900
H  -0.43400 40.25100 20.71700
H  0.16600 39.37200 22.08000
H  1.29700 39.94400 20.78600
H  2.18800 43.47000 20.56900
H  3.63500 43.55500 21.54600
H  1.06200 44.50300 22.75700
H  1.78100 45.49400 21.37400
H  2.62400 45.23700 22.75900
H  6.28500 43.80900 24.81800
H  6.86100 42.07000 24.65800
H  7.41600 43.18500 26.01100
H  4.60800 43.34600 30.42300
H  3.90700 40.93500 33.59300
H  5.38500 41.65600 34.35100
H  5.51100 40.25300 33.47800

