158

Mg 1.93900 -2.20900 44.56200
C  5.41900 -1.49000 44.28700
C  1.35800 0.93400 43.02100
C  -1.28300 -3.01200 44.37400
C  2.73100 -5.33400 45.77500
N  3.29200 -0.52900 43.60400
C  4.69400 -0.48400 43.68900
C  5.21500 0.86500 43.25900
C  3.87500 1.66900 43.00600
C  2.75900 0.64500 43.19400
C  3.68000 2.88800 43.93500
C  6.14400 0.77100 41.93200
C  5.77100 -0.33400 40.86300
H  5.41300 0.05800 39.40600
N  0.37900 -1.23100 43.67700
C  0.28200 0.01600 43.05600
C  -1.02800 0.21900 42.56300
C  -1.76200 -0.94200 42.91800
C  -0.88400 -1.80000 43.71400
C  -1.38200 1.52000 41.80100
C  -3.12900 -1.22500 42.44100
O  -3.71000 -0.36000 41.79100
C  -3.87700 -2.44600 42.64900
N  0.87400 -3.98300 44.94400
C  -0.48600 -3.99300 44.95400
C  -1.04000 -5.36900 45.29400
C  0.21800 -6.17400 45.64900
C  1.35800 -5.19400 45.42000
C  -2.31300 -5.31700 46.21700
C  0.48300 -7.51200 44.98300
C  0.39300 -8.76300 45.84400
N  3.63600 -3.25800 45.09000
C  3.82000 -4.47200 45.63900
C  5.16500 -4.71700 45.91100
C  5.88400 -3.57100 45.43900
C  4.89900 -2.67600 44.88900
C  5.76100 -5.94200 46.51400
C  7.15400 -2.93300 45.24500
O  8.30200 -3.32100 45.39100
C  6.93300 -1.58500 44.50800
C  7.32700 -0.49200 45.47100
O  6.76200 -0.36700 46.54800
O  8.29600 0.28700 44.91700
C  8.62000 1.43000 45.75900
H  1.23800 1.95800 42.66100
H  -2.32200 -3.32500 44.25000
H  2.84300 -6.35600 46.14300
H  5.81900 1.34900 44.02700
H  3.85500 1.94300 41.95100
H  3.47400 3.79200 43.36200
H  4.59700 3.03900 44.50300
H  2.91200 2.64000 44.66800
H  7.17200 0.47300 42.13700
H  6.20200 1.75000 41.45600
H  4.93400 -0.87900 41.30100
H  6.65300 -0.97500 40.85600
H  -1.36100 1.44400 40.71400
H  -0.76900 2.39300 42.02500
H  -2.37200 1.91400 42.02800
H  -4.80600 -2.63500 42.11100
H  -4.05900 -2.56900 43.71600
H  -3.21800 -3.25300 42.32700
H  -1.40700 -5.86800 44.39700
H  0.09300 -6.27900 46.72600
H  -3.10700 -5.73600 45.59900
H  -2.60800 -4.31800 46.53700
H  -2.28200 -5.93800 47.11200
H  1.51200 -7.60000 44.63300
H  -0.01900 -7.61000 44.02000
H  -0.62200 -9.14500 45.72600
H  0.47100 -8.58900 46.91700
H  1.11900 -9.49800 45.49800
H  5.78300 -6.79300 45.83400
H  5.14100 -6.04700 47.40400
H  6.79000 -5.68100 46.76200
H  7.43000 -1.57400 43.53800
H  8.42100 1.26600 46.81800
H  8.06100 2.32100 45.47500
H  9.69800 1.58900 45.72800
Mg 36.46600 49.47000 24.73100
C  36.38600 47.86900 27.83600
C  34.96400 52.14600 26.18100
C  35.94900 50.84700 21.61700
C  37.46900 46.42900 23.25600
N  35.74000 49.94900 26.80500
C  35.95200 49.20000 27.91400
C  35.63600 50.01200 29.15000
C  34.93000 51.35500 28.59300
C  35.29900 51.15900 27.11400
C  33.39700 51.43100 28.88100
C  36.94500 50.28800 30.02500
C  36.76100 49.83900 31.52100
H  35.38100 49.75700 32.15600
N  35.75800 51.37800 24.02900
C  35.23800 52.30900 24.76300
C  34.92400 53.51000 23.89500
C  35.16200 53.10100 22.54900
C  35.64900 51.70200 22.70800
C  34.44900 54.81400 24.45100
C  34.93600 53.91600 21.24000
O  35.30900 53.45400 20.19200
C  34.23300 55.30800 21.23600
N  36.61000 48.71500 22.84000
C  36.31100 49.46300 21.71500
C  36.54600 48.63700 20.47900
C  37.43600 47.53400 20.93000
C  37.23500 47.56700 22.41900
C  35.17200 48.08100 19.95700
C  38.91900 47.50100 20.54900
C  39.47000 46.07500 20.30100
N  36.86100 47.51300 25.37600
C  37.25500 46.42400 24.65200
C  37.59500 45.38800 25.64000
C  37.30800 45.95200 26.88700
C  36.76700 47.23300 26.66800
C  38.26400 44.15500 25.26900
C  37.38200 45.69500 28.31800
O  37.78400 44.75900 28.99000
C  36.82200 46.96200 29.06900
C  35.64000 46.58700 29.97600
O  34.46600 46.59900 29.69300
O  36.14500 46.19800 31.23600
C  35.15300 45.74500 32.22400
H  34.49700 53.00600 26.66500
H  35.78600 51.17300 20.58700
H  37.65700 45.50500 22.70400
H  34.94600 49.38800 29.71900
H  35.40800 52.22800 29.03700
H  33.02800 52.34300 29.35200
H  33.24300 50.69400 29.66900
H  32.81900 51.27200 27.97100
H  36.97900 51.37700 30.04500
H  37.80700 49.84300 29.52700
H  37.54500 50.40700 32.02200
H  37.13600 48.81500 31.54300
H  34.76500 54.78400 25.49400
H  33.36700 54.80100 24.58200
H  34.74900 55.69900 23.89000
H  33.69900 55.49500 20.30500
H  35.08200 55.99100 21.21000
H  33.50000 55.44800 22.03000
H  36.89200 49.28700 19.67600
H  37.04500 46.54900 20.67500
H  34.60100 47.47700 20.66200
H  35.35800 47.47400 19.07100
H  34.54300 48.89400 19.59500
H  39.45100 48.00700 21.35500
H  38.94000 48.05700 19.61200
H  39.77500 46.14300 19.25700
H  38.69900 45.31900 20.44900
H  40.39900 45.78800 20.79300
H  37.79200 43.73000 24.38300
H  37.90700 43.46200 26.03000
H  39.34700 44.16300 25.14600
H  37.63500 47.39200 29.65400
H  34.91500 44.71600 31.95500
H  34.18400 46.24100 32.28000
H  35.63800 45.64400 33.19500

