158

Mg 36.68200 48.95100 24.63400
C  36.59400 47.43400 27.80300
C  36.08400 51.92800 26.22300
C  36.42200 50.23700 21.63300
C  37.07900 45.76000 23.26900
N  36.25100 49.54700 26.82900
C  36.36700 48.82800 27.92400
C  36.05200 49.62000 29.23700
C  35.81200 51.05300 28.69000
C  36.05500 50.85400 27.14900
C  34.46100 51.69400 29.07700
C  37.32800 49.52200 30.13000
C  37.03600 49.13700 31.61200
H  35.84500 49.77700 32.24800
N  36.24000 50.80300 23.96800
C  36.17500 51.92200 24.76000
C  36.10600 53.08100 23.92500
C  36.26000 52.66900 22.63400
C  36.26500 51.15400 22.67600
C  35.88100 54.47100 24.51800
C  36.28600 53.44700 21.38000
O  36.29000 52.88900 20.21300
C  36.33400 55.04600 21.30600
N  36.52900 48.08100 22.60800
C  36.55900 48.85700 21.60400
C  36.68100 48.02200 20.25000
C  37.05900 46.58500 20.79800
C  36.83200 46.77800 22.29000
C  35.40300 48.12000 19.34800
C  38.49600 46.18000 20.29800
C  39.64400 46.58400 21.25400
N  36.94500 47.07700 25.34000
C  37.10900 45.82100 24.70200
C  37.44600 44.76800 25.64400
C  37.12500 45.30100 26.86000
C  36.83700 46.69200 26.60800
C  37.82800 43.37600 25.27600
C  37.08400 44.97800 28.27400
O  37.29700 43.95200 28.90500
C  36.68200 46.42900 28.94700
C  35.42400 46.21900 29.72100
O  34.26400 46.29000 29.27500
O  35.71100 45.93500 31.05300
C  34.58700 45.81800 32.00000
H  35.99700 52.87000 26.76800
H  36.20400 50.53800 20.60700
H  37.24400 44.79500 22.78400
H  35.23600 49.10000 29.74000
H  36.54600 51.78900 29.01700
H  33.86400 51.95400 28.20300
H  34.57600 52.63700 29.61200
H  33.88200 51.14200 29.81800
H  37.80800 50.49600 30.22200
H  38.08900 48.84700 29.73700
H  37.89900 49.55900 32.12700
H  37.07900 48.04900 31.55900
H  36.89700 54.83400 24.66900
H  35.30700 54.46500 25.44500
H  35.44400 55.14500 23.78100
H  37.09400 55.50300 21.94000
H  35.33100 55.36100 21.59300
H  36.50600 55.23200 20.24600
H  37.57300 48.38800 19.74200
H  36.28100 45.84900 20.59400
H  34.58000 48.40600 20.00400
H  35.17200 47.12700 18.96300
H  35.41000 48.82300 18.51500
H  38.54400 46.52000 19.26400
H  38.50300 45.09400 20.20600
H  39.35000 47.16100 22.13100
H  40.35200 47.16800 20.66600
H  40.16400 45.66700 21.53100
H  38.40800 43.34400 24.35300
H  36.91900 42.78100 25.19500
H  38.52000 42.91600 25.98200
H  37.50300 46.66100 29.62500
H  34.74300 46.24200 32.99200
H  34.46300 44.81200 32.40100
H  33.61900 46.16800 31.64000
Mg 9.46900 47.08200 27.28100
C  7.38800 46.74500 29.92400
C  12.09900 47.71800 29.50400
C  11.46600 47.93400 24.71900
C  6.77000 47.27600 25.20200
N  9.62900 47.49100 29.44900
C  8.72400 46.98800 30.31600
C  9.18900 47.10300 31.83900
C  10.58000 47.70000 31.65800
C  10.78300 47.67500 30.11700
C  10.65900 49.22800 32.10300
C  9.28000 45.72600 32.67200
C  10.24500 45.55200 33.84800
H  9.58300 44.78200 35.03600
N  11.53900 47.50200 27.10500
C  12.49500 47.65300 28.11900
C  13.83700 47.84300 27.65400
C  13.64900 47.91700 26.22700
C  12.17900 47.80300 25.97800
C  15.15600 47.92100 28.47400
C  14.67300 48.08700 25.15400
O  14.45300 48.09500 23.95200
C  16.17000 48.26500 25.60100
N  9.10200 47.80000 25.31400
C  10.13400 47.99000 24.39100
C  9.63300 48.32000 23.04600
C  8.08100 47.94300 23.19200
C  7.94300 47.56900 24.60100
C  9.86400 49.83200 22.61300
C  7.63400 46.70100 22.22800
C  6.74800 47.13800 21.05800
N  7.47900 47.04700 27.45500
C  6.46500 47.02200 26.57600
C  5.10800 46.73800 27.19200
C  5.52100 46.64500 28.47200
C  6.89600 46.82000 28.61600
C  3.75500 46.63300 26.51600
C  4.97100 46.47500 29.77800
O  3.76200 46.26400 29.99500
C  6.11200 46.61000 30.82600
C  6.14200 45.47900 31.69400
O  6.84900 44.45700 31.52400
O  5.13900 45.62800 32.63100
C  5.05500 44.51400 33.65200
H  13.00400 47.84000 30.10300
H  11.95900 48.15000 23.76800
H  5.90300 47.23500 24.54000
H  8.52800 47.77300 32.38900
H  11.39100 47.09400 32.06300
H  11.59100 49.46000 32.61800
H  9.83600 49.64200 32.68500
H  10.68500 49.78300 31.16500
H  9.36800 44.86700 32.00700
H  8.32500 45.66900 33.19400
H  10.61700 46.46700 34.30700
H  11.05100 44.85000 33.63700
H  15.05000 47.70300 29.53600
H  15.73500 48.84500 28.45500
H  15.79000 47.10700 28.12100
H  16.75600 48.51500 24.71600
H  16.59200 47.33400 25.97900
H  16.18300 48.98600 26.41800
H  9.97800 47.79100 22.15700
H  7.62000 48.88500 22.89700
H  9.09000 50.59700 22.56000
H  10.35600 49.80100 21.64100
H  10.56800 50.23400 23.34200
H  7.08100 45.96700 22.81400
H  8.53400 46.22800 21.83600
H  6.82000 48.19200 20.79100
H  5.75100 46.95700 21.46000
H  6.96900 46.42400 20.26400
H  3.96600 46.23500 25.52400
H  3.30700 47.61100 26.34000
H  3.01600 46.06900 27.08500
H  5.83100 47.42100 31.49900
H  4.59600 43.67700 33.12500
H  4.25100 44.80000 34.33000
H  6.02800 44.39600 34.13000

