158

Mg 48.12700 16.57800 28.60100
C  46.31900 16.46600 31.55400
C  50.56400 18.41500 30.13700
C  49.57900 17.23800 25.52900
C  45.47600 15.08000 26.81600
N  48.46800 17.34200 30.66600
C  47.55600 17.12400 31.70500
C  48.08800 17.67400 33.00700
C  49.46700 18.30300 32.53400
C  49.52300 18.00100 31.01400
C  49.41500 19.83600 32.75100
C  48.36900 16.38500 34.02800
C  47.79300 16.51700 35.44700
H  47.54400 18.00200 35.96200
N  50.00500 17.42000 27.94300
C  50.80200 18.13800 28.77800
C  51.95500 18.58300 28.00200
C  51.73400 18.21400 26.63700
C  50.38900 17.54300 26.63800
C  53.12100 19.34900 28.65700
C  52.60300 18.49500 25.39800
O  52.31000 18.07300 24.29300
C  53.95200 19.21000 25.57000
N  47.62600 16.23500 26.47800
C  48.37100 16.64500 25.44200
C  47.70000 16.23400 24.08300
C  46.45600 15.44900 24.53300
C  46.58200 15.48400 26.03900
C  47.42900 17.52400 23.23700
C  46.21900 13.96700 24.01300
C  45.40600 13.75300 22.71400
N  46.29700 15.87300 29.11400
C  45.29900 15.28000 28.23700
C  44.12600 15.00000 29.08200
C  44.57700 15.43500 30.36700
C  45.83200 15.95300 30.32500
C  42.80800 14.42800 28.55300
C  44.15600 15.52400 31.73500
O  43.07300 15.20400 32.14600
C  45.24900 16.09900 32.61200
C  44.67800 17.29000 33.25900
O  44.75000 18.43000 32.90500
O  43.98600 16.88300 34.35000
C  43.45800 17.97300 35.13900
H  51.17300 19.18900 30.60800
H  50.06900 17.40500 24.56800
H  44.62200 14.52700 26.41700
H  47.38000 18.38300 33.43600
H  50.21100 17.84700 33.18600
H  49.50600 19.99100 33.82600
H  48.46700 20.35700 32.62200
H  50.15100 20.39500 32.17300
H  49.42000 16.11200 34.11900
H  47.88700 15.52400 33.56500
H  48.49800 16.13400 36.18500
H  46.83200 16.00400 35.47300
H  53.96700 18.68500 28.83400
H  52.69100 19.85300 29.52300
H  53.41200 20.20000 28.04100
H  53.90700 20.20200 26.01900
H  54.24800 19.36700 24.53400
H  54.69500 18.65000 26.13800
H  48.41000 15.51500 23.67500
H  45.55600 15.95500 24.18300
H  47.57100 18.47600 23.74900
H  46.45800 17.51600 22.74200
H  48.09400 17.50000 22.37500
H  45.96700 13.27900 24.82000
H  47.19400 13.62300 23.66900
H  44.34800 13.52400 22.83600
H  45.79700 12.99100 22.04000
H  45.43400 14.74600 22.26600
H  42.65500 14.54600 27.48000
H  41.99600 14.96400 29.04400
H  42.87900 13.34900 28.68800
H  45.58100 15.32000 33.29900
H  42.50000 18.26600 34.71100
H  44.02200 18.89300 35.29000
H  43.33800 17.60400 36.15800
Mg 1.26800 42.71800 26.20600
C  2.69500 42.65800 29.33200
C  -1.59700 41.48700 27.63100
C  -0.00300 42.48700 23.14500
C  4.54800 43.33900 24.84800
N  0.60600 42.20500 28.24300
C  1.28900 42.54400 29.40000
C  0.45000 42.39300 30.64800
C  -0.91700 41.92700 30.07700
C  -0.64100 41.78600 28.54200
C  -1.62500 40.59100 30.63800
C  0.50300 43.69400 31.50900
C  0.75800 43.55200 33.07800
H  0.36200 42.22200 33.67000
N  -0.62100 42.06900 25.46600
C  -1.64200 41.55200 26.19000
C  -2.66600 41.14100 25.33100
C  -2.14600 41.20100 23.98800
C  -0.91500 41.98600 24.14800
C  -3.94800 40.51000 25.89200
C  -2.69500 40.68600 22.68400
O  -2.12600 40.92000 21.67100
C  -3.97000 39.88400 22.54300
N  2.20200 43.06200 24.31700
C  1.34900 42.90800 23.24700
C  2.16500 43.15300 21.97300
C  3.48900 43.72700 22.50800
C  3.50500 43.30100 23.98000
C  2.26800 41.88000 21.07500
C  3.65900 45.21300 22.28000
C  2.39800 46.08200 22.50000
N  3.18300 42.97000 26.88600
C  4.43200 43.27200 26.27200
C  5.43300 43.33300 27.27300
C  4.80400 43.04400 28.45500
C  3.43600 42.88700 28.19400
C  6.89900 43.46100 27.06600
C  5.04100 43.07300 29.84800
O  6.07300 43.18900 30.46200
C  3.65900 42.79900 30.54800
C  3.94700 41.53300 31.28400
O  4.18100 40.45500 30.74600
O  4.09000 41.83400 32.54700
C  4.44900 40.73400 33.44800
H  -2.52200 41.13700 28.09500
H  -0.28900 42.20000 22.13100
H  5.57800 43.54300 24.54700
H  0.90800 41.55200 31.16700
H  -1.67700 42.70200 30.17300
H  -1.63000 39.75200 29.94300
H  -2.62300 40.80900 31.02000
H  -0.96900 40.22400 31.42700
H  -0.39700 44.26700 31.28600
H  1.31200 44.30200 31.10300
H  0.13800 44.30000 33.57200
H  1.81700 43.66200 33.31000
H  -3.99500 39.44600 25.66000
H  -4.78200 41.11600 25.53900
H  -4.06300 40.73500 26.95200
H  -4.21000 39.38300 23.48100
H  -3.89100 39.22000 21.68100
H  -4.87300 40.48500 22.43500
H  1.64300 43.86400 21.33200
H  4.33200 43.20200 22.05900
H  1.77900 40.97300 21.43000
H  3.32000 41.64700 20.91000
H  1.77800 42.17300 20.14600
H  3.97300 45.28300 21.23900
H  4.53200 45.60200 22.80400
H  1.50800 45.55400 22.84300
H  2.02800 46.56500 21.59500
H  2.68000 46.78300 23.28500
H  7.19800 43.84700 26.09100
H  7.34700 42.51400 27.36800
H  7.20200 44.18200 27.82500
H  3.43700 43.67400 31.15800
H  4.12600 41.01300 34.45200
H  5.53400 40.69600 33.53700
H  4.14200 39.72200 33.18700

