158

Mg 34.41100 2.86400 29.20300
C  32.43100 4.11800 31.72900
C  37.05800 2.46300 31.67600
C  36.59700 2.49400 26.72800
C  31.96500 3.74100 26.86100
N  34.70600 3.20900 31.48300
C  33.70300 3.69100 32.24200
C  34.09500 3.66100 33.74900
C  35.60100 3.40000 33.63400
C  35.83700 3.05900 32.19600
C  36.45500 4.71900 34.00500
C  33.27600 2.67600 34.60000
C  33.07500 3.26500 36.02200
H  34.05800 4.28400 36.58600
N  36.45800 2.30900 29.18000
C  37.30300 2.19200 30.28200
C  38.60400 1.79300 29.78300
C  38.65900 1.99500 28.36700
C  37.20800 2.31400 28.00900
C  39.74800 1.55000 30.67300
C  39.80000 1.86600 27.33800
O  39.56900 1.99900 26.11600
C  41.23300 1.54700 27.63600
N  34.26500 3.13700 27.18700
C  35.26800 2.81600 26.37700
C  34.97700 3.00800 24.90800
C  33.47300 3.08100 24.90800
C  33.17400 3.25400 26.41800
C  35.74300 4.10700 24.28600
C  32.66000 1.84400 24.35400
C  32.32500 0.64500 25.14200
N  32.56900 3.77800 29.21800
C  31.64200 3.93900 28.21900
C  30.36900 4.42500 28.75600
C  30.59100 4.47200 30.14700
C  31.99000 4.15200 30.35300
C  29.18400 4.65900 27.94100
C  30.05100 4.84700 31.41000
O  28.94200 5.27600 31.73000
C  31.21400 4.55200 32.50300
C  31.31300 5.82800 33.21100
O  32.11500 6.69700 32.99500
O  30.37500 5.93200 34.22900
C  30.46200 7.04900 35.18000
H  37.77500 2.30600 32.48500
H  37.22500 2.46600 25.83400
H  31.25400 3.92100 26.05300
H  33.86000 4.66800 34.09600
H  36.00500 2.63100 34.29200
H  36.92100 4.43200 34.94700
H  35.83300 5.56100 34.30800
H  37.08900 4.93700 33.14500
H  33.95800 1.84800 34.79000
H  32.32800 2.38700 34.14500
H  33.09800 2.43400 36.72600
H  32.15100 3.84000 35.97300
H  40.14000 0.56900 30.40500
H  39.53800 1.53100 31.74200
H  40.43200 2.39500 30.59500
H  41.53100 2.12200 28.51200
H  41.93700 1.77400 26.83500
H  41.33200 0.48400 27.85900
H  35.16000 2.06600 24.39100
H  33.07200 4.02500 24.53800
H  36.44000 4.67200 24.90600
H  35.03900 4.74700 23.75400
H  36.35100 3.58600 23.54700
H  33.27600 1.41500 23.56400
H  31.79100 2.29500 23.87400
H  31.23600 0.61600 25.11400
H  32.54700 0.82100 26.19400
H  32.81500 -0.25100 24.76300
H  29.32200 5.42400 27.17700
H  28.26300 4.67700 28.52300
H  29.04700 3.70800 27.42500
H  30.95300 3.84000 33.28600
H  29.55000 7.10200 35.77400
H  30.54600 7.92000 34.53000
H  31.34000 6.97700 35.82200
Mg 17.18900 51.96700 25.96600
C  18.55100 50.73700 28.79900
C  14.36300 53.03400 27.85300
C  15.62500 53.10600 23.25300
C  19.63300 50.54400 23.97900
N  16.48000 51.81400 28.04700
C  17.29200 51.36200 29.06300
C  16.60400 51.55600 30.51300
C  15.29900 52.28500 30.10000
C  15.40400 52.43800 28.55900
C  13.97800 51.48200 30.57000
C  17.51300 52.44400 31.50300
C  17.76700 51.73300 32.80500
H  17.08100 52.41900 33.99000
N  15.24200 53.10200 25.67300
C  14.25300 53.43900 26.51500
C  13.21500 54.13700 25.82100
C  13.62000 54.22200 24.43300
C  14.85700 53.45200 24.43500
C  11.99900 54.66200 26.52500
C  12.99100 54.94000 23.28600
O  13.44100 54.92100 22.17100
C  11.83500 55.84800 23.48400
N  17.53100 51.72800 23.95200
C  16.77500 52.37500 23.00800
C  17.37500 52.30700 21.56400
C  18.82700 51.73400 21.82400
C  18.64800 51.29300 23.31600
C  16.57500 51.38900 20.54600
C  19.93700 52.70400 21.64400
C  19.77700 54.21600 21.97000
N  18.73300 50.78800 26.27600
C  19.68400 50.26600 25.40800
C  20.64000 49.48200 26.14900
C  20.30000 49.69300 27.46600
C  19.07700 50.42600 27.46800
C  21.76900 48.72900 25.63300
C  20.66100 49.38700 28.85700
O  21.61500 48.67300 29.28800
C  19.47000 50.01800 29.74400
C  18.81300 48.98700 30.59800
O  17.92300 48.18600 30.32600
O  19.45900 49.08600 31.80400
C  18.92000 48.33600 32.91500
H  13.59500 53.42000 28.52700
H  15.37900 53.72000 22.38400
H  20.50600 50.14300 23.46000
H  16.30300 50.58900 30.91500
H  15.25500 53.28000 30.54200
H  13.60800 50.83500 29.77400
H  13.29400 52.22200 30.98400
H  14.17400 50.87600 31.45400
H  17.02400 53.40200 31.68100
H  18.45800 52.60200 30.98300
H  18.84200 51.63300 32.95700
H  17.30600 50.74600 32.79900
H  11.94900 55.73400 26.71400
H  11.75700 54.22500 27.49400
H  11.22500 54.43200 25.79200
H  11.97500 56.48500 24.35700
H  10.95900 55.20200 23.54800
H  11.58100 56.39500 22.57600
H  17.41800 53.24100 21.00300
H  19.01900 50.94000 21.10200
H  17.00800 50.41400 20.31900
H  16.25000 51.84600 19.61100
H  15.63000 51.04400 20.96600
H  20.31100 52.70400 20.62000
H  20.78700 52.36800 22.23800
H  19.80500 54.79300 21.04600
H  20.65200 54.55100 22.52900
H  18.85400 54.46400 22.49400
H  22.30700 49.40000 24.96400
H  21.61500 47.88700 24.95800
H  22.43900 48.33300 26.39600
H  19.95200 50.78900 30.34600
H  19.80500 47.76400 33.19100
H  18.14600 47.57400 32.82400
H  18.72900 49.09700 33.67200

