158

Mg 47.96300 16.06600 28.19100
C  45.75400 15.85500 31.07700
C  49.91500 18.24100 30.19400
C  49.90500 16.70600 25.55200
C  45.67100 14.27400 26.37900
N  47.79600 16.99400 30.35700
C  46.89500 16.57300 31.38600
C  47.38000 17.16300 32.78900
C  48.54100 18.15700 32.32700
C  48.74900 17.75200 30.90300
C  48.28500 19.69100 32.39800
C  47.93300 16.10800 33.81300
C  47.69800 16.48600 35.27500
H  47.28000 17.90000 35.62500
N  49.67300 17.28800 27.91600
C  50.31900 18.04400 28.88800
C  51.50300 18.57800 28.38100
C  51.45100 18.30800 26.90300
C  50.30300 17.35800 26.72200
C  52.44000 19.45100 29.16900
C  52.34000 18.92000 25.76400
O  52.16400 18.69600 24.56400
C  53.52700 19.77800 26.12800
N  47.76300 15.61000 26.25700
C  48.74500 15.91800 25.35000
C  48.38800 15.35100 24.00200
C  47.21600 14.44000 24.28600
C  46.86700 14.74300 25.75000
C  48.16600 16.45000 22.99400
C  47.58900 12.92500 24.05100
C  46.96400 12.28700 22.79100
N  46.00100 15.27300 28.50500
C  45.20700 14.54300 27.64900
C  43.99200 14.16300 28.34800
C  44.13700 14.66000 29.70800
C  45.42700 15.32900 29.75800
C  42.87000 13.38700 27.75500
C  43.51900 14.70600 31.05200
O  42.46700 14.30900 31.48600
C  44.58500 15.38800 31.98500
C  44.00100 16.64100 32.62600
O  43.95900 17.69500 32.09900
O  43.53600 16.37500 33.87100
C  43.07300 17.55700 34.64000
H  50.59300 18.88900 30.75300
H  50.45000 16.97100 24.64400
H  45.12500 13.54500 25.77700
H  46.55100 17.80500 33.08300
H  49.46100 18.02000 32.89600
H  48.17100 20.12600 31.40500
H  49.16000 20.13200 32.87600
H  47.42600 19.94300 33.02100
H  49.00700 15.94100 33.72500
H  47.50500 15.12100 33.64000
H  48.63800 16.37100 35.81400
H  46.94200 15.81500 35.68400
H  52.94900 18.93000 29.98000
H  51.92400 20.22600 29.73500
H  53.29500 19.87700 28.64500
H  53.26600 20.75100 26.54500
H  53.98600 19.92400 25.15000
H  54.06800 19.16600 26.85000
H  49.25000 14.76100 23.69100
H  46.42200 14.73700 23.60000
H  48.94700 16.24300 22.26200
H  48.29500 17.46000 23.38500
H  47.30100 16.26900 22.35600
H  47.28100 12.31500 24.90000
H  48.67400 12.83100 24.01400
H  46.50000 11.34300 23.07600
H  47.75700 12.16900 22.05200
H  46.22100 12.89600 22.27500
H  43.11500 13.03800 26.75200
H  42.01900 14.05200 27.61000
H  42.62400 12.51400 28.35900
H  44.83400 14.66600 32.76300
H  42.01600 17.82500 34.63900
H  43.59100 18.49400 34.43700
H  43.49100 17.38600 35.63200
Mg 30.73100 58.52600 39.37800
C  28.06000 56.46300 38.50600
C  32.87200 55.89900 38.60200
C  33.30300 60.78800 39.43200
C  28.46800 61.30700 39.51200
N  30.50000 56.50200 38.60200
C  29.34600 55.90200 38.31200
C  29.46700 54.45200 37.76100
C  31.02400 54.15600 38.11400
C  31.52400 55.55300 38.51700
C  31.23500 53.19100 39.39200
C  29.18600 54.44600 36.21100
C  29.46000 55.76400 35.37600
H  28.37500 56.27200 34.38900
N  32.82500 58.35400 38.98600
C  33.50600 57.13900 38.67900
C  34.86100 57.44800 38.59100
C  35.04500 58.88900 38.88500
C  33.72800 59.43000 39.09300
C  35.96000 56.39500 38.39100
C  36.38600 59.51600 38.99700
O  37.46400 58.94100 38.79200
C  36.46100 61.02500 39.15300
N  30.81900 60.68800 39.43700
C  32.04200 61.34400 39.53400
C  31.89500 62.80100 39.80900
C  30.33100 62.96600 39.89200
C  29.79200 61.63700 39.53400
C  32.65500 63.29400 41.20400
C  29.71500 64.10900 39.03200
C  28.48500 64.75300 39.61100
N  28.63500 58.86200 39.11600
C  27.90300 60.05100 39.22900
C  26.49100 59.65200 39.03400
C  26.54200 58.26500 38.69200
C  27.84200 57.83600 38.87100
C  25.22900 60.52500 38.99400
C  25.74700 57.06900 38.27500
O  24.51400 56.96300 38.15700
C  26.65000 55.86400 38.24900
C  26.11300 54.89300 39.30500
O  26.26300 55.05200 40.48900
O  25.25000 54.03000 38.78600
C  24.35100 53.28100 39.70100
H  33.49000 55.06400 38.26600
H  34.05000 61.57900 39.51400
H  27.68900 62.07200 39.51500
H  28.72500 53.82400 38.25400
H  31.61300 53.73500 37.30000
H  31.71000 52.32100 38.93900
H  30.29700 52.72600 39.69500
H  31.68400 53.53300 40.32400
H  28.15300 54.10200 36.15100
H  29.86500 53.68400 35.82800
H  30.33100 55.54700 34.75800
H  29.70900 56.61600 36.00900
H  35.64300 55.46700 37.91600
H  36.43100 56.30600 39.37000
H  36.65500 56.78200 37.64500
H  35.85600 61.25300 40.03100
H  36.15700 61.53900 38.24100
H  37.49300 61.35100 39.27600
H  32.31300 63.31600 38.94400
H  29.99700 63.17400 40.90800
H  32.90300 62.45500 41.85400
H  32.08500 63.96200 41.85000
H  33.60800 63.75600 40.94400
H  29.49100 63.79000 38.01400
H  30.40500 64.95100 38.98600
H  27.82200 64.91700 38.76200
H  28.81900 65.67200 40.09300
H  28.04000 64.03900 40.30300
H  25.19700 60.91100 40.01300
H  24.35900 59.93700 38.70400
H  25.38000 61.38300 38.33800
H  26.58100 55.36500 37.28200
H  24.86200 53.13900 40.65300
H  24.12900 52.32500 39.22600
H  23.36100 53.73500 39.73800

