158

Mg 48.65400 46.77200 42.44500
C  45.41000 46.82800 41.16600
C  48.97600 43.49900 41.06900
C  51.92100 46.84600 42.95900
C  48.48000 50.21000 42.94300
N  47.44500 45.47600 41.12500
C  46.11800 45.65400 40.82600
C  45.52500 44.45900 40.13100
C  46.49100 43.30900 40.37600
C  47.74700 44.12800 40.90700
C  45.98200 42.23700 41.38500
C  45.34200 44.83700 38.65800
C  43.90700 44.56900 38.05400
H  43.96600 43.66800 36.76600
N  50.24100 45.39300 42.11100
C  50.17300 44.09600 41.57100
C  51.52000 43.49000 41.46200
C  52.46500 44.42100 42.04700
C  51.55600 45.62300 42.33900
C  51.76200 42.05000 40.90400
C  53.93900 44.21500 42.21000
O  54.46800 43.11900 41.93000
C  54.80600 45.31700 42.72200
N  50.02700 48.39400 42.95900
C  51.31100 48.08000 43.20100
C  52.05100 49.30200 43.75300
C  51.03500 50.48800 43.34200
C  49.74800 49.69600 43.15800
C  52.36700 49.03400 45.22300
C  51.40600 51.28100 42.05000
C  52.68800 52.24300 42.24400
N  47.18000 48.19000 42.33700
C  47.27700 49.55000 42.62000
C  45.89400 50.04500 42.46300
C  45.13500 49.01700 41.91300
C  45.98600 47.91700 41.81100
C  45.57100 51.39500 42.99200
C  43.78900 48.66600 41.49900
O  42.73500 49.35800 41.39600
C  43.90900 47.16900 41.09500
C  43.15100 46.38600 42.07300
O  43.61700 45.88100 43.06500
O  41.84400 46.15500 41.55700
C  41.02600 45.14800 42.19100
H  49.06400 42.47000 40.71600
H  52.96900 46.83800 43.26700
H  48.33400 51.29000 42.88100
H  44.53400 44.18800 40.49700
H  46.70900 42.81700 39.42800
H  46.11500 42.62200 42.39600
H  46.61400 41.38300 41.14300
H  44.96400 41.99500 41.08000
H  46.01400 44.25900 38.02300
H  45.58300 45.88800 38.50200
H  43.44300 45.54600 37.91900
H  43.24700 44.03800 38.74000
H  52.45500 41.49800 41.53900
H  52.19100 42.15500 39.90700
H  50.85200 41.45200 40.86600
H  54.50900 46.23800 42.22000
H  55.84900 45.06000 42.53500
H  54.72100 45.50100 43.79200
H  52.90200 49.45800 43.09100
H  50.93500 51.13200 44.21500
H  51.90200 49.67600 45.97100
H  53.42800 49.19900 45.40700
H  52.02700 48.01200 45.39000
H  50.62400 52.01000 41.83900
H  51.45200 50.64300 41.16800
H  53.35900 52.06700 41.40400
H  53.04700 52.13000 43.26700
H  52.39400 53.28000 42.08600
H  46.22000 51.74500 43.79400
H  44.55800 51.53800 43.36800
H  45.75100 52.09800 42.17900
H  43.33600 47.03000 40.17800
H  40.41500 45.63200 42.95200
H  41.57100 44.43600 42.81200
H  40.41800 44.78600 41.36200
Mg -12.23100 16.56000 43.02000
C  -9.57900 14.37800 42.19400
C  -10.77800 19.01900 41.26700
C  -15.28100 17.87000 42.98100
C  -13.87000 13.44000 44.29500
N  -10.30500 16.61500 41.93200
C  -9.42700 15.67700 41.73100
C  -8.17200 16.28500 41.04800
C  -8.49400 17.81800 41.16700
C  -9.99100 17.90500 41.44600
C  -7.80600 18.44700 42.27500
C  -7.74600 15.83000 39.62000
C  -6.23700 15.55600 39.39600
H  -5.68100 16.53100 38.27900
N  -13.00300 18.29200 42.28400
C  -12.17600 19.22200 41.60300
C  -13.02000 20.27200 41.17100
C  -14.38800 19.94000 41.55100
C  -14.29300 18.63500 42.30500
C  -12.56700 21.45400 40.32100
C  -15.63000 20.75300 41.32600
O  -15.53500 21.85100 40.87100
C  -17.06600 20.32200 41.61800
N  -14.32200 15.71100 43.52700
C  -15.37300 16.56300 43.41500
C  -16.66200 15.78200 43.60900
C  -16.26800 14.42900 44.26500
C  -14.72700 14.55000 44.05000
C  -17.71700 16.58900 44.44700
C  -16.99400 13.22700 43.73000
C  -18.21200 12.65700 44.47600
N  -11.78900 14.34800 43.35900
C  -12.49900 13.30500 43.92500
C  -11.79600 12.04600 43.74700
C  -10.59400 12.46100 43.15300
C  -10.68100 13.86600 42.96500
C  -12.17800 10.61200 44.12500
C  -9.29400 11.98000 42.62500
O  -8.78200 10.85100 42.70900
C  -8.57900 13.24600 42.05900
C  -7.29400 13.49800 42.73800
O  -7.23900 13.98400 43.86500
O  -6.18800 13.16800 41.91800
C  -4.88700 13.72500 42.35600
H  -10.26700 19.79800 40.69600
H  -16.22300 18.41100 43.08300
H  -14.37600 12.58200 44.74200
H  -7.45000 15.98000 41.80500
H  -8.14800 18.36500 40.29100
H  -6.80800 18.82800 42.05800
H  -7.67100 17.79700 43.14000
H  -8.42400 19.24200 42.69300
H  -8.06700 16.62000 38.94100
H  -8.40600 15.01600 39.31800
H  -6.32900 14.49300 39.17700
H  -5.71400 15.67600 40.34500
H  -12.99100 21.33700 39.32300
H  -11.48300 21.52200 40.23000
H  -12.78500 22.36600 40.87600
H  -17.34500 20.46700 42.66200
H  -17.33800 19.31100 41.31500
H  -17.64400 20.90200 40.89900
H  -17.02400 15.55200 42.60700
H  -16.32800 14.51100 45.35100
H  -18.43000 16.96500 43.71300
H  -17.28700 17.30400 45.14800
H  -18.18400 15.81300 45.05400
H  -16.26700 12.46000 43.46600
H  -17.38200 13.41200 42.72800
H  -18.14500 12.85700 45.54500
H  -18.32600 11.57600 44.39500
H  -19.16700 13.11900 44.22500
H  -11.50500 10.45300 44.96800
H  -11.96400 9.92900 43.30300
H  -13.20900 10.57200 44.47400
H  -8.51700 13.00800 40.99700
H  -4.60300 13.12700 43.22200
H  -4.99000 14.74100 42.73700
H  -4.18600 13.70400 41.52200

