158

Mg -1.80400 17.12300 27.07400
C  -2.68200 14.96000 29.81600
C  -2.37000 19.71200 29.23700
C  -1.75600 19.10000 24.38500
C  -1.54100 14.27300 25.06900
N  -2.31600 17.21800 29.28900
C  -2.64700 16.29100 30.19300
C  -3.03700 16.86500 31.50000
C  -2.93000 18.43000 31.28300
C  -2.52700 18.45300 29.81200
C  -4.18000 19.24400 31.76400
C  -2.26100 16.31500 32.78500
C  -2.19400 17.19700 33.92700
H  -1.53500 16.55400 35.17100
N  -1.92400 19.11600 26.85200
C  -2.16500 20.02300 27.88700
C  -2.16400 21.35000 27.32300
C  -2.04000 21.20200 25.87000
C  -1.94000 19.75400 25.64500
C  -2.41700 22.57800 28.14000
C  -2.07200 22.21100 24.84000
O  -2.09200 21.96500 23.63300
C  -2.09900 23.68600 25.23700
N  -1.78700 16.75100 24.97900
C  -1.65700 17.76000 24.12400
C  -1.34500 17.24000 22.64800
C  -0.95800 15.68300 22.97100
C  -1.35300 15.54500 24.44100
C  -2.48800 17.37700 21.62900
C  0.52200 15.38400 22.59800
C  1.60400 15.29900 23.68200
N  -2.14800 15.00200 27.31900
C  -1.91700 14.03800 26.39600
C  -2.21600 12.73500 27.03500
C  -2.58400 13.05900 28.34600
C  -2.38900 14.43100 28.49700
C  -2.29000 11.41800 26.29400
C  -3.04900 12.53200 29.61500
O  -3.31900 11.39000 29.96600
C  -2.96500 13.70600 30.68100
C  -1.85400 13.39200 31.59800
O  -0.66600 13.37600 31.29700
O  -2.37900 13.05800 32.79900
C  -1.35200 12.96800 33.85900
H  -2.57500 20.46500 30.00100
H  -1.70200 19.78500 23.53600
H  -1.54600 13.45300 24.34800
H  -4.09600 16.64000 31.61700
H  -2.10700 18.76900 31.91300
H  -3.98100 19.95400 32.56700
H  -4.98800 18.57900 32.06800
H  -4.53500 19.90500 30.97400
H  -1.28300 15.88100 32.57900
H  -2.92800 15.57000 33.22000
H  -3.17600 17.63500 34.10600
H  -1.47100 17.97200 33.67000
H  -2.47300 22.29200 29.19000
H  -3.33100 23.06100 27.79300
H  -1.62100 23.31900 28.07200
H  -3.04900 23.95100 25.70200
H  -2.16000 24.33900 24.36700
H  -1.31300 24.01900 25.91500
H  -0.52400 17.83700 22.25200
H  -1.66900 14.99400 22.51500
H  -2.30600 16.53300 20.96400
H  -2.25500 18.33800 21.17000
H  -3.46600 17.34700 22.10900
H  0.92400 16.19800 21.99600
H  0.66400 14.48000 22.00600
H  1.14800 15.58300 24.63000
H  2.31300 16.10100 23.47400
H  2.10600 14.33400 23.62100
H  -1.65000 11.51300 25.41700
H  -3.27600 11.28700 25.84900
H  -1.93200 10.72000 27.05100
H  -3.90800 13.85700 31.20600
H  -0.88900 11.98100 33.85000
H  -1.78000 13.24700 34.82200
H  -0.54700 13.70300 33.88200
Mg 17.83100 52.82200 26.48200
C  19.53900 51.03200 28.85500
C  15.36000 53.47700 28.73700
C  16.06500 54.21400 23.93300
C  20.18300 51.71600 24.03400
N  17.47800 52.28400 28.57300
C  18.36500 51.62000 29.36100
C  17.94700 51.69900 30.79400
C  16.46800 52.15000 30.68400
C  16.36000 52.69800 29.25000
C  15.39900 51.05100 31.17200
C  18.92400 52.66500 31.57700
C  18.77200 52.70800 33.09200
H  17.58400 51.97800 33.81600
N  16.06100 53.86300 26.36600
C  15.18500 54.01400 27.43400
C  14.05500 54.74400 26.96300
C  14.30300 55.05800 25.61200
C  15.50000 54.37800 25.20500
C  12.84100 55.05400 27.86600
C  13.41700 56.01000 24.69200
O  13.66300 56.26400 23.51300
C  12.24100 56.67700 25.38900
N  18.14500 53.14900 24.41200
C  17.20500 53.67300 23.53200
C  17.60100 53.41400 22.09400
C  18.95800 52.65700 22.14600
C  19.13100 52.51000 23.60500
C  16.44500 52.77100 21.23700
C  20.03000 53.54600 21.43400
C  20.33400 54.83200 22.21600
N  19.54000 51.59200 26.34300
C  20.44900 51.26700 25.37300
C  21.60400 50.59400 25.95100
C  21.23900 50.46400 27.32800
C  19.98800 51.05800 27.49900
C  22.79600 50.00900 25.29300
C  21.60200 49.81400 28.52400
O  22.51700 49.00600 28.72100
C  20.57600 50.21400 29.62100
C  19.98300 48.99200 30.31600
O  19.24600 48.12000 29.82800
O  20.43600 49.04300 31.64300
C  19.77600 48.14900 32.56300
H  14.64700 53.89500 29.45100
H  15.40600 54.67400 23.19300
H  21.04800 51.51000 23.40000
H  18.03500 50.67100 31.14700
H  16.34300 52.99500 31.36100
H  15.87100 50.13000 31.51400
H  14.69700 50.62100 30.45700
H  14.80500 51.46400 31.98600
H  18.64800 53.66200 31.23600
H  19.98900 52.48500 31.43000
H  18.87200 53.73800 33.43400
H  19.69700 52.22000 33.39900
H  12.83100 56.11200 28.12500
H  12.84000 54.63500 28.87300
H  11.90000 54.78800 27.38400
H  12.64800 57.10300 26.30600
H  11.46300 55.94400 25.60100
H  11.84200 57.52700 24.83600
H  17.68900 54.38800 21.61300
H  18.85400 51.66800 21.69800
H  15.71800 52.52900 22.01300
H  16.80800 51.81300 20.86600
H  16.08800 53.42500 20.44200
H  19.69300 53.80700 20.43100
H  20.87800 52.92700 21.14300
H  19.61100 55.59700 21.93500
H  21.36800 55.12800 22.04200
H  20.21700 54.62600 23.28000
H  23.13000 50.68700 24.50700
H  22.48100 49.12000 24.74600
H  23.59000 49.76900 25.99900
H  20.99900 50.78500 30.44600
H  20.18600 47.14000 32.60000
H  18.70800 47.99900 32.40300
H  19.88700 48.58400 33.55600

