158

Mg 34.74000 49.17400 26.31100
C  35.36600 46.92800 28.96500
C  33.57000 51.50000 28.62100
C  33.88500 51.30900 23.75100
C  35.78500 46.77300 24.09200
N  34.49900 49.18300 28.49700
C  34.92500 48.20600 29.39800
C  34.89500 48.70700 30.82200
C  33.91500 49.89300 30.72500
C  34.04300 50.27000 29.16300
C  32.39900 49.52900 31.04800
C  36.35100 48.95600 31.38000
C  36.60800 48.47500 32.84100
H  36.50200 49.44300 33.97800
N  33.97000 51.19900 26.19700
C  33.59100 51.94300 27.29000
C  33.10200 53.26900 26.85900
C  33.31600 53.33900 25.44200
C  33.70000 51.94400 25.03600
C  32.60600 54.40600 27.84400
C  33.09800 54.47300 24.40700
O  33.24400 54.27600 23.19900
C  32.72000 55.85000 24.86000
N  34.81300 49.04100 24.36200
C  34.42400 50.05800 23.42800
C  34.63600 49.64300 21.94400
C  35.50200 48.32500 22.10800
C  35.32400 48.02300 23.63000
C  33.26100 49.36600 21.21800
C  36.99400 48.44500 21.74500
C  37.51100 47.43800 20.71800
N  35.20100 47.11800 26.42000
C  35.74500 46.30200 25.45400
C  36.24700 45.10300 26.03000
C  36.12900 45.35000 27.42800
C  35.40700 46.51600 27.59800
C  36.99500 44.04100 25.27400
C  36.53200 44.76000 28.72300
O  37.14100 43.73900 28.89300
C  35.99100 45.78200 29.81600
C  35.06300 45.08600 30.74700
O  34.05300 44.49600 30.47400
O  35.61200 45.29300 32.00400
C  34.83400 44.69400 33.12400
H  33.16500 52.16400 29.38600
H  33.52300 51.83300 22.86400
H  36.25800 46.11800 23.35800
H  34.42600 47.94600 31.44500
H  34.31000 50.75200 31.26800
H  32.23500 48.49000 31.33400
H  31.86400 49.72100 30.11700
H  31.90200 50.20500 31.74300
H  36.56600 50.02400 31.34100
H  37.07900 48.50000 30.70900
H  37.58300 47.98800 32.85800
H  35.90500 47.65900 33.00400
H  33.36700 55.16400 27.66300
H  32.62600 54.02700 28.86600
H  31.62200 54.78600 27.57000
H  32.39600 56.33800 23.94100
H  33.56500 56.35300 25.33000
H  31.86400 55.73700 25.52500
H  35.16100 50.50000 21.52200
H  34.91200 47.55700 21.60900
H  33.05600 49.93400 20.31100
H  32.51200 49.55800 21.98600
H  33.25800 48.32900 20.88200
H  37.61600 48.31700 22.63000
H  37.22400 49.44400 21.37600
H  37.06200 47.45800 19.72500
H  37.22700 46.49100 21.17600
H  38.59900 47.50800 20.71400
H  37.75300 44.43900 24.59900
H  36.28700 43.32900 24.85000
H  37.49700 43.45800 26.04600
H  36.89300 46.02800 30.37700
H  33.94200 44.21000 32.72600
H  34.60900 45.50700 33.81400
H  35.46100 43.97000 33.64500
Mg -1.21600 35.36800 26.80000
C  -2.98300 33.79200 29.39000
C  -0.09600 37.68800 29.12400
C  0.45500 36.86100 24.45800
C  -2.49500 32.96100 24.58500
N  -1.55900 35.68200 28.95900
C  -2.19000 34.88200 29.83400
C  -2.00900 35.26200 31.29700
C  -1.36200 36.68400 31.15800
C  -0.95100 36.67300 29.62700
C  -2.24100 37.83500 31.59500
C  -1.10100 34.19500 31.99200
C  -0.67100 34.58800 33.41300
H  -0.57800 33.64100 34.63300
N  -0.03800 37.13000 26.78900
C  0.26000 37.94100 27.81600
C  1.10700 38.99200 27.30100
C  1.07900 38.91700 25.88900
C  0.47200 37.62700 25.64600
C  1.71600 39.93300 28.23600
C  1.78600 39.85900 24.90300
O  1.98800 39.44800 23.78700
C  2.39300 41.10100 25.35900
N  -1.16600 35.01000 24.81700
C  -0.15700 35.67900 24.07700
C  -0.18600 35.23600 22.62300
C  -1.01300 33.91800 22.73300
C  -1.64800 33.94400 24.11500
C  -0.81700 36.20400 21.65000
C  -0.07000 32.61900 22.54700
C  0.91200 32.23900 23.68300
N  -2.60200 33.66100 26.87200
C  -3.00600 32.84500 25.88200
C  -4.04500 31.98400 26.44000
C  -3.96500 32.26800 27.84400
C  -3.14300 33.33400 28.04800
C  -4.99800 31.05400 25.75400
C  -4.45300 31.85200 29.13600
O  -5.19500 30.92000 29.43500
C  -3.87200 32.85100 30.21300
C  -5.01600 33.61800 30.78400
O  -5.76100 34.40700 30.19500
O  -5.25000 33.17800 32.10600
C  -6.46300 33.66000 32.77700
H  0.30300 38.20600 29.99900
H  1.11300 37.15100 23.63500
H  -2.84100 32.23200 23.84900
H  -2.98500 35.32300 31.77800
H  -0.42200 36.86500 31.67800
H  -1.87200 38.28700 32.51600
H  -3.26000 37.51500 31.81400
H  -2.43800 38.53900 30.78700
H  -0.32000 33.88700 31.29700
H  -1.74300 33.33100 32.16600
H  -1.22100 35.43100 33.83200
H  0.29600 35.05600 33.22300
H  1.54400 39.78500 29.30300
H  1.69800 40.97200 27.90700
H  2.75400 39.76400 27.94900
H  3.12900 41.50300 24.66200
H  3.07800 40.99500 26.20100
H  1.63600 41.87300 25.49600
H  0.86700 35.07000 22.39300
H  -1.75300 33.86300 21.93400
H  -1.81100 35.93300 21.29500
H  -0.10300 36.44600 20.86300
H  -0.96600 37.12700 22.21100
H  0.60100 32.84500 21.71800
H  -0.80600 31.83800 22.36000
H  0.80600 31.15500 23.73400
H  0.66400 32.67100 24.65300
H  1.93000 32.44100 23.35200
H  -4.71400 30.07800 26.14800
H  -4.85100 30.96900 24.67700
H  -5.98200 31.43200 26.03100
H  -3.34300 32.30500 30.99500
H  -6.83700 32.76800 33.28000
H  -7.31600 33.87500 32.13300
H  -6.31900 34.33800 33.61800

