158

Mg 40.47700 9.67600 29.68600
C  42.29600 10.62600 32.41100
C  38.05200 8.37400 31.80300
C  38.68800 8.40400 26.99000
C  43.17300 10.54300 27.58200
N  40.24900 9.52900 31.79900
C  41.08600 10.09400 32.72600
C  40.37300 10.10800 34.05300
C  39.01500 9.27600 33.94100
C  39.09400 9.01800 32.42800
C  38.88500 8.00300 34.73100
C  40.29300 11.60400 34.64900
C  39.56600 11.77100 35.92700
H  40.17200 12.62100 37.09600
N  38.55200 8.64300 29.43700
C  37.71600 8.22900 30.40900
C  36.51000 7.59200 29.83600
C  36.64200 7.68000 28.40000
C  38.01300 8.25200 28.22400
C  35.45300 6.91000 30.69000
C  35.64000 7.32700 27.36100
O  35.82400 7.38700 26.12300
C  34.18000 6.96900 27.75700
N  40.82900 9.45900 27.72600
C  39.94900 8.95600 26.73900
C  40.55200 9.12100 25.35300
C  41.84000 9.89500 25.57400
C  41.99100 9.97300 27.06000
C  40.56900 7.82000 24.50800
C  42.11500 11.21100 24.77200
C  41.46500 12.48900 25.33000
N  42.37400 10.45600 29.89500
C  43.34700 10.72800 28.97700
C  44.53500 11.20900 29.66800
C  44.11700 11.31600 31.02300
C  42.85200 10.71200 31.13200
C  45.84700 11.74200 29.09400
C  44.43100 11.72300 32.34000
O  45.49400 12.23300 32.69500
C  43.34600 11.38000 33.30200
C  43.77900 10.54000 34.42500
O  44.21700 9.42100 34.29200
O  43.97700 11.28500 35.57800
C  44.67600 10.65400 36.69200
H  37.24900 8.01500 32.45000
H  38.11600 7.97100 26.16600
H  43.96900 10.84600 26.89900
H  41.08300 9.69700 34.77000
H  38.14700 9.91000 34.11800
H  39.02800 7.16000 34.05500
H  37.93400 7.94800 35.26100
H  39.72200 7.90200 35.42200
H  39.67100 12.25500 34.03400
H  41.25300 12.03600 34.93000
H  39.36000 10.75800 36.27200
H  38.59200 12.22000 35.73400
H  35.27600 5.87000 30.41400
H  34.58800 7.57300 30.69900
H  35.71100 6.87600 31.74900
H  34.23500 5.99300 28.24000
H  33.68100 6.94000 26.78800
H  33.84000 7.79400 28.38200
H  39.93000 9.90900 24.92800
H  42.59000 9.19500 25.20600
H  40.11500 7.03500 25.11300
H  41.58300 7.49700 24.27200
H  40.06800 7.83800 23.54000
H  41.90200 11.02500 23.71900
H  43.17600 11.41300 24.91300
H  40.76800 12.32200 26.15100
H  41.00000 13.14900 24.59700
H  42.24800 13.07500 25.81200
H  46.67000 11.59300 29.79400
H  45.81200 12.75800 28.70200
H  46.06100 11.11100 28.23100
H  42.95100 12.29900 33.73400
H  44.93700 9.60900 36.52700
H  43.98800 10.92200 37.49400
H  45.52800 11.28000 36.95900
Mg 42.54100 41.51100 25.95500
C  41.79900 43.92700 28.44500
C  43.70600 39.50100 28.34600
C  43.42900 39.46300 23.45700
C  41.62500 43.87000 23.58800
N  42.84300 41.81500 28.08600
C  42.24500 42.70400 28.98600
C  42.35000 42.26100 30.46900
C  43.19700 40.97900 30.37500
C  43.23300 40.74100 28.83600
C  44.60800 41.12800 31.04900
C  40.98700 42.15200 31.17100
C  40.80500 42.82200 32.55000
H  39.92600 42.10000 33.64500
N  43.50300 39.61700 25.90200
C  43.87400 38.95400 26.99200
C  44.43500 37.66700 26.55500
C  44.41400 37.62300 25.13000
C  43.76700 38.92000 24.74000
C  45.06200 36.64600 27.49400
C  44.93100 36.60100 24.11600
O  44.67300 36.73000 22.93000
C  45.64500 35.43400 24.53000
N  42.70000 41.71700 23.78800
C  42.87500 40.66400 23.00100
C  42.55900 40.99000 21.54700
C  41.60400 42.17500 21.78900
C  42.01800 42.61500 23.12000
C  43.82700 41.41400 20.75400
C  40.12800 41.73200 21.79000
C  39.70600 40.21600 21.73200
N  41.84900 43.45600 25.99100
C  41.59300 44.29400 24.89800
C  41.26900 45.62900 25.37200
C  41.26600 45.50500 26.81000
C  41.65400 44.18400 27.09400
C  41.06500 46.84700 24.57500
C  41.04000 46.19700 28.01800
O  40.61600 47.31400 28.16200
C  41.23800 45.14800 29.19200
C  42.15000 45.68600 30.26700
O  43.35600 45.89500 30.21200
O  41.49200 45.85800 31.42900
C  42.32800 46.10700 32.61000
H  44.15500 38.77600 29.02700
H  43.68500 38.82600 22.60800
H  41.20700 44.50100 22.80100
H  42.93000 43.01600 31.00000
H  42.66700 40.12300 30.79300
H  44.47300 42.03200 31.64200
H  45.18600 41.42200 30.17300
H  44.96200 40.20100 31.50100
H  40.96900 41.08000 31.36300
H  40.16600 42.35200 30.48200
H  40.26900 43.72900 32.27100
H  41.73200 43.15600 33.01600
H  46.10600 36.43800 27.26000
H  44.51000 35.70600 27.46200
H  44.94000 36.95200 28.53300
H  46.10900 34.90500 23.69800
H  44.97100 34.70000 24.97300
H  46.46400 35.80500 25.14500
H  42.08700 40.14800 21.04100
H  41.75600 42.94500 21.03200
H  44.65900 41.21500 21.43000
H  43.81200 42.44800 20.41000
H  43.90300 40.84200 19.82900
H  39.62100 42.35000 21.05000
H  39.64900 42.10500 22.69600
H  39.51800 39.93200 20.69700
H  38.80500 40.11500 22.33700
H  40.42900 39.51100 22.14200
H  41.46900 46.77200 23.56600
H  41.51800 47.66700 25.13100
H  39.99300 47.02200 24.67200
H  40.27100 44.83700 29.58700
H  41.73200 45.93600 33.50600
H  42.58500 47.16700 32.60300
H  43.21700 45.47800 32.56200

