158

Mg 2.35000 -0.77300 44.38800
C  5.89200 -0.23700 44.06600
C  1.99700 2.08200 42.59900
C  -0.91700 -1.63800 43.98000
C  2.97700 -3.83500 45.86500
N  3.86800 0.58400 43.17300
C  5.23800 0.69200 43.35700
C  5.82000 2.01300 42.69300
C  4.49600 2.83500 42.36800
C  3.39200 1.78300 42.80700
C  4.45800 4.31600 42.90900
C  6.59100 1.72600 41.41200
C  7.66600 2.77300 40.96100
H  7.24300 3.49600 39.75400
N  0.76700 0.12800 43.42800
C  0.80900 1.34300 42.78200
C  -0.54200 1.68000 42.28400
C  -1.42000 0.65100 42.66900
C  -0.52900 -0.36300 43.36300
C  -0.77900 3.00300 41.50600
C  -2.90500 0.63200 42.41000
O  -3.42200 1.58100 41.82500
C  -3.76600 -0.43800 42.81800
N  1.21100 -2.62300 44.61200
C  -0.17000 -2.60600 44.58900
C  -0.69800 -3.95600 45.02100
C  0.53900 -4.58900 45.78700
C  1.72000 -3.64900 45.37300
C  -2.00700 -3.86700 45.87500
C  0.79000 -6.08000 45.48600
C  0.64000 -7.10200 46.65000
N  4.10900 -1.92000 44.88100
C  4.15000 -3.10700 45.54200
C  5.50400 -3.32900 45.87800
C  6.25400 -2.27900 45.30700
C  5.30500 -1.41600 44.70500
C  6.14200 -4.50200 46.59700
C  7.55200 -1.68000 45.20800
O  8.62500 -2.12000 45.66600
C  7.39500 -0.40400 44.27300
C  7.95900 0.81100 44.96600
O  7.71100 1.27600 46.06900
O  8.95300 1.32400 44.10700
C  9.51700 2.59600 44.57700
H  1.99500 3.09800 42.19900
H  -1.99000 -1.83800 43.95400
H  3.17200 -4.70000 46.50300
H  6.50300 2.49000 43.39600
H  4.39500 2.99000 41.29400
H  4.25700 5.15000 42.23600
H  5.38800 4.58500 43.41000
H  3.80400 4.21000 43.77500
H  5.94300 1.48400 40.57000
H  7.18600 0.81300 41.45200
H  8.68600 2.44600 40.75700
H  7.81800 3.52000 41.74000
H  0.11900 3.61500 41.42100
H  -1.52900 3.61800 42.00200
H  -1.07000 2.80200 40.47500
H  -4.80000 -0.23700 42.53600
H  -3.68300 -0.52300 43.90200
H  -3.43800 -1.32900 42.28200
H  -0.99600 -4.50100 44.12500
H  0.42900 -4.46500 46.86400
H  -2.62900 -4.75200 45.74300
H  -2.62500 -3.00400 45.62600
H  -1.77900 -3.84400 46.94100
H  1.77300 -6.11800 45.01500
H  0.09900 -6.40900 44.71000
H  1.52700 -7.72600 46.54100
H  -0.24900 -7.72300 46.54100
H  0.62700 -6.66100 47.64700
H  5.99500 -4.34400 47.66500
H  7.22900 -4.56200 46.53200
H  5.67700 -5.41600 46.22900
H  7.93700 -0.57000 43.34200
H  10.52500 2.75000 44.19200
H  9.63000 2.51100 45.65800
H  8.89900 3.48400 44.45300
Mg 16.03200 52.44400 25.16300
C  17.80200 51.35600 27.84700
C  13.42900 53.19600 27.21900
C  14.28500 53.31500 22.43900
C  18.65600 51.36600 23.01300
N  15.59100 52.11400 27.28700
C  16.55600 51.81700 28.18900
C  16.02000 52.05700 29.59600
C  14.47500 52.47300 29.40000
C  14.50900 52.62400 27.87800
C  13.39600 51.46400 29.97700
C  16.80600 53.27500 30.20000
C  16.50300 53.44600 31.70800
H  15.74400 52.47000 32.51200
N  14.08700 53.18200 24.88100
C  13.10900 53.38300 25.86200
C  11.88300 53.86300 25.21700
C  12.09500 53.81700 23.78500
C  13.51900 53.39900 23.64200
C  10.72800 54.35700 25.98100
C  11.17200 54.19100 22.64000
O  11.43600 53.92300 21.46200
C  9.81600 54.75200 22.79500
N  16.56400 52.45700 23.04400
C  15.62600 52.92800 22.17000
C  16.21100 52.86200 20.72400
C  17.63700 52.29400 20.99400
C  17.64300 52.06400 22.44200
C  15.32700 52.01400 19.73900
C  18.76400 53.27800 20.44800
C  18.81300 54.60300 21.13500
N  17.82600 51.48000 25.28100
C  18.78700 51.06600 24.36900
C  19.94000 50.52000 25.06700
C  19.60400 50.60500 26.44400
C  18.32900 51.14100 26.52200
C  21.25900 50.07000 24.46900
C  19.98900 50.26600 27.83900
O  20.96200 49.62500 28.28300
C  18.88800 50.79800 28.75600
C  18.32200 49.75600 29.64800
O  17.64500 48.73300 29.32000
O  18.83000 50.03700 30.92200
C  18.58600 49.00900 31.92100
H  12.60700 53.57300 27.83100
H  13.68600 53.70500 21.61300
H  19.43700 51.05400 22.31600
H  16.06900 51.12500 30.15800
H  14.33500 53.42000 29.92100
H  12.67400 51.96500 30.62300
H  13.88900 50.69000 30.56500
H  12.90000 51.03300 29.10800
H  16.43300 54.13600 29.64500
H  17.86600 53.07100 30.04900
H  15.85100 54.31900 31.72400
H  17.44700 53.71100 32.18500
H  9.80500 53.81700 25.77300
H  10.55800 55.40400 25.72900
H  10.81900 54.41200 27.06600
H  10.08500 55.76700 23.08900
H  9.19800 54.18800 23.49400
H  9.16600 54.71700 21.92100
H  16.23900 53.85000 20.26400
H  17.86600 51.44400 20.35200
H  14.33500 51.81600 20.14600
H  15.83500 51.10200 19.42600
H  15.07200 52.59600 18.85300
H  18.51000 53.38100 19.39300
H  19.73700 52.82600 20.64200
H  17.85200 55.07900 21.32900
H  19.34000 55.29200 20.47400
H  19.35700 54.67600 22.07600
H  22.09900 50.69600 24.76900
H  21.17500 50.12500 23.38400
H  21.45900 49.06300 24.83600
H  19.35300 51.65400 29.24400
H  17.61700 49.05800 32.41600
H  19.34500 48.95400 32.70200
H  18.65200 48.03300 31.44000

