158

Mg 2.40100 -3.04100 45.67300
C  5.78400 -2.20100 45.23700
C  1.58600 -0.53800 43.42600
C  -0.79800 -4.35400 45.45800
C  3.42500 -5.77700 47.60100
N  3.55400 -1.58000 44.49300
C  4.95600 -1.38300 44.51200
C  5.36800 -0.25800 43.55300
C  3.97400 0.43100 43.22800
C  2.95000 -0.66300 43.78000
C  3.74300 1.81200 44.04300
C  6.03500 -0.74800 42.27100
C  7.47400 -0.17000 42.00700
H  7.44400 0.69700 40.77700
N  0.67800 -2.49900 44.61500
C  0.49700 -1.37100 43.84000
C  -0.87100 -1.23400 43.41700
C  -1.59800 -2.33800 43.97200
C  -0.55500 -3.11900 44.73400
C  -1.25600 -0.02300 42.53200
C  -3.12000 -2.63900 43.80800
O  -3.81400 -1.87200 43.16200
C  -3.93700 -3.55400 44.66100
N  1.45400 -4.77100 46.40600
C  0.12300 -5.02000 46.27400
C  -0.44700 -6.24800 47.05400
C  0.97800 -6.76600 47.65500
C  2.02900 -5.73700 47.22300
C  -1.56700 -5.86000 48.09700
C  1.47300 -8.01300 47.02300
C  1.87900 -9.08600 48.17600
N  4.22100 -3.87500 46.40400
C  4.45900 -4.91100 47.20300
C  5.85700 -5.02400 47.43100
C  6.41100 -4.01900 46.60900
C  5.35500 -3.34500 46.02800
C  6.61100 -6.06900 48.28700
C  7.64700 -3.42200 46.13200
O  8.78300 -3.82700 46.47200
C  7.29200 -2.17000 45.26200
C  7.68400 -0.99000 45.93300
O  7.07300 -0.44300 46.82400
O  8.75900 -0.42300 45.23700
C  8.70600 1.06100 45.27300
H  1.36100 0.27600 42.73300
H  -1.76800 -4.81400 45.25600
H  3.76700 -6.70800 48.05700
H  6.07300 0.35000 44.12000
H  3.76900 0.66000 42.18200
H  4.56500 2.45600 43.73000
H  3.79600 1.64700 45.11900
H  2.82200 2.29800 43.72200
H  5.45700 -0.40900 41.41200
H  5.95700 -1.83300 42.34800
H  8.19100 -0.95300 41.76100
H  7.87300 0.42900 42.82600
H  -2.32400 0.16700 42.64400
H  -1.16300 -0.32600 41.49000
H  -0.65700 0.85800 42.76400
H  -3.46900 -3.71800 45.63200
H  -4.09800 -4.53500 44.21300
H  -4.92800 -3.11400 44.76800
H  -0.96800 -7.03100 46.50200
H  0.87700 -6.80500 48.73900
H  -2.15200 -5.02000 47.72200
H  -1.16400 -5.59700 49.07500
H  -2.31100 -6.62800 48.30800
H  2.29400 -7.83000 46.32900
H  0.66100 -8.48800 46.47200
H  1.42100 -9.99500 47.78700
H  1.38200 -8.92100 49.13200
H  2.93000 -9.37200 48.21700
H  5.91300 -6.50100 49.00500
H  7.48100 -5.51000 48.63100
H  6.97600 -6.92200 47.71500
H  7.73300 -2.27600 44.27100
H  9.45900 1.42900 44.57600
H  9.03100 1.47800 46.22600
H  7.76500 1.48400 44.92100
Mg 42.92900 4.16000 47.64200
C  40.89700 6.98400 47.40900
C  40.07700 2.21600 47.60800
C  44.90800 1.44200 47.06800
C  45.71900 6.24500 47.33500
N  40.72300 4.55500 47.46500
C  40.11500 5.77300 47.49100
C  38.53300 5.63300 47.77900
C  38.39800 4.11500 47.85000
C  39.80500 3.58000 47.69500
C  37.77900 3.51100 49.13500
C  37.58600 6.33300 46.69900
C  38.04400 5.95500 45.26600
H  38.41400 7.03700 44.29600
N  42.52100 2.09500 47.48500
C  41.28400 1.50500 47.40400
C  41.38800 0.09100 47.11900
C  42.79600 -0.13300 46.91200
C  43.48700 1.14800 47.20500
C  40.32300 -0.93800 47.12500
C  43.37500 -1.55700 46.54700
O  42.69700 -2.51500 46.35600
C  44.91100 -1.75700 46.32200
N  45.01100 3.89300 47.19600
C  45.63600 2.63600 47.17700
C  47.16100 2.75600 47.25400
C  47.41400 4.25800 47.38900
C  45.97400 4.87400 47.38300
C  47.83400 1.87000 48.39400
C  48.47100 4.82900 46.37600
C  49.94300 4.97800 46.88000
N  43.26500 6.21600 47.31700
C  44.41000 6.86600 47.26100
C  44.14100 8.29800 47.21100
C  42.73700 8.39000 47.22500
C  42.27600 7.09000 47.31000
C  45.15600 9.41500 47.14200
C  41.60100 9.29500 47.22800
O  41.52500 10.54500 47.20900
C  40.32100 8.42000 47.31500
C  39.47400 8.99600 48.42400
O  39.45200 8.68400 49.64600
O  38.56600 9.88600 47.85600
C  37.66800 10.49300 48.76800
H  39.12200 1.68800 47.64600
H  45.60200 0.59900 47.06500
H  46.61600 6.86600 47.29300
H  38.33700 6.24600 48.65900
H  38.01600 3.68600 46.92400
H  37.40100 4.32300 49.75600
H  38.55400 3.11600 49.79200
H  36.91700 2.86700 48.96400
H  37.68800 7.41300 46.80400
H  36.56500 6.08200 46.98700
H  37.16400 5.40300 44.93600
H  38.82000 5.18900 45.24900
H  40.59700 -1.83700 47.67800
H  40.27900 -1.17300 46.06200
H  39.35500 -0.56400 47.45700
H  45.50200 -1.90100 47.22600
H  45.26900 -0.94500 45.68900
H  44.97700 -2.78400 45.96300
H  47.60200 2.38700 46.32800
H  47.63900 4.50100 48.42800
H  48.55900 2.46100 48.95500
H  48.41900 1.06900 47.94200
H  47.19900 1.43800 49.16700
H  48.00100 5.71700 45.95400
H  48.54400 4.14600 45.52900
H  50.01400 4.57900 47.89100
H  50.25900 6.01900 46.95700
H  50.62200 4.41800 46.23700
H  44.57200 10.30900 46.92300
H  45.93400 9.26300 46.39400
H  45.56500 9.58600 48.13700
H  39.79400 8.64200 46.38700
H  37.04500 9.81900 49.35700
H  36.93800 11.12400 48.26100
H  38.19600 11.10300 49.50100

