158

Mg 35.69700 0.92700 29.80100
C  33.29700 1.65800 32.31400
C  38.13500 1.52000 32.19000
C  37.92000 0.42500 27.45500
C  33.07300 1.13100 27.38300
N  35.57600 1.31700 32.04100
C  34.58500 1.45400 32.82500
C  34.99200 1.83600 34.22000
C  36.51400 2.19700 34.00000
C  36.80700 1.65900 32.61900
C  36.97200 3.64700 34.07900
C  34.67400 0.78500 35.26100
C  34.16100 1.40200 36.55100
H  35.03400 2.39000 37.28400
N  37.77300 0.79300 29.85200
C  38.62500 1.07900 30.85600
C  39.97900 1.02900 30.45200
C  39.89700 0.56900 29.09100
C  38.52100 0.61400 28.75800
C  41.11600 1.36800 31.43700
C  41.03400 0.36000 28.05900
O  40.83000 0.02800 26.89500
C  42.38700 0.32200 28.48600
N  35.51700 0.80400 27.80600
C  36.60400 0.49000 27.03900
C  36.19300 0.34700 25.57300
C  34.67700 0.50000 25.62600
C  34.37700 0.78700 27.04900
C  36.97500 1.21000 24.56300
C  33.87100 -0.65400 25.04100
C  33.76100 -1.96600 25.88900
N  33.61600 1.42700 29.78800
C  32.77400 1.45600 28.74800
C  31.49100 1.94200 29.24700
C  31.63200 1.98700 30.66300
C  32.94200 1.63300 30.92900
C  30.30800 2.37600 28.45800
C  30.98600 2.31000 31.86500
O  29.92600 2.85400 32.04100
C  32.05700 2.11800 33.01500
C  32.31300 3.38400 33.73000
O  33.09400 4.26100 33.33500
O  31.64200 3.42300 34.98900
C  31.85900 4.63700 35.83500
H  38.90600 1.86300 32.88200
H  38.51600 0.08700 26.60400
H  32.34700 1.28600 26.58300
H  34.56200 2.79400 34.51200
H  37.14300 1.65800 34.70800
H  36.15900 4.29300 34.41100
H  37.27900 4.05100 33.11400
H  37.77300 3.77000 34.80800
H  35.52000 0.14900 35.52200
H  33.85000 0.14800 34.94000
H  33.99700 0.60400 37.27500
H  33.23000 1.91600 36.31100
H  41.17000 2.45300 31.53200
H  42.10900 1.05100 31.11800
H  40.87900 0.91700 32.40000
H  42.94300 -0.15400 27.67800
H  42.40000 -0.34500 29.34800
H  42.71500 1.32500 28.75800
H  36.37500 -0.68800 25.28400
H  34.40800 1.41700 25.10200
H  36.37900 2.10200 24.36800
H  37.30600 0.71800 23.64800
H  37.92600 1.50000 25.00800
H  34.11100 -0.87500 24.00100
H  32.82200 -0.35800 25.05300
H  34.57200 -1.91400 26.61600
H  33.92700 -2.83700 25.25500
H  32.79600 -2.06200 26.38600
H  30.55500 3.18700 27.77300
H  29.44100 2.62900 29.06800
H  30.05400 1.49600 27.86800
H  31.58400 1.41900 33.70400
H  32.21000 5.47900 35.23900
H  32.64200 4.33700 36.53100
H  30.94000 4.90200 36.35800
Mg 46.91900 35.52600 29.03800
C  45.11400 33.41700 31.17700
C  47.11000 37.81900 31.59700
C  48.08900 37.76000 26.92200
C  46.46400 33.25300 26.42700
N  46.06900 35.57800 31.06500
C  45.58400 34.52800 31.80800
C  45.79200 34.76700 33.29700
C  45.87500 36.27900 33.34000
C  46.45400 36.61800 31.88200
C  44.47900 37.00900 33.53000
C  47.02400 34.02600 33.83400
C  47.21400 33.83400 35.33700
H  46.28900 34.68400 36.26500
N  47.50300 37.53000 29.27500
C  47.56700 38.27300 30.34900
C  48.37800 39.41800 30.04600
C  48.67500 39.46400 28.70600
C  48.05400 38.29400 28.22400
C  48.84000 40.30900 31.23400
C  49.52200 40.46000 27.88700
O  49.73300 40.31500 26.68300
C  50.14700 41.71400 28.60500
N  47.14900 35.50100 26.87900
C  47.57800 36.63900 26.30600
C  47.46500 36.49700 24.78900
C  47.21700 34.92000 24.59600
C  46.98800 34.49200 26.02700
C  46.42900 37.50400 24.10600
C  48.33200 34.07200 23.94100
C  48.42600 34.36700 22.46200
N  46.08200 33.64400 28.75800
C  45.93000 32.86900 27.66100
C  45.28300 31.63800 28.06200
C  44.91600 31.81500 29.40700
C  45.45400 33.03300 29.85900
C  44.84800 30.53200 27.19400
C  44.16700 31.24500 30.51000
O  43.54300 30.19500 30.62100
C  44.07700 32.45300 31.59400
C  44.15900 31.85700 33.01600
O  44.94300 31.10700 33.43400
O  43.13800 32.38700 33.79400
C  43.07100 32.08700 35.23500
H  47.36700 38.39400 32.48900
H  48.57100 38.40400 26.18400
H  46.50800 32.48700 25.65000
H  44.95700 34.36600 33.87200
H  46.53200 36.64700 34.12900
H  44.60800 37.80000 34.27000
H  43.79500 36.23700 33.88100
H  44.08900 37.48300 32.62900
H  47.92400 34.51200 33.45700
H  46.94700 33.07900 33.29900
H  48.24600 33.93800 35.67200
H  46.84400 32.81200 35.41400
H  48.20300 40.18200 32.11000
H  48.91600 41.34000 30.89000
H  49.77700 39.82800 31.51600
H  50.72200 41.35000 29.45600
H  49.43600 42.43000 29.01800
H  50.69600 42.35600 27.91600
H  48.47100 36.56900 24.37500
H  46.31400 34.82200 23.99300
H  46.85600 38.36200 23.58800
H  45.72100 37.88900 24.84000
H  45.92600 36.86100 23.38400
H  48.30600 32.99700 24.11900
H  49.23700 34.36500 24.47300
H  49.32400 34.94800 22.25200
H  47.51900 34.80400 22.04500
H  48.40700 33.40600 21.94800
H  44.52800 29.63100 27.71800
H  45.76400 30.14200 26.75100
H  44.02700 30.77600 26.51900
H  43.09400 32.90800 31.47700
H  42.17800 31.46300 35.28400
H  42.82700 33.07000 35.63700
H  43.93300 31.50600 35.56100

