158

Mg 17.23100 52.32700 26.27800
C  18.99200 50.95700 29.11000
C  14.97800 53.60700 28.53300
C  15.60800 53.59700 23.70200
C  19.43400 50.62200 24.22300
N  17.03800 52.20000 28.57800
C  17.98500 51.77000 29.48300
C  17.51800 52.26700 30.87500
C  16.04500 52.81100 30.70900
C  15.98100 52.84900 29.18700
C  15.06800 51.82400 31.29900
C  18.38400 53.42000 31.47500
C  18.40700 53.39600 33.03100
H  17.34800 52.59100 33.78900
N  15.47500 53.46300 26.17800
C  14.70800 53.89300 27.15100
C  13.65200 54.74900 26.67400
C  13.80300 54.77700 25.21400
C  15.00800 53.99600 24.96100
C  12.61500 55.53500 27.50100
C  12.96000 55.43700 24.15500
O  13.33700 55.48700 22.95800
C  11.61400 56.08800 24.53800
N  17.48600 52.08100 24.25200
C  16.69100 52.79400 23.39000
C  17.11900 52.53100 21.96300
C  18.38800 51.70000 22.17000
C  18.49800 51.51200 23.63400
C  16.04300 51.80900 21.11800
C  19.58600 52.35500 21.56700
C  20.14200 53.60000 22.32400
N  18.84100 51.02700 26.49200
C  19.64000 50.46500 25.59600
C  20.60300 49.61300 26.18600
C  20.46300 49.86600 27.60200
C  19.35700 50.65700 27.72900
C  21.59400 48.80200 25.48100
C  21.00300 49.58400 28.91700
O  22.00800 48.91600 29.18600
C  20.13300 50.34300 29.94400
C  19.68500 49.38900 30.93900
O  18.93500 48.43100 30.61600
O  20.11100 49.68100 32.23300
C  19.81700 48.67400 33.28800
H  14.23500 53.97700 29.24300
H  15.04700 53.88800 22.81100
H  20.04600 50.08100 23.49800
H  17.60600 51.34900 31.45700
H  15.70700 53.72200 31.20300
H  14.76300 51.08200 30.56100
H  14.23500 52.40500 31.69700
H  15.44600 51.21600 32.12100
H  18.00700 54.33200 31.01100
H  19.41600 53.20600 31.19700
H  18.36200 54.44200 33.33600
H  19.36900 52.95100 33.28300
H  12.60300 56.58800 27.22200
H  13.11600 55.48100 28.46800
H  11.62300 55.09200 27.60100
H  11.17700 55.43700 25.29500
H  10.82800 56.14400 23.78400
H  11.74200 57.12300 24.85700
H  17.45600 53.48800 21.56400
H  18.17000 50.78500 21.61800
H  16.56100 51.33300 20.28600
H  15.33200 52.54000 20.73300
H  15.59800 50.98600 21.67600
H  19.41400 52.50500 20.50100
H  20.42300 51.66500 21.67400
H  20.19500 54.34600 21.53200
H  21.10300 53.52200 22.83400
H  19.31600 53.85000 22.98900
H  22.41900 49.41800 25.12300
H  21.11800 48.10700 24.79000
H  22.20300 48.30900 26.23900
H  20.84400 51.05900 30.35700
H  20.46800 47.80000 33.31400
H  18.78000 48.34200 33.23100
H  19.80800 49.03400 34.31600
Mg -9.93100 39.55300 39.97600
C  -9.14400 36.15600 39.42700
C  -6.69200 40.33200 38.86000
C  -10.53600 42.77400 40.37200
C  -13.23100 38.72200 40.46100
N  -8.14800 38.44600 39.30000
C  -8.10600 37.06500 39.12700
C  -6.65400 36.57700 38.80600
C  -5.89200 37.90500 38.94400
C  -6.97100 38.99800 39.05800
C  -4.83600 38.12200 40.16400
C  -6.33800 35.84200 37.41100
C  -6.84400 36.59000 36.15000
H  -8.07000 36.11900 35.37200
N  -8.79600 41.31000 39.65400
C  -7.54900 41.40200 39.12900
C  -7.18900 42.77400 38.91200
C  -8.29000 43.55900 39.40700
C  -9.29900 42.58100 39.83400
C  -5.90500 43.34100 38.32500
C  -8.39500 45.10400 39.51500
O  -7.52900 45.75800 38.99300
C  -9.53500 45.87600 40.15000
N  -11.66700 40.54900 40.43600
C  -11.62300 41.88600 40.60000
C  -13.05800 42.46100 40.77100
C  -13.92700 41.13000 40.88200
C  -12.89900 40.10000 40.50800
C  -13.12400 43.45000 42.03500
C  -15.22900 40.96300 40.06200
C  -16.48000 40.71400 40.88600
N  -11.04200 37.82100 40.03300
C  -12.36900 37.62900 40.33500
C  -12.63100 36.20300 40.24900
C  -11.37900 35.60300 39.94800
C  -10.45400 36.60100 39.82900
C  -14.06400 35.70200 40.44000
C  -10.70900 34.31900 39.66800
O  -11.19400 33.15900 39.58800
C  -9.19600 34.65300 39.25300
C  -8.27400 33.85000 40.15900
O  -8.47700 33.58700 41.28600
O  -7.11400 33.54700 39.58800
C  -5.99700 32.91600 40.34200
H  -5.71000 40.68500 38.53700
H  -10.67100 43.82600 40.63200
H  -14.25100 38.39800 40.67900
H  -6.44800 35.96800 39.68600
H  -5.36800 37.88900 37.98900
H  -3.86100 38.31900 39.71800
H  -4.64700 37.20700 40.72500
H  -5.05500 38.91900 40.87400
H  -6.90200 34.91400 37.50500
H  -5.26500 35.67400 37.32000
H  -5.97600 36.41000 35.51600
H  -6.98000 37.64000 36.40700
H  -6.02200 43.57500 37.26700
H  -5.03100 42.70400 38.45900
H  -5.54800 44.25200 38.80600
H  -9.68800 45.55200 41.17900
H  -10.50100 45.65600 39.69400
H  -9.28800 46.93500 40.22200
H  -13.39800 43.11600 39.96900
H  -14.29500 40.91900 41.88500
H  -12.16500 43.66200 42.51000
H  -13.89300 43.17200 42.75600
H  -13.50600 44.39200 41.64100
H  -15.18900 40.21400 39.27100
H  -15.38900 41.93900 39.60200
H  -16.33300 39.80400 41.46700
H  -17.37900 40.45300 40.32600
H  -16.76000 41.53800 41.54200
H  -14.58800 36.13800 41.29000
H  -13.85500 34.64700 40.61900
H  -14.60200 35.88800 39.51100
H  -9.05400 34.22600 38.26100
H  -5.24300 32.70900 39.58200
H  -6.37300 31.94900 40.67500
H  -5.58600 33.49700 41.16800

