158

Mg 23.34700 -5.34700 44.61000
C  24.92100 -2.66100 43.25000
C  20.37900 -4.56800 43.09100
C  22.07200 -8.46300 45.38000
C  26.52300 -6.64500 45.69200
N  22.75100 -3.70900 43.41000
C  23.56500 -2.74500 42.85700
C  22.78300 -1.70900 41.97600
C  21.31700 -2.16600 42.27200
C  21.43500 -3.58100 43.00700
C  20.56800 -1.17200 43.18600
C  23.18000 -1.82500 40.46900
C  23.86100 -0.59300 39.85200
H  25.07900 -0.74100 38.97200
N  21.48400 -6.30900 44.35300
C  20.36000 -5.83100 43.67800
C  19.22700 -6.76100 43.79100
C  19.72200 -7.89900 44.48400
C  21.13700 -7.58600 44.79100
C  17.95100 -6.48200 43.11800
C  18.92300 -9.10300 44.74300
O  17.69900 -9.07900 44.55200
C  19.43600 -10.43100 45.23000
N  24.23300 -7.36000 45.30900
C  23.47000 -8.38200 45.69900
C  24.25600 -9.47700 46.53300
C  25.67900 -8.77500 46.66200
C  25.44500 -7.43600 45.94400
C  23.70200 -10.00400 47.89800
C  26.85300 -9.71300 46.23100
C  28.15500 -9.77400 47.08100
N  25.36200 -4.79500 44.54800
C  26.51300 -5.42400 44.96200
C  27.66500 -4.59400 44.66300
C  27.07100 -3.45400 43.98100
C  25.64400 -3.66800 43.94300
C  29.12300 -4.93200 44.88900
C  27.30300 -2.20600 43.29100
O  28.36200 -1.57100 43.21400
C  25.88400 -1.67300 42.75600
C  25.59300 -0.36200 43.38600
O  24.74000 -0.09900 44.20700
O  26.50300 0.54900 42.84900
C  26.34200 1.90900 43.28100
H  19.41600 -4.26200 42.67500
H  21.66800 -9.43500 45.67100
H  27.54600 -6.98200 45.87300
H  22.97500 -0.72500 42.40500
H  20.67800 -2.19200 41.38900
H  20.95400 -0.15300 43.15400
H  20.47400 -1.50200 44.22100
H  19.56700 -1.03800 42.77800
H  22.36400 -2.20200 39.85300
H  23.75100 -2.74200 40.31800
H  23.97100 0.13300 40.65700
H  23.14300 -0.21800 39.12300
H  17.97000 -6.84100 42.08900
H  17.66600 -5.43500 43.01100
H  17.16000 -6.92300 43.72400
H  18.74300 -11.24800 45.03100
H  19.67100 -10.36300 46.29300
H  20.19800 -10.66400 44.48600
H  24.28900 -10.35400 45.88600
H  25.86400 -8.45500 47.68800
H  22.66000 -9.68600 47.94200
H  24.15900 -9.48000 48.73800
H  23.71400 -11.08200 48.05600
H  27.12600 -9.41600 45.21900
H  26.48600 -10.72200 46.04500
H  28.85600 -9.21600 46.46000
H  28.56700 -10.78100 47.15400
H  27.95300 -9.38300 48.07800
H  29.31500 -5.55500 45.76300
H  29.53800 -3.94700 45.10200
H  29.52800 -5.36700 43.97600
H  25.98300 -1.45300 41.69300
H  25.50100 2.40100 42.79200
H  27.18200 2.47500 42.87500
H  26.27700 2.01100 44.36400
Mg 16.71500 51.41900 26.23700
C  18.68500 50.50800 28.95900
C  14.02700 52.04000 28.40800
C  14.77200 52.04000 23.56300
C  19.33900 50.29400 24.09000
N  16.34900 51.22200 28.41200
C  17.36600 50.97200 29.32200
C  16.91900 51.18900 30.72600
C  15.42100 51.52200 30.59900
C  15.23500 51.61800 29.04800
C  14.50200 50.38700 31.16600
C  17.74000 52.28900 31.45800
C  18.45600 51.94100 32.75900
H  17.82300 52.63700 33.95200
N  14.70100 51.98800 26.05300
C  13.78800 52.26100 27.03700
C  12.67500 53.00300 26.43500
C  12.88100 53.05200 25.05700
C  14.18000 52.33600 24.79000
C  11.49000 53.46100 27.26500
C  12.00200 53.64900 24.02600
O  12.27300 53.55800 22.79700
C  10.74500 54.41000 24.36100
N  17.02600 51.35400 24.14300
C  16.08100 51.59800 23.25000
C  16.52900 51.57900 21.73900
C  18.01600 51.06800 21.90000
C  18.13600 50.83900 23.46200
C  15.66100 50.65300 20.82600
C  19.04600 52.01600 21.44800
C  19.80500 51.75100 20.16400
N  18.75700 50.52200 26.40000
C  19.64200 50.14500 25.47800
C  20.75400 49.50200 26.20100
C  20.44700 49.72300 27.60700
C  19.20700 50.28800 27.67900
C  21.97100 48.82600 25.62700
C  20.93000 49.50000 28.96300
O  21.98100 48.95800 29.31800
C  19.84400 50.05400 29.91400
C  19.47800 48.91400 30.78400
O  18.60500 48.10500 30.52700
O  20.20300 48.98600 31.97300
C  20.05500 48.02700 33.05700
H  13.22400 52.39000 29.06200
H  14.04300 52.19600 22.76500
H  20.16600 49.92100 23.48200
H  17.05900 50.26700 31.29200
H  15.08800 52.45600 31.05200
H  14.90600 49.40500 30.91800
H  13.45600 50.43600 30.86400
H  14.44300 50.44900 32.25200
H  17.07300 53.13100 31.64600
H  18.51200 52.65100 30.78000
H  19.51600 52.19400 32.71000
H  18.46900 50.87000 32.96100
H  10.56400 53.17700 26.76500
H  11.62700 54.53800 27.36300
H  11.35300 52.98300 28.23400
H  10.41600 54.86300 23.42500
H  10.99200 55.18400 25.08700
H  10.15300 53.61800 24.81900
H  16.47200 52.57100 21.29000
H  18.22200 50.05400 21.55900
H  15.28400 51.23500 19.98600
H  14.87200 50.19000 21.41800
H  16.34000 49.84800 20.54400
H  19.74200 52.04400 22.28600
H  18.71600 53.05400 21.45500
H  19.80800 52.69300 19.61600
H  19.33800 50.87100 19.72200
H  20.78300 51.34700 20.42700
H  22.83900 49.25600 26.12700
H  22.16700 49.00800 24.57000
H  21.89900 47.73900 25.65200
H  20.32600 50.84600 30.48800
H  19.14700 48.29300 33.59700
H  20.93700 48.13900 33.68800
H  19.88500 47.08900 32.52800

