158

Mg -1.88300 18.13800 27.09900
C  -2.21500 16.04400 29.64300
C  -2.62000 20.85000 29.12100
C  -2.19600 20.17300 24.38100
C  -1.50300 15.38500 24.76200
N  -2.37100 18.40100 29.23100
C  -2.25300 17.35600 30.09800
C  -2.32200 17.89700 31.56200
C  -2.79800 19.45700 31.29100
C  -2.69800 19.59500 29.75500
C  -4.17600 19.67100 31.87500
C  -1.01600 17.84300 32.39000
C  -1.20100 17.27800 33.76700
H  -0.09800 17.39400 34.76700
N  -2.18000 20.25800 26.82600
C  -2.43600 21.20200 27.79500
C  -2.27900 22.54600 27.19500
C  -2.17900 22.33000 25.78100
C  -2.19000 20.85500 25.59700
C  -2.53500 23.82900 28.04900
C  -1.95600 23.27800 24.68400
O  -1.78500 22.93900 23.51800
C  -2.14300 24.72100 24.97700
N  -1.93900 17.79800 24.91100
C  -2.09100 18.84000 24.10300
C  -1.93100 18.30300 22.64600
C  -1.40900 16.83800 22.71200
C  -1.60600 16.64900 24.18500
C  -3.32100 18.45200 21.88000
C  0.12900 16.56600 22.23700
C  1.21600 17.28400 23.06900
N  -1.84300 16.11800 27.10300
C  -1.70900 15.09200 26.16300
C  -1.85000 13.82900 26.81500
C  -2.05700 14.14900 28.17900
C  -2.01000 15.52800 28.33800
C  -1.95100 12.50300 26.21300
C  -2.28100 13.59100 29.47200
O  -2.36000 12.44800 29.74900
C  -2.32000 14.74400 30.50000
C  -1.27300 14.62400 31.54900
O  -0.10900 15.02300 31.39700
O  -1.74500 13.92200 32.56300
C  -0.85400 13.62000 33.68900
H  -2.66100 21.67600 29.83400
H  -2.23200 20.72500 23.44000
H  -1.51800 14.50500 24.11700
H  -3.06000 17.42300 32.21000
H  -2.15100 20.11100 31.87500
H  -4.10500 20.16700 32.84200
H  -4.74400 18.74400 31.95900
H  -4.67600 20.27500 31.11800
H  -0.56900 18.82500 32.54500
H  -0.30700 17.23700 31.82600
H  -1.38100 16.22000 33.57500
H  -2.11500 17.67000 34.21300
H  -2.63200 24.79200 27.54800
H  -1.67300 23.80700 28.71600
H  -3.41400 23.80500 28.69300
H  -1.90400 25.39400 24.15400
H  -1.36900 24.99700 25.69400
H  -3.16300 24.90100 25.31500
H  -1.15000 18.98300 22.30600
H  -2.02600 16.11400 22.18100
H  -4.15300 18.43400 22.58400
H  -3.19500 17.62900 21.17700
H  -3.28400 19.39200 21.32900
H  0.21400 16.84400 21.18600
H  0.39900 15.51100 22.20300
H  1.81600 17.91700 22.41600
H  1.95300 16.63300 23.54000
H  0.80000 17.81900 23.92200
H  -1.52400 12.52700 25.21000
H  -3.02500 12.32500 26.16700
H  -1.52600 11.71200 26.83100
H  -3.28800 14.67500 30.99600
H  0.00900 14.26300 33.86100
H  -0.51000 12.60400 33.49400
H  -1.52400 13.60400 34.54900
Mg 24.32300 -5.37100 45.74600
C  26.60900 -3.20900 44.14200
C  21.80400 -4.09900 43.68800
C  22.38200 -8.02800 46.29900
C  26.86800 -6.76600 47.59800
N  24.28300 -3.94300 44.10200
C  25.28700 -3.12200 43.64100
C  24.77800 -2.30900 42.41400
C  23.25100 -2.40700 42.57000
C  23.07800 -3.51800 43.54300
C  22.48000 -1.03800 43.00800
C  25.23200 -2.81600 41.01200
C  26.25700 -1.90800 40.28300
H  26.06200 -1.60500 38.80500
N  22.27800 -5.92100 45.16600
C  21.40400 -5.23000 44.37100
C  20.18200 -5.91000 44.28200
C  20.34200 -7.11100 44.99300
C  21.72200 -7.01100 45.53800
C  18.99200 -5.29500 43.47800
C  19.23100 -8.02800 45.29000
O  18.12100 -7.69100 44.92200
C  19.35100 -9.30600 46.04900
N  24.69700 -7.24500 46.56800
C  23.71800 -8.21300 46.71500
C  24.18300 -9.44200 47.51900
C  25.59300 -8.92300 48.08500
C  25.74000 -7.58700 47.36700
C  23.27200 -9.94300 48.70100
C  26.80000 -9.87700 47.99300
C  27.65300 -10.13700 49.26000
N  26.38800 -5.06100 45.93900
C  27.30700 -5.66800 46.77500
C  28.59300 -5.04000 46.54200
C  28.40900 -4.08900 45.56600
C  27.03600 -4.13800 45.25200
C  29.90700 -5.29000 47.35600
C  28.98900 -3.15000 44.69400
O  30.14400 -2.76400 44.80200
C  27.86700 -2.45000 43.71600
C  27.74800 -0.98200 43.91900
O  26.95300 -0.38600 44.62200
O  28.57400 -0.34900 43.06600
C  28.71400 1.09400 43.25900
H  21.01700 -3.65300 43.07600
H  21.80300 -8.94300 46.44200
H  27.71700 -7.09900 48.19900
H  25.14700 -1.30600 42.62800
H  22.68700 -2.68700 41.68000
H  23.13600 -0.17200 42.91300
H  22.09900 -1.20400 44.01500
H  21.67300 -1.04700 42.27500
H  24.38300 -2.92000 40.33700
H  25.67800 -3.77600 41.27300
H  27.29300 -2.21500 40.42900
H  26.22500 -1.01600 40.90800
H  18.48700 -6.01900 42.84000
H  19.20900 -4.36600 42.95000
H  18.28400 -5.05000 44.27000
H  18.38700 -9.80900 46.11400
H  19.64900 -9.01300 47.05600
H  20.17900 -9.78600 45.52700
H  24.37400 -10.29100 46.86100
H  25.46500 -8.64400 49.13100
H  23.83600 -9.98600 49.63300
H  22.94000 -10.96000 48.49200
H  22.42000 -9.29600 48.90700
H  27.32100 -9.59800 47.07700
H  26.51000 -10.90700 47.78400
H  27.48100 -11.17500 49.54700
H  27.28700 -9.44900 50.02200
H  28.72900 -10.00700 49.14900
H  30.78700 -5.34400 46.71500
H  29.82600 -6.20300 47.94600
H  30.06200 -4.38700 47.94600
H  28.21400 -2.67300 42.70700
H  28.37400 1.55600 44.18700
H  28.25300 1.63500 42.43200
H  29.77400 1.33800 43.19500

