158

Mg 26.06800 1.18900 29.18300
C  28.04000 0.70600 32.07500
C  23.27500 1.71800 31.12100
C  24.06900 1.51900 26.31300
C  28.71200 0.42900 27.27500
N  25.72800 1.17500 31.30700
C  26.67300 1.01300 32.34200
C  26.05400 1.30000 33.69600
C  24.52700 1.48200 33.33600
C  24.53000 1.50200 31.82400
C  23.52000 0.49200 33.97600
C  26.76500 2.58200 34.29900
C  27.31700 2.23700 35.74800
H  26.91600 3.11400 36.88500
N  23.92200 1.34900 28.80800
C  22.94700 1.58800 29.78400
C  21.69400 1.57000 29.06000
C  21.93900 1.53800 27.69900
C  23.32500 1.53600 27.55200
C  20.38100 1.75200 29.77600
C  20.94600 1.46700 26.44400
O  21.36000 1.38400 25.29100
C  19.52300 1.26800 26.74100
N  26.29700 0.89800 27.09200
C  25.38300 1.13800 26.06400
C  26.01900 0.79400 24.62000
C  27.53600 0.90500 25.02700
C  27.56300 0.81200 26.57300
C  25.80300 -0.57200 24.12400
C  28.26700 2.23600 24.63200
C  29.58800 2.07600 23.79900
N  28.00300 0.52600 29.51700
C  28.98900 0.23300 28.65300
C  30.12300 -0.31400 29.37600
C  29.82200 -0.02300 30.68100
C  28.52100 0.43900 30.79300
C  31.39000 -0.52500 28.60200
C  30.36000 0.09000 32.09100
O  31.50500 -0.08700 32.50100
C  29.17500 0.51100 33.05400
C  28.98900 -0.55800 34.02100
O  28.05100 -1.32900 33.97100
O  29.83600 -0.46800 35.05600
C  29.52500 -1.19000 36.29800
H  22.50500 2.07200 31.80900
H  23.58600 1.72300 25.35500
H  29.56700 0.15300 26.65400
H  26.23000 0.42500 34.32200
H  24.18100 2.48700 33.57800
H  23.26900 -0.34800 33.32800
H  22.61700 1.05800 34.20900
H  23.93700 0.06800 34.88900
H  26.10000 3.44300 34.36400
H  27.60400 2.84800 33.65700
H  28.39900 2.37000 35.71400
H  27.11000 1.20700 36.03700
H  19.85500 0.81900 29.97800
H  19.85400 2.58400 29.30900
H  20.51400 2.15000 30.78200
H  19.13100 2.20200 27.14500
H  19.40400 0.37700 27.35700
H  18.99200 1.19100 25.79300
H  25.66600 1.52100 23.88800
H  28.16100 0.10800 24.62400
H  25.03500 -0.44300 23.36100
H  25.41400 -1.27900 24.85600
H  26.66900 -0.98400 23.60500
H  28.51600 2.79800 25.53200
H  27.66600 2.90500 24.01600
H  29.32800 2.17300 22.74500
H  29.87900 1.03400 23.93000
H  30.35500 2.83600 23.95100
H  32.17800 0.07300 29.05900
H  31.20600 -0.24200 27.56500
H  31.69800 -1.56900 28.64400
H  29.39300 1.42700 33.60400
H  28.59600 -0.79100 36.70500
H  30.18600 -1.13800 37.16300
H  29.33600 -2.24100 36.07800
Mg 48.15000 15.95100 28.49100
C  46.06300 15.72800 31.32100
C  50.40800 17.61700 30.38300
C  49.71800 16.65100 25.67800
C  45.30500 15.02500 26.58400
N  48.19500 16.70600 30.55100
C  47.29200 16.39900 31.58700
C  47.85700 16.93500 32.91700
C  49.05400 17.84500 32.49300
C  49.23100 17.44600 31.06400
C  48.94100 19.37300 32.84300
C  48.25000 15.79600 33.80300
C  47.83100 15.96400 35.31600
H  47.46300 17.41200 35.80300
N  49.93400 16.87600 28.06200
C  50.79600 17.43700 29.02600
C  52.00500 17.88700 28.28100
C  51.87300 17.44900 26.92100
C  50.44900 16.97700 26.86200
C  53.13000 18.72200 28.92100
C  52.76900 17.39600 25.76200
O  52.48100 16.95100 24.69500
C  54.26200 17.68600 26.01400
N  47.61500 15.70300 26.44700
C  48.48300 16.01600 25.49100
C  47.91000 15.80000 24.08700
C  46.57200 15.10000 24.34500
C  46.48400 15.32200 25.87000
C  47.77300 17.01700 23.03700
C  46.57900 13.56700 24.00600
C  47.43400 12.61000 24.89200
N  46.12300 15.30100 28.81100
C  45.12700 14.98100 28.01100
C  43.98100 14.42900 28.76400
C  44.31700 14.68800 30.07000
C  45.59400 15.29300 30.02300
C  42.86700 13.64700 28.19500
C  43.88700 14.60800 31.43400
O  42.86600 14.11300 31.93100
C  44.94200 15.40900 32.25400
C  44.21300 16.53400 32.94700
O  43.80100 17.55400 32.45700
O  44.08000 16.26400 34.30100
C  43.18700 17.16900 35.01200
H  51.14700 18.10300 31.02400
H  50.09800 16.91300 24.68800
H  44.54800 14.68200 25.87500
H  47.00500 17.49400 33.30400
H  49.99900 17.69900 33.01600
H  49.10700 20.00600 31.97100
H  49.57200 19.59400 33.70400
H  47.90900 19.53600 33.15300
H  49.33900 15.78300 33.77600
H  47.98000 14.86600 33.30300
H  48.69600 15.61800 35.88200
H  47.04700 15.23200 35.51200
H  53.33900 19.53200 28.22200
H  53.95400 18.07000 29.21200
H  52.65000 19.04500 29.84500
H  54.68800 17.44600 26.98800
H  54.33500 18.76200 25.85400
H  54.90900 17.30500 25.22400
H  48.57300 15.10600 23.57000
H  45.74200 15.54300 23.79500
H  48.20100 17.95900 23.38100
H  46.73600 17.19600 22.75200
H  48.26700 16.66400 22.13200
H  47.01500 13.57000 23.00700
H  45.55800 13.20300 23.89100
H  47.86400 11.97700 24.11600
H  46.89200 11.92100 25.54000
H  48.32400 12.94800 25.42300
H  43.35500 12.69700 27.97800
H  42.63600 14.07300 27.21800
H  41.97900 13.44000 28.79300
H  45.48600 14.83500 33.00400
H  42.43700 17.52600 34.30700
H  43.86500 17.90400 35.44600
H  42.66500 16.64200 35.81100

