158

Mg 46.35700 24.88300 29.05200
C  47.14600 26.95200 31.79600
C  45.04500 22.62000 31.20900
C  46.38800 22.61600 26.53600
C  47.87400 27.28300 26.99800
N  46.13700 24.76700 31.25300
C  46.38800 25.85700 32.15300
C  45.80000 25.49700 33.55900
C  45.17000 24.10700 33.42300
C  45.45400 23.76400 31.89200
C  45.81700 23.00100 34.25300
C  44.88200 26.58400 34.17500
C  45.15800 26.95400 35.65400
H  43.96600 27.10000 36.58000
N  45.74800 22.88300 28.91200
C  45.20400 22.16700 29.89100
C  44.88100 20.87800 29.34800
C  45.40700 20.73700 28.06200
C  45.95600 22.08000 27.78900
C  44.14000 19.87100 30.10700
C  45.33800 19.60500 27.04900
O  46.00500 19.70500 26.06800
C  44.73600 18.30000 27.41500
N  47.08700 24.95100 27.11400
C  46.81100 23.92400 26.20800
C  47.15800 24.35300 24.78800
C  47.45400 25.87400 24.96000
C  47.53100 26.07200 26.45000
C  48.20400 23.46500 23.97300
C  46.41100 26.83000 24.27900
C  45.06000 26.85900 24.92700
N  47.26400 26.72900 29.29400
C  47.88800 27.55400 28.34500
C  48.29600 28.82800 28.92800
C  48.01100 28.53500 30.26500
C  47.52900 27.26700 30.45300
C  48.87500 30.16800 28.34400
C  48.13200 29.15500 31.54900
O  48.53500 30.25200 31.91400
C  47.57500 28.11900 32.60100
C  48.70500 27.75100 33.47900
O  49.66400 27.12000 33.13300
O  48.42200 28.13900 34.74100
C  49.38800 27.67400 35.78400
H  44.46000 22.00300 31.89300
H  46.28900 22.05000 25.60700
H  48.34700 28.05300 26.38400
H  46.63900 25.35900 34.24100
H  44.11100 24.16100 33.67400
H  45.23200 22.09100 34.11600
H  45.82400 23.19600 35.32500
H  46.81600 22.76900 33.88400
H  43.85000 26.28000 33.99700
H  44.94100 27.45300 33.52100
H  45.69100 27.90400 35.65800
H  45.95200 26.31900 36.04700
H  44.78900 19.02200 30.32000
H  43.31500 19.47400 29.51500
H  43.78800 20.22600 31.07600
H  45.20400 17.95700 28.33800
H  44.86500 17.54400 26.64100
H  43.67500 18.54800 27.45200
H  46.18400 24.26100 24.30600
H  48.45200 26.15600 24.62600
H  48.54900 22.61200 24.55700
H  49.11900 23.96900 23.66000
H  47.83700 22.94500 23.08800
H  46.29100 26.47300 23.25600
H  46.90500 27.80100 24.32500
H  44.92800 25.92800 25.47800
H  44.40400 26.93900 24.06000
H  45.01900 27.73500 25.57300
H  49.24100 29.83700 27.37200
H  49.58600 30.47700 29.11000
H  48.00100 30.81900 28.35800
H  46.73200 28.48700 33.18600
H  50.39400 27.75200 35.37100
H  49.07700 26.72100 36.21100
H  49.38500 28.36100 36.63000
Mg 25.86600 50.93200 26.85300
C  23.43800 51.72100 29.36900
C  28.09900 50.12300 29.33800
C  27.97900 50.49100 24.47100
C  23.58800 52.16300 24.46500
N  25.76700 51.07000 29.13200
C  24.63700 51.24800 29.89600
C  24.95000 51.02900 31.33900
C  26.52500 50.69100 31.35400
C  26.83100 50.51000 29.83000
C  27.39400 51.80400 31.96400
C  24.00900 49.97800 31.94400
C  23.65800 49.95100 33.46700
H  24.16300 51.02900 34.41900
N  27.80400 50.35500 26.89700
C  28.58200 50.08500 28.01100
C  29.88700 49.70400 27.51300
C  29.83900 49.78700 26.12200
C  28.52000 50.29000 25.78500
C  31.05500 49.37400 28.35600
C  31.03600 49.59600 25.05800
O  30.91000 49.70700 23.84300
C  32.36200 49.19000 25.50600
N  25.82600 51.40100 24.75900
C  26.83000 51.01800 23.99100
C  26.62000 51.24900 22.44900
C  25.16800 51.77900 22.44200
C  24.84500 51.86700 23.97100
C  27.71000 52.14600 21.78900
C  24.17800 50.86200 21.62400
C  23.91700 49.43100 22.18700
N  23.93400 51.73900 26.88300
C  23.15100 52.17000 25.81300
C  21.82600 52.45300 26.26300
C  21.93200 52.46200 27.66600
C  23.20200 51.87200 27.99100
C  20.56900 52.96000 25.46400
C  21.17500 52.74700 28.91800
O  20.06900 53.26700 29.13700
C  22.20400 52.31500 30.04000
C  22.56000 53.52700 30.79500
O  22.92500 54.59600 30.36300
O  22.56800 53.19200 32.10700
C  23.15700 54.21300 33.03200
H  28.70200 49.82400 30.19700
H  28.63400 50.09100 23.69400
H  22.83400 52.50100 23.75200
H  24.71900 52.00100 31.77500
H  26.73900 49.72100 31.80200
H  26.71700 52.65100 32.07400
H  28.14500 52.20100 31.28100
H  27.87800 51.51300 32.89700
H  24.54100 49.02800 31.88200
H  23.17900 49.85300 31.24900
H  23.90400 48.96000 33.84800
H  22.57400 50.06400 33.47500
H  31.70500 50.24700 28.42600
H  31.58100 48.54500 27.88200
H  30.66500 49.07300 29.32800
H  32.44500 48.26000 26.06900
H  32.64800 49.99400 26.18400
H  33.01600 49.02500 24.65000
H  26.75300 50.31700 21.90000
H  25.15900 52.78300 22.01800
H  27.27600 53.14400 21.73000
H  27.91200 51.80800 20.77300
H  28.57600 52.40400 22.40000
H  24.51000 50.90600 20.58700
H  23.23300 51.39400 21.73600
H  24.05500 48.64600 21.44300
H  22.91200 49.28200 22.58200
H  24.68600 49.09000 22.88100
H  19.70900 52.82600 26.12000
H  20.34300 52.43300 24.53700
H  20.81400 53.98700 25.19300
H  21.75800 51.54700 30.67200
H  22.60300 55.12600 32.81100
H  24.22100 54.28500 32.80600
H  22.97000 53.98800 34.08200

