158

Mg 23.53400 -5.76100 44.82400
C  25.81400 -3.41000 43.71000
C  21.14600 -4.28300 42.80400
C  21.76600 -8.56400 44.89900
C  26.29800 -7.56300 46.07400
N  23.53800 -4.13500 43.42500
C  24.53900 -3.25500 43.19500
C  24.14700 -2.10900 42.29000
C  22.56100 -2.23800 42.28100
C  22.35700 -3.58500 42.93700
C  21.70300 -1.10700 42.93900
C  24.69000 -2.06200 40.84000
C  25.11900 -0.67100 40.37000
H  24.88400 -0.34400 38.86300
N  21.59900 -6.24300 44.14800
C  20.87600 -5.59100 43.28700
C  19.76100 -6.30500 42.98000
C  19.91100 -7.53400 43.46900
C  21.12400 -7.50600 44.28100
C  18.69600 -5.80800 41.99100
C  19.04300 -8.79100 43.13800
O  18.13100 -8.70500 42.35300
C  19.22500 -10.13200 43.84200
N  24.02800 -7.75300 45.54200
C  23.00100 -8.71900 45.53700
C  23.51200 -10.09600 45.90500
C  24.97300 -9.72200 46.50100
C  25.10400 -8.27300 46.07300
C  22.56100 -10.79300 46.97900
C  26.14800 -10.51800 45.82300
C  26.26700 -12.00900 46.27700
N  25.65200 -5.42000 45.18000
C  26.60400 -6.29100 45.57900
C  27.98000 -5.65300 45.47400
C  27.70300 -4.51000 44.75600
C  26.28900 -4.47700 44.55200
C  29.34800 -6.22700 45.72900
C  28.21800 -3.27400 44.16400
O  29.37600 -2.81100 44.17900
C  27.08000 -2.63400 43.35000
C  27.07400 -1.18700 43.60600
O  26.50100 -0.60500 44.46200
O  27.97600 -0.56200 42.70600
C  28.15600 0.85400 42.84600
H  20.29900 -3.82300 42.29000
H  21.23200 -9.50700 45.03300
H  27.17400 -8.02400 46.53500
H  24.34900 -1.22100 42.88700
H  22.22500 -2.48100 41.27300
H  22.30800 -0.23400 43.18400
H  21.29400 -1.59300 43.82500
H  20.87200 -0.85300 42.28200
H  24.02800 -2.45500 40.06900
H  25.52900 -2.75800 40.85400
H  26.20400 -0.61000 40.45500
H  24.83100 0.14200 41.03700
H  18.82800 -5.95100 40.91900
H  18.55700 -4.72800 42.04300
H  17.73300 -6.29300 42.15600
H  18.48400 -10.91000 43.66000
H  19.10800 -9.82800 44.88200
H  20.23400 -10.50500 43.66300
H  23.70300 -10.85000 45.14100
H  24.90600 -9.80800 47.58500
H  22.26400 -11.82700 46.80100
H  21.61000 -10.26800 47.06300
H  23.07100 -10.93200 47.93200
H  27.10300 -10.15800 46.20500
H  26.08900 -10.49600 44.73500
H  27.22100 -12.42300 45.94800
H  25.36000 -12.53400 45.97600
H  26.17700 -12.06500 47.36200
H  29.67200 -6.64300 44.77400
H  29.23500 -6.99900 46.48900
H  30.00100 -5.41900 46.05900
H  27.34800 -2.74000 42.29900
H  28.00000 1.26600 41.84900
H  29.16600 1.03100 43.21600
H  27.53100 1.46100 43.50100
Mg -10.73400 16.85500 41.08400
C  -7.27300 16.41400 41.24400
C  -10.23400 20.14600 40.47400
C  -13.95800 16.98300 39.95900
C  -11.06000 13.42900 41.76800
N  -8.89600 18.08900 40.72200
C  -7.60000 17.65200 40.80600
C  -6.62500 18.89700 40.60100
C  -7.54900 20.14300 40.81200
C  -8.97200 19.43800 40.63000
C  -7.41600 20.70400 42.21900
C  -5.96000 18.83400 39.13800
C  -4.35200 18.65900 39.04200
H  -3.90700 17.40400 38.35500
N  -11.95900 18.31400 40.40100
C  -11.55300 19.62200 40.22900
C  -12.59800 20.42900 39.71000
C  -13.68900 19.54500 39.50900
C  -13.22500 18.18000 39.93900
C  -12.34600 21.87100 39.30700
C  -15.04000 19.85200 38.90500
O  -15.13700 21.05100 38.59500
C  -16.14500 18.96300 38.58500
N  -12.30900 15.39200 40.80900
C  -13.58400 15.71200 40.50400
C  -14.53400 14.54700 40.66900
C  -13.59500 13.44900 41.22300
C  -12.18100 14.10200 41.25000
C  -15.70700 14.91100 41.58000
C  -13.72800 11.99000 40.62200
C  -13.16900 11.76200 39.19300
N  -9.49200 15.18300 41.47300
C  -9.78300 13.90000 41.78300
C  -8.51300 13.18800 42.08400
C  -7.51500 14.10800 41.89500
C  -8.16700 15.33300 41.56100
C  -8.33400 11.72600 42.45100
C  -6.11400 14.28700 41.92300
O  -5.20800 13.44400 42.16400
C  -5.84400 15.84500 41.46100
C  -5.10100 16.56600 42.51500
O  -5.57000 17.43000 43.23700
O  -3.75400 16.23300 42.44300
C  -2.96800 17.02700 43.35400
H  -9.91900 21.17400 40.28300
H  -14.96300 16.87900 39.54400
H  -11.31000 12.40900 42.06700
H  -5.80500 19.05300 41.30200
H  -7.43800 20.94200 40.07900
H  -7.44300 19.85000 42.89500
H  -8.14300 21.44500 42.55300
H  -6.48800 21.27600 42.19300
H  -6.27200 19.78100 38.69600
H  -6.46600 18.16900 38.43900
H  -3.79000 18.84900 39.95700
H  -4.10200 19.40000 38.28300
H  -12.88500 22.31400 38.47000
H  -11.29000 21.93800 39.04500
H  -12.57700 22.50400 40.16400
H  -16.73200 18.60100 39.42900
H  -15.74500 18.12200 38.02000
H  -16.83800 19.48500 37.92500
H  -14.91100 14.24700 39.69200
H  -13.90600 13.23900 42.24700
H  -15.70600 15.98700 41.75100
H  -15.54700 14.50700 42.57900
H  -16.57900 14.51100 41.06200
H  -14.81300 11.89500 40.58000
H  -13.38800 11.24600 41.34300
H  -13.89500 11.22300 38.58400
H  -12.24600 11.18300 39.22700
H  -12.89700 12.69100 38.69100
H  -7.26200 11.55200 42.36000
H  -8.86500 11.02700 41.80600
H  -8.62600 11.52200 43.48200
H  -5.22800 15.69600 40.57400
H  -1.93000 16.73500 43.19700
H  -3.24600 16.79400 44.38200
H  -2.94500 18.11300 43.26600

