158

Mg 44.19500 3.23600 47.64600
C  42.06700 5.83000 46.71500
C  41.58200 1.07000 47.44800
C  46.35000 0.58500 47.86200
C  46.90900 5.43700 47.44000
N  42.01400 3.49000 47.19300
C  41.38300 4.61900 46.77000
C  39.94000 4.30500 46.52700
C  39.79100 2.87000 47.21200
C  41.25400 2.41300 47.23100
C  39.14200 2.78500 48.65700
C  39.65800 4.30900 44.93600
C  38.45300 5.12700 44.47000
H  38.64900 6.22300 43.41500
N  43.90200 1.07300 47.73600
C  42.80800 0.45700 47.58200
C  42.98700 -0.99500 47.68400
C  44.39200 -1.17100 47.73100
C  44.97900 0.23400 47.80100
C  41.87400 -2.01000 47.52800
C  45.10500 -2.56300 47.68100
O  44.49000 -3.59800 47.73300
C  46.53100 -2.65300 47.57500
N  46.32400 3.06800 47.61300
C  46.98200 1.90400 47.85700
C  48.51500 2.02900 48.11300
C  48.64800 3.58700 47.99100
C  47.23300 4.09800 47.65500
C  48.88100 1.34700 49.52000
C  49.68000 4.05500 46.92600
C  50.73400 5.08900 47.21900
N  44.46900 5.15600 47.27000
C  45.64200 5.85000 47.12500
C  45.32900 7.23700 46.81600
C  43.94100 7.33300 46.79600
C  43.42100 6.06500 47.00600
C  46.39800 8.32400 46.76100
C  42.81000 8.20600 46.59400
O  42.74400 9.43100 46.51300
C  41.50100 7.20500 46.49700
C  40.66700 7.61900 47.65800
O  40.42300 6.82700 48.54300
O  40.11400 8.84500 47.55900
C  38.93500 8.95700 48.40400
H  40.77100 0.34200 47.38200
H  47.01500 -0.27200 47.98600
H  47.75700 6.12500 47.46700
H  39.26900 4.98700 47.05000
H  39.26700 2.20300 46.52700
H  39.06100 3.76200 49.13500
H  39.72500 2.15900 49.33200
H  38.16500 2.33200 48.48900
H  39.27700 3.31000 44.72400
H  40.52400 4.47800 44.29500
H  37.96500 5.65200 45.29200
H  37.65200 4.54600 44.01200
H  42.17000 -2.96700 47.09800
H  41.23200 -1.57800 46.76100
H  41.35100 -2.17500 48.47000
H  46.84600 -2.06400 46.71400
H  46.72800 -3.70000 47.34400
H  46.91700 -2.32000 48.53800
H  49.08100 1.54200 47.31900
H  48.92000 4.06600 48.93200
H  49.32600 2.14900 50.11000
H  49.47700 0.43700 49.44300
H  47.97300 1.10100 50.07000
H  49.20900 4.32700 45.98100
H  50.21300 3.14100 46.66600
H  51.73900 4.66600 47.21500
H  50.61900 5.61200 48.16800
H  50.78600 5.78600 46.38200
H  46.97100 8.24800 47.68500
H  45.97800 9.31600 46.93100
H  46.97100 8.22500 45.83900
H  40.99800 7.04300 45.54400
H  38.10500 8.38900 47.98500
H  38.57800 9.98700 48.42700
H  39.17000 8.78400 49.45400
Mg 9.20300 47.33600 27.13300
C  7.09500 46.82800 29.92000
C  11.80600 47.95000 29.08600
C  10.92100 48.22300 24.31000
C  6.27100 47.15000 25.15300
N  9.41300 47.35600 29.24900
C  8.45300 47.07800 30.25800
C  9.09600 47.27200 31.64000
C  10.62200 47.52300 31.30100
C  10.65000 47.72700 29.78200
C  11.25100 48.62800 32.07600
C  8.77400 46.16200 32.65800
C  9.84100 45.70400 33.62800
H  9.34100 45.01800 34.95200
N  11.15700 47.76700 26.75500
C  12.10300 48.02400 27.69400
C  13.47000 48.11700 27.10500
C  13.13900 48.16700 25.69100
C  11.67700 48.02600 25.47800
C  14.77900 48.10200 27.90800
C  14.13400 48.17500 24.53800
O  13.79900 47.81500 23.43500
C  15.63400 48.40700 24.87800
N  8.62000 47.89100 25.01200
C  9.51000 48.17600 24.09600
C  8.83300 48.47300 22.75200
C  7.34100 47.85000 22.94900
C  7.36700 47.65900 24.47700
C  8.82900 50.01800 22.51400
C  7.11200 46.52100 22.14900
C  6.37900 46.61900 20.77000
N  7.07500 47.17200 27.43000
C  6.09400 47.00800 26.51400
C  4.84600 46.64900 27.15500
C  5.17400 46.62300 28.49900
C  6.51200 46.95000 28.61200
C  3.45400 46.36700 26.49700
C  4.64200 46.43300 29.78100
O  3.49000 46.18400 30.26500
C  5.86400 46.49500 30.77100
C  5.96300 45.13400 31.31300
O  6.60800 44.17600 30.90000
O  5.28700 45.11200 32.53400
C  5.11700 43.80300 33.14500
H  12.66200 48.19000 29.72000
H  11.44700 48.53300 23.40500
H  5.47800 47.02300 24.41300
H  8.78400 48.21200 32.09600
H  11.16300 46.58500 31.42400
H  12.24700 48.29500 32.36800
H  10.68900 49.05800 32.90500
H  11.36200 49.48100 31.40600
H  8.60500 45.36300 31.93600
H  7.84800 46.28400 33.21900
H  10.39600 46.61400 33.85400
H  10.51200 45.01500 33.11700
H  15.64100 47.66000 27.40900
H  14.62600 47.85900 28.96000
H  15.00900 49.16600 27.96800
H  15.65800 49.12000 25.70300
H  16.20300 48.72800 24.00600
H  16.17500 47.53600 25.24700
H  9.40400 48.01000 21.94800
H  6.52500 48.53000 22.70600
H  7.84100 50.46600 22.61900
H  9.13600 50.18700 21.48200
H  9.54200 50.46300 23.20700
H  6.56700 45.81200 22.77300
H  8.10800 46.09100 22.04500
H  7.05300 46.11400 20.07800
H  6.24700 47.61800 20.35500
H  5.40900 46.12800 20.68600
H  3.02700 45.56300 27.09600
H  3.50000 46.15500 25.42900
H  2.78700 47.22400 26.59300
H  5.66500 47.28500 31.49500
H  4.96300 44.03600 34.19900
H  5.98900 43.15300 33.08100
H  4.25100 43.16900 32.95500

