158

Mg 25.11500 1.69800 29.68700
C  27.21600 1.55200 32.49500
C  22.43600 1.68600 31.89800
C  23.15900 1.39400 27.04200
C  27.93400 0.95600 27.65000
N  24.83000 1.79200 31.88900
C  25.89400 1.82500 32.83200
C  25.39400 2.07100 34.20500
C  23.81700 1.91600 34.03400
C  23.63000 1.77200 32.50100
C  23.14500 0.81600 34.93800
C  25.83000 3.41700 34.80800
C  26.66000 3.35900 36.08600
H  26.23500 4.34100 37.29100
N  23.08900 1.66300 29.47800
C  22.20000 1.65700 30.47600
C  20.89800 1.69400 29.86800
C  21.01200 1.53100 28.50100
C  22.44700 1.55600 28.30300
C  19.68900 1.72100 30.76400
C  19.97500 1.19400 27.48800
O  20.25600 0.96400 26.32600
C  18.55400 1.05700 27.76000
N  25.53100 1.09600 27.71800
C  24.50700 1.16300 26.76500
C  25.06500 1.09600 25.32600
C  26.58500 0.87600 25.44900
C  26.71400 1.03600 27.00800
C  24.49700 0.09900 24.26100
C  27.45200 2.01400 24.78600
C  27.29300 3.44400 25.30600
N  27.10600 1.36700 29.94100
C  28.07700 1.12500 29.02100
C  29.35300 1.03500 29.67800
C  29.06100 1.27100 31.06300
C  27.65300 1.35100 31.16200
C  30.66000 0.73900 29.04400
C  29.65900 1.22900 32.41700
O  30.83700 1.00300 32.77700
C  28.45900 1.54100 33.43800
C  28.37700 0.52900 34.52700
O  28.10300 -0.63000 34.31600
O  28.81100 1.06200 35.68500
C  28.77100 0.12400 36.80700
H  21.69200 1.73400 32.69600
H  22.51900 1.43800 26.15900
H  28.77000 0.75000 26.97900
H  25.84300 1.31900 34.85500
H  23.32300 2.82900 34.36700
H  22.82700 0.11600 34.16500
H  22.23000 1.21000 35.38000
H  23.75500 0.33500 35.70300
H  24.94000 3.98100 35.08600
H  26.46600 3.97700 34.12300
H  27.65700 3.68600 35.78800
H  26.72700 2.37700 36.55300
H  19.10700 0.80700 30.64400
H  19.03500 2.55200 30.50200
H  19.89700 1.95500 31.80800
H  18.38600 0.22800 28.44900
H  18.08800 0.75800 26.82100
H  18.11700 1.94000 28.22600
H  24.90400 2.11800 24.98400
H  26.88900 -0.12900 25.15900
H  24.44900 0.65400 23.32400
H  23.49500 -0.27200 24.47700
H  25.11700 -0.79600 24.21000
H  27.01100 2.05800 23.79000
H  28.49100 1.69100 24.71700
H  28.29200 3.81200 25.54000
H  26.63100 3.37900 26.16900
H  26.80100 4.03400 24.53300
H  30.80500 -0.30900 28.78200
H  31.33700 1.07200 29.83100
H  30.91000 1.37300 28.19400
H  28.61200 2.54400 33.83600
H  29.72400 -0.39000 36.93400
H  28.04300 -0.68500 36.75800
H  28.60900 0.69300 37.72200
Mg 48.42100 35.31500 27.42800
C  46.49700 33.81800 30.06600
C  48.59300 38.16000 29.22200
C  49.70400 36.77100 24.65000
C  47.53400 32.44100 25.49000
N  47.70700 35.87000 29.35800
C  47.07800 35.07400 30.28500
C  47.23800 35.69300 31.69600
C  47.33400 37.23200 31.34000
C  47.90300 37.11100 29.90300
C  46.04700 38.09800 31.55400
C  48.52900 35.07700 32.36900
C  48.53200 35.07700 33.85700
H  47.69600 36.07200 34.57000
N  49.22900 37.14500 27.05800
C  49.29800 38.15400 27.98600
C  50.04400 39.29700 27.39900
C  50.26300 38.94600 26.05600
C  49.69700 37.61500 25.85100
C  50.35700 40.59400 28.13300
C  50.87800 39.81000 24.94800
O  51.07800 39.31000 23.87700
C  51.40700 41.16600 25.16400
N  48.42000 34.74100 25.32400
C  49.07300 35.50700 24.42000
C  49.10900 34.83700 22.98600
C  48.70400 33.36100 23.36700
C  48.14300 33.50800 24.79500
C  48.02400 35.42900 21.98800
C  49.95400 32.41100 23.35400
C  49.74000 31.00000 22.71100
N  47.27900 33.44800 27.65500
C  47.08000 32.36500 26.82500
C  46.26000 31.36000 27.54500
C  46.06500 31.86100 28.82900
C  46.66200 33.15500 28.84500
C  45.81000 30.05200 27.05300
C  45.37800 31.65400 30.06200
O  44.74100 30.68300 30.48400
C  45.52800 33.00100 30.88100
C  45.85300 32.67200 32.31200
O  46.90800 32.16300 32.71600
O  44.79800 33.07300 33.12800
C  45.15100 32.94900 34.55900
H  48.69400 39.05600 29.83900
H  50.12100 37.28100 23.78000
H  47.38100 31.58200 24.83300
H  46.35200 35.43200 32.27500
H  48.07100 37.66000 32.02000
H  45.19700 37.58900 32.00900
H  45.70600 38.62800 30.66400
H  46.15800 38.96500 32.20500
H  49.29600 35.69500 31.90100
H  48.49800 34.06900 31.95700
H  49.58000 35.32300 34.02700
H  48.46500 34.04100 34.19000
H  50.20200 41.43000 27.45100
H  51.43300 40.67200 28.29200
H  49.69900 40.67500 28.99900
H  52.07800 41.40200 24.33900
H  51.92200 41.19400 26.12400
H  50.70600 42.00000 25.19100
H  50.12600 34.76800 22.60000
H  47.89100 32.84600 22.85400
H  47.47600 36.23900 22.47100
H  47.24800 34.69400 21.77700
H  48.45000 35.79200 21.05300
H  50.32300 32.34000 24.37700
H  50.78300 32.74800 22.73000
H  50.43500 30.94800 21.87200
H  48.80100 30.69700 22.24700
H  50.06500 30.27200 23.45400
H  46.08000 29.29000 27.78400
H  46.28400 29.73600 26.12300
H  44.74300 30.14500 26.85100
H  44.58000 33.53600 30.94800
H  45.35800 31.91000 34.81400
H  44.31100 33.23800 35.19000
H  45.98000 33.64800 34.67500

