158

Mg 45.75100 3.91200 47.08500
C  43.41800 6.63300 46.54600
C  43.17100 1.79400 46.54000
C  48.01000 1.63700 46.80200
C  48.37700 6.40700 47.13500
N  43.58300 4.23100 46.51600
C  42.81900 5.42300 46.41300
C  41.33900 5.04500 46.00200
C  41.26900 3.51500 46.19600
C  42.71400 3.11800 46.42400
C  40.23400 2.98800 47.23800
C  41.05500 5.48000 44.51400
C  40.34500 6.78000 44.21500
H  40.86900 7.61900 43.02200
N  45.59900 1.96400 46.87100
C  44.41100 1.23800 46.65500
C  44.74400 -0.12300 46.70700
C  46.18600 -0.20100 46.66200
C  46.67700 1.16000 46.82500
C  43.68400 -1.19300 46.55500
C  47.01500 -1.53900 46.60800
O  46.47800 -2.61300 46.56200
C  48.58700 -1.58100 46.70300
N  47.91200 4.03700 46.78300
C  48.61100 2.89000 46.74400
C  50.15500 3.12200 46.75300
C  50.29500 4.63200 46.92500
C  48.76100 5.08600 46.93200
C  50.94400 2.21500 47.68600
C  51.22700 5.36000 45.91400
C  52.52500 5.99400 46.35300
N  45.89800 6.05600 46.94000
C  47.06000 6.86800 47.00900
C  46.64700 8.32300 47.01000
C  45.18600 8.23600 46.91800
C  44.79100 6.88100 46.75700
C  47.46500 9.60500 46.82600
C  43.94300 9.02400 46.88800
O  43.75100 10.22600 47.00400
C  42.76200 8.00400 46.73500
C  41.92800 8.09100 47.99300
O  42.19800 7.58600 49.06300
O  40.86000 8.95400 47.78200
C  40.07300 9.34300 48.97800
H  42.33000 1.10700 46.42900
H  48.80900 0.92300 46.59300
H  49.20800 7.09700 47.29500
H  40.71200 5.67500 46.63400
H  40.87700 2.97300 45.33600
H  39.39400 2.71000 46.60200
H  39.96900 3.82800 47.88000
H  40.66100 2.13000 47.75800
H  40.59700 4.65900 43.96200
H  41.98800 5.52400 43.95200
H  40.31600 7.41400 45.10200
H  39.28600 6.64300 43.99600
H  43.78300 -1.62300 45.55800
H  42.62900 -0.92300 46.60900
H  43.82100 -1.93500 47.34100
H  48.84900 -0.95800 47.55900
H  48.97300 -1.19400 45.76000
H  48.87300 -2.61800 46.87500
H  50.50100 2.88000 45.74800
H  50.73400 4.83200 47.90200
H  50.37600 2.07600 48.60600
H  51.92000 2.67400 47.84300
H  51.13300 1.25400 47.20700
H  50.65100 6.18400 45.49300
H  51.40200 4.69700 45.06600
H  52.28400 7.04100 46.53500
H  53.32300 6.09300 45.61700
H  52.97700 5.49200 47.20800
H  48.33800 9.50300 47.47000
H  46.84100 10.37600 47.27800
H  47.72900 9.76200 45.78000
H  42.18400 8.25700 45.84600
H  40.68500 9.89000 49.69500
H  39.81800 8.44400 49.54100
H  39.19400 9.91200 48.67500
Mg 47.76500 15.86700 27.97900
C  45.72000 15.35200 30.93400
C  49.96900 17.61500 29.96500
C  49.63400 16.39500 25.27600
C  45.28000 14.31900 26.12700
N  47.78100 16.45900 30.21100
C  46.91100 16.08000 31.23000
C  47.47600 16.62500 32.58400
C  48.57100 17.61400 32.09900
C  48.82100 17.21100 30.68200
C  48.25300 19.13100 32.34500
C  47.79100 15.48100 33.60400
C  47.30200 15.67200 35.04700
H  47.09500 17.05700 35.66600
N  49.52700 16.82200 27.67800
C  50.33200 17.31300 28.68300
C  51.56700 17.66000 27.98900
C  51.48200 17.40100 26.65000
C  50.20000 16.81300 26.46200
C  52.74600 18.26200 28.76000
C  52.53300 17.74100 25.52500
O  52.41400 17.32600 24.38500
C  53.78900 18.56300 25.97900
N  47.39700 15.52200 25.92400
C  48.41400 15.72000 25.04700
C  47.89000 15.32500 23.63900
C  46.52400 14.61600 23.91800
C  46.41100 14.72100 25.40700
C  47.80400 16.54500 22.73400
C  46.43900 13.16100 23.46100
C  46.95500 11.99400 24.25500
N  45.83700 15.10200 28.38000
C  44.92400 14.55800 27.46700
C  43.80800 14.00300 28.22700
C  44.04500 14.29600 29.58700
C  45.27200 14.95200 29.62400
C  42.69500 13.11000 27.78400
C  43.65300 14.11300 30.96600
O  42.69700 13.56000 31.40100
C  44.70300 14.85700 31.91000
C  43.95700 15.95000 32.60400
O  43.76900 17.04200 32.20100
O  43.54400 15.50700 33.88000
C  42.73200 16.46100 34.68700
H  50.68400 18.22900 30.51600
H  50.27400 16.54100 24.40300
H  44.62600 13.71100 25.49800
H  46.66500 17.22900 32.99000
H  49.47600 17.52200 32.70000
H  49.02200 19.69200 32.87600
H  47.39400 19.34100 32.98200
H  48.21800 19.71300 31.42500
H  48.86600 15.30700 33.55100
H  47.42100 14.54100 33.19400
H  48.09400 15.21500 35.64100
H  46.43300 15.02300 35.15600
H  53.69000 17.73100 28.63600
H  52.54900 18.05800 29.81300
H  52.88100 19.33300 28.60900
H  54.34900 18.84000 25.08600
H  54.48900 17.96900 26.56700
H  53.48500 19.46900 26.50400
H  48.62600 14.58000 23.33500
H  45.74300 15.24900 23.49700
H  48.66100 16.55700 22.06000
H  47.85300 17.48600 23.28300
H  46.96600 16.49500 22.03800
H  46.86500 13.06100 22.46300
H  45.37200 13.00500 23.29900
H  47.08800 11.15200 23.57600
H  46.17700 11.70300 24.96100
H  47.87100 12.26500 24.78000
H  41.94300 13.64800 27.20700
H  42.28300 12.61500 28.66300
H  43.10400 12.39100 27.07400
H  45.06300 14.11100 32.62000
H  41.69400 16.50000 34.35700
H  43.10200 17.48600 34.71600
H  42.79800 16.18200 35.73900

