158

Mg 0.78400 8.35400 25.24100
C  1.51200 10.24100 28.12000
C  0.95700 5.48800 27.17200
C  0.82000 6.61700 22.40000
C  0.97400 11.40100 23.39700
N  1.09000 7.92400 27.41500
C  1.29500 8.83400 28.36000
C  1.32000 8.18100 29.82100
C  1.32100 6.69700 29.48100
C  1.04900 6.67300 27.92500
C  2.61500 5.94900 29.80300
C  0.29900 8.69700 30.84000
C  0.62800 8.41700 32.34000
H  1.90900 7.62200 32.71700
N  0.77600 6.32800 24.83200
C  0.82600 5.31300 25.75900
C  0.85400 3.98000 25.06600
C  0.77500 4.28100 23.67800
C  0.82800 5.81000 23.59300
C  0.90300 2.62900 25.75800
C  0.63600 3.37700 22.46700
O  0.62500 3.80200 21.29400
C  0.36200 1.92300 22.66600
N  0.85900 8.95500 23.24400
C  0.86100 8.01900 22.25700
C  0.55600 8.65900 20.84700
C  0.71600 10.15900 21.17200
C  0.80500 10.18300 22.69200
C  1.43000 8.21100 19.70400
C  -0.40500 11.00200 20.53200
C  -1.71000 11.18300 21.36700
N  0.95400 10.52000 25.70100
C  1.08900 11.54000 24.79900
C  1.45200 12.76000 25.55000
C  1.62200 12.33900 26.88500
C  1.26500 10.94400 26.93900
C  1.64600 14.13000 24.91800
C  1.91800 12.72600 28.20300
O  2.20900 13.81100 28.67200
C  1.98600 11.45100 29.11200
C  3.25600 11.04600 29.81200
O  3.90300 10.13600 29.43600
O  3.40600 11.89600 30.90300
C  4.62300 11.53000 31.73400
H  1.09000 4.58700 27.77400
H  0.77600 6.01800 21.48900
H  1.04500 12.33200 22.83100
H  2.27400 8.43400 30.28400
H  0.40700 6.31200 29.93400
H  2.27600 5.09800 30.39300
H  3.35200 6.49400 30.39400
H  3.13600 5.52200 28.94600
H  -0.68400 8.24500 30.70400
H  0.21600 9.78000 30.75900
H  -0.19900 7.81100 32.70900
H  0.69000 9.32100 32.94700
H  -0.07000 2.17300 25.58000
H  0.99600 2.71200 26.84100
H  1.70500 1.95700 25.45100
H  1.14100 1.48500 23.29100
H  0.41900 1.35600 21.73800
H  -0.63500 1.87300 23.10200
H  -0.48000 8.43100 20.60000
H  1.69300 10.42200 20.76500
H  0.86100 7.46200 19.15300
H  2.35600 7.69900 19.96700
H  1.59000 9.07600 19.06000
H  -0.58500 10.44300 19.61400
H  -0.09800 12.01500 20.27300
H  -2.51700 11.18500 20.63300
H  -1.66500 12.06300 22.00900
H  -1.88100 10.26400 21.92700
H  1.73800 14.16300 23.83300
H  2.50300 14.53600 25.45500
H  0.70600 14.66000 25.07300
H  1.37000 11.68900 29.97900
H  4.71000 12.29900 32.50100
H  5.50600 11.56700 31.09700
H  4.53300 10.55700 32.21600
Mg 47.33600 24.78000 28.82600
C  47.84900 27.43500 31.17900
C  46.34400 22.76100 31.39700
C  46.95500 22.42800 26.46500
C  48.64700 27.00400 26.41200
N  47.14600 25.06600 31.02300
C  47.31200 26.24500 31.75100
C  46.94300 25.95800 33.15800
C  46.68200 24.37000 33.28000
C  46.74200 24.03700 31.80200
C  47.68500 23.51500 34.28900
C  45.77100 26.84400 33.61700
C  45.70700 27.43700 35.05300
H  46.17200 26.61800 36.26400
N  46.80400 22.89600 28.89300
C  46.38300 22.20000 30.06000
C  45.89800 20.89600 29.69600
C  46.19000 20.74600 28.34400
C  46.70300 22.03000 27.83500
C  45.22600 19.93300 30.66700
C  45.95100 19.56100 27.44800
O  46.48300 19.52300 26.31800
C  45.39800 18.37200 27.97000
N  48.03400 24.63900 26.67100
C  47.58400 23.62100 25.95800
C  47.79200 23.88500 24.43200
C  48.36200 25.37700 24.44000
C  48.34500 25.71000 25.93500
C  48.70300 22.70000 23.83000
C  47.46000 26.26200 23.45800
C  46.27000 27.06200 24.14900
N  48.14500 26.75200 28.74200
C  48.67300 27.49200 27.70900
C  49.04800 28.84700 28.18800
C  48.75400 28.79500 29.51200
C  48.16200 27.53300 29.82800
C  49.67900 30.00900 27.38200
C  48.74000 29.66400 30.68100
O  49.08200 30.85400 30.78200
C  48.04600 28.79900 31.79600
C  49.01500 28.69300 32.90600
O  50.17100 28.32500 32.85200
O  48.47000 29.03700 34.07500
C  49.37900 29.03100 35.23700
H  45.98500 22.17600 32.24700
H  46.73600 21.76700 25.62300
H  48.97300 27.61900 25.57100
H  47.81600 26.23700 33.74900
H  45.63900 24.26900 33.58100
H  48.56800 24.11600 34.50800
H  48.03900 22.58300 33.85000
H  47.15700 23.30500 35.22000
H  44.79900 26.37800 33.45300
H  45.72900 27.73000 32.98400
H  44.65900 27.65000 35.26000
H  46.09500 28.45500 35.09100
H  44.21600 19.66700 30.35700
H  45.11400 20.35100 31.66800
H  45.83300 19.02800 30.63800
H  44.40100 18.58900 28.35200
H  45.96200 18.01900 28.83300
H  45.30200 17.67800 27.13500
H  46.81300 23.83700 23.95500
H  49.37800 25.33400 24.04700
H  49.50100 23.09700 23.20300
H  48.07600 22.10700 23.16500
H  49.09200 21.99300 24.56300
H  47.13100 25.53700 22.71400
H  48.15800 26.96500 23.00500
H  46.34600 26.92100 25.22700
H  45.28200 26.89700 23.71800
H  46.39100 28.13700 24.01200
H  49.67400 29.58600 26.37700
H  50.70500 30.18100 27.70900
H  49.18200 30.97000 27.51000
H  47.17100 29.37900 32.09000
H  50.22300 29.68300 35.01300
H  49.88400 28.09300 35.46700
H  48.93400 29.43800 36.14500

