158

Mg 24.36300 -4.90200 46.89700
C  26.32900 -2.75400 45.08200
C  21.70800 -4.15100 44.85400
C  22.93000 -7.90200 47.64400
C  27.31100 -5.97700 48.61500
N  24.06900 -3.61600 45.18600
C  24.97600 -2.74700 44.65300
C  24.41400 -1.90800 43.50000
C  22.83900 -2.18400 43.64800
C  22.82700 -3.35100 44.66900
C  22.08300 -0.99800 44.26100
C  25.02000 -2.16900 42.14900
C  25.48600 -1.07000 41.23100
H  25.04300 -1.07400 39.78400
N  22.46600 -5.78500 46.48700
C  21.50500 -5.29400 45.62900
C  20.34800 -6.17900 45.67200
C  20.65600 -7.27200 46.50300
C  22.05100 -7.06400 46.94400
C  19.17600 -6.03800 44.80400
C  19.68800 -8.40000 46.86000
O  18.52500 -8.45100 46.45200
C  20.18300 -9.45900 47.95500
N  25.13000 -6.74500 47.86200
C  24.30400 -7.73900 48.12700
C  24.96000 -8.74600 49.20800
C  26.40300 -8.10800 49.37100
C  26.27900 -6.86700 48.53100
C  24.13400 -9.00200 50.44000
C  27.55500 -9.08800 48.86700
C  28.64100 -9.51300 49.94900
N  26.42800 -4.45600 46.97600
C  27.43000 -4.86900 47.76300
C  28.61900 -3.97900 47.57900
C  28.22000 -3.18900 46.47900
C  26.89200 -3.52800 46.15400
C  29.92700 -4.02300 48.33700
C  28.69100 -2.24100 45.50300
O  29.78400 -1.74800 45.41700
C  27.47200 -1.95200 44.56600
C  27.31700 -0.50800 44.52000
O  26.96700 0.20000 45.44900
O  27.72900 0.00400 43.33800
C  27.65000 1.45500 43.17500
H  20.97300 -3.85900 44.10100
H  22.56700 -8.90700 47.86900
H  28.10400 -6.24500 49.31600
H  24.51300 -0.82800 43.61100
H  22.38200 -2.50600 42.71200
H  21.64500 -0.29200 43.55500
H  22.88100 -0.41400 44.71900
H  21.52000 -1.27200 45.15300
H  24.16900 -2.63000 41.64900
H  25.80400 -2.91800 42.04200
H  26.56900 -0.95000 41.25700
H  25.16300 -0.13300 41.68500
H  19.40800 -5.25700 44.07900
H  18.28100 -5.75000 45.35500
H  19.07100 -6.91500 44.16600
H  19.33300 -10.08000 48.23600
H  20.72000 -9.05000 48.81200
H  20.80600 -10.10900 47.34200
H  25.02000 -9.66100 48.61900
H  26.68700 -7.66700 50.32600
H  23.14800 -8.61200 50.18700
H  24.53400 -8.52900 51.33700
H  24.22300 -10.08100 50.56600
H  28.03900 -8.70700 47.96800
H  27.12300 -10.01100 48.48100
H  28.36700 -9.04400 50.89400
H  29.51800 -8.97200 49.59400
H  28.81600 -10.54400 50.25600
H  30.59800 -3.35300 47.79900
H  30.36900 -5.01600 48.40600
H  29.83400 -3.57400 49.32600
H  27.75700 -2.33500 43.58600
H  28.32900 1.59200 42.33300
H  28.12300 2.02300 43.97600
H  26.70200 1.95500 42.97400
Mg 47.19400 25.92000 27.62200
C  48.50500 27.84200 30.09300
C  46.50400 23.50000 29.87000
C  46.12100 23.97700 25.09500
C  48.31000 28.24700 25.17600
N  47.46400 25.70800 29.71800
C  47.96500 26.64100 30.56400
C  47.75200 26.24600 32.05000
C  47.11300 24.90900 31.98100
C  46.98800 24.65700 30.42500
C  47.85200 23.80200 32.66600
C  46.91300 27.30500 32.85600
C  47.32800 27.41200 34.41400
H  46.16000 27.62700 35.39200
N  46.26900 24.05100 27.53700
C  46.18700 23.17700 28.53900
C  45.59700 21.92700 28.09400
C  45.34900 22.11600 26.70700
C  45.93900 23.44600 26.35900
C  45.33200 20.72600 28.98400
C  44.63100 21.19000 25.71000
O  44.70700 21.25800 24.49800
C  43.91600 20.01800 26.17300
N  47.33400 26.07500 25.41800
C  46.70300 25.11100 24.56500
C  46.70400 25.54700 23.16200
C  47.24800 27.04900 23.25500
C  47.66000 27.17200 24.67100
C  47.52800 24.59800 22.30700
C  46.31600 28.20500 22.81700
C  46.90200 29.11800 21.69400
N  48.32100 27.59600 27.59100
C  48.60000 28.43700 26.50600
C  49.34700 29.54000 27.06700
C  49.27200 29.43500 28.47700
C  48.66600 28.22100 28.72500
C  49.91700 30.58700 26.22200
C  49.69300 30.02200 29.76800
O  50.19700 31.11700 30.04600
C  49.16400 28.91400 30.86300
C  50.23800 28.52300 31.78700
O  51.07800 27.64500 31.59000
O  49.99400 29.10300 33.05900
C  50.82700 28.54700 34.16400
H  46.26800 22.77100 30.64900
H  45.55700 23.35700 24.39500
H  48.59700 29.02700 24.46700
H  48.72600 26.25400 32.54000
H  46.12100 24.87100 32.43100
H  48.64000 24.31700 33.21400
H  48.18600 23.04000 31.96100
H  47.20600 23.23500 33.33700
H  45.83200 27.17400 32.81800
H  46.92100 28.32500 32.47200
H  47.74600 28.41400 34.32000
H  48.04800 26.70200 34.82100
H  44.28300 20.43000 28.98800
H  45.67900 20.84100 30.01000
H  45.89700 19.87900 28.59200
H  44.64700 19.23600 26.37800
H  43.27000 19.50400 25.46100
H  43.21700 20.32900 26.94900
H  45.66200 25.46900 22.85100
H  48.16500 27.02300 22.66600
H  47.79600 23.69300 22.85100
H  48.40000 25.00100 21.79100
H  46.81500 24.26900 21.55100
H  46.13700 28.80000 23.71300
H  45.34800 27.87200 22.44400
H  46.07700 29.18800 20.98500
H  47.67000 28.57100 21.14700
H  47.04800 30.17400 21.92100
H  49.28300 30.79800 25.36000
H  50.86600 30.17300 25.88200
H  50.17400 31.33700 26.97000
H  48.39400 29.36200 31.49100
H  50.24300 28.16000 34.99900
H  51.33300 29.42300 34.57000
H  51.58800 27.81300 33.89900

