158

Mg 47.30900 24.73500 28.90600
C  48.19300 26.97000 31.37700
C  46.63100 22.38600 31.27400
C  46.89000 22.42300 26.50600
C  48.58700 26.97400 26.55900
N  47.29100 24.76700 31.11500
C  47.74500 25.75700 31.88300
C  47.50700 25.52700 33.38600
C  46.98500 24.01600 33.35900
C  46.97100 23.66900 31.79900
C  47.74200 23.05600 34.33300
C  46.59000 26.64000 34.14800
C  45.87600 26.15400 35.39400
H  45.72600 27.14700 36.57800
N  46.98300 22.63200 28.89800
C  46.57700 21.90400 29.99200
C  46.08900 20.58300 29.54500
C  46.24900 20.50300 28.14900
C  46.72300 21.86300 27.79100
C  45.54300 19.43200 30.52700
C  45.97100 19.34600 27.22100
O  46.31400 19.39600 26.01400
C  45.40900 18.12800 27.76500
N  47.69400 24.72100 26.79800
C  47.25000 23.65200 25.99400
C  47.49900 24.00300 24.45100
C  47.81800 25.50800 24.53800
C  48.06200 25.76500 26.04400
C  48.65800 23.16300 23.83000
C  46.69100 26.34000 23.88000
C  46.77500 26.57600 22.31200
N  48.20700 26.55600 28.91900
C  48.67400 27.37500 27.86700
C  49.08500 28.63600 28.36500
C  48.88400 28.53100 29.73300
C  48.37400 27.24200 30.02400
C  49.63100 29.74700 27.49300
C  49.11800 29.21500 30.97300
O  49.50100 30.35600 31.12500
C  48.70400 28.24500 32.07500
C  49.88800 28.00100 32.98800
O  50.93900 27.39200 32.67900
O  49.53200 28.47200 34.22200
C  50.48800 28.42400 35.29300
H  46.41200 21.67600 32.07500
H  46.71100 21.87200 25.58100
H  48.85300 27.66100 25.75400
H  48.41400 25.61700 33.98500
H  45.95300 23.87000 33.67900
H  48.34800 22.22600 33.97000
H  46.99400 22.61800 34.99300
H  48.35300 23.63100 35.02900
H  45.79700 27.03000 33.51000
H  47.10700 27.58000 34.34100
H  46.38200 25.26000 35.75700
H  44.88100 25.80400 35.11800
H  44.53600 19.06900 30.32500
H  45.57400 19.80600 31.55000
H  46.23800 18.59400 30.46500
H  46.14000 17.66700 28.42900
H  45.32900 17.47900 26.89300
H  44.44800 18.44100 28.17300
H  46.55800 23.61400 24.06100
H  48.76200 25.72000 24.03600
H  49.45000 23.81600 23.46300
H  48.32900 22.59300 22.96100
H  49.17200 22.52900 24.55200
H  46.57500 27.27100 24.43500
H  45.70800 25.92200 24.09600
H  45.81000 26.29700 21.88900
H  47.54500 26.01400 21.78300
H  47.02800 27.63400 22.23300
H  50.65800 29.41400 27.34600
H  49.62200 30.61500 28.15300
H  49.05300 29.89700 26.58100
H  47.86400 28.67600 32.62000
H  51.50800 28.35000 34.91800
H  50.18500 27.51000 35.80400
H  50.38100 29.27700 35.96500
Mg -10.92100 16.19100 42.80600
C  -7.37600 16.88900 42.50100
C  -11.24800 19.60100 42.53800
C  -14.01800 15.60600 42.49900
C  -10.11200 12.78700 42.78100
N  -9.40400 18.01300 42.46300
C  -8.10300 18.03500 42.37900
C  -7.49400 19.42100 42.25100
C  -8.74900 20.22200 42.37300
C  -9.84800 19.22600 42.53500
C  -8.92000 21.30100 43.53300
C  -6.73300 19.50900 40.85600
C  -5.19100 19.93200 40.84800
H  -4.32500 19.08800 39.94200
N  -12.53200 17.40100 42.51600
C  -12.40500 18.78300 42.47600
C  -13.74300 19.26500 42.25100
C  -14.69900 18.27900 42.13100
C  -13.80300 17.03000 42.41400
C  -14.04400 20.76300 41.94700
C  -16.12400 18.35800 41.94500
O  -16.73500 19.40100 41.77200
C  -16.95000 17.09000 42.00300
N  -11.85800 14.47800 42.46200
C  -13.23100 14.49500 42.52800
C  -13.81800 13.09100 42.90700
C  -12.62600 12.21300 42.56400
C  -11.43600 13.19700 42.60300
C  -14.46800 12.73800 44.26900
C  -12.76300 11.30600 41.27200
C  -12.84200 9.75900 41.48000
N  -9.09200 14.94100 42.74300
C  -8.91800 13.57000 42.89700
C  -7.55200 13.24100 43.17400
C  -6.87400 14.55100 42.94000
C  -7.88500 15.53900 42.73300
C  -6.89500 11.90100 43.36400
C  -5.59600 15.19300 42.99000
O  -4.49000 14.72700 43.10900
C  -5.83400 16.74300 42.78400
C  -5.50900 17.26500 44.11600
O  -5.70000 16.78100 45.21200
O  -4.65200 18.36500 43.97400
C  -4.18400 19.18100 45.14200
H  -11.33600 20.68900 42.50000
H  -15.06700 15.33300 42.36600
H  -9.96700 11.71300 42.91300
H  -6.84500 19.63300 43.10100
H  -9.03500 20.67500 41.42400
H  -9.56100 20.97800 44.35300
H  -9.27300 22.25200 43.13500
H  -7.90500 21.43700 43.90600
H  -7.28900 20.19700 40.22000
H  -6.95100 18.54800 40.38900
H  -4.79000 19.80500 41.85400
H  -5.14200 20.98900 40.58500
H  -14.75700 21.08500 42.70600
H  -14.38900 20.99500 40.93900
H  -13.22200 21.47000 42.06000
H  -17.95000 17.30200 41.62400
H  -17.03800 16.79300 43.04800
H  -16.39600 16.42900 41.33600
H  -14.62600 12.90700 42.19900
H  -12.29400 11.60500 43.40600
H  -15.54900 12.65700 44.15200
H  -14.49000 13.63300 44.89000
H  -14.03600 11.88800 44.79900
H  -11.95900 11.45500 40.55200
H  -13.66000 11.52900 40.69300
H  -13.68600 9.34500 40.92900
H  -12.84400 9.49000 42.53600
H  -12.01100 9.22100 41.02400
H  -5.96400 11.85200 42.80000
H  -7.44400 11.02200 43.02500
H  -6.85300 11.76400 44.44500
H  -5.19800 17.12300 41.98400
H  -3.42300 18.70600 45.75900
H  -5.00200 19.48300 45.79600
H  -3.84900 20.09800 44.65600

