158

Mg 45.45200 4.32300 47.55600
C  43.37800 7.03800 47.51400
C  42.61400 2.26800 47.11900
C  47.54600 1.71400 46.74400
C  48.25100 6.44100 47.42700
N  43.28100 4.63400 47.18600
C  42.66600 5.85600 47.19400
C  41.12400 5.82800 47.00600
C  40.90600 4.25100 47.07600
C  42.35000 3.66100 47.08400
C  39.94600 3.78100 48.22500
C  40.52100 6.38500 45.65000
C  41.43400 6.22000 44.48900
H  40.65200 5.57300 43.31000
N  45.12800 2.33800 47.07500
C  43.85300 1.66800 47.10700
C  44.13700 0.23100 47.05200
C  45.52100 0.04700 46.84500
C  46.12100 1.42300 46.83800
C  42.97700 -0.76700 47.14800
C  46.18300 -1.38900 46.63500
O  45.62800 -2.42400 46.87600
C  47.71700 -1.53100 46.32500
N  47.62700 4.16000 47.07100
C  48.20700 2.88900 47.01900
C  49.69600 2.92300 47.09200
C  49.86600 4.47100 47.39200
C  48.53600 5.07800 47.27700
C  50.22000 1.95600 48.21300
C  50.88600 5.20100 46.52200
C  52.31600 4.84000 46.97400
N  45.83900 6.37200 47.44200
C  47.04200 7.10700 47.47400
C  46.72200 8.50700 47.51400
C  45.31600 8.52800 47.58400
C  44.83400 7.19700 47.44600
C  47.70000 9.61600 47.55500
C  44.21700 9.34800 47.74500
O  44.20900 10.55200 47.82000
C  42.95000 8.51400 47.62000
C  42.09200 8.74100 48.74300
O  42.40600 8.52200 49.88800
O  40.90500 9.17200 48.34400
C  39.81600 9.26700 49.35100
H  41.70000 1.72400 46.86900
H  48.19700 0.83800 46.69100
H  49.10700 7.11600 47.48800
H  40.59000 6.17700 47.89000
H  40.40200 3.81300 46.21500
H  40.52500 3.27300 48.99600
H  39.24000 3.11700 47.72500
H  39.36500 4.58100 48.68500
H  40.35500 7.46100 45.71500
H  39.52700 6.03600 45.37200
H  42.25300 5.52800 44.68600
H  41.92700 7.14100 44.17800
H  42.04400 -0.35400 47.53000
H  43.18400 -1.68900 47.69000
H  42.61400 -1.05300 46.16100
H  47.87600 -2.50700 45.86700
H  48.29500 -1.40700 47.24100
H  47.96300 -0.85200 45.50900
H  50.12100 2.57800 46.14900
H  50.16800 4.59600 48.43200
H  50.71600 1.12600 47.71000
H  49.41000 1.57100 48.83200
H  50.93600 2.53100 48.80000
H  50.90100 6.29000 46.53900
H  50.92500 4.89400 45.47600
H  52.33900 3.96500 47.62400
H  52.81200 5.72100 47.37900
H  52.90000 4.61900 46.08100
H  48.16300 9.75200 48.53200
H  47.27200 10.60100 47.36900
H  48.51400 9.45200 46.84900
H  42.42100 8.78300 46.70500
H  40.20400 10.10600 49.92800
H  39.86900 8.34700 49.93200
H  38.80300 9.44800 48.99100
Mg 36.13200 49.46700 24.76300
C  36.40500 47.58900 27.75700
C  34.69400 52.04900 26.59400
C  35.64100 50.96900 21.84000
C  37.20800 46.58700 23.06900
N  35.50400 49.64400 26.94800
C  35.81200 48.81800 27.99300
C  35.59600 49.61100 29.30800
C  34.84400 50.89800 28.92100
C  35.00600 50.90300 27.40700
C  33.40100 51.01200 29.40200
C  36.87200 49.81000 30.13200
C  36.84700 49.62100 31.64000
H  35.54600 49.56800 32.42000
N  35.40300 51.28100 24.31800
C  34.89200 52.23100 25.20800
C  34.45300 53.41600 24.38400
C  34.74100 53.11700 23.00200
C  35.28800 51.74800 23.04500
C  33.65400 54.60300 24.95000
C  34.32700 53.90000 21.68800
O  34.57600 53.44400 20.59400
C  33.64200 55.31900 21.80700
N  36.12000 48.76400 22.77000
C  36.00300 49.63800 21.77300
C  36.46400 49.08200 20.41100
C  37.08200 47.69900 20.80800
C  36.83800 47.70300 22.30700
C  35.49300 48.79200 19.32200
C  38.55300 47.38200 20.33700
C  39.67900 48.23600 20.94800
N  36.74200 47.50900 25.22900
C  37.12200 46.47600 24.44400
C  37.50600 45.39200 25.24300
C  37.23900 45.77600 26.54400
C  36.79400 47.09400 26.48800
C  38.20800 44.17800 24.75500
C  37.33900 45.32700 27.92300
O  37.72300 44.28800 28.38800
C  36.80800 46.57700 28.76700
C  35.71600 46.18900 29.73200
O  34.50600 46.14600 29.53900
O  36.23600 45.65500 30.82100
C  35.46600 45.06800 31.95200
H  34.22000 52.93200 27.02800
H  35.69900 51.48700 20.88100
H  37.74700 45.76600 22.59200
H  34.97800 49.03600 29.99900
H  35.38000 51.69000 29.44400
H  32.87200 50.77200 28.47900
H  33.22400 52.04000 29.71700
H  33.11300 50.28200 30.15800
H  37.28500 50.80100 29.94500
H  37.59100 49.11000 29.70500
H  37.50800 50.36400 32.08500
H  37.21800 48.60400 31.76300
H  33.27600 54.42400 25.95700
H  32.75200 54.64000 24.33900
H  34.16900 55.56300 24.97900
H  32.69600 55.20400 22.33600
H  33.40800 55.76900 20.84200
H  34.19400 56.08700 22.34900
H  37.20300 49.78200 20.02300
H  36.44400 46.89800 20.43600
H  34.85800 47.96300 19.63600
H  36.13900 48.61300 18.46200
H  34.94900 49.67500 18.98700
H  38.72600 47.30400 19.26400
H  38.73900 46.32800 20.54400
H  40.17400 48.84900 20.19500
H  40.50100 47.61900 21.30800
H  39.30100 48.86000 21.75800
H  37.70500 43.71000 23.90900
H  38.43700 43.52200 25.59500
H  39.10400 44.52000 24.23600
H  37.62000 47.00000 29.35800
H  34.88400 44.23900 31.54800
H  34.77400 45.83000 32.30900
H  35.94800 44.55200 32.78300

