158

Mg 17.43900 52.18600 26.45800
C  19.63800 50.77700 28.76700
C  15.38900 53.05600 28.98100
C  15.42100 53.47700 24.15300
C  19.58800 51.02400 23.90000
N  17.51400 51.93500 28.61800
C  18.56600 51.40500 29.40600
C  18.22300 51.39200 30.87100
C  16.64500 51.78200 30.83300
C  16.50300 52.31600 29.41500
C  15.60200 50.71200 31.23600
C  19.12600 52.42200 31.53500
C  19.14600 52.54100 33.05700
H  18.09500 51.66000 33.84700
N  15.63300 53.23500 26.56000
C  14.96600 53.50100 27.70500
C  13.83300 54.31600 27.40200
C  13.91400 54.57800 26.02300
C  14.97800 53.74200 25.50400
C  12.98700 54.89600 28.52800
C  13.06600 55.42200 25.13700
O  13.37800 55.55300 23.97300
C  11.82500 56.06300 25.59900
N  17.32900 51.88300 24.30000
C  16.46700 52.71300 23.62000
C  16.80700 52.79600 22.11400
C  18.21900 52.14200 22.08100
C  18.38200 51.63600 23.54400
C  15.70500 52.05100 21.27800
C  19.48300 53.11300 21.82800
C  20.55700 52.60700 20.79000
N  19.17000 50.98900 26.31500
C  19.94100 50.68500 25.22300
C  21.05900 49.91400 25.66600
C  20.99900 49.89700 27.01900
C  19.84600 50.62800 27.41100
C  22.19800 49.50700 24.75700
C  21.67600 49.39300 28.23800
O  22.65300 48.76400 28.49500
C  20.87700 50.10900 29.43300
C  20.52000 48.93400 30.33100
O  19.78100 48.00000 30.06100
O  21.11500 49.08400 31.50700
C  20.53700 48.25000 32.58700
H  14.76200 53.39500 29.80800
H  14.98900 54.09900 23.36600
H  20.12100 50.62000 23.03700
H  18.33100 50.46100 31.42800
H  16.44500 52.60700 31.51700
H  14.91700 50.60000 30.39400
H  15.08500 51.08400 32.12000
H  16.09900 49.80600 31.58200
H  18.74600 53.40100 31.24400
H  20.17400 52.34000 31.24700
H  18.98300 53.58900 33.31000
H  20.14200 52.27900 33.41500
H  12.40800 54.08200 28.96400
H  12.22400 55.54400 28.09700
H  13.56800 55.40600 29.29800
H  11.31100 55.26500 26.13500
H  11.17500 56.43200 24.80600
H  12.06100 56.95300 26.18100
H  16.85800 53.83900 21.80000
H  18.16900 51.32600 21.36000
H  16.23900 51.30000 20.69600
H  15.15800 52.72600 20.62000
H  14.91800 51.65000 21.91700
H  19.94800 53.43600 22.76000
H  19.07400 54.06100 21.47700
H  21.45900 52.32100 21.33200
H  20.83800 53.36700 20.06200
H  20.16700 51.69500 20.33800
H  23.13600 49.89900 25.15300
H  22.17500 49.79900 23.70800
H  22.23200 48.41800 24.78600
H  21.53800 50.76200 30.00300
H  19.46800 48.41600 32.71600
H  21.00300 48.45700 33.55100
H  20.71400 47.20500 32.33200
Mg -5.65600 25.85000 26.20200
C  -4.30600 26.98500 29.28400
C  -7.82200 23.82800 28.13800
C  -6.54400 24.36800 23.36100
C  -3.20800 27.75900 24.50800
N  -6.03800 25.41100 28.40900
C  -5.31800 25.97800 29.43000
C  -5.83800 25.59000 30.79800
C  -6.87200 24.44400 30.42500
C  -6.99400 24.63800 28.87600
C  -6.43900 23.00200 30.73000
C  -6.48500 26.86700 31.49400
C  -6.42700 27.13400 32.98400
H  -6.17700 25.88500 33.90400
N  -7.04400 24.34900 25.81400
C  -7.80400 23.62700 26.76200
C  -8.64100 22.64800 25.99000
C  -8.23500 22.78700 24.58800
C  -7.22800 23.83700 24.54400
C  -9.51500 21.71600 26.69100
C  -8.80400 22.02700 23.33300
O  -8.34100 22.20500 22.19800
C  -9.85900 20.93500 23.45600
N  -4.90600 26.01900 24.23800
C  -5.57200 25.40500 23.25900
C  -4.94300 25.74700 21.82700
C  -4.03600 26.93700 22.23400
C  -3.98100 26.84700 23.74600
C  -4.20100 24.51500 21.20800
C  -4.64700 28.30300 21.84100
C  -3.66100 29.48500 21.69200
N  -4.10900 27.12800 26.72800
C  -3.18300 27.82200 25.93000
C  -2.32800 28.64500 26.77700
C  -2.75200 28.27800 28.13400
C  -3.82200 27.45600 28.02500
C  -1.15200 29.50900 26.37100
C  -2.44000 28.54000 29.53400
O  -1.63600 29.35300 30.03200
C  -3.48100 27.78700 30.32500
C  -2.66200 26.99100 31.34600
O  -2.28900 25.82000 31.16600
O  -2.69400 27.61900 32.53200
C  -2.14600 26.81600 33.64000
H  -8.65200 23.39900 28.70200
H  -6.70600 23.91900 22.37900
H  -2.59200 28.55600 24.08500
H  -5.02500 25.13900 31.36700
H  -7.85100 24.64700 30.85900
H  -5.63900 22.98300 31.47000
H  -6.10200 22.64000 29.75900
H  -7.27100 22.43900 31.15300
H  -7.48900 26.89500 31.06900
H  -6.04300 27.73800 31.01100
H  -7.37100 27.58500 33.29000
H  -5.64200 27.87800 33.12200
H  -10.55300 22.04300 26.62500
H  -9.39300 21.56200 27.76300
H  -9.29900 20.71200 26.32800
H  -10.36400 20.95100 22.49000
H  -10.60400 21.14000 24.22500
H  -9.36300 19.98900 23.67000
H  -5.77600 26.06500 21.20100
H  -3.06600 26.83700 21.74700
H  -4.16500 23.75700 21.99000
H  -3.16600 24.81100 21.03700
H  -4.68400 24.12600 20.31100
H  -5.36900 28.32600 22.65700
H  -5.23800 28.23900 20.92700
H  -3.87600 30.13200 22.54300
H  -4.00900 30.00800 20.80100
H  -2.60100 29.24200 21.62600
H  -1.44000 30.50700 26.70300
H  -1.05400 29.30900 25.30400
H  -0.26200 29.20400 26.92100
H  -4.08100 28.49500 30.89700
H  -1.11300 26.56900 33.39200
H  -2.62000 25.84000 33.74400
H  -2.21100 27.35100 34.58700

