158

Mg 35.98500 49.08100 24.38900
C  35.97800 47.47800 27.56300
C  34.33700 51.70600 26.14400
C  35.38900 50.46700 21.40600
C  37.06500 46.07600 23.08300
N  35.19300 49.55200 26.61400
C  35.48800 48.79400 27.69500
C  35.10700 49.59600 28.96900
C  34.40500 50.88100 28.52400
C  34.63400 50.72100 27.04800
C  32.91000 51.03500 28.84900
C  36.36700 49.83200 29.92700
C  36.05800 49.86200 31.41500
H  34.52900 49.80100 31.87500
N  35.19300 50.88500 23.83600
C  34.56300 51.82100 24.73500
C  34.13200 52.95200 23.89900
C  34.37300 52.66500 22.55400
C  35.01000 51.27900 22.49600
C  33.44400 54.25100 24.42900
C  34.06900 53.49700 21.29200
O  34.27700 52.97300 20.13400
C  33.83200 54.92000 21.32800
N  36.30400 48.48200 22.56200
C  35.98000 49.19700 21.43700
C  36.42500 48.45200 20.18100
C  37.21400 47.21600 20.72100
C  36.85800 47.19200 22.22100
C  35.34200 48.18100 19.06000
C  38.69900 46.99500 20.31500
C  39.70900 47.93000 21.06100
N  36.54100 47.13000 25.11300
C  36.99100 45.99700 24.50400
C  37.19200 44.93800 25.37300
C  36.87500 45.48100 26.61200
C  36.38800 46.76600 26.39600
C  37.65600 43.50900 25.03500
C  36.85300 45.16400 28.00200
O  37.12000 44.09400 28.58300
C  36.40200 46.45500 28.70400
C  35.27600 46.16000 29.59900
O  34.09200 46.01900 29.24900
O  35.72700 46.02500 30.94300
C  34.92900 45.13400 31.72300
H  33.71800 52.53100 26.50400
H  35.11300 50.60300 20.35800
H  37.59800 45.18100 22.75700
H  34.45400 48.95900 29.56500
H  34.99800 51.71700 28.89400
H  32.28800 51.01300 27.95400
H  32.72900 51.98100 29.36000
H  32.68900 50.25700 29.57900
H  36.85300 50.74700 29.58900
H  37.05500 49.06000 29.58000
H  36.51900 50.76200 31.82200
H  36.44900 49.01200 31.97300
H  34.22700 55.00800 24.47900
H  33.12700 54.17700 25.47000
H  32.49700 54.54500 23.97700
H  32.97000 55.16400 21.95000
H  33.75600 55.21400 20.28100
H  34.75800 55.34800 21.71200
H  37.20100 49.06000 19.71400
H  36.68000 46.32800 20.38100
H  34.54800 48.92700 19.11000
H  34.81800 47.25500 19.29600
H  35.86300 48.21800 18.10400
H  38.84000 47.16800 19.24800
H  39.09300 45.98000 20.36800
H  39.03800 48.69100 21.45800
H  40.48700 48.39700 20.45800
H  40.07200 47.34600 21.90700
H  37.62100 43.22400 23.98300
H  36.94700 42.80900 25.47700
H  38.64600 43.34800 25.46200
H  37.30900 46.61400 29.28600
H  34.92300 44.13100 31.29600
H  33.89300 45.47100 31.75900
H  35.24200 45.14500 32.76700
Mg -1.79400 34.79300 25.97800
C  -3.02200 32.79900 28.68900
C  -0.09000 36.65200 28.32900
C  -0.89200 36.70700 23.47100
C  -3.44600 32.64900 23.85800
N  -1.49900 34.68000 28.31200
C  -2.26100 33.88800 29.18100
C  -1.73500 34.06500 30.63000
C  -0.85900 35.37400 30.49000
C  -0.85900 35.65900 28.93800
C  -1.34700 36.58800 31.32100
C  -1.08600 32.82300 31.20200
C  -1.68800 32.20200 32.49900
H  -0.75800 31.92800 33.70000
N  -0.51100 36.36600 25.88000
C  0.18400 36.91100 26.92700
C  1.05400 37.92200 26.46000
C  0.82700 37.95200 25.08400
C  -0.26800 37.07500 24.72200
C  2.01300 38.67500 27.24000
C  1.45800 38.87800 24.01400
O  1.13000 38.93900 22.81700
C  2.57300 39.83300 24.43200
N  -2.31600 34.80600 23.99100
C  -1.76200 35.70100 23.14200
C  -1.97800 35.28400 21.61300
C  -2.55800 33.82800 21.82800
C  -2.73400 33.76400 23.31000
C  -2.92100 36.23300 20.77500
C  -1.61300 32.65300 21.24800
C  -0.22000 32.56800 21.86900
N  -2.99800 33.12400 26.19900
C  -3.59300 32.31000 25.22500
C  -4.35200 31.25600 25.73400
C  -4.14000 31.41100 27.15600
C  -3.39100 32.54200 27.38500
C  -5.20700 30.22700 24.96300
C  -4.46200 30.86500 28.47700
O  -5.21600 29.94300 28.80200
C  -3.69400 31.74000 29.52700
C  -4.57500 32.47700 30.47700
O  -4.97200 33.61200 30.40900
O  -4.88400 31.55400 31.48500
C  -5.55000 32.07600 32.69300
H  0.38500 37.27700 29.08900
H  -0.54700 37.20400 22.56200
H  -3.92800 31.93000 23.19200
H  -2.51200 34.36900 31.33200
H  0.15300 35.18200 30.84600
H  -1.86200 37.31400 30.69200
H  -0.58600 37.09000 31.91900
H  -2.05800 36.26100 32.07900
H  -0.09600 33.16200 31.50900
H  -0.94500 32.10600 30.39300
H  -2.00300 31.25000 32.07100
H  -2.54400 32.76500 32.87100
H  2.22300 38.34700 28.25800
H  1.74000 39.73000 27.22600
H  2.99300 38.46800 26.81000
H  3.32000 39.23600 24.95500
H  2.12100 40.55600 25.11100
H  2.99100 40.44300 23.63100
H  -1.08300 35.24100 20.99200
H  -3.54700 33.79300 21.37100
H  -3.40800 36.88500 21.50000
H  -3.73400 35.70600 20.27700
H  -2.35600 36.80600 20.04000
H  -1.62600 32.67200 20.15900
H  -2.12600 31.74500 21.56500
H  -0.14300 32.79900 22.93100
H  0.46700 33.15800 21.26300
H  -0.00000 31.50100 21.90700
H  -6.07100 30.80200 24.62900
H  -5.42300 29.37400 25.60600
H  -4.70700 29.81600 24.08600
H  -3.00000 31.19200 30.16400
H  -4.92300 32.90100 33.03300
H  -5.43000 31.28200 33.42900
H  -6.60800 32.29400 32.55100

