158

Mg 48.25100 45.22800 42.93000
C  44.67800 44.50700 42.77200
C  48.82600 41.92300 42.46400
C  51.33700 46.09600 42.49400
C  47.38300 48.76400 42.86600
N  46.85100 43.45900 42.68200
C  45.51500 43.37400 42.66500
C  45.00300 41.96600 42.39500
C  46.32100 41.12900 42.62600
C  47.43800 42.21000 42.57900
C  46.23000 40.22400 43.93400
C  44.55100 41.96800 40.85400
C  44.88300 42.95900 39.78900
H  44.80400 42.58400 38.25100
N  49.92000 44.12100 42.52600
C  49.97100 42.75600 42.43900
C  51.37600 42.38200 42.24300
C  52.10900 43.61500 42.08400
C  51.11500 44.67200 42.39000
C  51.84300 40.88600 42.27200
C  53.62500 43.73600 41.82000
O  54.28000 42.71200 41.82400
C  54.43100 44.93000 41.78600
N  49.15800 47.13600 42.70800
C  50.48100 47.24000 42.70300
C  50.98200 48.68500 43.01600
C  49.72900 49.49400 42.87200
C  48.71100 48.39300 42.82200
C  51.66800 48.89500 44.38800
C  49.74300 50.51300 41.68800
C  49.48000 52.00500 42.08400
N  46.43100 46.46500 42.91600
C  46.27600 47.84800 42.91400
C  44.86500 48.15500 42.99100
C  44.24900 46.89100 42.96300
C  45.20700 45.87600 42.84100
C  44.33200 49.54000 42.91100
C  42.88900 46.26700 42.98900
O  41.78800 46.81400 43.07800
C  43.13800 44.65200 42.89300
C  42.74200 44.20200 44.25800
O  41.81900 43.43900 44.46000
O  43.57800 44.64600 45.27000
C  43.49900 43.99900 46.60100
H  49.07600 40.86000 42.45700
H  52.37100 46.44700 42.48100
H  47.14200 49.82900 42.83800
H  44.18300 41.67700 43.05200
H  46.41600 40.40800 41.81400
H  45.26700 40.41100 44.41000
H  47.04100 40.38300 44.64500
H  46.26600 39.23600 43.47500
H  43.46500 41.87000 40.87400
H  44.89800 41.01600 40.45200
H  45.91400 43.26700 39.96200
H  44.20900 43.79600 39.97200
H  52.20000 40.52400 41.30800
H  51.06500 40.21100 42.62800
H  52.70500 40.87700 42.93900
H  54.54200 45.45200 42.73700
H  54.01000 45.56600 41.00700
H  55.41900 44.68200 41.39900
H  51.66300 48.97600 42.21600
H  49.41400 49.96800 43.80100
H  52.75600 48.96200 44.38300
H  51.48300 48.03700 45.03400
H  51.37100 49.78200 44.94700
H  49.07900 50.22300 40.87400
H  50.76200 50.43500 41.30800
H  48.92000 51.91400 43.01400
H  48.87000 52.33800 41.24400
H  50.47200 52.44600 42.18500
H  43.26200 49.69000 43.05300
H  44.53400 49.90400 41.90400
H  44.93300 50.13500 43.59900
H  42.56700 44.11200 42.13900
H  42.88800 44.59400 47.27900
H  44.50200 44.08100 47.02000
H  43.20000 42.95300 46.53100
Mg -12.16900 15.14500 42.76600
C  -8.82400 13.95800 42.37500
C  -11.18400 17.75600 40.72300
C  -15.32300 15.92500 42.51000
C  -12.98400 12.11100 44.27800
N  -10.22100 15.73800 41.62200
C  -8.96600 15.20600 41.70200
C  -7.98600 15.95300 40.89700
C  -8.71800 17.33700 40.72300
C  -10.17900 16.92200 41.03600
C  -8.10600 18.54100 41.46100
C  -7.56500 15.25400 39.56300
C  -6.09100 14.91700 39.37900
H  -5.38400 15.52400 38.18700
N  -13.10700 16.72400 41.77100
C  -12.55200 17.68300 41.04800
C  -13.55300 18.65300 40.70600
C  -14.86500 18.05800 41.08200
C  -14.46200 16.88000 41.85500
C  -13.30600 20.01500 39.97300
C  -16.26200 18.64700 40.80100
O  -16.35300 19.76000 40.17800
C  -17.57100 18.04700 41.35600
N  -13.85800 14.23500 43.42500
C  -15.08100 14.72700 43.19000
C  -16.24900 13.88700 43.87000
C  -15.48800 12.62700 44.44600
C  -14.03000 12.96300 44.00700
C  -16.96600 14.80800 44.99000
C  -15.86600 11.25700 43.73300
C  -17.03900 10.61700 44.47000
N  -11.11900 13.44600 43.30800
C  -11.57200 12.24600 43.89600
C  -10.47900 11.31200 44.09700
C  -9.40600 11.95100 43.45400
C  -9.85100 13.25800 43.04100
C  -10.54500 9.99400 44.76200
C  -7.99300 11.71300 43.09300
O  -7.21500 10.78100 43.31100
C  -7.61200 13.00100 42.34200
C  -6.36300 13.54000 42.84900
O  -6.28000 14.31200 43.84100
O  -5.27300 13.19800 42.12000
C  -4.00600 13.81100 42.61500
H  -10.85900 18.60900 40.12300
H  -16.36800 16.20000 42.35000
H  -13.20600 11.18900 44.81900
H  -7.17900 16.05800 41.62200
H  -8.74200 17.66100 39.68300
H  -8.06900 19.46500 40.88400
H  -7.13300 18.30000 41.89100
H  -8.72100 18.62400 42.35700
H  -7.89700 15.89900 38.74900
H  -8.22200 14.39100 39.45500
H  -5.95700 13.83900 39.29100
H  -5.58000 15.23900 40.28700
H  -13.78800 20.84900 40.48200
H  -13.47900 19.93800 38.90000
H  -12.23000 20.11500 40.12000
H  -17.47800 18.03600 42.44200
H  -17.62400 17.11900 40.78600
H  -18.45800 18.65700 41.19100
H  -16.90200 13.61800 43.04000
H  -15.61700 12.61000 45.52800
H  -16.93300 14.33900 45.97400
H  -18.03900 14.88700 44.81800
H  -16.60300 15.83300 45.05300
H  -15.07400 10.52000 43.60100
H  -16.17600 11.43400 42.70300
H  -17.76500 10.37300 43.69400
H  -17.49700 11.22900 45.24800
H  -16.70900 9.61900 44.75700
H  -11.52900 9.69000 45.12000
H  -9.75700 9.94000 45.51300
H  -10.29700 9.20600 44.05100
H  -7.52600 12.76000 41.28200
H  -3.58400 13.09900 43.32500
H  -4.14300 14.81400 43.01700
H  -3.24200 13.96300 41.85200

