158

Mg 26.24900 -0.09300 29.40300
C  28.12900 -0.61500 32.30800
C  23.51500 0.18700 31.31800
C  24.55400 0.06400 26.58300
C  29.20100 -0.88400 27.53300
N  25.85300 -0.47400 31.59700
C  26.84000 -0.35100 32.60400
C  26.23400 -0.23400 33.91400
C  24.70100 -0.04800 33.59000
C  24.63700 -0.08300 32.08300
C  23.68800 -1.04800 34.33400
C  26.96200 0.66400 34.97300
C  26.26500 1.04700 36.26500
H  26.57600 0.23500 37.51400
N  24.24300 0.10700 29.01400
C  23.28300 0.18300 29.93600
C  22.05600 0.45800 29.25800
C  22.24900 0.29300 27.84500
C  23.71000 0.12300 27.68300
C  20.76200 0.75200 30.06300
C  21.27800 0.24900 26.67100
O  21.52900 0.03300 25.49200
C  19.96700 0.56300 27.04600
N  26.82600 -0.35200 27.34400
C  25.89300 -0.18400 26.34100
C  26.52900 -0.16100 24.91200
C  28.05500 -0.18900 25.31300
C  28.07000 -0.49100 26.83000
C  26.11900 -1.30700 23.96600
C  28.93100 0.96500 24.97200
C  30.41700 0.73000 24.80700
N  28.33000 -0.66800 29.79400
C  29.35700 -0.98500 28.92700
C  30.51200 -1.28000 29.66200
C  30.10700 -1.04900 30.97200
C  28.75100 -0.71700 31.04800
C  31.77700 -1.74900 29.14500
C  30.57700 -1.11500 32.35500
O  31.73400 -1.30800 32.77800
C  29.32000 -0.77300 33.25100
C  29.21300 -1.83000 34.26900
O  28.60900 -2.91300 34.04000
O  29.83400 -1.51800 35.48200
C  29.75000 -2.49200 36.53500
H  22.62900 0.35300 31.93400
H  24.02000 0.09400 25.63000
H  30.05600 -0.93500 26.85500
H  26.35200 -1.21500 34.37300
H  24.31000 0.93600 33.84800
H  22.92100 -1.37500 33.63200
H  23.25800 -0.52100 35.18600
H  24.17400 -1.86600 34.86600
H  27.41300 1.58300 34.59900
H  27.87100 0.14400 35.27700
H  25.18100 1.11300 36.16600
H  26.48700 2.10300 36.41900
H  20.25500 1.55800 29.53200
H  21.04300 1.14700 31.03900
H  20.03500 -0.05800 30.12200
H  19.36500 0.53700 26.13800
H  19.87000 1.62000 27.29400
H  19.50400 -0.08100 27.79300
H  26.27800 0.81300 24.49000
H  28.52600 -1.08100 24.90000
H  25.41400 -1.95700 24.48500
H  26.95900 -1.83400 23.51400
H  25.49900 -0.93900 23.14900
H  28.95400 1.77400 25.70200
H  28.65700 1.51200 24.06900
H  30.62800 1.13000 23.81600
H  30.67100 -0.33000 24.76500
H  31.04200 1.15300 25.59300
H  32.26200 -2.17200 30.02400
H  32.42800 -1.09800 28.56100
H  31.43500 -2.53400 28.47000
H  29.60200 0.17300 33.71500
H  29.79200 -3.52400 36.18400
H  28.74900 -2.38400 36.95400
H  30.44500 -2.45700 37.37400
Mg 46.38700 44.79900 43.80600
C  43.09100 43.69400 43.38600
C  47.51400 41.50300 43.27800
C  49.66200 45.85100 43.72400
C  45.26800 48.01900 43.93900
N  45.43000 42.81400 43.23100
C  44.10200 42.61400 43.19700
C  43.73000 41.08900 42.96400
C  45.12000 40.41000 43.23700
C  46.09200 41.64400 43.13200
C  45.16600 39.80900 44.61700
C  43.08800 40.77300 41.56400
C  43.64100 41.52500 40.34200
H  43.25400 40.97900 38.94100
N  48.37200 43.81600 43.53000
C  48.57800 42.42300 43.44000
C  49.98400 42.16600 43.48300
C  50.65700 43.43400 43.63900
C  49.53100 44.43700 43.66500
C  50.61200 40.82200 43.30800
C  52.16500 43.53800 43.78600
O  52.88100 42.57100 43.76600
C  52.84900 44.88300 43.84200
N  47.35600 46.74700 43.58500
C  48.64500 46.86100 43.89800
C  49.01100 48.31000 44.23800
C  47.58300 49.04000 44.03000
C  46.63900 47.86300 43.80800
C  49.63600 48.37500 45.73500
C  47.48500 50.13100 42.85400
C  47.58400 51.57000 43.28300
N  44.63800 45.70700 43.65900
C  44.28700 47.02300 43.75100
C  42.81300 47.18900 43.67200
C  42.32400 45.88800 43.52600
C  43.47600 45.02700 43.53600
C  42.02600 48.42600 43.67200
C  41.14900 45.05800 43.43200
O  39.98200 45.40000 43.42900
C  41.58400 43.59200 43.33300
C  40.98600 42.87800 44.50100
O  40.08700 42.02900 44.42100
O  41.54400 43.40300 45.67700
C  40.83900 42.86100 46.89900
H  47.74800 40.45200 43.45500
H  50.67800 46.24600 43.80000
H  44.90500 49.00300 44.24400
H  42.98700 40.68200 43.65100
H  45.41500 39.62100 42.54500
H  44.25900 39.24300 44.82500
H  45.44200 40.52700 45.39000
H  45.97500 39.07800 44.59700
H  42.05100 41.00700 41.80300
H  43.23400 39.72400 41.30600
H  44.72800 41.55500 40.41800
H  43.18700 42.50600 40.48100
H  51.16700 40.74200 42.37300
H  49.90500 39.99400 43.36300
H  51.11700 40.65900 44.26000
H  52.32900 45.26600 44.72000
H  52.82300 45.47100 42.92500
H  53.91600 44.78500 44.04600
H  49.66800 48.64900 43.43700
H  47.23000 49.48500 44.96100
H  49.14300 49.20500 46.24000
H  50.68900 48.65400 45.69800
H  49.47900 47.42700 46.25000
H  46.49000 50.12100 42.40900
H  48.18900 50.00300 42.03200
H  47.55600 51.70400 44.36400
H  46.70900 52.13100 42.95500
H  48.46600 52.13800 42.98900
H  41.49200 48.58100 44.61000
H  41.26100 48.27300 42.91000
H  42.48700 49.40100 43.51400
H  41.27800 43.13800 42.39100
H  40.90400 41.77300 46.90100
H  39.78000 43.11500 46.84000
H  41.26200 43.25000 47.82600

