158

Mg 25.50700 -0.04700 29.04200
C  27.48900 -0.36200 31.88200
C  22.75300 0.42300 30.88900
C  23.73200 0.09900 26.03400
C  28.36200 -0.84800 27.01600
N  25.18100 -0.17700 31.05800
C  26.14000 -0.01000 32.09300
C  25.53300 0.21300 33.47100
C  23.97800 0.40800 33.14500
C  23.95400 0.13900 31.62000
C  22.98500 -0.48800 33.97700
C  26.23700 1.44500 34.10100
C  26.98600 1.15300 35.44200
H  26.56500 1.97900 36.60700
N  23.59700 0.18300 28.58200
C  22.60000 0.41700 29.48000
C  21.36700 0.69500 28.83200
C  21.60900 0.63900 27.41200
C  22.99200 0.28400 27.29400
C  20.17300 1.04200 29.67100
C  20.57200 0.81700 26.26400
O  20.89400 0.48100 25.12100
C  19.17800 1.21700 26.53200
N  25.97700 -0.50100 26.84100
C  25.08800 -0.20900 25.88500
C  25.75800 -0.13900 24.51500
C  27.26700 -0.43400 24.76200
C  27.21600 -0.59800 26.32600
C  24.99300 -0.97400 23.38000
C  28.22100 0.62200 24.11800
C  28.56300 1.77200 25.01600
N  27.50700 -0.63500 29.33800
C  28.53400 -0.92400 28.42600
C  29.71400 -1.27500 29.23500
C  29.32500 -1.05400 30.56000
C  28.00600 -0.63900 30.57600
C  31.01400 -1.72900 28.67500
C  29.81600 -1.00600 31.90400
O  30.93800 -1.23100 32.27700
C  28.64300 -0.52000 32.79700
C  28.44800 -1.45200 33.91000
O  27.57000 -2.27000 34.01400
O  29.45000 -1.28200 34.85300
C  29.38000 -2.05200 36.14900
H  21.98000 0.73300 31.59600
H  23.22700 0.29800 25.08600
H  29.19700 -1.13800 26.37400
H  25.55000 -0.68800 34.08400
H  23.73200 1.44100 33.38700
H  22.49300 -1.18300 33.29700
H  22.23800 0.21500 34.34700
H  23.36800 -0.94400 34.89000
H  25.39700 2.06800 34.41000
H  26.92400 1.90900 33.39300
H  28.05600 1.35900 35.43100
H  26.75200 0.11900 35.69500
H  20.07600 0.57900 30.65300
H  19.26500 0.64600 29.21700
H  20.06100 2.10600 29.87900
H  18.93300 2.16200 27.01600
H  18.70400 0.38000 27.04300
H  18.70100 1.36900 25.56400
H  25.78100 0.86600 24.09300
H  27.61500 -1.45000 24.57300
H  24.57100 -1.84900 23.87400
H  25.59000 -1.15000 22.48500
H  24.17900 -0.32900 23.04600
H  27.81900 1.00500 23.18000
H  29.16600 0.09400 23.98800
H  27.83300 1.95600 25.80400
H  28.68700 2.68100 24.42800
H  29.52800 1.55900 25.47700
H  30.82600 -2.75100 28.34600
H  31.89400 -1.86000 29.30500
H  31.43200 -1.09000 27.89700
H  29.05700 0.41700 33.17100
H  29.96100 -1.58100 36.94200
H  29.70000 -3.08100 35.98100
H  28.33600 -2.10000 36.45600
Mg -10.27700 39.81300 42.51600
C  -9.27600 36.57400 41.50700
C  -7.30100 41.00800 41.32900
C  -11.55700 42.88900 42.53900
C  -13.44700 38.37800 42.85400
N  -8.67200 38.88900 41.30100
C  -8.41800 37.59800 41.08400
C  -6.95700 37.29800 40.45900
C  -6.33900 38.77100 40.49100
C  -7.51100 39.60000 41.18900
C  -4.95700 38.83900 41.16900
C  -6.90900 36.53000 39.08700
C  -5.66200 35.66400 38.90500
H  -4.83200 36.10000 37.73400
N  -9.48800 41.69500 42.09300
C  -8.21200 42.00200 41.65900
C  -7.97600 43.40200 41.73700
C  -9.16300 43.94200 42.21600
C  -10.13000 42.84500 42.30300
C  -6.70200 44.06400 41.30900
C  -9.39900 45.35000 42.66600
O  -8.50100 46.22400 42.55300
C  -10.67500 45.76200 43.39600
N  -12.21600 40.52700 42.75300
C  -12.49800 41.82200 42.63700
C  -14.02200 42.05100 42.83300
C  -14.65200 40.65600 43.00300
C  -13.40200 39.77600 42.78400
C  -14.37100 43.04900 43.94300
C  -15.77000 40.44800 41.95900
C  -16.91100 39.48400 42.32000
N  -11.19900 37.88600 42.56400
C  -12.47600 37.44200 42.87000
C  -12.49900 35.94500 43.00500
C  -11.24400 35.59600 42.52400
C  -10.52700 36.80400 42.20600
C  -13.66700 35.05500 43.16500
C  -10.32500 34.44400 42.14600
O  -10.51000 33.28300 42.17600
C  -9.02600 35.07300 41.53600
C  -7.83000 34.74100 42.43900
O  -7.52600 35.29600 43.46100
O  -7.06500 33.79500 41.79800
C  -5.79900 33.45600 42.56600
H  -6.28300 41.28500 41.04800
H  -11.97000 43.88500 42.36900
H  -14.44600 37.93700 42.87700
H  -6.48700 36.70900 41.24700
H  -6.27500 39.15300 39.47200
H  -4.26300 39.13700 40.38300
H  -4.67000 37.85500 41.53700
H  -4.84700 39.54000 41.99600
H  -6.80000 37.25100 38.27700
H  -7.74200 35.87600 38.83000
H  -5.98200 34.63200 38.75900
H  -5.15000 35.61100 39.86500
H  -6.66900 45.02000 40.78600
H  -6.31200 43.38900 40.54700
H  -5.93000 44.14800 42.07300
H  -11.44100 45.99600 42.65700
H  -10.42000 46.66100 43.95700
H  -10.94200 45.05700 44.18400
H  -14.29100 42.54100 41.89700
H  -15.04000 40.38100 43.98400
H  -13.68800 43.18000 44.78200
H  -15.18400 42.50800 44.42700
H  -14.71500 43.98700 43.50800
H  -15.29700 40.12600 41.03100
H  -16.31300 41.38700 41.85300
H  -17.89500 39.95200 42.34600
H  -16.81000 39.19700 43.36700
H  -16.99100 38.64100 41.63400
H  -13.41100 34.49600 44.06500
H  -13.83900 34.36700 42.33700
H  -14.53300 35.64700 43.45900
H  -8.91500 34.67700 40.52700
H  -5.17800 34.30400 42.27400
H  -5.28100 32.57700 42.18200
H  -5.99400 33.45100 43.63800

