158

Mg 47.59000 23.84000 28.34100
C  48.37000 26.05100 30.94200
C  46.67000 21.45400 30.69100
C  47.16400 21.58300 25.82900
C  48.51700 26.14900 26.08400
N  47.42100 23.83400 30.58500
C  47.77000 24.84000 31.45700
C  47.70200 24.34100 32.89200
C  47.25400 22.89100 32.72700
C  47.03300 22.70900 31.24900
C  48.26000 21.87800 33.22500
C  46.79400 25.30700 33.81200
C  47.18200 25.30700 35.36400
H  46.53100 26.39800 36.21300
N  46.88100 21.80300 28.18700
C  46.59700 21.04300 29.31200
C  46.19900 19.74100 28.87200
C  46.37800 19.71300 27.43400
C  46.72500 21.07400 27.08600
C  45.80500 18.56700 29.80400
C  46.22300 18.51700 26.46700
O  46.23300 18.74900 25.25900
C  46.01700 17.08700 26.90900
N  47.75300 23.91700 26.29500
C  47.60400 22.84200 25.45700
C  48.01600 23.12500 24.05000
C  48.17700 24.65700 24.09300
C  48.18000 24.94200 25.58500
C  49.28300 22.23600 23.63600
C  47.06900 25.37900 23.28000
C  45.78500 25.62300 24.02100
N  48.45200 25.65800 28.41800
C  48.74800 26.52800 27.43800
C  49.25900 27.75100 27.95200
C  49.14000 27.55700 29.30700
C  48.59700 26.31400 29.57300
C  49.76100 29.00000 27.21300
C  49.43300 28.26100 30.52800
O  50.08500 29.28000 30.78700
C  48.86300 27.39100 31.68100
C  49.99300 27.20800 32.55400
O  50.97100 26.48800 32.28600
O  49.65000 27.70200 33.78600
C  50.67200 27.55500 34.82900
H  46.32300 20.67700 31.37500
H  47.14500 20.92400 24.95800
H  48.90100 26.84200 25.33200
H  48.72100 24.48300 33.25100
H  46.32600 22.79200 33.29100
H  47.70600 21.04900 33.66300
H  48.99800 22.17600 33.97000
H  48.86200 21.57700 32.36700
H  45.73200 25.06400 33.80000
H  46.92700 26.35000 33.52300
H  48.27100 25.28300 35.41100
H  46.79400 24.31400 35.59000
H  45.70800 17.57600 29.36000
H  44.82500 18.79600 30.22200
H  46.46600 18.49300 30.66800
H  45.11300 16.88800 27.48400
H  46.89500 16.82000 27.49800
H  46.11100 16.35900 26.10300
H  47.18800 22.93500 23.36700
H  49.05700 24.90800 23.50100
H  48.87500 21.38200 23.09500
H  49.73400 21.91100 24.57500
H  50.02300 22.83300 23.10300
H  46.93600 24.81500 22.35700
H  47.43200 26.36000 22.97400
H  45.69300 24.97300 24.89200
H  45.02100 25.28700 23.31900
H  45.65000 26.64200 24.38200
H  50.60600 29.35700 27.80100
H  48.90200 29.66600 27.13000
H  50.09000 28.72700 26.21000
H  48.07100 27.93900 32.19200
H  50.07200 27.35000 35.71600
H  51.02000 28.58700 34.87500
H  51.52600 26.90500 34.63900
Mg -10.38600 40.16700 42.51400
C  -9.64400 36.71300 41.71200
C  -7.59900 41.11600 40.77200
C  -11.52200 43.33700 42.62900
C  -13.55200 39.02100 43.52600
N  -8.82300 38.99500 41.33500
C  -8.76600 37.63300 41.16700
C  -7.49800 37.31400 40.31800
C  -6.73300 38.73200 40.13100
C  -7.73700 39.68800 40.73400
C  -5.32700 38.84700 40.85000
C  -7.65300 36.45200 39.00800
C  -6.50900 35.45000 38.74200
H  -5.47900 35.91900 37.71000
N  -9.70200 42.03400 41.83000
C  -8.46700 42.18700 41.18900
C  -8.19400 43.62900 41.07100
C  -9.29400 44.39600 41.46700
C  -10.21400 43.27200 42.06700
C  -6.88900 44.18900 40.47200
C  -9.49400 45.92400 41.38400
O  -8.58800 46.62900 40.93000
C  -10.66900 46.54100 42.02500
N  -12.31800 41.06900 42.86500
C  -12.45400 42.41300 43.01500
C  -13.95700 42.69000 43.27800
C  -14.62000 41.34600 43.42000
C  -13.43400 40.40500 43.31500
C  -14.06000 43.50400 44.57000
C  -15.75400 40.93700 42.41700
C  -17.14100 40.68300 43.05000
N  -11.37600 38.23100 42.77200
C  -12.66100 37.94800 43.18700
C  -12.97700 36.49700 43.13600
C  -11.80200 36.02500 42.59400
C  -10.88500 37.09500 42.28300
C  -14.31100 35.85600 43.46000
C  -11.12100 34.75900 42.15500
O  -11.48400 33.63400 42.15000
C  -9.78000 35.25300 41.57500
C  -8.53200 34.43100 41.89500
O  -7.60300 34.69100 42.64500
O  -8.63100 33.30900 41.17700
C  -7.46400 32.39200 41.27100
H  -6.62000 41.46300 40.43500
H  -11.87900 44.36800 42.68400
H  -14.54700 38.70200 43.84400
H  -6.73300 36.82700 40.92300
H  -6.50800 38.92300 39.08200
H  -5.37600 39.67100 41.56200
H  -4.47500 39.09300 40.21600
H  -5.11400 38.04200 41.55400
H  -7.61800 37.17900 38.19700
H  -8.59700 35.91500 38.91600
H  -7.02700 34.55000 38.40800
H  -6.00400 35.21000 39.67800
H  -6.13200 43.51700 40.87500
H  -6.65600 45.19200 40.83100
H  -6.94500 44.21500 39.38400
H  -10.73600 46.26300 43.07600
H  -11.53500 46.18500 41.46700
H  -10.55500 47.61100 41.85300
H  -14.42400 43.28600 42.49500
H  -14.95800 41.14300 44.43600
H  -13.23700 43.28300 45.25000
H  -15.02200 43.31400 45.04700
H  -13.96200 44.57000 44.36500
H  -15.45800 40.11500 41.76300
H  -15.81500 41.79900 41.75300
H  -17.06000 40.48100 44.11800
H  -17.53900 39.74400 42.66600
H  -17.82400 41.51200 42.86200
H  -15.06400 35.94500 42.67700
H  -14.74200 36.43400 44.27700
H  -14.12000 34.83500 43.79000
H  -9.89100 35.07700 40.50500
H  -7.24100 32.25700 42.33000
H  -6.55200 32.64800 40.73100
H  -7.78100 31.42700 40.87800

