158

Mg 16.99100 52.63600 26.43000
C  18.86000 51.05700 28.90000
C  14.63800 53.33500 28.87900
C  14.94900 53.89600 24.11600
C  19.15400 51.42500 24.00800
N  16.85900 52.38300 28.66800
C  17.72900 51.72400 29.46100
C  17.50100 52.06800 30.93000
C  16.00200 52.48900 30.90200
C  15.77900 52.81200 29.35700
C  15.04800 51.30500 31.37100
C  18.45800 53.11800 31.60600
C  19.01700 52.78700 33.04400
H  17.87400 52.33200 33.93400
N  15.08100 53.49700 26.49200
C  14.26600 53.71800 27.54400
C  13.05400 54.34800 27.14800
C  13.18900 54.64800 25.77500
C  14.48800 54.05400 25.39600
C  11.96200 54.74000 28.13900
C  12.22900 55.36700 24.84900
O  12.45000 55.56800 23.64800
C  10.92500 55.91700 25.36600
N  16.97300 52.47800 24.33100
C  16.13000 53.23300 23.63600
C  16.67500 53.42600 22.14500
C  17.96900 52.69300 22.18800
C  18.07500 52.16600 23.63400
C  15.77600 52.83900 21.01100
C  19.23700 53.54500 21.68600
C  20.22500 54.00100 22.83200
N  18.64600 51.38200 26.36700
C  19.43400 50.94900 25.32400
C  20.49700 50.13500 25.81400
C  20.31900 50.11700 27.22700
C  19.16000 50.89100 27.54100
C  21.57400 49.36800 24.94100
C  20.88200 49.70200 28.47000
O  21.82400 48.97800 28.70600
C  19.96600 50.34200 29.63300
C  19.44900 49.21700 30.45200
O  18.59300 48.42200 30.08200
O  20.18800 49.16700 31.63700
C  19.72200 48.08600 32.47900
H  13.98200 53.54600 29.72700
H  14.40100 54.35600 23.29100
H  19.99000 51.21000 23.33900
H  17.61300 51.15100 31.50900
H  15.79000 53.39900 31.46400
H  15.58500 50.39600 31.64400
H  14.39300 50.95700 30.57200
H  14.50300 51.61700 32.26100
H  17.89900 54.05300 31.61500
H  19.25700 53.25700 30.87700
H  19.53000 53.69400 33.36400
H  19.79200 52.03400 32.90100
H  10.96300 54.53400 27.75600
H  11.98900 55.82500 28.23600
H  12.12600 54.19900 29.07100
H  10.52700 56.51900 24.54900
H  11.13400 56.51200 26.25500
H  10.35200 55.02500 25.61700
H  16.83400 54.50400 22.12400
H  17.89800 51.80100 21.56600
H  14.77000 53.25700 21.02600
H  15.57800 51.81600 21.32900
H  16.18100 52.94800 20.00400
H  18.86800 54.41100 21.13700
H  19.65100 52.79600 21.01100
H  19.68200 54.05000 23.77600
H  20.58400 55.01900 22.68400
H  21.13000 53.39400 22.82900
H  21.03200 48.96000 24.08800
H  22.02400 48.46000 25.34300
H  22.34600 50.09600 24.69200
H  20.55000 51.03200 30.24200
H  18.63700 48.01000 32.55100
H  20.08800 48.22100 33.49600
H  20.08500 47.10900 32.16000
Mg -12.20400 16.59600 41.82800
C  -9.67500 14.32600 41.04900
C  -10.34400 19.00600 40.15300
C  -14.94900 18.49600 41.62900
C  -14.31100 13.79700 42.58700
N  -10.26100 16.47500 40.55100
C  -9.36700 15.54600 40.46600
C  -8.05000 16.01900 39.82900
C  -8.28500 17.53300 39.65500
C  -9.76000 17.70800 40.14100
C  -7.26100 18.49500 40.25900
C  -7.70500 15.15700 38.60400
C  -6.16200 15.10400 38.46300
H  -5.53200 15.86700 37.28200
N  -12.55700 18.51100 41.09300
C  -11.72300 19.39500 40.45700
C  -12.33400 20.70600 40.36500
C  -13.70600 20.52100 40.75900
C  -13.77900 19.13300 41.20600
C  -11.66600 21.90100 39.79100
C  -14.78500 21.65900 40.84000
O  -14.55300 22.72300 40.31200
C  -16.21800 21.59100 41.41200
N  -14.39700 16.27100 42.24400
C  -15.29300 17.21000 42.01000
C  -16.74600 16.71300 42.29600
C  -16.50700 15.13900 42.60400
C  -14.98900 15.01700 42.51400
C  -17.48600 17.63900 43.30800
C  -17.36300 14.15000 41.69900
C  -18.70500 13.70900 42.25500
N  -12.02600 14.59000 42.11300
C  -12.98100 13.56500 42.39300
C  -12.36900 12.27400 42.43400
C  -11.05100 12.53000 42.03300
C  -10.91000 13.90700 41.71000
C  -13.04200 11.07100 42.92000
C  -9.74400 11.99600 41.88300
O  -9.29000 10.91100 42.17700
C  -8.78900 13.06200 41.20500
C  -7.59300 13.44000 41.94400
O  -7.35800 13.73700 43.10200
O  -6.56000 13.34500 41.05400
C  -5.27300 13.84900 41.53200
H  -9.67300 19.81500 39.85500
H  -15.80600 19.17000 41.56700
H  -15.01300 12.97700 42.75000
H  -7.35100 15.81000 40.63900
H  -8.41600 17.70800 38.58700
H  -7.60000 19.04700 41.13500
H  -6.79900 19.09500 39.47500
H  -6.45100 17.84800 40.59600
H  -8.09000 15.74200 37.76900
H  -8.15500 14.16400 38.58600
H  -5.76700 14.09100 38.37700
H  -5.68400 15.62000 39.29600
H  -12.25300 22.81900 39.81600
H  -11.58000 21.59400 38.74900
H  -10.70700 22.14700 40.24900
H  -16.81700 21.02000 40.70200
H  -16.51700 22.63900 41.44500
H  -16.30600 20.99300 42.32000
H  -17.30900 16.81900 41.36800
H  -16.90500 15.04000 43.61400
H  -18.25700 18.13400 42.71700
H  -16.77400 18.39400 43.63900
H  -18.03100 17.22000 44.15500
H  -16.81600 13.27400 41.34900
H  -17.57600 14.72700 40.79900
H  -19.41400 14.13200 41.54300
H  -18.83700 14.04600 43.28300
H  -18.63400 12.62300 42.31600
H  -13.92800 11.02200 42.28800
H  -13.48100 11.14000 43.91600
H  -12.45600 10.15200 42.92800
H  -8.60200 12.64000 40.21800
H  -5.15600 14.92500 41.39900
H  -4.45800 13.41700 40.95000
H  -4.90100 13.63000 42.53300

