158

Mg 23.97500 -6.62400 46.43900
C  26.06000 -4.16300 44.69500
C  21.48200 -5.65900 44.14100
C  22.41500 -9.46500 46.98700
C  26.82700 -7.58600 48.21700
N  23.77700 -5.08400 44.72700
C  24.79500 -4.25500 44.12500
C  24.18100 -3.41900 42.99700
C  22.67700 -3.45200 43.31900
C  22.55800 -4.80500 44.14300
C  22.06000 -2.27000 44.19100
C  24.64600 -3.88000 41.62900
C  25.34800 -2.83400 40.74400
H  25.11900 -2.86900 39.22900
N  22.08700 -7.46200 45.72000
C  21.19500 -6.87200 44.84200
C  19.98800 -7.65000 44.80500
C  20.21000 -8.81300 45.63600
C  21.59200 -8.63400 46.18100
C  18.88800 -7.29000 43.87800
C  19.24600 -9.95600 45.91700
O  18.10200 -9.86400 45.53700
C  19.63500 -11.21700 46.75200
N  24.63000 -8.34300 47.27800
C  23.73900 -9.40200 47.51300
C  24.32900 -10.49300 48.47400
C  25.67400 -9.76800 48.85000
C  25.73600 -8.41000 48.10200
C  23.39000 -10.86500 49.62100
C  26.96100 -10.69100 48.58000
C  27.88900 -10.88400 49.66000
N  26.00400 -5.90900 46.58300
C  27.04600 -6.38700 47.36400
C  28.21700 -5.57400 47.27500
C  27.84900 -4.65700 46.28600
C  26.50900 -4.89700 45.83000
C  29.57500 -5.62500 48.03700
C  28.25200 -3.46100 45.54900
O  29.34900 -2.88500 45.63500
C  27.16500 -3.14400 44.48700
C  26.80800 -1.72500 44.74500
O  25.90500 -1.23300 45.39400
O  27.71500 -0.98200 44.07400
C  27.33500 0.44300 43.90100
H  20.63400 -5.30000 43.55500
H  21.91700 -10.42500 47.13500
H  27.63200 -7.88500 48.89100
H  24.48600 -2.37700 43.09700
H  22.05500 -3.41000 42.42500
H  21.97100 -2.49600 45.25400
H  21.06700 -1.96700 43.85900
H  22.71000 -1.39700 44.14000
H  23.77500 -4.34300 41.16500
H  25.39100 -4.67100 41.71300
H  26.41600 -2.90100 40.95000
H  25.04500 -1.82700 41.02900
H  18.29200 -8.16300 43.61200
H  19.14800 -6.62700 43.05200
H  18.18600 -6.67700 44.44400
H  18.89300 -12.00800 46.64900
H  19.89100 -10.91500 47.76800
H  20.42400 -11.79100 46.26600
H  24.35200 -11.36700 47.82400
H  25.68900 -9.53800 49.91600
H  22.60300 -10.11100 49.60500
H  23.96500 -10.88400 50.54700
H  22.97900 -11.87000 49.52900
H  27.46500 -10.18500 47.75700
H  26.70300 -11.70700 48.27900
H  28.92500 -10.66900 49.39900
H  27.96000 -11.93100 49.95700
H  27.73000 -10.26400 50.54200
H  29.26400 -5.19300 48.98800
H  30.32200 -5.05900 47.47900
H  29.97400 -6.62300 48.22100
H  27.58800 -3.19100 43.48400
H  27.69100 0.91900 44.81500
H  26.26500 0.63900 43.84000
H  27.79500 0.84200 42.99700
Mg 9.82200 48.87300 25.65000
C  7.90200 49.29600 28.64500
C  12.44800 50.22400 27.45400
C  11.65200 48.53500 23.00600
C  6.91300 47.85000 24.10100
N  10.05600 49.69300 27.75300
C  9.17600 49.73100 28.80000
C  9.81000 50.21100 30.09900
C  11.15600 50.77800 29.60800
C  11.25100 50.18900 28.15100
C  11.27100 52.31300 29.50000
C  10.07100 49.05100 31.14500
C  9.47600 49.21200 32.48300
H  10.42200 49.88000 33.46800
N  11.81100 49.32700 25.26900
C  12.77700 49.76200 26.11300
C  14.07900 49.76900 25.48600
C  13.81600 49.36600 24.12600
C  12.34900 49.06400 24.11600
C  15.32300 50.31000 26.14200
C  14.82800 49.25900 22.97900
O  14.56800 48.94100 21.85800
C  16.25200 49.39300 23.34600
N  9.31100 48.51600 23.76000
C  10.26300 48.38600 22.80900
C  9.71200 47.81000 21.51300
C  8.24500 47.59100 21.91700
C  8.14400 47.96400 23.37000
C  9.86300 48.85800 20.38000
C  7.77000 46.13600 21.72500
C  8.41500 45.13600 22.65700
N  7.76800 48.68800 26.16800
C  6.71100 48.32900 25.42700
C  5.45400 48.45200 26.19800
C  5.93100 48.75300 27.45700
C  7.32100 48.91500 27.41800
C  4.02100 48.22400 25.78600
C  5.50000 49.01100 28.79500
O  4.37000 49.12500 29.21300
C  6.76800 49.22000 29.68500
C  6.93500 48.07300 30.55900
O  7.34600 47.00500 30.19100
O  6.41000 48.41700 31.77600
C  6.28600 47.32400 32.69300
H  13.25700 50.58400 28.09400
H  12.35700 48.23000 22.22900
H  6.01000 47.38000 23.70600
H  9.08500 50.93000 30.48000
H  11.90500 50.37200 30.28700
H  12.16800 52.50100 28.91000
H  11.44700 52.67200 30.51400
H  10.39800 52.75800 29.02300
H  11.13800 48.84800 31.23100
H  9.79800 48.12600 30.63700
H  9.05600 48.23500 32.71800
H  8.58300 49.83700 32.49500
H  15.15500 50.59400 27.18100
H  15.73400 51.12400 25.54400
H  16.02900 49.48300 26.22900
H  16.44500 50.43400 23.60800
H  16.90900 49.34200 22.47800
H  16.57600 48.62800 24.05200
H  10.24000 46.91300 21.18800
H  7.56300 48.29400 21.43900
H  10.16800 49.82200 20.78800
H  8.95100 49.06000 19.81900
H  10.53100 48.39300 19.65600
H  7.99300 45.81600 20.70700
H  6.69500 46.05100 21.88000
H  9.21300 45.64300 23.20000
H  8.83500 44.34700 22.03300
H  7.72500 44.81200 23.43700
H  3.70200 48.91400 25.00500
H  3.55000 48.60100 26.69400
H  3.88500 47.16400 25.57200
H  6.63500 50.16300 30.21600
H  5.92100 47.78900 33.60900
H  7.22800 46.83200 32.93400
H  5.52900 46.69700 32.22100

