158

Mg 44.39800 2.61000 46.94600
C  42.48500 5.43700 47.08900
C  41.55600 0.64800 46.62200
C  46.38200 -0.12800 46.62800
C  47.23100 4.63900 46.84700
N  42.31200 2.98400 46.65900
C  41.74600 4.23700 46.81300
C  40.25900 4.11800 46.59900
C  39.85400 2.66900 46.58500
C  41.33400 2.03200 46.61700
C  39.06700 2.21800 47.84800
C  39.86300 4.71500 45.20500
C  38.59100 5.56900 45.15200
H  37.80400 5.43400 43.80800
N  43.97100 0.51800 46.81000
C  42.75500 -0.06400 46.74000
C  42.94800 -1.53000 46.61200
C  44.38100 -1.75300 46.45800
C  44.95700 -0.40300 46.65500
C  41.79800 -2.49700 46.38000
C  45.00800 -3.24900 46.24400
O  44.35600 -4.31200 46.27900
C  46.53300 -3.40700 46.09500
N  46.47100 2.29400 46.72400
C  47.06000 1.09300 46.58800
C  48.59700 1.11700 46.39500
C  48.86700 2.68600 46.43100
C  47.44300 3.28300 46.76300
C  49.31700 0.32500 47.50700
C  49.52000 3.44400 45.21200
C  50.98900 3.75300 45.41500
N  44.82400 4.62900 46.83400
C  46.02800 5.36300 46.90600
C  45.75400 6.74500 47.07200
C  44.36300 6.79600 47.13600
C  43.83900 5.51100 47.07800
C  46.74800 7.88700 46.99100
C  43.26600 7.74900 47.23300
O  43.23300 8.93700 47.35100
C  41.92800 6.80700 47.32500
C  41.15900 6.96800 48.60100
O  41.54800 6.95200 49.75400
O  39.85700 7.10200 48.27000
C  38.96700 7.40200 49.38100
H  40.65300 0.07000 46.41200
H  47.08500 -0.96100 46.56400
H  48.08700 5.31100 46.94700
H  39.69600 4.60800 47.39400
H  39.33000 2.36200 45.68000
H  38.25300 2.92600 48.00000
H  39.71500 2.23800 48.72400
H  38.62800 1.22700 47.73200
H  39.78800 3.87200 44.51800
H  40.64700 5.35100 44.79600
H  38.86800 6.60900 45.32600
H  38.01900 5.15000 45.97900
H  41.58700 -2.61500 45.31700
H  40.88600 -1.97700 46.67500
H  41.81000 -3.42200 46.95700
H  46.97400 -2.99700 47.00400
H  46.99300 -2.75000 45.35600
H  46.87900 -4.40800 45.83900
H  48.87800 0.76000 45.40400
H  49.40600 2.96700 47.33600
H  48.77900 0.41800 48.45000
H  50.33500 0.69600 47.63100
H  49.33800 -0.68200 47.08800
H  49.04500 4.39200 44.95900
H  49.33200 2.76900 44.37700
H  51.28300 3.81700 46.46300
H  51.07000 4.74100 44.96100
H  51.39100 2.87900 44.90300
H  47.71500 7.59900 46.57900
H  46.87800 8.22600 48.01900
H  46.32300 8.63900 46.32700
H  41.22800 7.07300 46.53300
H  39.37100 8.20000 50.00200
H  38.76300 6.46700 49.90300
H  38.04700 7.78700 48.94000
Mg 45.93200 34.14200 28.00400
C  44.51200 32.06200 30.50000
C  45.67200 36.83400 30.12900
C  47.17900 36.18600 25.65300
C  45.95800 31.40000 25.87900
N  45.10900 34.38400 30.04900
C  44.84000 33.38400 30.92800
C  44.87600 33.90000 32.36400
C  44.88400 35.49500 32.17400
C  45.21400 35.58800 30.70600
C  43.65500 36.29000 32.63600
C  46.06600 33.25400 33.23900
C  46.96800 34.18300 33.97800
H  46.58000 34.67500 35.38000
N  46.32300 36.19800 27.93600
C  46.15200 37.09500 28.90800
C  46.66300 38.40700 28.53200
C  47.21200 38.31100 27.22600
C  46.89600 36.85600 26.87100
C  46.60200 39.55500 29.46400
C  47.91100 39.43700 26.28700
O  48.23300 39.25200 25.10100
C  48.07700 40.81600 26.86000
N  46.33600 33.90500 25.95000
C  46.89600 34.88800 25.24800
C  47.45800 34.30800 23.86500
C  47.12500 32.76300 23.98400
C  46.41900 32.66600 25.33700
C  46.87700 34.94000 22.62500
C  48.28100 31.80500 23.90100
C  48.28200 31.00000 22.64900
N  45.28600 32.17900 28.05000
C  45.44600 31.17300 27.16700
C  44.83500 29.94600 27.68600
C  44.54100 30.19300 29.01600
C  44.77500 31.59800 29.17600
C  44.66900 28.53200 26.96700
C  44.09800 29.59700 30.30600
O  43.92200 28.44600 30.63400
C  43.81900 30.84100 31.22500
C  44.14300 30.49500 32.63800
O  45.09200 29.83600 33.04300
O  43.15800 31.07700 33.41100
C  43.27700 30.89400 34.83800
H  45.81200 37.52800 30.96000
H  47.74100 36.82700 24.97100
H  45.86800 30.59200 25.14900
H  43.94200 33.62200 32.85100
H  45.74900 35.91600 32.68800
H  43.86500 36.85900 33.54200
H  42.78300 35.64800 32.76200
H  43.42800 37.11000 31.95500
H  46.66200 32.57100 32.63200
H  45.69400 32.64100 34.06000
H  47.51400 34.93800 33.41100
H  47.79800 33.50800 34.18700
H  47.59600 39.99400 29.38600
H  46.30500 39.26300 30.47100
H  45.84200 40.30600 29.24700
H  47.10400 41.27400 27.03600
H  48.77000 41.38800 26.24400
H  48.65800 40.79300 27.78200
H  48.54300 34.38000 23.93700
H  46.34300 32.48100 23.27900
H  47.32200 35.93000 22.52800
H  45.83400 35.17800 22.83100
H  47.05100 34.26600 21.78600
H  48.25700 31.12100 24.74900
H  49.18800 32.39300 24.04100
H  49.24700 30.58000 22.36300
H  47.87300 31.72100 21.94200
H  47.55300 30.19100 22.70200
H  45.43200 28.54800 26.18800
H  43.76600 28.33300 26.39000
H  44.93300 27.76900 27.69900
H  42.74400 31.00300 31.15000
H  43.51000 29.87600 35.15000
H  42.29400 30.99200 35.29700
H  43.97600 31.60400 35.27900

