158

Mg 36.24500 50.20100 25.04600
C  36.30000 48.11500 27.87900
C  35.31500 52.74500 27.01900
C  35.64700 52.06300 22.17600
C  36.99600 47.34800 23.13900
N  35.71100 50.33700 27.19600
C  36.05200 49.45800 28.22900
C  35.97700 50.13200 29.63300
C  35.47100 51.56100 29.28500
C  35.55400 51.60200 27.75300
C  34.17900 52.05300 29.85700
C  37.34100 50.02200 30.41400
C  37.36500 49.92600 31.93900
H  36.10600 49.50000 32.66700
N  35.62800 52.12600 24.64800
C  35.35200 53.06200 25.66600
C  35.14400 54.32000 25.06100
C  35.22200 54.16200 23.61200
C  35.47600 52.72700 23.41900
C  34.97400 55.59100 25.86800
C  35.09400 55.23500 22.52400
O  35.09100 54.93700 21.33100
C  34.98200 56.65800 22.88900
N  36.26100 49.74300 23.03100
C  36.02100 50.67400 22.01700
C  36.01700 49.99800 20.64600
C  36.81900 48.60900 20.94000
C  36.69900 48.48200 22.46300
C  34.64500 49.83600 19.91600
C  38.29900 48.55800 20.56400
C  38.96100 47.20700 20.11800
N  36.49400 48.12000 25.35300
C  36.80700 47.10000 24.50500
C  36.98500 45.84700 25.25800
C  36.79500 46.19100 26.58800
C  36.43700 47.59300 26.60700
C  37.26700 44.42700 24.65800
C  36.85100 45.67300 28.02500
O  37.22800 44.62400 28.49600
C  36.46800 46.93100 28.89000
C  35.27200 46.45300 29.56600
O  34.13900 46.81000 29.33700
O  35.60200 45.55700 30.58600
C  34.49500 45.37000 31.46500
H  35.11300 53.59400 27.67600
H  35.47400 52.68200 21.29400
H  37.25400 46.57100 22.41600
H  35.21500 49.65200 30.24800
H  36.27200 52.22500 29.61000
H  34.46900 52.77100 30.62300
H  33.54500 51.25800 30.25000
H  33.64500 52.62500 29.09800
H  37.99200 50.83200 30.08400
H  37.88100 49.11400 30.14600
H  37.62400 50.89000 32.37700
H  38.13100 49.16300 32.07900
H  35.78500 56.29400 25.67900
H  34.91200 55.40400 26.94000
H  34.08500 56.15000 25.57500
H  35.76900 56.98600 23.56800
H  34.01600 56.84700 23.35700
H  35.13300 57.15000 21.92900
H  36.69200 50.65300 20.09500
H  36.28500 47.82500 20.40100
H  34.57900 50.50900 19.06100
H  33.86800 50.12900 20.62200
H  34.47900 48.80900 19.59000
H  38.89900 48.69900 21.46300
H  38.44600 49.34500 19.82500
H  39.86600 47.33800 19.52400
H  38.23000 46.58100 19.60700
H  39.15100 46.62000 21.01700
H  37.90100 44.53200 23.77800
H  36.32500 44.01600 24.29600
H  37.59800 43.62000 25.31100
H  37.29700 47.25000 29.52200
H  34.17000 46.23600 32.04100
H  34.70100 44.67300 32.27700
H  33.59700 44.98900 30.97900
Mg 10.00500 48.33400 26.56500
C  7.89300 47.77700 29.30400
C  12.39000 49.40300 28.80200
C  12.12900 48.30700 23.97900
C  7.29800 47.77600 24.32700
N  10.04400 48.64200 28.79300
C  9.08600 48.30800 29.69100
C  9.42900 48.73000 31.11300
C  10.84000 49.40100 30.89300
C  11.13800 49.24000 29.39700
C  10.96700 50.97500 31.28300
C  9.31900 47.62800 32.16700
C  9.80200 48.06300 33.52200
H  9.17100 47.46200 34.81200
N  11.93300 48.80300 26.42200
C  12.78400 49.11400 27.46500
C  14.10300 49.25500 26.97100
C  14.07300 49.10100 25.56700
C  12.63300 48.74100 25.25600
C  15.36000 49.63800 27.84800
C  15.08500 49.44700 24.57100
O  14.87900 49.41500 23.35400
C  16.41800 49.84500 24.98500
N  9.77900 48.17000 24.40600
C  10.80600 48.09700 23.61100
C  10.34500 47.72500 22.17300
C  8.95300 47.16600 22.35500
C  8.63400 47.79000 23.70200
C  10.47000 48.90800 21.14600
C  8.77400 45.60700 22.42100
C  8.14100 44.86800 21.23100
N  7.98700 48.11600 26.71000
C  7.01200 47.79000 25.74400
C  5.73200 47.36300 26.41200
C  6.08100 47.38200 27.75600
C  7.42800 47.78900 27.89300
C  4.43900 47.05200 25.68400
C  5.46700 47.04500 29.04400
O  4.33100 46.69400 29.36700
C  6.65100 47.40300 30.05000
C  6.80500 46.15800 30.85200
O  7.60400 45.22600 30.64600
O  5.88500 46.27200 31.78800
C  5.97600 45.21300 32.80900
H  13.17800 49.81800 29.43400
H  12.82800 48.25200 23.14100
H  6.54100 47.33200 23.67800
H  8.71300 49.47900 31.45200
H  11.57200 48.81800 31.45100
H  11.66800 51.00400 32.11700
H  10.11500 51.51000 31.70300
H  11.34800 51.69800 30.56200
H  9.80000 46.73100 31.77700
H  8.25100 47.42100 32.22800
H  9.87700 49.15100 33.50200
H  10.84600 47.75100 33.49600
H  15.91500 48.71300 28.00300
H  15.05400 50.01500 28.82400
H  15.98100 50.45200 27.47200
H  16.30600 50.82900 25.43900
H  17.07300 49.83400 24.11400
H  16.72200 48.97300 25.56400
H  11.01800 46.89600 21.95200
H  8.25800 47.61000 21.64200
H  11.10600 49.75200 21.41600
H  9.45400 49.21800 20.90100
H  10.84900 48.51800 20.20200
H  8.18900 45.27400 23.27800
H  9.77300 45.17100 22.44700
H  7.95200 45.56800 20.41700
H  7.12200 44.55700 21.46000
H  8.67200 43.98800 20.86900
H  4.61100 46.40200 24.82700
H  4.06400 47.95600 25.20500
H  3.73300 46.58200 26.36900
H  6.28500 48.25300 30.62500
H  5.85000 45.85500 33.68000
H  6.91700 44.66600 32.85400
H  5.04700 44.64600 32.75300

