158

Mg 8.83100 48.28200 26.69700
C  6.74400 47.98800 29.42400
C  11.50500 48.81700 28.85500
C  10.88800 48.46100 23.98800
C  6.11900 47.94400 24.60400
N  9.13700 48.43400 28.95200
C  8.07600 48.24500 29.80600
C  8.66900 48.28500 31.25100
C  10.16900 48.71800 31.08900
C  10.34000 48.60900 29.59100
C  10.60700 50.09700 31.68200
C  8.45500 46.98900 32.17600
C  9.31800 46.65000 33.32400
H  8.70800 45.84100 34.53700
N  10.85400 48.81600 26.47400
C  11.77500 49.00200 27.47400
C  13.07700 49.35800 26.87500
C  12.98500 48.99000 25.51600
C  11.52700 48.76800 25.22600
C  14.24800 49.87300 27.66900
C  14.12800 48.72700 24.56100
O  13.93600 48.37600 23.39100
C  15.53800 48.71800 25.03900
N  8.54800 48.27700 24.59100
C  9.52700 48.33700 23.63300
C  9.08600 47.79800 22.25600
C  7.53000 47.89100 22.43500
C  7.35200 48.00600 23.96900
C  9.71500 48.59300 21.03400
C  6.69900 46.84600 21.67800
C  5.84500 47.37700 20.51900
N  6.77900 48.06500 26.90800
C  5.79500 47.92300 25.98800
C  4.52400 47.80900 26.60700
C  4.85900 47.79600 27.96700
C  6.25500 47.91500 28.09800
C  3.22500 47.83400 25.89700
C  4.25900 47.66500 29.23600
O  3.09600 47.61900 29.60500
C  5.48500 47.64500 30.24300
C  5.55100 46.24200 30.83900
O  6.03400 45.23300 30.29800
O  4.80800 46.28700 31.98300
C  4.58900 44.96200 32.56000
H  12.41800 48.96600 29.43500
H  11.59000 48.40600 23.15300
H  5.30800 47.66800 23.92700
H  8.01800 49.03100 31.70600
H  10.80100 47.98100 31.58500
H  10.65400 50.79400 30.84500
H  11.56700 50.08200 32.19700
H  9.87700 50.46700 32.40200
H  8.54800 46.11200 31.53500
H  7.42600 47.04800 32.53200
H  9.71800 47.60500 33.66400
H  10.13300 46.02200 32.96500
H  14.65900 50.76600 27.19800
H  14.94600 49.09500 27.98000
H  13.86600 50.25600 28.61600
H  16.24400 48.32300 24.30900
H  15.55400 48.00500 25.86400
H  15.82200 49.71400 25.37800
H  9.37800 46.74800 22.28500
H  7.25100 48.91000 22.16800
H  10.58100 49.20900 21.27500
H  8.85200 49.13800 20.65300
H  10.12100 47.82900 20.37100
H  6.13100 46.12900 22.27100
H  7.43800 46.17500 21.24100
H  4.83200 47.20000 20.88100
H  5.99900 46.77500 19.62300
H  5.86100 48.43900 20.27400
H  3.01800 46.78500 25.68400
H  3.19900 48.37100 24.94900
H  2.32400 48.08100 26.45700
H  5.39000 48.36800 31.05300
H  4.97200 44.90900 33.57900
H  5.05200 44.11100 32.06100
H  3.52600 44.73500 32.63800
Mg -0.06200 43.61400 25.51000
C  2.05500 43.12500 28.21100
C  -2.52400 42.37700 27.39300
C  -2.07700 44.07000 22.84300
C  2.68300 44.07200 23.45600
N  -0.24700 42.90200 27.56200
C  0.73100 42.95000 28.55100
C  0.22300 42.56800 29.90500
C  -1.16700 41.97400 29.58900
C  -1.31200 42.41500 28.07100
C  -1.21200 40.42600 29.90500
C  0.13700 43.94600 30.72400
C  0.34000 43.93400 32.26800
H  0.28100 42.48500 32.92600
N  -2.02900 43.24800 25.18500
C  -2.91000 42.70400 26.07400
C  -4.17600 42.58300 25.45200
C  -4.16400 43.27700 24.18900
C  -2.70400 43.58400 24.03000
C  -5.44000 42.00700 26.19100
C  -5.21400 43.80600 23.33000
O  -5.04600 44.54300 22.38300
C  -6.59900 43.26800 23.48500
N  0.24500 43.97200 23.45400
C  -0.77400 44.38100 22.61400
C  -0.24800 44.85200 21.21700
C  1.29700 44.82100 21.49600
C  1.42600 44.21300 22.91400
C  -0.72600 43.88500 20.06300
C  2.16600 46.07800 21.33200
C  2.17000 47.17900 22.45800
N  1.96900 43.62200 25.73500
C  2.99700 43.74400 24.78400
C  4.29600 43.55300 25.47700
C  3.96900 43.28200 26.76400
C  2.53200 43.29300 26.88600
C  5.68700 43.72000 24.86100
C  4.57700 43.00800 28.08300
O  5.75900 42.84500 28.33900
C  3.28500 42.92600 29.05400
C  3.34100 41.64100 29.68000
O  2.70400 40.63100 29.39500
O  4.33600 41.67800 30.58800
C  4.94900 40.44400 30.97000
H  -3.26700 41.84100 27.98700
H  -2.74000 44.16900 21.98100
H  3.55400 44.24600 22.82100
H  0.79500 41.77200 30.38200
H  -1.91900 42.49000 30.18600
H  -2.14700 40.32800 30.45600
H  -0.46000 40.00900 30.57500
H  -1.23900 39.74000 29.05800
H  -0.84700 44.36800 30.52400
H  0.80300 44.67600 30.26400
H  -0.32100 44.57400 32.85200
H  1.36500 44.24000 32.48100
H  -5.10400 41.46900 27.07700
H  -5.78600 41.19500 25.55200
H  -6.28000 42.69800 26.26300
H  -7.06400 43.65100 24.39300
H  -6.53700 42.18300 23.39300
H  -7.23900 43.54500 22.64700
H  -0.50500 45.89300 21.02100
H  1.63700 44.09700 20.75500
H  0.12500 43.48900 19.50800
H  -1.37500 44.53300 19.47500
H  -1.23100 43.00700 20.46500
H  1.80700 46.49400 20.39100
H  3.20300 45.78100 21.18100
H  3.19200 47.37300 22.78100
H  1.50600 47.03500 23.31000
H  1.80200 48.08000 21.96600
H  5.75800 44.59100 24.21000
H  6.04500 42.85700 24.30000
H  6.35500 44.06500 25.65100
H  3.25200 43.66500 29.85500
H  4.81500 39.60000 30.29300
H  4.47800 40.11200 31.89600
H  6.02100 40.59500 31.09400

