158

Mg 48.42000 15.50800 28.41000
C  46.33400 15.00700 31.37000
C  50.45500 17.26400 30.33900
C  50.19200 16.21400 25.61700
C  45.77700 14.12300 26.49900
N  48.32800 16.01800 30.61200
C  47.45100 15.74200 31.65200
C  47.90800 16.28500 32.92400
C  49.18800 17.13900 32.56000
C  49.38600 16.79200 31.02200
C  48.98000 18.73700 32.68600
C  48.31200 15.13900 33.91300
C  47.87200 15.17700 35.40100
H  47.55300 16.49200 35.91200
N  50.17500 16.57000 28.05200
C  50.87400 17.21400 28.97400
C  52.07900 17.76100 28.41600
C  52.08900 17.30600 27.05700
C  50.79800 16.63400 26.82300
C  53.11100 18.44800 29.28900
C  53.20600 17.40300 26.03800
O  53.16200 16.70600 25.00300
C  54.46100 18.24500 26.28100
N  48.01600 15.22500 26.36700
C  48.99100 15.51900 25.40800
C  48.39200 15.27000 24.03000
C  46.96500 14.58000 24.27900
C  46.87700 14.71600 25.80500
C  48.23200 16.58600 23.20200
C  46.92700 13.09000 23.73200
C  47.80600 12.11600 24.51800
N  46.46300 14.64200 28.82000
C  45.54700 14.01200 27.94600
C  44.45000 13.57800 28.75900
C  44.69300 13.88300 30.09900
C  45.94600 14.51600 30.07100
C  43.22100 12.93800 28.25500
C  44.27200 13.73500 31.46400
O  43.19200 13.29200 31.91000
C  45.26600 14.48400 32.32400
C  44.44900 15.36800 33.21200
O  44.02600 16.45700 33.00700
O  44.20800 14.65700 34.36000
C  43.41600 15.39400 35.36000
H  51.12300 17.85400 30.96900
H  50.82700 16.41300 24.75100
H  45.05800 13.52900 25.93100
H  47.13700 16.99900 33.21200
H  50.15000 16.89400 33.00900
H  49.72800 19.13300 33.37200
H  47.99600 19.01900 33.06300
H  49.06300 19.35700 31.79300
H  49.37300 15.05300 34.14700
H  48.07000 14.22300 33.37500
H  48.65300 14.84500 36.08400
H  47.03500 14.48300 35.47600
H  53.54400 17.65100 29.89500
H  52.72900 19.18700 29.99300
H  53.81100 18.89400 28.58300
H  54.20000 19.27400 26.52600
H  55.03200 18.21600 25.35300
H  54.95200 17.73900 27.11300
H  49.02000 14.46600 23.64800
H  46.08100 15.18600 24.08300
H  47.74600 17.24900 23.91800
H  47.67400 16.46600 22.27400
H  49.26800 16.83300 22.96900
H  47.36200 13.05700 22.73300
H  45.87300 12.81600 23.69000
H  48.23500 11.48000 23.74400
H  47.22200 11.48100 25.18300
H  48.64900 12.59600 25.01600
H  43.09700 11.91100 28.59900
H  42.96000 13.10100 27.20900
H  42.43700 13.53900 28.71500
H  45.71100 13.69200 32.92600
H  42.55800 15.83500 34.85400
H  43.90900 16.18100 35.93000
H  42.90300 14.62700 35.94000
Mg -4.74300 25.68200 25.57400
C  -3.80900 26.91400 28.68500
C  -6.86600 23.46100 27.18100
C  -5.31000 24.20700 22.59300
C  -2.58800 27.92800 24.05000
N  -5.52300 25.47100 27.70400
C  -4.82800 25.90000 28.77100
C  -5.40500 25.32000 30.08400
C  -6.30900 24.12100 29.55600
C  -6.23100 24.35200 28.06700
C  -5.79800 22.72700 29.99000
C  -6.16600 26.38800 30.84000
C  -6.93900 26.00300 32.10700
H  -6.46400 24.76100 32.91500
N  -6.04100 24.11700 24.95200
C  -6.85800 23.33500 25.72100
C  -7.64700 22.44400 24.88400
C  -7.19300 22.70100 23.55700
C  -6.14400 23.70700 23.63000
C  -8.67400 21.55900 25.47300
C  -7.56200 21.91400 22.27700
O  -7.00600 22.14200 21.20300
C  -8.68200 20.96700 22.32600
N  -3.91000 25.91600 23.66400
C  -4.35300 25.19600 22.60200
C  -3.54400 25.59700 21.35300
C  -3.09000 27.00300 21.71100
C  -3.18400 26.95100 23.20500
C  -2.48900 24.55300 20.92500
C  -4.02600 28.12500 21.08100
C  -3.48100 28.71900 19.85800
N  -3.33800 27.06400 26.13700
C  -2.62700 28.03900 25.38600
C  -1.78200 28.77400 26.36900
C  -2.19200 28.36600 27.63700
C  -3.21400 27.36900 27.46600
C  -0.80300 29.84000 26.13100
C  -2.03500 28.51700 29.08300
O  -1.16800 29.19800 29.70200
C  -2.99700 27.65800 29.79500
C  -2.41400 26.80100 30.89200
O  -1.67000 25.87700 30.68700
O  -2.75100 27.28800 32.12000
C  -2.07300 26.83200 33.28600
H  -7.50800 22.78000 27.74400
H  -5.52400 23.90800 21.56500
H  -1.96600 28.66600 23.53900
H  -4.65000 24.98500 30.79500
H  -7.35300 24.27700 29.82600
H  -6.56000 22.11400 30.47100
H  -5.21500 22.75000 30.91000
H  -5.40800 22.19100 29.12500
H  -7.02900 26.52500 30.18800
H  -5.53200 27.27400 30.87500
H  -8.02400 25.97200 32.00800
H  -6.95000 26.83700 32.80800
H  -8.51000 20.50700 25.24000
H  -9.63400 21.84100 25.03800
H  -8.93700 21.68000 26.52400
H  -8.56100 20.16500 23.05400
H  -8.85500 20.58200 21.32100
H  -9.54200 21.51000 22.71700
H  -4.26300 25.65500 20.53500
H  -2.04000 27.11500 21.44200
H  -2.22300 23.94800 21.79200
H  -1.54000 25.00500 20.63800
H  -2.93200 23.93200 20.14600
H  -4.29600 28.93100 21.76300
H  -4.96400 27.62800 20.83500
H  -4.02000 28.45500 18.94800
H  -2.46800 28.35200 19.69300
H  -3.36300 29.79600 19.97800
H  -0.12300 29.48100 25.35800
H  -0.14800 30.10200 26.96200
H  -1.33800 30.72000 25.77400
H  -3.61800 28.33200 30.38400
H  -1.74000 25.79400 33.27200
H  -2.62200 26.99800 34.21400
H  -1.17800 27.45100 33.35500

