158

Mg 36.54900 0.43400 30.51100
C  34.24700 1.69400 32.97500
C  38.89500 0.33700 32.99200
C  38.59200 -0.41000 28.05700
C  33.99000 0.91000 28.20700
N  36.51700 0.90800 32.72100
C  35.51600 1.35400 33.48800
C  35.90500 1.52300 34.86200
C  37.46900 1.43000 34.80300
C  37.68300 0.81200 33.42200
C  38.22900 2.80000 35.00200
C  35.26600 0.32900 35.70500
C  34.98700 0.63500 37.21400
H  35.61900 1.93200 37.80200
N  38.50400 -0.10900 30.53300
C  39.33600 -0.08700 31.64000
C  40.66400 -0.41400 31.25400
C  40.63600 -0.63000 29.81000
C  39.18700 -0.34900 29.37500
C  41.83700 -0.59600 32.19100
C  41.64800 -1.13000 28.96000
O  41.43700 -1.28300 27.75900
C  42.95100 -1.63500 29.48600
N  36.32400 0.20800 28.48400
C  37.29300 -0.12400 27.63000
C  36.87300 -0.21000 26.18800
C  35.32100 0.02100 26.32800
C  35.14100 0.29600 27.79300
C  37.58900 0.79400 25.29800
C  34.40300 -1.19800 25.89900
C  33.74200 -1.09500 24.51100
N  34.50900 1.13200 30.48500
C  33.57100 1.20600 29.43000
C  32.36700 1.66000 29.95800
C  32.54500 1.91800 31.30300
C  33.92500 1.57500 31.62200
C  31.13400 1.80600 29.04400
C  31.91400 2.27500 32.53800
O  30.73500 2.48100 32.75200
C  32.98200 2.19900 33.64600
C  33.09500 3.50400 34.29100
O  33.84200 4.38200 33.90200
O  32.43800 3.55600 35.51800
C  32.82300 4.60800 36.52300
H  39.58100 0.31800 33.84100
H  39.29000 -0.47200 27.21900
H  33.24000 0.82100 27.41800
H  35.50100 2.47100 35.21800
H  37.85900 0.73500 35.54700
H  37.62200 3.67700 34.77700
H  39.11800 2.83400 34.37200
H  38.46100 2.66500 36.05900
H  35.82800 -0.60500 35.72800
H  34.35300 -0.04700 35.24300
H  35.16200 -0.29000 37.76300
H  33.91700 0.82300 37.28900
H  42.83900 -0.38000 31.81900
H  41.75800 -1.61300 32.57300
H  41.73000 0.08900 33.03200
H  43.57400 -0.80700 29.82600
H  43.54400 -2.35800 28.92600
H  42.69100 -2.26500 30.33700
H  37.04000 -1.20500 25.77600
H  35.08700 0.92100 25.75900
H  36.85600 1.32900 24.69500
H  38.26000 0.28600 24.60500
H  38.23200 1.48000 25.85000
H  33.66000 -1.47900 26.64600
H  35.10700 -2.03000 25.89700
H  32.72200 -0.71200 24.55700
H  33.85700 -2.06400 24.02600
H  34.24900 -0.44100 23.80200
H  30.59800 2.70900 29.33500
H  30.52200 0.90500 29.09200
H  31.48100 1.85600 28.01200
H  32.59500 1.59200 34.46400
H  33.62300 5.23400 36.12900
H  33.22500 4.21700 37.45700
H  31.93000 5.19100 36.74700
Mg 30.39100 58.52100 39.09900
C  27.40700 56.66500 37.77000
C  32.22600 55.81100 37.93500
C  33.09900 60.33800 39.22000
C  28.35500 61.35400 39.23800
N  29.76500 56.36100 38.28300
C  28.59400 55.91000 37.82900
C  28.77300 54.52700 37.19000
C  30.26800 54.19900 37.50300
C  30.82000 55.49100 38.02000
C  30.48100 53.08600 38.52700
C  28.43300 54.50300 35.66800
C  27.62200 53.25000 35.21900
H  26.88300 53.39500 33.91800
N  32.38500 58.05300 38.75500
C  32.92600 56.90100 38.31600
C  34.41100 56.95800 38.25500
C  34.65100 58.37200 38.51800
C  33.35000 58.99700 38.85600
C  35.36600 55.87700 37.91900
C  36.01900 59.02500 38.57300
O  36.95500 58.35900 38.08100
C  36.35600 60.45700 39.02900
N  30.67500 60.50200 39.07100
C  31.87200 61.05000 39.26300
C  31.81000 62.51600 39.75700
C  30.32300 62.82900 39.65000
C  29.72500 61.47700 39.30500
C  32.35500 62.80200 41.16700
C  30.00100 63.98200 38.63700
C  28.89400 64.98100 39.00200
N  28.25500 58.91200 38.79200
C  27.69300 60.12700 38.83400
C  26.29900 59.99600 38.46000
C  26.11300 58.69000 37.93700
C  27.30100 58.00100 38.22100
C  25.37600 61.14800 38.39300
C  25.29300 57.73200 37.28000
O  24.16000 57.95600 36.79000
C  26.08600 56.37800 37.18600
C  25.45100 55.25500 37.99800
O  25.43900 55.07900 39.21200
O  25.03700 54.34100 37.04300
C  24.74600 53.03900 37.67600
H  32.71000 54.84400 37.78100
H  33.96100 60.97100 39.44200
H  27.71900 62.22800 39.39700
H  28.10500 53.82900 37.69500
H  30.83200 53.95200 36.60400
H  30.45300 52.10100 38.06200
H  29.73500 53.17200 39.31700
H  31.52000 53.18600 38.83900
H  29.39900 54.45300 35.16500
H  27.98600 55.45400 35.37900
H  26.78300 53.04100 35.88300
H  28.35800 52.45700 35.08200
H  35.37900 55.66000 36.85100
H  34.90900 54.96800 38.31100
H  36.39500 56.03300 38.24300
H  37.44000 60.56700 39.08100
H  35.90900 60.76100 39.97600
H  36.02800 61.18500 38.28800
H  32.34800 63.18300 39.08300
H  29.89700 63.07000 40.62400
H  32.52700 61.86000 41.68600
H  31.79100 63.57200 41.69300
H  33.32200 63.24800 40.93500
H  29.86800 63.54400 37.64800
H  30.87000 64.63600 38.55700
H  28.37700 64.45900 39.80700
H  28.38900 65.25700 38.07700
H  29.20300 65.96900 39.34300
H  25.28600 61.54000 37.38000
H  25.59200 62.00800 39.02700
H  24.35000 60.81600 38.55100
H  26.12100 56.13900 36.12300
H  24.30600 52.35300 36.95200
H  24.04700 53.10000 38.51000
H  25.61200 52.58100 38.15500

