158

Mg 2.87800 -0.98800 44.00200
C  6.28700 -0.46100 43.72400
C  2.34400 1.78200 42.00900
C  -0.29800 -1.99300 43.58900
C  3.57800 -4.22900 45.25300
N  4.17000 0.46900 43.01600
C  5.55400 0.48500 42.98500
C  6.05700 1.65000 42.15400
C  4.76100 2.54600 41.94100
C  3.68300 1.57000 42.38000
C  4.59600 3.96900 42.60200
C  6.75800 1.12700 40.83800
C  7.75500 2.14500 40.21600
H  7.43500 2.71900 38.78700
N  1.28000 -0.10700 43.17300
C  1.19500 1.00800 42.37800
C  -0.22300 1.29800 42.00000
C  -1.03500 0.22700 42.52700
C  -0.02000 -0.71400 43.15200
C  -0.62800 2.58700 41.31500
C  -2.56900 0.04000 42.38700
O  -3.28600 0.73900 41.67300
C  -3.19300 -0.99900 43.22500
N  1.78900 -2.88800 44.29800
C  0.49300 -3.06100 43.99600
C  -0.03900 -4.48700 44.45200
C  1.25700 -5.14600 45.02900
C  2.29100 -4.02800 44.83900
C  -1.17400 -4.30100 45.40900
C  1.71000 -6.45400 44.33400
C  1.87100 -7.74100 45.20100
N  4.52000 -2.11600 44.45800
C  4.67600 -3.34300 45.04500
C  6.08100 -3.62300 45.40800
C  6.74900 -2.53200 44.86500
C  5.79100 -1.64400 44.35600
C  6.71000 -4.96200 46.00200
C  8.08800 -1.87200 44.76800
O  9.18800 -2.17800 45.16600
C  7.74700 -0.57800 43.93400
C  8.37600 0.53000 44.60100
O  8.22300 0.79400 45.78800
O  9.24300 1.15500 43.73400
C  10.09000 2.11900 44.39800
H  2.20600 2.63000 41.33600
H  -1.28900 -2.38900 43.36000
H  3.89400 -5.12900 45.78500
H  6.77100 2.13700 42.81900
H  4.65300 2.69200 40.86600
H  5.58500 4.42500 42.57400
H  4.19100 3.88000 43.61000
H  3.92800 4.60600 42.02100
H  5.91700 0.92400 40.17500
H  7.30900 0.21000 41.04600
H  8.71500 1.64500 40.33900
H  7.68300 3.02700 40.85400
H  -0.77300 2.47900 40.24000
H  0.27900 3.19100 41.27800
H  -1.49400 3.10700 41.72500
H  -4.19700 -0.61500 43.40800
H  -2.72800 -1.09700 44.20600
H  -3.34600 -1.89900 42.63000
H  -0.41900 -5.02300 43.58200
H  1.25000 -5.35500 46.09900
H  -2.11500 -4.39700 44.86700
H  -1.09800 -3.31600 45.87000
H  -1.15200 -5.12200 46.12500
H  2.64700 -6.31500 43.79300
H  1.03900 -6.70300 43.51200
H  2.95400 -7.79800 45.31100
H  1.45100 -8.61500 44.70300
H  1.57500 -7.64300 46.24500
H  6.82800 -5.67100 45.18300
H  5.95700 -5.41200 46.64900
H  7.65500 -4.73400 46.49400
H  8.26500 -0.72700 42.98700
H  9.46000 2.99600 44.54400
H  11.05000 2.44900 44.00000
H  10.38800 1.69300 45.35600
Mg 16.76600 -2.08400 27.06800
C  15.86800 0.21400 29.78700
C  18.91200 -3.58300 29.31200
C  18.17900 -3.76800 24.49700
C  15.33000 0.30100 24.84000
N  17.41500 -1.62900 29.23300
C  16.79100 -0.79500 30.17100
C  17.14900 -1.18300 31.57300
C  18.34200 -2.14100 31.36400
C  18.22900 -2.49100 29.91500
C  19.69800 -1.57000 31.78700
C  15.87400 -1.69300 32.42700
C  15.89300 -1.27100 33.89700
H  17.10700 -0.58300 34.52200
N  18.10500 -3.68200 26.92500
C  18.95000 -4.07700 27.97400
C  19.60900 -5.27900 27.51400
C  19.50900 -5.25800 26.06800
C  18.57200 -4.19700 25.80800
C  20.48500 -6.14500 28.44500
C  20.11800 -6.15900 25.00000
O  19.79000 -6.05700 23.83100
C  21.08500 -7.39400 25.24100
N  16.69200 -1.85100 24.98100
C  17.44200 -2.64500 24.11200
C  17.30000 -2.05300 22.63500
C  16.24700 -0.89000 22.78500
C  16.02400 -0.85500 24.25400
C  18.62200 -1.59200 22.06500
C  14.90700 -1.05900 21.95300
C  14.69400 0.14700 21.10000
N  15.68500 -0.21700 27.20200
C  15.12700 0.60700 26.27000
C  14.36300 1.61500 26.89900
C  14.71200 1.50400 28.19800
C  15.48000 0.41000 28.39300
C  13.50600 2.61700 26.28700
C  14.44500 2.13500 29.52500
O  13.82600 3.16600 29.86700
C  15.20700 1.31000 30.58500
C  16.15200 2.16900 31.44000
O  17.30900 2.35900 31.11400
O  15.43400 2.76500 32.43500
C  16.23400 3.61600 33.41400
H  19.56700 -4.12200 30.00000
H  18.66000 -4.17200 23.60400
H  14.80000 0.93500 24.12600
H  17.56500 -0.29000 32.04000
H  18.14100 -3.04900 31.93200
H  19.82100 -0.54800 32.14400
H  20.32800 -1.59700 30.89700
H  20.13700 -2.24100 32.52500
H  15.88700 -2.78100 32.47800
H  14.97900 -1.46300 31.84900
H  15.77900 -2.14100 34.54500
H  15.07200 -0.60500 34.16400
H  21.42800 -6.45200 27.99300
H  19.90300 -7.05100 28.61900
H  20.63000 -5.70400 29.43100
H  22.01800 -6.85500 25.40600
H  21.16100 -7.95200 24.30700
H  20.78500 -7.95200 26.12800
H  17.06200 -2.91400 22.01000
H  16.80100 0.00400 22.49900
H  18.87500 -0.78000 22.74800
H  18.63900 -1.25700 21.02800
H  19.35700 -2.38800 22.18600
H  14.08200 -1.14100 22.66000
H  14.85000 -2.02000 21.44200
H  15.57100 0.77400 20.93900
H  13.91000 0.75800 21.54800
H  14.43400 -0.16500 20.08800
H  12.47600 2.38500 26.56000
H  13.62100 2.75800 25.21200
H  13.78800 3.51400 26.83800
H  14.44700 0.91800 31.26100
H  16.86100 2.82900 33.83300
H  15.54500 4.14500 34.07300
H  16.89500 4.27900 32.85700

