158

Mg 44.21800 3.70500 47.02500
C  41.76400 6.29200 46.74700
C  41.70200 1.40100 47.07200
C  46.56600 1.46700 46.80300
C  46.58200 6.38200 46.54300
N  42.04000 3.83200 46.75800
C  41.23700 4.96000 46.82400
C  39.72800 4.56900 46.68700
C  39.78400 3.14000 47.25400
C  41.26300 2.72800 47.06700
C  39.25800 2.92000 48.65300
C  39.24200 4.45900 45.19700
C  38.38000 5.58800 44.57300
H  38.97500 6.33300 43.36100
N  44.17300 1.64000 46.82900
C  43.05600 0.93100 46.95700
C  43.39100 -0.44600 47.11000
C  44.83100 -0.54400 47.08300
C  45.29200 0.84700 46.89600
C  42.49700 -1.51400 47.38000
C  45.65200 -1.74100 47.19900
O  45.16200 -2.83400 47.35900
C  47.17600 -1.79100 47.16500
N  46.24700 3.89600 46.65100
C  47.09800 2.80300 46.75000
C  48.54900 3.24300 46.84700
C  48.44500 4.71000 46.25000
C  47.03300 5.06000 46.56300
C  49.19000 3.07400 48.25100
C  48.71600 4.92600 44.75200
C  50.22800 4.65400 44.49900
N  44.25100 5.93900 46.81900
C  45.29100 6.84800 46.66600
C  44.76700 8.20800 46.65400
C  43.34600 8.04000 46.65300
C  43.14700 6.62600 46.74200
C  45.55400 9.48900 46.51200
C  42.03700 8.67600 46.52700
O  41.68000 9.84200 46.34800
C  41.02000 7.64700 46.67800
C  40.12800 7.73300 47.92100
O  40.51800 7.48100 49.04400
O  38.87200 8.08800 47.54300
C  37.91000 8.15200 48.61500
H  40.87900 0.69200 47.18600
H  47.40300 0.76600 46.81700
H  47.40900 7.09200 46.46600
H  39.09100 5.36600 47.07000
H  39.20700 2.34500 46.78200
H  38.72400 3.84000 48.88800
H  40.17800 2.73400 49.20800
H  38.52800 2.11000 48.64700
H  38.65900 3.54300 45.10800
H  40.12700 4.39200 44.56400
H  38.05200 6.41300 45.20400
H  37.49800 5.16400 44.09400
H  42.89000 -2.41800 46.91600
H  41.45500 -1.38800 47.08300
H  42.46300 -1.67000 48.45900
H  47.60600 -1.20400 47.97600
H  47.47600 -1.49000 46.16100
H  47.57300 -2.78700 47.36100
H  49.10400 2.57800 46.18600
H  49.05700 5.44300 46.77700
H  49.62500 4.03600 48.52100
H  50.03300 2.40400 48.08100
H  48.41700 2.73700 48.94100
H  48.73900 5.98900 44.50900
H  48.00800 4.45300 44.07100
H  50.85400 5.51800 44.72100
H  50.41400 4.34200 43.47200
H  50.60800 3.81500 45.08200
H  45.11300 10.34500 46.00200
H  46.61800 9.34000 46.33400
H  45.49600 9.80300 47.55500
H  40.34300 7.70200 45.82500
H  37.16000 7.41800 48.32100
H  37.40200 9.11700 48.61900
H  38.08700 7.93900 49.66900
Mg -9.50000 18.30800 42.93000
C  -5.97700 17.58300 42.80900
C  -8.85300 21.46900 41.75300
C  -12.88300 18.85900 42.69800
C  -9.98800 14.90900 43.28700
N  -7.56900 19.31400 42.34100
C  -6.24700 18.90800 42.49400
C  -5.30100 20.03500 42.13100
C  -6.24600 21.29300 41.81000
C  -7.64600 20.68000 41.95100
C  -5.95900 22.50000 42.68300
C  -4.45800 19.79100 40.84500
C  -4.97800 18.73700 39.81500
H  -4.71700 19.06500 38.34500
N  -10.74400 19.89000 42.27100
C  -10.26800 21.13100 41.85700
C  -11.41200 22.05600 41.55600
C  -12.58400 21.28400 41.72900
C  -12.13200 19.89500 42.21900
C  -11.23900 23.63600 41.26500
C  -14.00600 21.75600 41.46000
O  -14.25700 22.94400 41.16200
C  -15.22000 20.89600 41.54800
N  -11.18000 17.02100 42.93000
C  -12.41900 17.56300 42.98600
C  -13.36300 16.45400 43.42900
C  -12.50500 15.12700 43.24400
C  -11.11100 15.70000 43.12500
C  -14.08300 16.64800 44.74500
C  -12.94000 14.23900 41.95900
C  -12.72300 12.71300 42.16200
N  -8.28000 16.60300 43.07200
C  -8.66200 15.30200 43.24700
C  -7.49900 14.40000 43.30700
C  -6.44100 15.30200 43.18200
C  -6.95100 16.60000 43.07700
C  -7.57500 12.86900 43.39400
C  -4.96900 15.42700 43.28600
O  -4.14700 14.52700 43.37300
C  -4.63700 16.88600 42.95200
C  -3.70500 17.34000 43.98800
O  -2.51100 17.53100 43.88300
O  -4.38200 17.37500 45.15600
C  -3.49600 17.29100 46.39500
H  -8.73200 22.53800 41.56200
H  -13.97200 18.93000 42.74500
H  -10.25800 13.90300 43.61400
H  -4.66900 20.15400 43.01100
H  -6.20300 21.76100 40.82600
H  -6.82200 22.69300 43.32100
H  -5.59100 23.29800 42.03900
H  -5.12700 22.37100 43.37600
H  -3.49500 19.51700 41.27600
H  -4.19500 20.71300 40.32700
H  -6.04700 18.74500 40.02600
H  -4.59700 17.75100 40.08100
H  -11.82300 23.90200 40.38400
H  -10.25800 23.96600 40.92500
H  -11.51600 24.30600 42.07900
H  -15.45300 20.68500 42.59100
H  -14.84800 20.01600 41.02300
H  -16.08300 21.33000 41.04200
H  -14.09200 16.48700 42.61900
H  -12.55000 14.55000 44.16800
H  -13.94100 17.61100 45.23500
H  -13.78100 15.88300 45.46100
H  -15.14300 16.43600 44.61000
H  -12.33300 14.54200 41.10600
H  -13.97700 14.33100 41.63900
H  -12.35900 12.35200 43.12400
H  -11.79400 12.38000 41.70000
H  -13.58300 12.14700 41.80300
H  -6.63400 12.58500 43.86600
H  -7.59500 12.38500 42.41800
H  -8.41200 12.55900 44.02000
H  -4.12900 16.86200 41.98800
H  -2.87800 18.18900 46.36800
H  -3.07700 16.28900 46.48400
H  -4.06600 17.37900 47.31900

