158

Mg 26.18200 0.64800 29.01700
C  27.81500 0.43700 32.17100
C  23.35600 1.02400 30.77400
C  24.58900 0.82600 26.16100
C  29.19000 -0.29700 27.48400
N  25.67300 0.59600 31.29300
C  26.50400 0.80300 32.35200
C  25.67000 0.93200 33.67600
C  24.21100 0.94800 33.16700
C  24.43900 0.84300 31.65600
C  23.22500 -0.13800 33.63900
C  26.23500 2.12700 34.47300
C  26.90800 1.76000 35.85100
H  26.49700 2.60900 37.06500
N  24.18000 0.86200 28.48600
C  23.16200 0.98400 29.38500
C  21.88300 1.16700 28.70100
C  22.19200 1.18100 27.30300
C  23.66200 1.00200 27.23900
C  20.58000 1.17600 29.46600
C  21.27800 1.38100 26.09400
O  21.65900 1.26700 24.89300
C  19.83800 1.65200 26.30600
N  26.79500 0.29500 27.10800
C  25.97600 0.50500 26.08400
C  26.65800 0.59800 24.76800
C  28.10700 0.14200 25.10600
C  28.08300 0.02400 26.65600
C  25.99900 -0.04400 23.46900
C  29.29200 0.90000 24.55200
C  29.81200 0.61800 23.15000
N  28.10300 0.15700 29.63400
C  29.21500 -0.24800 28.87400
C  30.30600 -0.55700 29.75400
C  29.76800 -0.29400 31.03300
C  28.43100 0.14200 30.87500
C  31.72400 -0.86900 29.28600
C  30.09600 -0.34100 32.42200
O  31.18500 -0.70000 32.95700
C  28.89900 0.26200 33.19500
C  28.58000 -0.73100 34.23000
O  28.00600 -1.79000 34.01300
O  29.19200 -0.47100 35.43600
C  29.02300 -1.58100 36.39200
H  22.44600 1.19500 31.35300
H  24.05500 0.84900 25.20800
H  30.13700 -0.56000 27.00800
H  25.73500 -0.02200 34.19900
H  23.92600 1.97400 33.40300
H  23.70100 -0.67900 34.45700
H  23.01500 -0.83900 32.83100
H  22.38000 0.38900 34.08200
H  25.46500 2.89000 34.58800
H  27.09300 2.54700 33.94700
H  27.98700 1.91700 35.83600
H  26.67700 0.70100 35.97200
H  19.84800 1.82100 28.98100
H  20.80600 1.44200 30.49900
H  20.16600 0.17100 29.37900
H  19.36200 0.77300 26.74100
H  19.21600 1.63300 25.41100
H  19.66000 2.49000 26.97900
H  26.66900 1.66100 24.53000
H  28.24700 -0.88000 24.75600
H  25.70400 0.71400 22.74400
H  25.04700 -0.49600 23.74700
H  26.66700 -0.78900 23.03700
H  30.18100 0.74600 25.16300
H  28.88900 1.91200 24.51300
H  30.83800 0.24800 23.15700
H  29.86400 1.56700 22.61600
H  29.25100 -0.19600 22.69100
H  32.33300 -0.04700 28.91100
H  31.65500 -1.64300 28.52100
H  32.15500 -1.39500 30.13800
H  29.28600 1.14800 33.69700
H  27.96600 -1.71700 36.61900
H  29.55500 -1.29300 37.29900
H  29.36700 -2.59300 36.18200
Mg 35.82000 2.06900 29.69400
C  33.43700 3.13500 32.19200
C  38.10800 2.23400 32.27100
C  38.19600 1.75400 27.38900
C  33.25700 2.16600 27.30100
N  35.73000 2.40100 31.92100
C  34.60100 2.67700 32.75600
C  35.04000 2.79700 34.22400
C  36.57400 2.86700 34.13000
C  36.83600 2.42700 32.74200
C  37.29100 4.19600 34.52600
C  34.42500 1.61300 34.99700
C  34.29200 1.58200 36.52200
H  34.70700 2.86100 37.30700
N  37.91700 1.88700 29.82200
C  38.67600 2.01600 30.97200
C  40.03900 1.74200 30.69000
C  40.13000 1.70600 29.22700
C  38.71500 1.82900 28.71300
C  41.17400 1.58700 31.69300
C  41.39900 1.52900 28.34700
O  41.35000 1.45700 27.11300
C  42.78200 1.32400 29.04500
N  35.72900 1.89600 27.67100
C  36.85600 1.72800 26.94600
C  36.51800 1.45500 25.45600
C  34.99500 1.28700 25.52100
C  34.55000 1.73300 26.93200
C  37.00700 2.51300 24.32700
C  34.42700 -0.13500 25.19200
C  33.91500 -0.45100 23.79400
N  33.77200 2.59300 29.61500
C  32.85600 2.60400 28.60500
C  31.56500 3.16800 29.12400
C  31.75000 3.40000 30.44900
C  33.10100 2.97100 30.75300
C  30.38600 3.50100 28.31100
C  31.18200 3.82600 31.70800
O  30.00700 4.18700 31.91700
C  32.18400 3.75300 32.86400
C  32.44400 5.08500 33.42300
O  33.16500 5.92400 32.92200
O  31.73100 5.23000 34.64400
C  31.66100 6.49200 35.38600
H  38.91000 2.26400 33.01200
H  38.85000 1.47400 26.56100
H  32.45100 2.10800 26.56600
H  34.63000 3.75100 34.55700
H  36.91000 2.07600 34.80100
H  37.08900 5.01500 33.83600
H  38.34000 3.90900 34.58700
H  37.03200 4.65800 35.47900
H  34.79600 0.69600 34.54000
H  33.35200 1.52700 34.82700
H  34.87800 0.74200 36.89500
H  33.28900 1.24000 36.77700
H  41.75400 2.48500 31.48100
H  41.79600 0.70900 31.51800
H  40.70700 1.52800 32.67600
H  43.62800 1.37500 28.35900
H  42.83700 0.46900 29.71800
H  42.79800 2.20700 29.68400
H  36.92600 0.49800 25.13300
H  34.46200 2.00900 24.90200
H  37.68500 3.23700 24.77900
H  36.14800 3.04400 23.91800
H  37.67100 2.04700 23.59900
H  33.66400 -0.27900 25.95600
H  35.15100 -0.84200 25.59600
H  33.90500 0.49500 23.25400
H  32.91400 -0.87800 23.72500
H  34.57300 -1.09800 23.21400
H  30.68300 3.37400 27.27000
H  30.02100 4.50900 28.50800
H  29.51400 2.87700 28.50800
H  31.79900 3.05300 33.60500
H  30.68500 6.81200 35.75000
H  31.96200 7.30500 34.72600
H  32.26400 6.38400 36.28800

