158

Mg 25.01700 1.27900 29.73500
C  27.11100 1.05500 32.54300
C  22.36800 1.31200 31.83600
C  23.07700 1.41300 27.01900
C  27.77700 0.81100 27.69000
N  24.80900 1.17100 31.92300
C  25.74300 1.17300 32.90500
C  25.19000 1.32700 34.30500
C  23.64400 1.24600 34.05900
C  23.56800 1.12500 32.51900
C  22.82000 0.29800 34.90100
C  25.71800 2.56600 35.02300
C  26.51900 2.41900 36.32000
H  26.24100 3.42400 37.47200
N  22.98300 1.25700 29.52100
C  22.04200 1.37800 30.47500
C  20.76500 1.62300 29.85300
C  20.96100 1.75100 28.43100
C  22.38400 1.44200 28.21100
C  19.43200 1.69800 30.55800
C  19.99200 2.15500 27.33900
O  20.39200 2.30300 26.14700
C  18.51200 2.39200 27.66800
N  25.36400 1.04600 27.67100
C  24.35500 1.14800 26.78300
C  24.85600 1.15100 25.29700
C  26.48800 1.10200 25.46600
C  26.56400 0.96700 26.98500
C  24.28400 -0.05300 24.48100
C  27.25800 2.27100 24.84400
C  27.06400 3.73500 25.42700
N  27.05400 0.92400 30.01400
C  28.03700 0.78900 29.07900
C  29.29700 0.59600 29.75500
C  29.06000 0.70600 31.14700
C  27.64500 0.93900 31.26500
C  30.64500 0.31800 29.14500
C  29.59200 0.60100 32.52500
O  30.72000 0.32000 32.92900
C  28.36300 1.01000 33.52200
C  28.24600 -0.11200 34.51500
O  27.75100 -1.21700 34.25400
O  28.76400 0.29700 35.69500
C  28.97400 -0.88300 36.57000
H  21.56400 1.45600 32.56100
H  22.47700 1.62000 26.13000
H  28.63300 0.80700 27.01300
H  25.37500 0.40600 34.85800
H  23.21100 2.22800 34.25100
H  23.43900 -0.27000 35.59500
H  22.36600 -0.42300 34.22200
H  22.02000 0.78700 35.45700
H  24.85700 3.21200 35.19400
H  26.33400 3.13800 34.32900
H  27.55000 2.59100 36.00900
H  26.60400 1.38300 36.64800
H  19.61700 1.15700 31.48600
H  18.63900 1.13500 30.06600
H  19.09600 2.72900 30.65900
H  18.36400 3.13700 28.45000
H  17.96600 1.46900 27.86100
H  18.15300 2.90200 26.77400
H  24.63200 2.14400 24.90700
H  26.87700 0.19700 24.99800
H  24.96900 -0.83500 24.15300
H  23.82800 0.33600 23.57000
H  23.51300 -0.47200 25.12700
H  26.79500 2.30400 23.85800
H  28.32700 2.06600 24.78000
H  26.53400 3.62100 26.37200
H  26.43800 4.22900 24.68400
H  27.93000 4.35500 25.65700
H  30.62900 0.85200 28.19500
H  30.61500 -0.72700 28.83800
H  31.52800 0.47400 29.76500
H  28.45200 1.98100 34.00900
H  28.03400 -1.14400 37.05700
H  29.64900 -0.68200 37.40200
H  29.49800 -1.70700 36.08500
Mg -10.29100 39.28400 41.63900
C  -8.89500 36.12400 40.93600
C  -7.80500 40.70400 39.86700
C  -12.23500 42.03100 41.32200
C  -13.23300 37.50900 42.57400
N  -8.54900 38.48700 40.56800
C  -8.13800 37.15500 40.40700
C  -6.83500 37.08100 39.63000
C  -6.51500 38.53600 39.29000
C  -7.70300 39.32100 39.93700
C  -5.14200 39.00300 39.82800
C  -6.92000 36.03100 38.38400
C  -5.64500 35.34200 38.07900
H  -4.65800 36.19500 37.18900
N  -9.92100 41.16100 40.96500
C  -8.80600 41.58700 40.32400
C  -8.83300 42.97300 40.08300
C  -10.16200 43.42400 40.53000
C  -10.88900 42.18600 40.92000
C  -7.74100 43.74100 39.36800
C  -10.64600 44.86000 40.63800
O  -10.07000 45.76000 40.16300
C  -11.98400 45.23800 41.40900
N  -12.48300 39.72000 41.82500
C  -12.93300 40.98800 41.76900
C  -14.47800 41.00800 42.20200
C  -14.70900 39.50500 42.51600
C  -13.38600 38.88700 42.34300
C  -14.91600 42.08400 43.25600
C  -15.82900 38.89500 41.64300
C  -15.42800 38.27400 40.34200
N  -10.99800 37.21600 41.82100
C  -12.10300 36.72500 42.37000
C  -11.96500 35.29800 42.56400
C  -10.72700 34.96300 41.97600
C  -10.14800 36.20900 41.58600
C  -12.90700 34.39000 43.33000
C  -9.71900 33.93700 41.86400
O  -9.64400 32.75300 42.15200
C  -8.55900 34.62600 41.05300
C  -7.16700 34.42700 41.76200
O  -6.29900 33.61100 41.46400
O  -7.01200 35.37400 42.77100
C  -5.95200 35.10100 43.76500
H  -7.13000 41.13300 39.12300
H  -12.94400 42.85700 41.24300
H  -14.07500 37.04100 43.08700
H  -6.17000 36.72500 40.41700
H  -6.52900 38.65400 38.20700
H  -5.26300 39.85100 40.50200
H  -4.69300 39.53800 38.99200
H  -4.52200 38.22800 40.28000
H  -7.12900 36.61000 37.48400
H  -7.74600 35.32300 38.31800
H  -5.89500 34.39900 37.59100
H  -5.08100 35.03600 38.96000
H  -7.27200 43.12800 38.59800
H  -7.02700 44.09600 40.11100
H  -8.17700 44.59200 38.84500
H  -12.10200 44.62900 42.30400
H  -12.86000 45.06700 40.78400
H  -12.07000 46.31600 41.54900
H  -14.95700 41.30900 41.27000
H  -14.90200 39.27900 43.56400
H  -15.47200 42.89600 42.78600
H  -14.04400 42.37000 43.84500
H  -15.63000 41.71100 43.99100
H  -16.56400 39.67100 41.42900
H  -16.33200 38.13600 42.24300
H  -16.08400 38.77000 39.62700
H  -15.64400 37.20700 40.40200
H  -14.37800 38.41600 40.08600
H  -12.66000 34.31100 44.38900
H  -12.74400 33.40200 42.89900
H  -13.94300 34.72000 43.25900
H  -8.38500 34.09000 40.12000
H  -4.96000 34.93800 43.34400
H  -6.38600 34.30200 44.36700
H  -5.84700 36.03200 44.32300

