158

Mg 17.26400 -2.35900 27.76700
C  15.94900 -0.29100 30.54700
C  19.05100 -4.03000 30.23400
C  18.79100 -3.76400 25.32200
C  15.85000 0.03200 25.60500
N  17.34500 -2.20900 30.10000
C  16.71500 -1.39000 30.96300
C  17.12800 -1.64500 32.42600
C  18.17700 -2.76600 32.31500
C  18.28500 -2.98600 30.77300
C  19.52700 -2.57500 32.98900
C  15.87200 -2.11100 33.26500
C  15.92400 -1.84900 34.79900
H  17.13300 -1.22700 35.56200
N  18.52700 -3.86200 27.74100
C  19.14600 -4.47200 28.84200
C  19.89300 -5.62400 28.33300
C  19.83800 -5.56400 26.91600
C  18.97600 -4.40100 26.57900
C  20.56200 -6.70700 29.17800
C  20.58900 -6.43100 25.92600
O  20.39800 -6.10000 24.77900
C  21.42300 -7.64300 26.26000
N  17.20500 -1.95700 25.70800
C  18.05100 -2.66600 24.92700
C  17.98700 -2.07700 23.37500
C  17.07500 -0.82800 23.53100
C  16.68200 -0.93900 24.98900
C  19.47000 -1.65800 22.85400
C  15.81200 -0.72800 22.50400
C  16.27400 -0.42000 21.11000
N  16.02500 -0.61800 27.93300
C  15.48600 0.24300 27.01700
C  14.64200 1.21200 27.58900
C  14.83800 1.07300 29.00100
C  15.65400 -0.08500 29.19300
C  13.88900 2.25200 26.92100
C  14.56300 1.69400 30.29700
O  13.89900 2.62800 30.52900
C  15.30300 0.77900 31.38800
C  16.19600 1.63300 32.15800
O  17.43600 1.65000 32.08500
O  15.48700 2.30100 33.15900
C  16.26400 2.94500 34.16900
H  19.71100 -4.60900 30.88300
H  19.20600 -4.19900 24.41000
H  15.42300 0.77400 24.92600
H  17.40900 -0.67400 32.83300
H  17.82100 -3.72500 32.69000
H  20.29100 -2.78900 32.24000
H  19.65100 -3.19900 33.87400
H  19.46400 -1.56500 33.39100
H  15.67100 -3.15100 33.00800
H  14.96800 -1.62300 32.90100
H  15.68300 -2.84600 35.16800
H  15.04500 -1.23800 35.00400
H  21.63300 -6.72000 28.97600
H  19.96400 -7.55200 28.83600
H  20.28500 -6.52200 30.21600
H  21.67400 -8.15600 25.33200
H  20.97200 -8.28500 27.01600
H  22.32400 -7.27000 26.74700
H  17.54300 -2.81700 22.70900
H  17.59200 0.12400 23.41100
H  20.21000 -1.89900 23.61700
H  19.55100 -0.63200 22.49600
H  19.69300 -2.28200 21.98800
H  15.13200 0.08800 22.74800
H  15.27100 -1.67300 22.56500
H  17.26900 0.01300 21.21800
H  15.59100 0.12600 20.45900
H  16.50100 -1.38400 20.65600
H  12.82700 2.00500 26.89400
H  14.15600 2.64400 25.93900
H  14.04700 3.07800 27.61300
H  14.42700 0.45800 31.95100
H  16.40200 3.98100 33.86000
H  17.22700 2.50800 34.43200
H  15.60000 2.98400 35.03300
Mg 25.94800 -0.76900 29.14700
C  28.04700 -1.05300 31.94100
C  23.24900 -0.77200 31.29000
C  23.96700 -0.74200 26.53400
C  28.74700 -1.26700 27.07000
N  25.70600 -1.00500 31.43900
C  26.69200 -1.07800 32.31800
C  26.10300 -1.07400 33.79800
C  24.52800 -1.01700 33.50400
C  24.43800 -0.95400 31.96100
C  23.62700 -2.19900 34.04800
C  26.75100 -0.04100 34.78300
C  25.81800 0.64600 35.86400
H  26.49800 1.22900 37.14900
N  23.98600 -0.68800 28.97100
C  23.01100 -0.54100 29.92600
C  21.73200 -0.29600 29.34000
C  21.87500 -0.30100 27.91400
C  23.29400 -0.59600 27.76000
C  20.46900 -0.43500 30.13700
C  20.86600 -0.12200 26.79600
O  21.07700 -0.17600 25.59300
C  19.46700 0.11900 27.17100
N  26.33100 -0.77800 27.04700
C  25.30500 -0.91400 26.25000
C  25.80300 -0.88600 24.80100
C  27.36000 -1.08200 24.91100
C  27.54800 -1.16000 26.41100
C  25.15000 -2.07500 23.87800
C  28.13100 0.11100 24.34300
C  28.53300 -0.02500 22.85200
N  28.01200 -0.98000 29.47000
C  28.98200 -1.19700 28.49100
C  30.29000 -1.27400 29.18700
C  29.98100 -1.21100 30.54400
C  28.59200 -1.08600 30.65700
C  31.57100 -1.63600 28.46400
C  30.47500 -1.21700 31.86500
O  31.58700 -1.35300 32.27100
C  29.26800 -1.11500 32.87100
C  29.26800 -2.27500 33.92000
O  28.87600 -3.37600 33.67600
O  29.68100 -1.84200 35.09800
C  29.42100 -2.60500 36.31500
H  22.49800 -0.68400 32.07800
H  23.41300 -0.66500 25.59600
H  29.60000 -1.45900 26.41700
H  26.31700 -2.10400 34.08500
H  24.17200 -0.03800 33.82600
H  24.16200 -3.03400 34.50000
H  22.98500 -2.68800 33.31500
H  22.98600 -1.84600 34.85500
H  27.10000 0.80900 34.19700
H  27.55000 -0.44700 35.40300
H  25.02000 -0.03800 36.15300
H  25.28300 1.37200 35.25200
H  19.55800 -0.28700 29.55600
H  20.34000 0.38600 30.84200
H  20.48500 -1.24100 30.87000
H  19.09800 -0.79500 27.63500
H  18.95200 0.21600 26.21500
H  19.38200 1.04200 27.74400
H  25.60300 0.13100 24.46300
H  27.64900 -2.06300 24.53300
H  24.95100 -1.60600 22.91500
H  24.31000 -2.58500 24.34900
H  25.79500 -2.91000 23.60200
H  29.01100 0.30100 24.95800
H  27.59100 1.05700 24.36700
H  28.11300 0.66600 22.12100
H  28.31400 -1.02500 22.47900
H  29.59800 0.18200 22.74600
H  31.29300 -1.89100 27.44200
H  31.84400 -2.59200 28.91100
H  32.43200 -0.98300 28.60700
H  29.56400 -0.14100 33.26000
H  30.27100 -3.20600 36.64000
H  28.56700 -3.25900 36.14000
H  29.11900 -1.88700 37.07700

