158

Mg 56.45500 25.24400 45.07300
C  54.16700 27.64100 43.75900
C  54.88100 22.84100 43.64800
C  59.29500 23.42400 45.57900
C  58.32000 28.15300 46.18000
N  54.91900 25.32800 43.67000
C  54.06100 26.34700 43.28300
C  53.08600 25.80600 42.28500
C  53.04500 24.24200 42.58800
C  54.41600 24.12500 43.28800
C  51.84700 23.79200 43.49400
C  53.58200 26.02200 40.76900
C  52.55700 26.01100 39.64700
H  52.48000 24.83700 38.57700
N  56.94700 23.23500 44.81100
C  56.09800 22.36900 44.26600
C  56.73300 21.11200 44.08100
C  58.10300 21.32900 44.43900
C  58.19100 22.70100 44.97500
C  56.10300 19.89900 43.45400
C  59.27800 20.21800 44.25000
O  58.97100 19.10200 43.76600
C  60.68400 20.51000 44.60200
N  58.52600 25.75600 45.81100
C  59.47200 24.75600 45.88600
C  60.81200 25.21900 46.38300
C  60.46400 26.70400 46.63000
C  59.00300 26.93500 46.13800
C  61.32300 24.45200 47.61200
C  61.43900 27.67600 45.92100
C  61.86400 28.91200 46.71500
N  56.22900 27.48200 45.17000
C  57.01700 28.47500 45.70800
C  56.24300 29.77500 45.65600
C  55.14700 29.46800 44.89800
C  55.20400 28.10500 44.57900
C  56.64900 31.05700 46.24600
C  53.98000 30.02400 44.26600
O  53.58700 31.15400 44.23000
C  53.21400 28.81700 43.57400
C  53.06300 29.19000 42.08800
O  53.90100 29.77500 41.40000
O  51.78700 28.90800 41.75200
C  51.49300 29.15900 40.30400
H  54.39100 22.01500 43.12900
H  60.21300 22.84800 45.70800
H  58.96700 28.93400 46.58400
H  52.07700 26.20500 42.39300
H  52.94400 23.72900 41.63200
H  51.23300 24.60900 43.87500
H  52.25300 23.39200 44.42300
H  51.33200 23.07600 42.85400
H  54.42800 25.37400 40.54000
H  53.90200 27.06300 40.72600
H  52.74500 26.91400 39.06600
H  51.50300 26.07700 39.91800
H  56.23200 19.10900 44.19400
H  56.57900 19.51500 42.55100
H  55.03600 20.08200 43.32800
H  61.26200 19.73300 44.10200
H  60.69600 20.41000 45.68800
H  60.96200 21.50400 44.25400
H  61.42600 25.15400 45.48500
H  60.44800 26.91000 47.70000
H  61.89100 25.15700 48.22000
H  61.89500 23.63600 47.17100
H  60.50900 24.01500 48.19100
H  60.96700 27.92800 44.97200
H  62.35700 27.14600 45.66900
H  61.21500 29.77700 46.57300
H  62.89800 29.23600 46.59900
H  61.72900 28.73900 47.78300
H  57.37700 31.05400 47.05700
H  55.80900 31.45400 46.81600
H  56.99200 31.76500 45.49100
H  52.25300 28.56500 44.02200
H  52.30400 29.43100 39.62800
H  50.86200 30.04100 40.41100
H  50.89600 28.33100 39.92200
Mg -10.55500 39.11700 39.74600
C  -9.78100 35.73100 39.63700
C  -7.11500 39.70000 39.17900
C  -11.29700 42.28500 39.55800
C  -13.86700 38.24400 40.43900
N  -8.60900 37.87800 39.45800
C  -8.59200 36.50600 39.51500
C  -7.14100 35.95400 39.19700
C  -6.30700 37.26700 39.47200
C  -7.39100 38.35600 39.39000
C  -5.59900 37.36000 40.84700
C  -7.05800 35.23600 37.81500
C  -7.41400 35.99900 36.48800
H  -8.76400 35.86300 35.86000
N  -9.42100 40.80100 39.28800
C  -8.03700 40.83300 39.10900
C  -7.67100 42.20200 38.81400
C  -8.78900 43.05700 39.00500
C  -9.91900 42.08300 39.35500
C  -6.25200 42.66300 38.67400
C  -8.86800 44.57800 38.92400
O  -7.91800 45.18500 38.42500
C  -10.07300 45.39300 39.33400
N  -12.39700 40.06000 39.88200
C  -12.42700 41.39800 39.74200
C  -13.78900 41.99700 39.95700
C  -14.65600 40.68900 40.36800
C  -13.57000 39.56600 40.20100
C  -13.94800 43.22400 40.92700
C  -15.89400 40.52800 39.44500
C  -17.12700 40.25700 40.23600
N  -11.63700 37.31000 39.96300
C  -12.99100 37.14300 40.30500
C  -13.23500 35.79300 40.38000
C  -12.03700 35.13900 40.06000
C  -11.09700 36.13900 39.76300
C  -14.51600 35.17400 40.71900
C  -11.48100 33.88600 39.89700
O  -12.06700 32.82800 39.97000
C  -9.89700 34.15900 39.55700
C  -9.06000 33.35800 40.45300
O  -9.21500 33.16200 41.66200
O  -8.00400 32.91700 39.80300
C  -6.83800 32.40900 40.51000
H  -6.06800 39.90500 38.94200
H  -11.62400 43.32700 39.55000
H  -14.94600 38.14100 40.56700
H  -7.11200 35.25100 40.02900
H  -5.47900 37.32700 38.76600
H  -6.04600 38.12900 41.47700
H  -4.53600 37.56600 40.71900
H  -5.66100 36.40300 41.36600
H  -7.59100 34.28600 37.80800
H  -6.05600 34.83000 37.67200
H  -6.72500 35.70900 35.69600
H  -7.14900 37.05500 36.54900
H  -6.12900 43.48400 37.96700
H  -5.63700 41.81500 38.37200
H  -5.97700 43.07900 39.64300
H  -10.25400 45.15100 40.38100
H  -10.98100 45.23200 38.75300
H  -9.83700 46.44400 39.16200
H  -14.08200 42.27400 38.94400
H  -14.98700 40.63700 41.40500
H  -14.93100 43.17000 41.39400
H  -13.89300 44.11100 40.29500
H  -13.11000 43.35700 41.61100
H  -15.74600 39.67100 38.78700
H  -15.97400 41.33900 38.72000
H  -16.93100 40.60700 41.24900
H  -17.37800 39.19600 40.25200
H  -17.98100 40.87400 39.95600
H  -14.97400 34.89700 39.76900
H  -15.15200 35.84000 41.30100
H  -14.38300 34.25300 41.28700
H  -9.79100 33.92000 38.49900
H  -6.37100 31.51700 40.09200
H  -7.16000 32.11800 41.51000
H  -6.09700 33.20300 40.59900

