158

Mg -1.46000 18.13900 27.34900
C  -2.17800 15.86800 29.94600
C  -1.86300 20.68600 29.51400
C  -1.07200 20.12400 24.75700
C  -1.10700 15.31200 25.23400
N  -1.93100 18.20700 29.54400
C  -2.09500 17.21800 30.42100
C  -2.22800 17.80600 31.85800
C  -2.40800 19.32700 31.58500
C  -1.97100 19.41200 30.11800
C  -3.85000 19.72000 31.91100
C  -1.11500 17.38800 32.81800
C  -1.63600 16.87100 34.18900
H  -0.54800 16.53900 35.23200
N  -1.42800 20.10200 27.25000
C  -1.61800 20.98300 28.23500
C  -1.55600 22.36300 27.64500
C  -1.22400 22.19100 26.20500
C  -1.18600 20.72700 26.01200
C  -1.94900 23.57700 28.43200
C  -1.10900 23.32100 25.11700
O  -0.75200 23.10900 23.96700
C  -1.66500 24.67000 25.47800
N  -1.16700 17.75400 25.25900
C  -1.00100 18.77100 24.38200
C  -0.66500 18.22300 23.01100
C  -0.44600 16.70800 23.26200
C  -0.92400 16.57800 24.66400
C  -1.84000 18.49600 22.05800
C  1.03100 16.22600 23.10500
C  2.15400 16.83800 23.97600
N  -1.61000 16.06200 27.47900
C  -1.54800 15.04600 26.53600
C  -1.84100 13.73800 27.05000
C  -2.13800 14.04400 28.42500
C  -1.91900 15.46100 28.63500
C  -1.75800 12.45100 26.43700
C  -2.46400 13.42200 29.63300
O  -2.60000 12.22400 29.90700
C  -2.55900 14.57200 30.70400
C  -1.69400 14.10700 31.81900
O  -0.45000 14.15400 31.84900
O  -2.42600 13.55600 32.83700
C  -1.70500 12.90500 33.97900
H  -1.64300 21.53200 30.16800
H  -0.98100 20.79700 23.90200
H  -1.03600 14.47700 24.53400
H  -3.09300 17.37400 32.36000
H  -1.72200 19.89500 32.21300
H  -4.14700 20.60100 31.34100
H  -4.10800 20.06300 32.91300
H  -4.49800 18.92800 31.53400
H  -0.44700 18.21200 33.06700
H  -0.52300 16.60800 32.33800
H  -2.20500 15.96100 34.00100
H  -2.16800 17.69600 34.66400
H  -2.44600 23.28800 29.35800
H  -2.57000 24.25500 27.84600
H  -1.16800 24.16000 28.92100
H  -2.69000 24.42300 25.75700
H  -1.66000 25.45400 24.72100
H  -1.21900 25.06600 26.39000
H  0.26700 18.66700 22.66100
H  -1.13800 16.18900 22.59900
H  -1.58000 18.41000 21.00300
H  -2.23000 19.47400 22.33900
H  -2.56700 17.71400 22.27800
H  1.47900 16.49600 22.14900
H  1.00500 15.15600 23.31100
H  1.73600 17.51000 24.72600
H  2.69000 17.54300 23.34000
H  2.75800 16.01200 24.35200
H  -1.30100 11.75000 27.13700
H  -1.17800 12.52100 25.51700
H  -2.79600 12.20700 26.20900
H  -3.55300 14.74900 31.11400
H  -2.35200 13.09400 34.83600
H  -0.77100 13.40100 34.24100
H  -1.55100 11.83500 33.84100
Mg 26.02600 0.55700 29.36100
C  28.08000 0.12900 32.15500
C  23.41200 1.12800 31.32600
C  24.28900 0.82200 26.56800
C  28.83000 -0.47700 27.39100
N  25.77600 0.52000 31.50900
C  26.71600 0.43800 32.47200
C  26.16600 0.79000 33.83600
C  24.65100 0.95600 33.55200
C  24.62800 0.88300 32.00400
C  23.59500 -0.02000 34.20900
C  26.79700 2.05500 34.55600
C  27.35400 1.73400 36.03000
H  27.18200 2.84400 37.07200
N  24.04900 1.01600 28.98900
C  23.13900 1.21100 30.01400
C  21.86900 1.57800 29.25700
C  22.10900 1.39600 27.84600
C  23.54800 1.01500 27.70700
C  20.60800 1.96800 29.97500
C  21.13900 1.57200 26.76600
O  21.48400 1.46400 25.58700
C  19.71300 1.76600 27.04000
N  26.43000 0.09300 27.23800
C  25.57100 0.44200 26.28200
C  26.19700 0.41800 24.87300
C  27.68200 0.20900 25.18300
C  27.64200 -0.16600 26.67600
C  25.70100 -0.76700 23.97200
C  28.43600 1.58800 24.94800
C  29.92500 1.31600 24.37100
N  28.07200 -0.04900 29.63600
C  29.02100 -0.45300 28.78600
C  30.25800 -0.65300 29.47600
C  29.96000 -0.45000 30.80200
C  28.63200 -0.07800 30.87100
C  31.66700 -0.95900 28.81800
C  30.50500 -0.41900 32.13900
O  31.61200 -0.80400 32.55000
C  29.29900 0.05100 33.07700
C  29.11000 -0.96000 34.18100
O  28.59700 -2.06200 33.99800
O  29.73900 -0.59300 35.34700
C  29.56200 -1.50900 36.46100
H  22.52800 1.30900 31.94100
H  23.72900 1.10900 25.67600
H  29.74300 -0.64700 26.81600
H  26.21200 -0.15500 34.37700
H  24.32100 1.98100 33.72300
H  24.11600 -0.29400 35.12700
H  23.52500 -0.84200 33.49700
H  22.60300 0.29400 34.53300
H  26.09700 2.89000 34.56600
H  27.72000 2.27500 34.01900
H  28.42200 1.57600 35.88000
H  26.82000 0.81900 36.28600
H  19.98000 2.74800 29.54500
H  20.93300 2.49900 30.87000
H  19.87500 1.17200 30.10800
H  19.10800 1.68600 26.13800
H  19.59200 2.80500 27.34900
H  19.29600 1.15800 27.84300
H  25.97500 1.33600 24.32800
H  28.09200 -0.59400 24.57100
H  25.70300 -0.48800 22.91800
H  24.68600 -1.00900 24.28900
H  26.24700 -1.69500 24.14100
H  28.51400 2.00400 25.95200
H  27.88500 2.32000 24.35700
H  30.05100 1.57500 23.32000
H  30.27300 0.30200 24.57000
H  30.54900 2.07300 24.84700
H  32.36500 -0.99300 29.65400
H  31.80100 -0.10500 28.15400
H  31.68400 -1.79100 28.11400
H  29.50800 1.02100 33.52900
H  30.19500 -1.10100 37.24900
H  29.87600 -2.53900 36.28900
H  28.54500 -1.58300 36.84700

