158

Mg 0.42800 7.90300 25.42400
C  0.81200 9.83100 28.39100
C  0.68200 5.27600 27.31300
C  -0.04500 6.13400 22.63800
C  0.41900 10.90700 23.58100
N  0.93000 7.62400 27.60000
C  0.80400 8.49300 28.63000
C  0.91700 7.87700 29.95500
C  1.08600 6.36800 29.54200
C  0.86900 6.42200 28.01900
C  2.52500 5.80700 29.95000
C  -0.36800 8.07000 30.75400
C  -0.30600 7.95000 32.31400
H  1.05200 7.68700 32.98200
N  0.31800 5.92800 25.06100
C  0.41000 4.97800 25.98700
C  0.13000 3.64400 25.35700
C  -0.20200 3.89900 23.97900
C  0.10400 5.36200 23.83000
C  0.30300 2.29200 25.99200
C  -0.71300 2.95800 22.99600
O  -0.85400 3.31900 21.80800
C  -1.03000 1.50200 23.28800
N  0.36400 8.40400 23.39400
C  0.11200 7.48600 22.41000
C  0.09900 8.16400 20.98100
C  -0.15400 9.66700 21.40000
C  0.22300 9.72300 22.90200
C  1.32500 7.97500 20.13800
C  -1.59000 10.24900 21.17300
C  -1.74400 11.22600 20.02500
N  0.80200 9.90100 25.79400
C  0.59800 11.06900 24.97700
C  0.86400 12.26200 25.72900
C  0.98200 11.81200 27.05500
C  0.88500 10.41600 27.07500
C  0.98700 13.68800 25.27500
C  1.24800 12.16700 28.41200
O  1.61300 13.22600 28.80700
C  1.04200 10.92600 29.34800
C  2.35500 10.76400 30.01700
O  3.32100 10.16300 29.55300
O  2.36200 11.49300 31.19400
C  3.51100 11.25300 32.04000
H  0.85300 4.40800 27.95200
H  -0.30100 5.62600 21.70600
H  0.24900 11.82700 23.01700
H  1.74500 8.28200 30.53800
H  0.24500 5.81700 29.96400
H  3.17700 6.48400 30.50200
H  3.11000 5.52000 29.07600
H  2.36200 4.88300 30.50400
H  -1.17100 7.42700 30.39500
H  -0.71400 9.08800 30.57200
H  -1.00300 7.12700 32.47000
H  -0.73900 8.91300 32.58300
H  0.88300 2.41200 26.90700
H  0.91300 1.69800 25.31100
H  -0.63900 1.80500 26.24600
H  -1.86000 1.47800 23.99400
H  -0.15300 1.03600 23.73800
H  -1.35800 0.94500 22.41100
H  -0.74500 7.84000 20.37300
H  0.53500 10.30500 20.84700
H  1.27000 8.71300 19.33800
H  1.42600 6.97700 19.71200
H  2.17500 8.24400 20.76500
H  -2.05600 10.58400 22.09900
H  -2.21600 9.42100 20.83900
H  -1.37000 10.59900 19.21600
H  -0.98400 12.00300 20.10900
H  -2.77300 11.50500 19.79600
H  0.43100 14.40600 25.87800
H  0.97500 13.78800 24.19000
H  2.01700 13.94700 25.52000
H  0.17900 11.04700 30.00300
H  3.36900 11.64300 33.04800
H  4.28500 11.93100 31.68000
H  3.78300 10.19900 32.10100
Mg 8.65200 3.54900 27.77900
C  9.81300 1.98500 30.84300
C  6.66000 5.56000 29.73900
C  7.27100 4.61600 24.95100
C  10.24100 0.83200 26.05700
N  8.12800 3.59000 29.96300
C  8.81700 2.95700 31.03700
C  8.29100 3.61100 32.38000
C  7.18500 4.56900 31.95600
C  7.33600 4.58200 30.44500
C  5.72300 4.15600 32.45700
C  9.43600 4.27500 33.10800
C  9.42800 4.02400 34.67600
H  10.79600 3.94300 35.38400
N  7.30500 5.04800 27.42100
C  6.60100 5.81500 28.31400
C  5.81700 6.82800 27.58200
C  6.07400 6.56700 26.18000
C  6.92300 5.35100 26.11300
C  4.92000 7.92900 28.17100
C  5.58900 7.36300 24.98500
O  5.80500 7.02600 23.80500
C  4.73900 8.52900 25.13700
N  8.82300 2.91100 25.79500
C  7.99900 3.42800 24.81700
C  8.22400 2.69200 23.40300
C  9.35400 1.66400 23.75800
C  9.50900 1.79300 25.33600
C  6.82100 2.19500 22.94800
C  10.80800 1.87800 23.22700
C  11.56400 0.58100 22.86500
N  9.79700 1.76000 28.30700
C  10.45200 0.85500 27.44600
C  11.25600 -0.05300 28.24100
C  11.15800 0.46000 29.56200
C  10.12100 1.43500 29.55300
C  12.06700 -1.19500 27.80200
C  11.61500 0.30500 30.96700
O  12.52300 -0.30400 31.45900
C  10.74800 1.31400 31.82700
C  10.18400 0.50100 32.93100
O  9.62200 -0.55600 32.81900
O  10.42300 1.06800 34.13300
C  10.03400 0.40400 35.36300
H  6.14600 6.31800 30.33400
H  6.83700 4.96100 24.01000
H  10.71000 0.03000 25.48300
H  8.00100 2.74900 32.98000
H  7.39700 5.61400 32.18300
H  5.37700 4.98900 33.06900
H  5.69200 3.30300 33.13500
H  5.09800 3.89800 31.60200
H  9.32100 5.35600 33.02100
H  10.42600 4.08200 32.69500
H  8.72000 3.22300 34.88800
H  8.85000 4.78400 35.20200
H  5.10100 8.00200 29.24300
H  3.89900 7.58300 28.00600
H  5.17000 8.86800 27.67600
H  5.44600 9.20600 25.61700
H  3.85700 8.32800 25.74500
H  4.45400 8.92700 24.16400
H  8.61100 3.34800 22.62300
H  8.95400 0.70700 23.42300
H  6.05300 2.69200 23.54000
H  6.74600 1.11100 23.03600
H  6.66900 2.52700 21.92100
H  11.34100 2.58400 23.86400
H  10.79900 2.44000 22.29400
H  11.63900 0.38500 21.79500
H  11.20500 -0.37600 23.24400
H  12.59900 0.75800 23.15600
H  12.14100 -1.25100 26.71600
H  11.61600 -2.11900 28.16400
H  13.06100 -1.01000 28.20900
H  11.42500 2.03100 32.29200
H  10.79500 -0.35400 35.55300
H  9.05500 -0.07300 35.34000
H  9.97600 1.03900 36.24800

