158

Mg 2.46300 -1.52500 43.85200
C  5.77700 -1.18500 42.68700
C  1.61200 1.20800 41.97000
C  -0.67600 -2.45200 44.21500
C  3.53100 -4.65400 45.25000
N  3.58500 -0.16900 42.45800
C  4.89300 -0.21500 42.12200
C  5.26600 0.94300 41.19700
C  4.06400 1.90200 41.39000
C  2.97500 0.97600 42.02400
C  4.25200 3.23000 42.22700
C  5.56300 0.52000 39.74300
C  6.61000 1.41200 39.01700
H  6.17200 2.05500 37.65800
N  0.66800 -0.66200 43.30900
C  0.56600 0.43900 42.47700
C  -0.87900 0.67200 42.28300
C  -1.58500 -0.28200 43.10800
C  -0.51000 -1.16500 43.61400
C  -1.40900 1.84300 41.44200
C  -3.05900 -0.38500 43.33600
O  -3.81000 0.38700 42.79700
C  -3.74800 -1.51000 44.13000
N  1.55600 -3.31700 44.55000
C  0.22400 -3.40100 44.62300
C  -0.18800 -4.77900 45.13500
C  1.15200 -5.42500 45.64300
C  2.18400 -4.42700 45.04100
C  -1.53600 -4.79400 45.98400
C  1.46400 -6.90500 45.22300
C  1.48100 -8.04000 46.24100
N  4.30000 -2.69600 44.05600
C  4.56600 -3.89900 44.68200
C  6.00700 -4.23700 44.65000
C  6.53300 -3.15200 43.84100
C  5.43800 -2.32800 43.49200
C  6.59000 -5.42700 45.25600
C  7.71700 -2.64400 43.21200
O  8.88700 -3.07700 43.23700
C  7.28500 -1.27100 42.57400
C  7.97400 -0.18100 43.25000
O  7.87000 0.08000 44.40300
O  8.77300 0.54000 42.41000
C  9.14500 1.83400 42.88900
H  1.26600 2.17100 41.58900
H  -1.67700 -2.86800 44.35000
H  3.82400 -5.67900 45.48800
H  6.10600 1.50800 41.60200
H  3.65200 2.29800 40.46200
H  5.24200 3.15200 42.67700
H  3.56300 3.40500 43.05300
H  4.21700 4.07800 41.54300
H  4.67600 0.56500 39.11100
H  6.08800 -0.43500 39.75800
H  7.55400 0.86800 39.05200
H  6.82000 2.28300 39.63700
H  -2.40400 2.06500 41.82800
H  -1.43600 1.52000 40.40100
H  -0.75200 2.70400 41.56200
H  -4.81600 -1.29600 44.18300
H  -3.36600 -1.59900 45.14700
H  -3.66800 -2.44400 43.57500
H  -0.37100 -5.09300 44.10700
H  1.23400 -5.32500 46.72500
H  -2.39200 -5.01800 45.34700
H  -1.64000 -3.79800 46.41400
H  -1.49100 -5.54900 46.76900
H  2.29900 -6.91300 44.52300
H  0.62200 -7.07500 44.55100
H  2.23100 -8.78200 45.96800
H  0.55100 -8.59600 46.11500
H  1.45600 -7.78900 47.30100
H  6.75800 -6.11900 44.43100
H  6.03800 -5.87300 46.08300
H  7.57400 -5.30100 45.70700
H  7.70600 -1.24300 41.56900
H  9.48600 1.75700 43.92100
H  8.27600 2.49100 42.92600
H  10.02200 2.21400 42.36400
Mg 26.27700 51.85900 25.91300
C  23.91800 52.71800 28.26600
C  28.55500 50.92700 28.35200
C  28.53600 51.33200 23.43900
C  24.03500 53.02800 23.42100
N  26.21300 51.91600 28.13900
C  25.05700 52.17000 28.86700
C  25.47900 52.05400 30.35100
C  27.01100 51.52300 30.35600
C  27.31900 51.45000 28.84700
C  28.04800 52.30100 31.20700
C  24.51000 51.06900 31.17800
C  23.93100 51.64600 32.44900
H  24.10000 50.88400 33.81400
N  28.23800 51.13900 25.93300
C  29.04500 50.78500 27.04000
C  30.29700 50.25800 26.61100
C  30.32200 50.36100 25.19800
C  28.98300 50.90000 24.77700
C  31.31100 49.76800 27.66000
C  31.44700 49.96400 24.30300
O  31.36500 50.16400 23.05000
C  32.54100 49.24200 24.83300
N  26.30100 52.20900 23.68400
C  27.40600 52.00900 22.93500
C  27.13300 52.23600 21.39600
C  25.66800 52.83000 21.41100
C  25.31800 52.72800 22.89800
C  28.22400 53.08000 20.63000
C  24.65300 52.08500 20.36700
C  24.64000 52.61800 18.92000
N  24.41900 52.64100 25.83000
C  23.64600 53.04400 24.73700
C  22.31600 53.43100 25.20600
C  22.36700 53.34900 26.58000
C  23.68400 52.94100 26.87900
C  21.13400 53.93600 24.36600
C  21.59700 53.59500 27.74100
O  20.57400 54.18700 27.92700
C  22.59300 53.13400 28.92900
C  22.74500 54.31600 29.85700
O  23.52600 55.19800 29.74200
O  21.85900 54.05200 30.91400
C  21.90500 54.86000 32.13500
H  29.26200 50.69600 29.15200
H  29.29600 51.15200 22.67500
H  23.29400 53.12300 22.62500
H  25.29700 53.06400 30.71900
H  27.17100 50.50000 30.69600
H  27.51800 53.22700 31.42800
H  28.96700 52.41100 30.63200
H  28.28700 51.72200 32.09900
H  25.09300 50.20000 31.48200
H  23.73500 50.78900 30.46500
H  22.86200 51.70000 32.24300
H  24.38700 52.62700 32.58200
H  32.32600 50.14400 27.53100
H  31.32500 48.68700 27.79500
H  31.05900 50.19400 28.63200
H  33.09300 49.90000 25.50500
H  33.24900 49.10400 24.01600
H  32.21500 48.32900 25.33200
H  27.10200 51.21500 21.01400
H  25.68800 53.86200 21.06000
H  28.76400 53.58300 21.43200
H  27.71200 53.79000 19.98000
H  28.92400 52.64700 19.91500
H  23.67300 52.07200 20.84500
H  25.14900 51.14500 20.12900
H  23.66500 53.00700 18.62500
H  24.89300 51.79300 18.25400
H  25.43800 53.34000 18.75000
H  21.03500 53.34900 23.45300
H  21.30300 54.98700 24.13300
H  20.18100 53.81900 24.88200
H  22.19300 52.29800 29.50300
H  22.50700 54.20200 32.76200
H  20.89900 54.92200 32.54900
H  22.21600 55.89000 31.96200

