158

Mg 46.44300 4.78900 47.60100
C  44.89200 7.87600 46.53600
C  43.58800 3.20900 46.68900
C  48.31200 1.99600 47.64600
C  49.35100 6.75700 48.41400
N  44.53500 5.43700 46.64400
C  44.11900 6.78300 46.29900
C  42.71000 6.70700 45.70800
C  42.28700 5.20600 45.88500
C  43.53300 4.56300 46.50700
C  40.98800 4.95600 46.68800
C  42.58700 7.26100 44.26500
C  41.41500 8.27900 44.12000
H  40.28700 8.04100 43.14800
N  46.03900 2.88400 47.23600
C  44.74000 2.42100 46.98300
C  44.87000 0.98600 46.86800
C  46.19100 0.52600 47.11200
C  46.92900 1.78800 47.35000
C  43.72900 -0.00800 46.41100
C  46.77000 -0.86700 47.11400
O  46.05200 -1.79600 46.90000
C  48.18100 -1.22000 47.29500
N  48.55900 4.44200 47.93300
C  49.08300 3.19900 47.74400
C  50.62300 3.23000 47.96700
C  50.93400 4.74000 48.37000
C  49.54100 5.36400 48.27700
C  51.15500 2.17900 49.01600
C  52.12800 5.29900 47.55900
C  51.82100 5.96300 46.22300
N  46.99300 6.89700 47.68500
C  48.22900 7.48700 48.02700
C  48.06400 8.93900 48.10400
C  46.76300 9.12100 47.50000
C  46.21200 7.86800 47.21100
C  49.11300 9.94100 48.54300
C  45.74000 10.08400 47.07900
O  45.75600 11.34200 47.19900
C  44.45500 9.27600 46.46400
C  43.29000 9.62400 47.21400
O  42.97100 9.11200 48.27600
O  42.64900 10.59300 46.42100
C  41.37900 11.10700 46.99900
H  42.68500 2.65300 46.42700
H  48.91600 1.09600 47.77300
H  50.24500 7.25500 48.79800
H  42.21100 7.35400 46.42900
H  42.17900 4.76900 44.89200
H  40.48200 4.29500 45.98500
H  40.48600 5.89300 46.93000
H  41.18800 4.44400 47.62900
H  42.26300 6.44900 43.61500
H  43.43500 7.77600 43.81200
H  41.80800 9.26100 43.85500
H  40.84700 8.36300 45.04600
H  42.82500 0.57900 46.24700
H  43.56500 -0.74300 47.19900
H  44.08800 -0.61900 45.58300
H  48.22200 -2.30900 47.31000
H  48.36200 -0.88300 48.31600
H  48.73500 -0.78800 46.46100
H  50.90900 2.93900 46.95700
H  51.16100 4.71800 49.43600
H  51.45900 1.25500 48.52400
H  50.30700 2.01400 49.68100
H  51.99200 2.42500 49.67000
H  52.72200 4.44200 47.23900
H  52.76700 5.81800 48.27400
H  52.25000 6.96100 46.30700
H  50.76400 6.13100 46.01700
H  52.23200 5.45100 45.35200
H  48.61000 10.88200 48.76400
H  49.85400 10.20400 47.78800
H  49.51700 9.59800 49.49500
H  44.44800 9.56800 45.41400
H  41.51300 11.14600 48.08000
H  40.47000 10.54600 46.78300
H  41.29300 12.09400 46.54500
Mg 49.04800 34.89200 27.22700
C  47.37700 33.24300 29.65600
C  49.26700 37.61800 29.17500
C  50.61300 36.38800 24.72800
C  48.32000 32.19500 25.01000
N  48.39600 35.34900 29.19300
C  47.88700 34.50300 30.12500
C  48.07300 34.94500 31.57300
C  48.19200 36.49600 31.31700
C  48.57800 36.51000 29.80600
C  46.88600 37.28400 31.61200
C  49.32300 34.32200 32.26300
C  49.16000 33.77500 33.74700
H  49.39200 34.89100 34.85000
N  49.86600 36.71500 27.04400
C  49.81100 37.71600 27.92700
C  50.45100 38.90700 27.34000
C  50.97100 38.53000 26.10500
C  50.43800 37.18100 25.84900
C  50.36900 40.27500 27.94900
C  51.86200 39.32300 25.18000
O  52.28200 38.85500 24.14000
C  52.39400 40.67700 25.61600
N  49.44300 34.29800 25.18300
C  50.15300 35.10500 24.39400
C  50.21300 34.61000 22.92900
C  49.82700 33.15600 23.03400
C  49.17900 33.18800 24.47000
C  49.37100 35.42400 21.93100
C  50.97700 32.04600 23.08800
C  51.21900 31.33000 21.72500
N  48.00100 33.06300 27.24000
C  47.75100 32.03800 26.30800
C  47.04800 30.95300 26.90200
C  46.80300 31.39800 28.23200
C  47.45000 32.67200 28.37000
C  46.60800 29.72900 26.23600
C  46.05300 31.17000 29.45400
O  45.35700 30.21300 29.70300
C  46.54600 32.22200 30.41500
C  47.23500 31.48900 31.58500
O  48.41300 31.22400 31.71500
O  46.36300 31.17500 32.52600
C  46.80300 30.36600 33.69100
H  49.52700 38.47200 29.80500
H  51.17800 36.75500 23.86800
H  48.21200 31.38500 24.28600
H  47.21500 34.67700 32.18900
H  48.99800 36.98800 31.86000
H  47.11000 37.79200 32.55000
H  46.07900 36.60500 31.88600
H  46.61500 37.94600 30.78900
H  50.15800 35.01800 32.34600
H  49.87000 33.57900 31.68200
H  49.82000 32.95100 34.01800
H  48.11800 33.45700 33.78600
H  51.36800 40.46600 28.34100
H  49.71900 40.42900 28.81000
H  50.22300 40.96800 27.12000
H  53.30700 40.92400 25.07400
H  52.67100 40.47300 26.65000
H  51.51900 41.30500 25.44500
H  51.24400 34.61800 22.57700
H  49.04100 32.91900 22.31600
H  48.53400 34.84700 21.53800
H  49.86700 35.69500 20.99800
H  49.09800 36.38700 22.36200
H  50.92700 31.30100 23.88200
H  51.86400 32.63900 23.31100
H  50.40500 31.49400 21.02000
H  51.30400 30.25500 21.88200
H  52.18600 31.68700 21.37000
H  46.84600 29.80100 25.17500
H  45.55700 29.44400 26.28300
H  47.24000 28.89300 26.53500
H  45.69100 32.69700 30.89600
H  46.85900 29.34800 33.30500
H  46.12200 30.55300 34.52200
H  47.79500 30.67600 34.01800

