158

Mg 25.45500 0.97300 29.79300
C  27.67300 0.48300 32.43600
C  23.01400 1.70100 32.05600
C  23.09800 1.14000 27.23000
C  27.74100 -0.21700 27.58700
N  25.45800 1.14300 31.95700
C  26.45200 0.83900 32.82600
C  26.01500 1.08100 34.25800
C  24.50100 1.12800 34.16300
C  24.31200 1.41400 32.60500
C  23.58000 -0.02100 34.63600
C  26.75500 2.27000 34.93400
C  26.85700 2.23400 36.45300
H  26.31000 3.32500 37.34000
N  23.36000 1.36900 29.65700
C  22.52600 1.64200 30.69600
C  21.24700 1.91500 30.24500
C  21.21700 1.67100 28.86200
C  22.59300 1.37200 28.53800
C  19.97400 2.14400 31.11000
C  20.11100 1.60900 27.96100
O  20.20600 1.22300 26.80800
C  18.69200 2.14700 28.34300
N  25.51400 0.84000 27.67900
C  24.40100 0.89000 26.83000
C  24.76000 0.34300 25.38700
C  26.33500 0.13400 25.48200
C  26.51600 0.23500 27.00900
C  23.91700 -0.87100 24.80700
C  27.32400 1.05800 24.74000
C  27.51200 2.46000 25.29000
N  27.41800 0.47100 29.93500
C  28.19500 -0.07400 28.92300
C  29.53400 -0.36200 29.46800
C  29.36700 -0.17800 30.84700
C  28.02900 0.29500 31.06800
C  30.69000 -0.90000 28.72100
C  30.01100 -0.23900 32.10900
O  31.11600 -0.66000 32.28500
C  29.01500 0.27000 33.18900
C  28.89800 -0.72100 34.28800
O  28.55300 -1.89600 34.14200
O  29.26100 -0.14700 35.46000
C  29.40900 -1.05800 36.61300
H  22.21100 1.94200 32.75600
H  22.44000 1.13100 26.35800
H  28.50200 -0.57300 26.88900
H  26.23500 0.16200 34.80200
H  24.23800 2.02600 34.72100
H  22.65200 -0.14500 34.07700
H  23.44100 0.14000 35.70500
H  24.21000 -0.91000 34.66000
H  26.22200 3.17500 34.64300
H  27.79800 2.33500 34.62200
H  27.91600 2.29600 36.70200
H  26.51500 1.27400 36.84100
H  20.17700 2.15300 32.18100
H  19.25200 1.34300 30.95400
H  19.50300 3.10900 30.92100
H  18.28300 1.40300 29.02600
H  18.04500 2.18700 27.46700
H  18.82700 3.13800 28.77500
H  24.61700 1.26500 24.82300
H  26.59900 -0.85200 25.09900
H  23.51900 -0.45900 23.88000
H  23.12000 -1.25700 25.44300
H  24.50800 -1.75000 24.55100
H  26.96500 1.14700 23.71400
H  28.33000 0.73600 24.47200
H  28.52600 2.56200 25.67500
H  26.90400 2.74800 26.14700
H  27.58000 3.28300 24.57800
H  31.49300 -1.03200 29.44700
H  30.96800 -0.37100 27.81000
H  30.35800 -1.86300 28.33500
H  29.40800 1.19600 33.60800
H  29.19400 -2.11500 36.46000
H  28.79500 -0.63000 37.40600
H  30.40800 -0.87200 37.00800
Mg 36.25300 49.24200 24.25700
C  36.77600 47.65400 27.33700
C  35.02300 51.95400 25.74700
C  35.60700 50.61100 21.31100
C  37.48900 46.23600 22.62300
N  36.01700 49.70300 26.30700
C  36.28100 48.94900 27.42500
C  36.00500 49.69200 28.74500
C  35.42400 51.11800 28.20600
C  35.45900 50.89800 26.65500
C  33.97700 51.48300 28.73000
C  37.27000 49.83500 29.72100
C  37.04500 49.67700 31.20800
H  35.55300 49.64200 31.70000
N  35.40800 51.04600 23.61700
C  35.02000 52.07000 24.41300
C  34.64900 53.23100 23.60200
C  34.77200 52.81700 22.27100
C  35.28500 51.49400 22.34300
C  34.10100 54.61700 24.18700
C  34.45400 53.52100 20.96300
O  34.85900 53.11500 19.93900
C  33.73100 54.84300 21.02100
N  36.35300 48.44500 22.24000
C  36.05600 49.25100 21.21300
C  36.47400 48.65300 19.87300
C  37.16600 47.27100 20.28500
C  36.95400 47.28100 21.81600
C  35.31800 48.45200 18.89500
C  38.63500 47.05300 19.83300
C  39.69400 47.91800 20.52200
N  36.96400 47.34600 24.79000
C  37.43800 46.25200 24.01900
C  37.97800 45.25600 24.92000
C  37.72200 45.83100 26.20600
C  37.15600 47.06400 26.07200
C  38.60900 43.98200 24.71500
C  37.95800 45.56700 27.67600
O  38.63400 44.71800 28.24900
C  37.30100 46.71700 28.44000
C  36.28000 46.08000 29.29700
O  35.11500 45.76200 29.00000
O  36.80300 45.86900 30.57700
C  35.80100 45.27000 31.51800
H  34.55300 52.78100 26.28300
H  35.53300 51.12900 20.35200
H  38.04000 45.44200 22.11400
H  35.16600 49.20900 29.24600
H  36.00900 52.02200 28.37600
H  34.16000 52.43900 29.22200
H  33.60800 50.76500 29.46200
H  33.23000 51.66700 27.95700
H  37.71100 50.79800 29.46400
H  38.06200 49.12300 29.49100
H  37.65700 50.46400 31.64800
H  37.52900 48.75700 31.53600
H  34.41500 54.59800 25.23100
H  33.02100 54.76000 24.16000
H  34.52800 55.48600 23.68600
H  34.44200 55.61900 21.30500
H  32.97400 54.66200 21.78400
H  33.20100 55.04100 20.08900
H  37.16500 49.34500 19.39100
H  36.59800 46.46200 19.82500
H  34.35900 48.60700 19.38900
H  35.38500 47.46400 18.43900
H  35.36800 49.23200 18.13500
H  38.70500 47.18400 18.75300
H  38.83700 45.98200 19.86000
H  39.43200 48.37100 21.47900
H  40.14700 48.56400 19.77000
H  40.54700 47.27000 20.72600
H  38.20900 43.64600 23.75800
H  38.34200 43.16500 25.38600
H  39.68900 43.98700 24.86200
H  38.00900 47.18800 29.12200
H  35.86400 44.18700 31.41000
H  34.81000 45.70800 31.63900
H  36.31300 45.60100 32.42200

