158

Mg 3.02200 -1.15400 43.58200
C  6.43500 -0.43500 43.30000
C  2.34900 1.83400 42.06800
C  -0.04600 -2.30300 43.09900
C  3.98100 -4.32000 44.93900
N  4.29800 0.45600 42.67200
C  5.65200 0.58200 42.72300
C  6.16400 1.85500 42.14900
C  4.79000 2.61000 41.89300
C  3.71600 1.57600 42.22600
C  4.59300 4.01900 42.60100
C  7.06300 1.71600 40.84800
C  6.56700 0.93000 39.69400
H  6.33700 1.67900 38.41500
N  1.35400 -0.33200 42.81600
C  1.33000 0.91500 42.26000
C  -0.12300 1.17800 41.91200
C  -0.81800 -0.02900 42.12600
C  0.15900 -0.94400 42.70900
C  -0.51400 2.59700 41.45200
C  -2.35200 -0.20200 41.93500
O  -2.95500 0.83200 41.63900
C  -3.12900 -1.47400 42.28600
N  2.15000 -3.04300 43.94500
C  0.81600 -3.26800 43.75100
C  0.37000 -4.63000 44.31200
C  1.68700 -5.16300 44.97700
C  2.67000 -4.13800 44.52600
C  -0.94400 -4.56700 45.16700
C  2.17100 -6.61700 44.59100
C  2.58000 -7.54900 45.71600
N  4.80500 -2.22700 44.11600
C  5.04500 -3.44900 44.66000
C  6.42600 -3.62500 44.90400
C  7.02100 -2.41800 44.41100
C  5.98600 -1.60800 43.94600
C  7.02800 -4.75800 45.63400
C  8.30500 -1.75300 44.30500
O  9.40000 -2.20200 44.64500
C  7.94600 -0.33400 43.63700
C  8.26700 0.69600 44.58800
O  7.96500 0.78800 45.73700
O  9.14000 1.64200 43.98100
C  9.62400 2.76600 44.75800
H  2.09200 2.76900 41.56500
H  -1.03700 -2.70900 42.88400
H  4.28900 -5.23100 45.45600
H  6.70200 2.35500 42.95500
H  4.73300 2.91500 40.84900
H  3.67500 4.07100 43.18600
H  4.55700 4.87400 41.92600
H  5.40900 4.23800 43.28900
H  8.06900 1.38200 41.10200
H  7.15400 2.76200 40.55800
H  5.62600 0.43200 39.92500
H  7.30300 0.12700 39.68200
H  0.13500 2.96400 40.65600
H  -0.42500 3.28500 42.29200
H  -1.53200 2.55900 41.06300
H  -2.83400 -2.26000 41.59200
H  -4.18400 -1.20500 42.33900
H  -2.76500 -1.70900 43.28600
H  0.09100 -5.20400 43.42900
H  1.69700 -4.89800 46.03400
H  -0.93300 -5.21300 46.04500
H  -1.81100 -4.79700 44.54800
H  -1.07700 -3.52900 45.47400
H  3.03800 -6.51500 43.93800
H  1.41300 -7.10900 43.98200
H  3.54700 -7.97400 45.45000
H  1.87700 -8.38200 45.72900
H  2.55300 -6.99300 46.65300
H  7.39500 -5.52800 44.95500
H  6.33500 -5.18100 46.36200
H  7.92500 -4.44800 46.17000
H  8.44800 -0.20600 42.67800
H  10.54000 2.47600 45.27200
H  8.93100 3.05000 45.55000
H  9.69000 3.67400 44.15800
Mg -9.89700 39.60500 42.50900
C  -8.68700 36.52000 41.61400
C  -7.23200 41.11800 41.02300
C  -11.61100 42.60200 42.85000
C  -13.03800 37.91600 43.14700
N  -8.25100 38.86700 41.19600
C  -7.88100 37.56800 41.12300
C  -6.60200 37.39400 40.34000
C  -6.07900 38.87400 40.46300
C  -7.23800 39.71100 40.93900
C  -4.85000 38.99100 41.41800
C  -6.87400 36.85800 38.91400
C  -6.10500 35.50700 38.55500
H  -5.06400 35.59300 37.36800
N  -9.42000 41.63100 42.17400
C  -8.23100 42.01800 41.61000
C  -8.19700 43.43700 41.65400
C  -9.38700 43.91400 42.25100
C  -10.17200 42.68900 42.47800
C  -6.99900 44.24900 41.09700
C  -9.74700 45.42100 42.49500
O  -9.05800 46.37200 42.13900
C  -10.98300 45.76700 43.35100
N  -12.00200 40.18600 42.85900
C  -12.44000 41.48200 42.93900
C  -13.91500 41.56800 43.04700
C  -14.40400 40.07500 43.20300
C  -13.05800 39.35300 43.04100
C  -14.29100 42.44100 44.30300
C  -15.52100 39.51300 42.31400
C  -16.68900 38.94100 43.14100
N  -10.71800 37.65000 42.48300
C  -11.94600 37.11400 42.83800
C  -11.90700 35.70600 42.84100
C  -10.58300 35.38500 42.39000
C  -9.94900 36.59000 42.19000
C  -13.10300 34.77600 43.21000
C  -9.60000 34.33700 42.15700
O  -9.75500 33.09800 42.22300
C  -8.30400 34.98400 41.66600
C  -7.18600 34.69300 42.63000
O  -7.05000 35.23100 43.72100
O  -6.21900 33.82200 42.03600
C  -5.10000 33.63100 42.92800
H  -6.35500 41.66400 40.66900
H  -12.02800 43.60900 42.91300
H  -14.00500 37.42300 43.25900
H  -6.00200 36.68600 40.91300
H  -5.85900 39.22900 39.45700
H  -4.49000 37.96300 41.44000
H  -5.02900 39.44600 42.39300
H  -4.14200 39.57200 40.82700
H  -6.76300 37.54700 38.07700
H  -7.94000 36.65000 38.81400
H  -6.84100 34.74000 38.31500
H  -5.65000 34.96500 39.38400
H  -7.25800 45.27200 40.82200
H  -6.66500 43.82600 40.15000
H  -6.15300 44.37100 41.77400
H  -10.86200 46.76700 43.76700
H  -11.12700 45.01100 44.12300
H  -11.77500 45.68200 42.60700
H  -14.32400 41.98200 42.12600
H  -14.71500 39.91400 44.23500
H  -15.16000 42.03200 44.81900
H  -14.59400 43.45100 44.03000
H  -13.45500 42.40000 45.00200
H  -15.09800 38.63000 41.83600
H  -15.73900 40.31400 41.60700
H  -17.56200 39.11000 42.51100
H  -16.76200 39.40300 44.12600
H  -16.66800 37.85500 43.05300
H  -12.93600 34.31200 44.18200
H  -13.28100 33.93600 42.53900
H  -14.00000 35.39600 43.22500
H  -8.03200 34.65500 40.66400
H  -5.33800 33.02100 43.79900
H  -4.70100 34.58700 43.26900
H  -4.27000 33.17900 42.38400

