158

Mg 30.07100 58.97800 38.64400
C  27.28200 56.92100 38.07200
C  32.03100 56.26200 37.76100
C  32.69200 61.01300 38.30000
C  27.93900 61.69600 38.81900
N  29.64900 56.74600 38.23600
C  28.45200 56.20800 37.87600
C  28.67500 54.88400 37.24700
C  30.18500 54.52800 37.60000
C  30.67300 55.91400 37.90500
C  30.42500 53.52500 38.83700
C  28.36800 54.82900 35.65100
C  27.16000 53.93600 35.19400
H  26.14400 54.55700 34.27600
N  32.13400 58.68900 38.28100
C  32.71600 57.46200 37.95700
C  34.11700 57.56400 37.96600
C  34.42600 58.97100 38.10600
C  33.11700 59.66000 38.26600
C  35.09400 56.43700 37.79800
C  35.84600 59.57500 38.20000
O  36.91500 58.95500 38.20100
C  35.89000 61.10400 38.28200
N  30.28600 61.04800 38.53600
C  31.50900 61.63800 38.55400
C  31.37700 63.23900 38.78500
C  29.80600 63.37400 38.79300
C  29.26100 61.96000 38.58500
C  32.17500 63.77700 40.01900
C  29.10700 64.42600 37.89000
C  28.38500 65.54800 38.61400
N  28.08000 59.30700 38.55300
C  27.34000 60.40100 38.79900
C  25.92800 60.06000 38.78600
C  25.87000 58.72000 38.51200
C  27.19800 58.27300 38.38900
C  24.76100 60.95300 38.87600
C  24.96800 57.62400 38.29900
O  23.74300 57.48600 38.37300
C  25.84100 56.43100 37.93800
C  25.63500 55.25000 38.78900
O  26.20100 55.01200 39.81300
O  24.63900 54.54300 38.25800
C  24.47400 53.27200 39.00000
H  32.71100 55.45300 37.48200
H  33.56700 61.65900 38.19900
H  27.27300 62.54900 38.96800
H  28.05800 54.21000 37.84200
H  30.69400 54.12300 36.72500
H  29.48600 53.06600 39.14600
H  30.84100 54.08600 39.67500
H  31.17100 52.78000 38.56000
H  29.24600 54.56800 35.06000
H  28.10500 55.84000 35.33900
H  26.64000 53.55800 36.07400
H  27.51600 53.06400 34.64500
H  34.75600 55.46100 38.14500
H  36.04800 56.67800 38.26800
H  35.34100 56.39400 36.73700
H  36.93300 61.42000 38.25700
H  35.40800 61.38500 39.21900
H  35.46100 61.54700 37.38300
H  31.65900 63.80700 37.89800
H  29.59400 63.68300 39.81600
H  32.58700 62.93000 40.56700
H  31.57300 64.44500 40.63400
H  33.05100 64.27700 39.60800
H  28.43400 63.85500 37.25100
H  29.90000 64.88300 37.29700
H  27.33000 65.65400 38.36200
H  28.85200 66.49800 38.35500
H  28.49400 65.41900 39.69100
H  25.01900 61.99000 38.65900
H  24.30900 60.91300 39.86700
H  24.04200 60.74000 38.08500
H  25.60200 56.04900 36.94600
H  24.26200 53.51400 40.04100
H  25.41300 52.71900 39.01700
H  23.64700 52.63100 38.69500
Mg -10.64500 17.03500 42.36100
C  -7.26000 16.03300 42.15600
C  -9.51100 20.19100 41.53000
C  -13.76900 17.80000 41.80600
C  -11.44000 13.58700 42.53300
N  -8.52400 17.98300 41.69600
C  -7.37100 17.35000 41.80000
C  -6.19300 18.34600 41.50400
C  -6.96700 19.71500 41.61900
C  -8.44000 19.30900 41.69500
C  -6.46600 20.57700 42.70900
C  -5.43400 18.17500 40.12900
C  -6.35000 17.64400 39.01100
H  -5.70600 17.76500 37.65900
N  -11.56500 18.83500 41.94200
C  -10.97200 19.97300 41.59100
C  -11.92300 20.96500 41.34300
C  -13.19500 20.31700 41.42200
C  -12.92200 18.87600 41.74200
C  -11.59100 22.40100 40.94100
C  -14.51900 21.04600 41.26500
O  -14.58700 22.21400 41.01500
C  -15.85400 20.29200 41.45800
N  -12.36400 15.83100 42.25100
C  -13.57200 16.46300 42.06700
C  -14.65500 15.49800 42.16700
C  -13.97200 14.11600 42.30300
C  -12.49500 14.49400 42.34000
C  -15.73200 15.82100 43.24000
C  -14.22100 13.16200 41.10900
C  -14.36600 11.68400 41.53000
N  -9.61100 15.21300 42.41600
C  -10.01700 13.90200 42.55400
C  -8.88900 12.97000 42.56900
C  -7.82700 13.84900 42.54300
C  -8.26600 15.16900 42.38400
C  -8.93900 11.49600 42.61000
C  -6.39200 13.77200 42.46300
O  -5.63300 12.80100 42.48800
C  -5.94200 15.22600 42.27100
C  -5.12100 15.69900 43.43800
O  -3.91800 15.89200 43.32000
O  -5.84500 15.92700 44.59900
C  -5.14800 16.59400 45.81900
H  -9.14300 21.18100 41.25100
H  -14.74800 18.18200 41.50700
H  -11.74500 12.54600 42.65500
H  -5.47900 18.26700 42.32300
H  -6.69400 20.29700 40.73900
H  -6.00900 19.95600 43.48000
H  -7.40800 20.95800 43.10200
H  -5.85800 21.42200 42.38700
H  -4.60600 17.49100 40.31200
H  -5.06200 19.12900 39.75600
H  -7.24600 18.26300 39.07300
H  -6.45800 16.58100 39.22800
H  -11.44600 22.47600 39.86300
H  -10.66600 22.69200 41.43900
H  -12.39700 23.06400 41.25300
H  -16.07300 19.62500 40.62400
H  -16.62700 21.05000 41.32800
H  -15.92700 19.83700 42.44600
H  -15.29000 15.48900 41.28100
H  -14.19700 13.63400 43.25400
H  -16.76800 15.76500 42.90700
H  -15.57300 16.88100 43.44200
H  -15.62500 15.19200 44.12400
H  -13.40700 13.14700 40.38300
H  -15.00100 13.56900 40.46500
H  -14.84100 11.49100 42.49200
H  -13.43400 11.12400 41.47000
H  -15.10500 11.19000 40.89900
H  -8.19400 11.09900 41.92000
H  -9.85200 10.96500 42.34300
H  -8.60600 11.15100 43.58900
H  -5.31300 15.34100 41.38800
H  -5.17900 17.68000 45.91200
H  -4.06900 16.48000 45.72200
H  -5.55700 16.19200 46.74600

