158

Mg 8.08800 2.53800 27.04500
C  9.33400 1.03400 29.94900
C  6.41800 4.80300 28.95200
C  7.05900 4.12800 24.22500
C  9.76600 0.13300 25.10200
N  7.79500 2.76400 29.24500
C  8.57100 2.23900 30.19100
C  8.32500 2.85700 31.56300
C  7.21600 3.93700 31.23900
C  7.14900 3.83300 29.70900
C  5.94100 3.87400 32.06700
C  9.71500 3.23200 32.24900
C  10.14300 2.53500 33.62000
H  10.84800 3.41200 34.69100
N  6.87200 4.19500 26.65400
C  6.19800 4.92700 27.53400
C  5.39200 5.95500 26.89100
C  5.62400 5.81600 25.49900
C  6.52600 4.65600 25.38200
C  4.46200 6.93700 27.61700
C  4.99800 6.65900 24.32900
O  5.18500 6.45000 23.13700
C  4.18200 7.96200 24.64400
N  8.22900 2.10300 24.93500
C  7.75700 2.95400 23.97600
C  8.18600 2.40000 22.58400
C  9.04800 1.15300 22.85100
C  9.05100 1.11000 24.36700
C  7.18500 2.26900 21.41300
C  10.49400 1.21000 22.19800
C  11.00700 -0.10500 21.55500
N  9.10500 0.82600 27.39400
C  9.80600 -0.05900 26.53900
C  10.60500 -0.98500 27.29300
C  10.43200 -0.60000 28.64600
C  9.52400 0.49000 28.66300
C  11.36600 -2.21800 26.77000
C  10.77800 -0.92400 30.03800
O  11.42500 -1.87700 30.51800
C  10.04400 0.09200 30.89200
C  9.18100 -0.61100 31.86800
O  8.11500 -1.06400 31.65800
O  9.91000 -0.79100 33.08000
C  9.23600 -1.43700 34.21300
H  5.93200 5.52700 29.61000
H  6.78400 4.75200 23.37300
H  10.33900 -0.61800 24.55400
H  7.76100 2.14100 32.16100
H  7.65900 4.91700 31.42000
H  6.11200 3.25100 32.94500
H  5.23900 3.30200 31.46200
H  5.60300 4.89500 32.24600
H  9.78200 4.31800 32.30600
H  10.52400 2.94400 31.57700
H  10.89100 1.74700 33.53100
H  9.25700 2.05400 34.03600
H  4.71400 7.92800 27.24000
H  4.63400 7.01800 28.69000
H  3.38500 6.86500 27.46100
H  3.82800 8.48300 23.75500
H  4.95700 8.53900 25.14900
H  3.35100 7.83000 25.33800
H  8.88500 3.13500 22.18500
H  8.51100 0.29300 22.45000
H  6.19700 1.98700 21.77700
H  7.56000 1.44100 20.81000
H  7.17700 3.14600 20.76600
H  11.27100 1.62400 22.84200
H  10.35400 1.80700 21.29700
H  10.38400 -0.96000 21.81900
H  12.03000 -0.29600 21.88000
H  10.99200 0.06800 20.47900
H  11.55200 -3.00700 27.49800
H  12.37100 -1.92800 26.46300
H  10.76700 -2.63700 25.96100
H  10.86200 0.54900 31.44800
H  8.74600 -0.69100 34.83900
H  9.96000 -1.90400 34.88100
H  8.53200 -2.17600 33.83000
Mg 54.05900 25.06600 45.78200
C  51.44100 27.02300 44.56800
C  52.37000 22.23200 44.42000
C  56.87300 23.20500 45.76900
C  55.84300 27.96400 46.26000
N  52.15800 24.72200 44.66500
C  51.22800 25.65100 44.28100
C  50.10200 24.95900 43.50400
C  50.24200 23.47600 43.92500
C  51.70600 23.44300 44.31700
C  49.32000 23.03400 45.04900
C  50.25600 25.11200 41.93300
C  49.07000 25.23700 40.96900
H  49.20700 25.89900 39.62000
N  54.51900 22.91500 45.38100
C  53.69800 21.94800 44.73900
C  54.29500 20.66000 44.84800
C  55.65000 20.90300 45.21500
C  55.76700 22.36500 45.43700
C  53.53100 19.33400 44.52200
C  56.69000 19.84500 45.31600
O  56.43200 18.67900 45.02600
C  58.15800 20.11300 45.74000
N  56.12900 25.49700 45.85600
C  57.07600 24.57000 45.94100
C  58.41800 25.16200 46.38700
C  58.11500 26.71000 46.56700
C  56.61100 26.76600 46.26000
C  58.98500 24.38000 47.63700
C  59.07400 27.53300 45.70100
C  58.89200 27.47200 44.13900
N  53.66300 27.08900 45.72900
C  54.49800 28.17500 46.01000
C  53.69200 29.42600 46.00000
C  52.47400 29.03300 45.41200
C  52.55600 27.63000 45.21400
C  54.06900 30.81200 46.43600
C  51.14300 29.42900 44.88500
O  50.62300 30.52700 44.86800
C  50.47300 28.13300 44.28200
C  50.34500 28.42700 42.88500
O  51.31300 28.63300 42.16800
O  49.09800 28.82000 42.61600
C  48.79500 29.15300 41.14000
H  51.89900 21.36000 43.96100
H  57.83100 22.77300 46.06500
H  56.39100 28.89400 46.42600
H  49.12400 25.33100 43.81000
H  50.06800 22.77800 43.10600
H  48.53300 23.77500 45.18200
H  49.84900 23.08400 46.00100
H  49.04200 21.99800 44.85400
H  50.96600 24.33200 41.66000
H  50.90700 25.97500 41.79300
H  48.33400 25.89300 41.43400
H  48.63500 24.25200 40.80200
H  53.55300 19.04600 43.47100
H  52.50300 19.52100 44.83000
H  53.89400 18.56900 45.20900
H  58.70400 19.17500 45.84800
H  58.16000 20.70800 46.65300
H  58.48900 20.67000 44.86400
H  59.08400 24.98000 45.54300
H  58.32200 27.03900 47.58600
H  58.35300 23.59700 48.05700
H  59.24400 25.16400 48.34900
H  59.91300 23.90100 47.32600
H  60.09100 27.21700 45.93000
H  58.91700 28.59100 45.91100
H  57.89700 27.86100 43.91900
H  59.10900 26.46700 43.77800
H  59.49600 28.25300 43.67900
H  55.01700 30.75500 46.97100
H  53.38900 31.16400 47.21200
H  53.90500 31.58300 45.68400
H  49.49700 27.88400 44.69900
H  48.41900 30.17600 41.16200
H  48.07600 28.40100 40.81500
H  49.59700 28.97800 40.42300

