158

Mg 46.16400 44.93000 43.81500
C  42.73600 44.70800 43.17500
C  46.45400 41.54300 43.14200
C  49.51700 45.29200 43.52100
C  45.89700 48.48900 43.74700
N  44.76300 43.38900 43.08700
C  43.37300 43.46800 42.94500
C  42.79600 42.11400 42.75700
C  43.97600 41.15400 43.04200
C  45.13600 42.07300 43.19400
C  43.71600 40.31200 44.33500
C  41.95500 41.88800 41.37600
C  42.31900 42.61500 40.06900
H  42.48800 41.80200 38.84700
N  47.78900 43.55200 43.40200
C  47.69100 42.19900 43.10300
C  48.94700 41.59300 42.96200
C  49.88000 42.62800 43.15200
C  49.11300 43.88800 43.38800
C  49.18400 40.12600 42.65700
C  51.33200 42.48600 42.98400
O  51.84000 41.46200 42.63000
C  52.18600 43.73800 43.16700
N  47.55200 46.60100 43.93100
C  48.85900 46.45200 43.74100
C  49.66800 47.76900 43.70300
C  48.51300 48.82500 43.80200
C  47.23100 47.94600 43.73300
C  50.83500 47.81100 44.72300
C  48.43200 50.00700 42.73000
C  48.34700 51.42800 43.29500
N  44.67300 46.29800 43.75600
C  44.70300 47.75900 43.72700
C  43.28400 48.20900 43.85000
C  42.58200 47.03100 43.63500
C  43.43400 45.92400 43.55000
C  42.84300 49.65200 43.85600
C  41.16300 46.59600 43.43300
O  40.19000 47.28000 43.30200
C  41.22500 45.03800 43.18000
C  40.42500 44.26500 44.23900
O  39.45000 43.58700 44.06300
O  41.21300 44.33700 45.36000
C  40.95900 43.27800 46.34800
H  46.55000 40.46700 42.98500
H  50.56500 45.52000 43.31300
H  45.78300 49.57400 43.78100
H  42.13400 42.16400 43.62200
H  44.23800 40.49200 42.21700
H  44.13900 39.31700 44.47000
H  42.63300 40.28800 44.45600
H  44.14500 40.85300 45.17900
H  40.87900 41.91200 41.54400
H  41.91400 40.81100 41.21400
H  43.30200 43.08300 40.11100
H  41.59700 43.40600 39.86500
H  50.19400 39.72500 42.57300
H  48.51000 39.58200 41.99600
H  49.13600 39.78600 43.69200
H  52.06900 44.17600 44.15800
H  52.02600 44.37500 42.29700
H  53.20900 43.37300 43.07800
H  50.18600 47.82700 42.74600
H  48.56100 49.27300 44.79400
H  50.61600 48.69800 45.31800
H  51.72100 47.79000 44.08800
H  50.86200 46.87700 45.28600
H  47.58300 49.79600 42.08000
H  49.40500 49.89600 42.25100
H  49.18700 52.00700 42.90900
H  48.41800 51.37400 44.38100
H  47.39800 51.89800 43.03500
H  41.77500 49.69800 43.64600
H  43.39000 50.31700 43.18700
H  42.99400 49.99100 44.88100
H  40.79500 44.76400 42.21700
H  40.09700 42.63700 46.16100
H  40.81000 43.67500 47.35200
H  41.80800 42.61900 46.53000
Mg 25.33700 50.88100 26.43700
C  23.35900 51.99100 29.14400
C  27.51200 49.54500 28.64200
C  27.45900 50.24800 23.88400
C  23.11700 52.39500 24.31300
N  25.57300 51.00100 28.69800
C  24.59400 51.45100 29.57100
C  25.01100 51.15100 31.01900
C  26.40700 50.30500 30.86300
C  26.55200 50.35400 29.30700
C  27.61600 50.77100 31.71300
C  23.84800 50.50300 31.86800
C  24.37000 49.92900 33.20600
H  24.28200 50.79900 34.48300
N  27.11800 49.89500 26.28600
C  27.80700 49.32500 27.31000
C  28.86300 48.49000 26.78900
C  28.87400 48.74100 25.38700
C  27.80100 49.70400 25.11700
C  29.80400 47.70300 27.72100
C  29.64700 48.14700 24.37000
O  29.66700 48.40500 23.14000
C  30.66200 47.11600 24.78800
N  25.36300 51.43800 24.38300
C  26.28400 50.98200 23.56200
C  26.00800 51.38400 22.10900
C  24.55500 51.95100 22.24100
C  24.26500 51.87600 23.71500
C  27.04800 52.36300 21.45800
C  23.58700 51.14500 21.39000
C  23.15800 49.67700 21.81900
N  23.64300 51.97300 26.63600
C  22.78500 52.49300 25.66000
C  21.56000 52.97500 26.19700
C  21.66400 52.67700 27.58100
C  23.03100 52.21300 27.79800
C  20.39800 53.47000 25.42800
C  21.07200 52.92000 28.85100
O  19.94800 53.36300 29.08300
C  22.07300 52.39300 29.94700
C  22.27000 53.50700 30.86600
O  23.29100 54.14900 30.85100
O  21.18100 53.80300 31.64000
C  21.48600 54.76000 32.66300
H  28.14800 49.08200 29.39900
H  28.02300 49.99600 22.98400
H  22.43200 52.82400 23.58000
H  25.17000 52.18400 31.32800
H  26.17700 49.24900 31.00400
H  27.21900 51.55800 32.35400
H  28.35600 51.25500 31.07500
H  28.08100 49.93700 32.23700
H  23.32400 49.72500 31.31400
H  23.13700 51.28200 32.14600
H  25.42900 49.67000 33.22600
H  23.93400 48.93200 33.26000
H  29.64600 46.65100 27.48200
H  29.47900 47.75200 28.76000
H  30.79000 48.04600 27.40700
H  31.42300 47.59800 25.40200
H  31.03400 46.69200 23.85600
H  30.12000 46.29700 25.26200
H  26.09800 50.50100 21.47500
H  24.55500 52.93100 21.76300
H  27.87900 52.53800 22.14100
H  26.71100 53.37500 21.23400
H  27.50400 51.94100 20.56200
H  23.92400 51.13400 20.35300
H  22.65900 51.71300 21.32100
H  22.18900 49.78800 22.30700
H  23.97700 49.34600 22.45700
H  23.17600 49.06400 20.91800
H  19.47800 53.65500 25.98300
H  20.05800 52.70400 24.73100
H  20.63400 54.28300 24.74200
H  21.66000 51.51700 30.44600
H  21.77100 55.73100 32.25800
H  22.28400 54.54100 33.37300
H  20.60500 54.89000 33.29100

