158

Mg 36.33200 49.75200 24.50600
C  36.49600 48.31000 27.69100
C  35.06500 52.64100 25.94800
C  35.47300 50.93400 21.37000
C  37.07900 46.61000 23.04100
N  35.69700 50.30100 26.65600
C  36.05000 49.66400 27.81600
C  35.96300 50.55500 29.04300
C  35.41600 51.86800 28.40800
C  35.34700 51.58800 26.91000
C  34.11900 52.54700 29.02300
C  37.33300 50.59100 29.91900
C  37.29400 50.61000 31.43100
H  35.89600 50.67600 32.17900
N  35.43600 51.58600 23.71900
C  35.04200 52.58100 24.53700
C  34.60200 53.69100 23.71400
C  34.56100 53.20600 22.34600
C  35.20400 51.84500 22.47200
C  34.19800 55.00000 24.23100
C  34.04200 53.83300 21.09200
O  34.10700 53.20400 20.05300
C  33.47300 55.24500 21.06400
N  36.24100 48.88800 22.50900
C  36.06500 49.64700 21.38700
C  36.29500 48.79900 20.15000
C  36.97500 47.47400 20.70700
C  36.71100 47.61600 22.13900
C  35.06400 48.50700 19.25500
C  38.46100 47.44900 20.23800
C  38.60300 46.40400 19.10800
N  36.80700 47.85500 25.14300
C  37.13700 46.68700 24.44300
C  37.40300 45.63700 25.42900
C  37.18400 46.21800 26.64000
C  36.81700 47.56100 26.50000
C  37.80700 44.11000 25.16200
C  37.13900 45.85600 28.05600
O  37.44200 44.80900 28.59100
C  36.75800 47.22400 28.77200
C  35.45700 46.95400 29.43700
O  34.39300 46.63000 28.90200
O  35.58500 47.24900 30.72600
C  34.42100 46.97700 31.46700
H  34.88700 53.56600 26.50100
H  35.36500 51.20500 20.31800
H  37.18600 45.65700 22.51800
H  35.11400 50.14600 29.59100
H  36.24800 52.56500 28.50900
H  33.78800 52.01000 29.91200
H  33.32700 52.54200 28.27500
H  34.09200 53.61700 29.22900
H  37.91500 51.47100 29.64700
H  37.85100 49.66700 29.66300
H  37.79500 51.49200 31.83100
H  37.90400 49.80500 31.84200
H  33.11500 54.97600 24.11000
H  34.57100 55.82900 23.63000
H  34.51500 55.19200 25.25600
H  32.88300 55.35500 20.15400
H  34.02000 56.18800 21.05600
H  32.67700 55.23800 21.81000
H  36.90100 49.35400 19.43400
H  36.43600 46.56800 20.43000
H  34.15100 48.49500 19.85100
H  35.29500 47.56100 18.76500
H  34.92400 49.31400 18.53600
H  39.04200 47.14300 21.10800
H  38.72900 48.47600 19.98800
H  38.68500 46.94800 18.16700
H  37.77500 45.69800 19.05400
H  39.51500 45.81600 19.21600
H  37.34500 43.32500 25.76100
H  38.89100 44.05700 25.05700
H  37.57000 43.91200 24.11700
H  37.57800 47.54700 29.41300
H  33.85100 46.11800 31.11300
H  33.69700 47.78500 31.56900
H  34.71600 46.71400 32.48300
Mg -2.02000 34.77000 25.96400
C  -3.63900 33.06700 28.62600
C  -0.69100 36.89300 28.20000
C  -1.06100 36.50800 23.43100
C  -3.89700 32.58900 23.79400
N  -2.40500 35.00500 28.18500
C  -2.92500 34.17700 29.10500
C  -2.57600 34.61900 30.57400
C  -1.75400 35.96500 30.33500
C  -1.61600 36.00400 28.79100
C  -2.46700 37.18300 30.84900
C  -1.76200 33.51000 31.24400
C  -2.50200 32.45400 32.18400
H  -2.01700 32.31900 33.59000
N  -0.82300 36.37500 25.86100
C  -0.30500 37.13500 26.88300
C  0.69200 38.10900 26.32800
C  0.55600 38.00200 24.88500
C  -0.51100 36.95200 24.65200
C  1.57800 39.07500 27.21700
C  1.32900 38.76200 23.69600
O  1.04400 38.67300 22.51000
C  2.44000 39.74700 24.16700
N  -2.46700 34.61300 23.95500
C  -1.88700 35.51900 23.04700
C  -2.37600 35.21400 21.61100
C  -2.81000 33.70300 21.78300
C  -3.11500 33.62400 23.27200
C  -3.45300 36.17600 21.12100
C  -1.78900 32.66800 21.34200
C  -0.42100 32.45300 22.03700
N  -3.51400 33.09500 26.14700
C  -4.12600 32.33100 25.18000
C  -4.88100 31.29100 25.77500
C  -4.75400 31.47400 27.08000
C  -3.86200 32.65300 27.30400
C  -5.75800 30.28700 25.00000
C  -5.02400 31.04600 28.39600
O  -5.74100 30.07800 28.76400
C  -4.41500 31.99200 29.37700
C  -5.53400 32.64900 30.27400
O  -6.03300 33.73000 30.02300
O  -5.82700 31.92600 31.37800
C  -6.88300 32.47200 32.26100
H  -0.02600 37.41100 28.89400
H  -0.76300 37.20600 22.64500
H  -4.31800 31.85200 23.10700
H  -3.45800 34.80700 31.18700
H  -0.78900 35.85900 30.83200
H  -2.03900 37.27600 31.84700
H  -3.55100 37.06800 30.85600
H  -2.27400 38.06700 30.24200
H  -0.98700 33.99900 31.83400
H  -1.15900 32.96200 30.52000
H  -2.23900 31.49800 31.73000
H  -3.57500 32.63700 32.23700
H  2.64200 38.90700 27.04900
H  1.40700 38.91500 28.28200
H  1.39900 40.13000 27.01100
H  3.06600 39.97600 23.30500
H  3.08800 39.09300 24.75000
H  2.12500 40.58100 24.79400
H  -1.42000 35.34000 21.10200
H  -3.81100 33.56100 21.37500
H  -3.03900 36.53800 20.17900
H  -3.55200 37.05500 21.75800
H  -4.40900 35.68400 20.94300
H  -1.45400 32.97100 20.34900
H  -2.26100 31.69200 21.23300
H  0.45500 32.44800 21.38800
H  -0.59200 31.52500 22.58300
H  -0.17200 33.31500 22.65500
H  -6.46500 30.78500 24.33600
H  -6.33700 29.61600 25.63500
H  -5.00200 29.76200 24.41700
H  -3.84700 31.39400 30.09000
H  -6.28400 32.71100 33.14000
H  -7.55700 31.69600 32.62600
H  -7.51000 33.27700 31.87800

