158

Mg 49.08300 46.82800 42.81000
C  45.70000 47.03600 42.15500
C  49.10100 43.50600 42.10400
C  52.47800 46.85400 43.12800
C  49.11200 50.33300 43.29900
N  47.63100 45.55300 41.99600
C  46.25700 45.80300 41.84000
C  45.57300 44.56800 41.25200
C  46.61400 43.41800 41.42000
C  47.85500 44.24100 41.91000
C  46.29000 42.33700 42.47500
C  45.09700 44.93000 39.80400
C  43.86500 44.10500 39.19200
H  44.17700 43.04100 38.07600
N  50.62800 45.37500 42.53400
C  50.43900 44.03200 42.18900
C  51.70900 43.38600 41.97200
C  52.72900 44.31500 42.37700
C  51.98400 45.61700 42.67500
C  51.88500 41.86500 41.58000
C  54.19400 44.04300 42.47100
O  54.58300 42.87500 42.28700
C  55.33300 45.09200 42.78300
N  50.58200 48.43000 43.00300
C  51.86600 48.15100 43.30200
C  52.69900 49.47700 43.59900
C  51.61900 50.61400 43.54400
C  50.39400 49.76500 43.26700
C  53.46800 49.53600 44.95000
C  51.89400 51.75400 42.56900
C  51.81400 51.47800 41.01000
N  47.73900 48.39700 42.79200
C  47.87200 49.74500 43.08100
C  46.54800 50.38500 43.11100
C  45.67000 49.35500 42.72000
C  46.40200 48.20800 42.58200
C  46.31700 51.89600 43.39100
C  44.29200 49.05600 42.42000
O  43.35400 49.84100 42.51200
C  44.18000 47.52400 42.02900
C  43.30600 46.84600 43.04200
O  43.63000 46.56300 44.18600
O  42.04000 46.66000 42.50100
C  41.18300 45.96200 43.50600
H  49.09500 42.42200 41.97100
H  53.56700 46.87900 43.19700
H  49.03900 51.41500 43.42900
H  44.62500 44.39900 41.76400
H  46.73400 42.81700 40.51900
H  46.59800 41.30000 42.34100
H  45.21000 42.21800 42.56100
H  46.80300 42.62900 43.39100
H  45.97200 44.96500 39.15500
H  44.80900 45.98100 39.81400
H  43.15800 44.84300 38.81100
H  43.35500 43.52500 39.96100
H  50.98900 41.31800 41.87300
H  52.69300 41.42300 42.16200
H  52.20900 41.73700 40.54700
H  55.15100 45.87200 42.04400
H  56.35300 44.70900 42.77300
H  55.10200 45.50800 43.76400
H  53.50700 49.67200 42.89300
H  51.50100 51.06300 44.53000
H  53.12100 48.71800 45.58100
H  53.44100 50.47300 45.50500
H  54.52500 49.42600 44.70800
H  52.93400 52.03800 42.73200
H  51.37500 52.61400 42.99200
H  51.55000 50.43500 40.83400
H  52.75000 51.86800 40.61000
H  51.04300 52.08500 40.53500
H  45.24700 51.99200 43.57700
H  46.59000 52.40500 42.46700
H  46.81000 52.23000 44.30400
H  43.67700 47.42300 41.06700
H  41.67000 45.03400 43.80700
H  40.22900 45.66000 43.07300
H  41.02400 46.58700 44.38400
Mg 1.26800 42.71800 26.20600
C  2.69500 42.65800 29.33200
C  -1.59700 41.48700 27.63100
C  -0.00300 42.48700 23.14500
C  4.54800 43.33900 24.84800
N  0.60600 42.20500 28.24300
C  1.28900 42.54400 29.40000
C  0.45000 42.39300 30.64800
C  -0.91700 41.92700 30.07700
C  -0.64100 41.78600 28.54200
C  -1.62500 40.59100 30.63800
C  0.50300 43.69400 31.50900
C  0.75800 43.55200 33.07800
H  0.36200 42.22200 33.67000
N  -0.62100 42.06900 25.46600
C  -1.64200 41.55200 26.19000
C  -2.66600 41.14100 25.33100
C  -2.14600 41.20100 23.98800
C  -0.91500 41.98600 24.14800
C  -3.94800 40.51000 25.89200
C  -2.69500 40.68600 22.68400
O  -2.12600 40.92000 21.67100
C  -3.97000 39.88400 22.54300
N  2.20200 43.06200 24.31700
C  1.34900 42.90800 23.24700
C  2.16500 43.15300 21.97300
C  3.48900 43.72700 22.50800
C  3.50500 43.30100 23.98000
C  2.26800 41.88000 21.07500
C  3.65900 45.21300 22.28000
C  2.39800 46.08200 22.50000
N  3.18300 42.97000 26.88600
C  4.43200 43.27200 26.27200
C  5.43300 43.33300 27.27300
C  4.80400 43.04400 28.45500
C  3.43600 42.88700 28.19400
C  6.89900 43.46100 27.06600
C  5.04100 43.07300 29.84800
O  6.07300 43.18900 30.46200
C  3.65900 42.79900 30.54800
C  3.94700 41.53300 31.28400
O  4.18100 40.45500 30.74600
O  4.09000 41.83400 32.54700
C  4.44900 40.73400 33.44800
H  -2.52200 41.13700 28.09500
H  -0.28900 42.20000 22.13100
H  5.57800 43.54300 24.54700
H  0.90800 41.55200 31.16700
H  -1.67700 42.70200 30.17300
H  -1.63000 39.75200 29.94300
H  -2.62300 40.80900 31.02000
H  -0.96900 40.22400 31.42700
H  -0.39700 44.26700 31.28600
H  1.31200 44.30200 31.10300
H  0.13800 44.30000 33.57200
H  1.81700 43.66200 33.31000
H  -3.99500 39.44600 25.66000
H  -4.78200 41.11600 25.53900
H  -4.06300 40.73500 26.95200
H  -4.21000 39.38300 23.48100
H  -3.89100 39.22000 21.68100
H  -4.87300 40.48500 22.43500
H  1.64300 43.86400 21.33200
H  4.33200 43.20200 22.05900
H  1.77900 40.97300 21.43000
H  3.32000 41.64700 20.91000
H  1.77800 42.17300 20.14600
H  3.97300 45.28300 21.23900
H  4.53200 45.60200 22.80400
H  1.50800 45.55400 22.84300
H  2.02800 46.56500 21.59500
H  2.68000 46.78300 23.28500
H  7.19800 43.84700 26.09100
H  7.34700 42.51400 27.36800
H  7.20200 44.18200 27.82500
H  3.43700 43.67400 31.15800
H  4.12600 41.01300 34.45200
H  5.53400 40.69600 33.53700
H  4.14200 39.72200 33.18700

