158

Mg 47.69600 25.50200 27.72900
C  48.71600 27.79400 30.24300
C  46.61100 23.40900 30.17500
C  47.26700 23.32400 25.48800
C  49.88500 27.23400 25.43400
N  47.71600 25.70100 29.95900
C  47.97100 26.74200 30.75300
C  47.35500 26.58500 32.16300
C  46.92300 25.11400 32.04800
C  46.95000 24.71000 30.59700
C  47.43100 24.13700 33.14900
C  46.22700 27.64500 32.44600
C  46.36300 28.45300 33.80300
H  45.23200 28.14800 34.78700
N  46.94700 23.68000 27.79600
C  46.62800 22.88700 28.87100
C  45.89800 21.68900 28.37400
C  45.90300 21.74000 27.03900
C  46.70400 22.99800 26.70400
C  45.27800 20.71800 29.35500
C  45.25200 20.83800 26.06800
O  45.37400 21.01100 24.85000
C  44.59000 19.54000 26.60800
N  48.59000 25.20200 25.79600
C  47.99400 24.31800 25.04300
C  48.47500 24.32800 23.59200
C  49.09700 25.72200 23.53100
C  49.23200 26.07200 24.99800
C  49.54100 23.26800 23.35400
C  48.21400 26.74800 22.84300
C  48.45400 26.95400 21.35200
N  49.01900 27.15500 27.74800
C  49.75800 27.76500 26.74800
C  50.33700 28.98400 27.33600
C  49.98200 29.05500 28.61400
C  49.17700 27.91900 28.86000
C  51.20700 29.91400 26.56000
C  50.02700 29.86900 29.76400
O  50.55400 30.94300 29.99700
C  49.17600 29.15000 30.90500
C  49.92800 29.07800 32.20800
O  51.02800 28.69000 32.32800
O  49.20900 29.75800 33.13800
C  49.85000 29.91600 34.44100
H  46.36000 22.68900 30.95800
H  47.09700 22.62000 24.67200
H  50.41600 27.79300 24.66000
H  48.08900 26.71600 32.95800
H  45.84400 25.05900 32.19400
H  46.57700 23.55600 33.49500
H  47.80100 24.58600 34.07100
H  48.20500 23.52500 32.68500
H  45.27900 27.11900 32.55500
H  46.15300 28.34200 31.61100
H  46.34600 29.53600 33.68100
H  47.28600 28.12500 34.28100
H  44.20200 20.74500 29.18800
H  45.61700 20.81200 30.38700
H  45.64800 19.75700 28.99700
H  43.80100 19.77700 27.32200
H  45.39800 18.98300 27.08300
H  44.26400 18.92700 25.76800
H  47.60500 24.18900 22.94900
H  50.05200 25.83400 23.01800
H  50.47300 23.76100 23.07700
H  49.18600 22.47300 22.69700
H  49.70200 22.71900 24.28200
H  48.19900 27.73900 23.29500
H  47.18000 26.47700 23.05200
H  47.53500 26.86700 20.77200
H  49.16100 26.21100 20.98400
H  48.95900 27.91800 21.29200
H  50.86500 29.93700 25.52500
H  52.21200 29.49400 26.55000
H  51.37200 30.88500 27.02700
H  48.27500 29.75000 31.02900
H  49.59700 29.09900 35.11700
H  49.46200 30.87000 34.79600
H  50.92500 30.07600 34.34900
Mg -4.72400 25.28800 26.31600
C  -3.55700 26.75800 29.25600
C  -6.92100 23.44300 28.07600
C  -5.69200 23.99400 23.36800
C  -2.31500 27.23400 24.52900
N  -5.14100 25.12600 28.41900
C  -4.58700 25.80300 29.44700
C  -5.17300 25.45500 30.77900
C  -5.83800 24.08700 30.30400
C  -6.02800 24.21800 28.84300
C  -5.11800 22.81400 30.66100
C  -6.10700 26.61500 31.39100
C  -6.21700 26.66600 32.96200
H  -5.64900 25.46800 33.72300
N  -6.09000 23.84200 25.82800
C  -6.99300 23.31600 26.66500
C  -7.96500 22.60200 25.89200
C  -7.61700 22.70600 24.50500
C  -6.44200 23.61700 24.52600
C  -9.02600 21.83700 26.59800
C  -8.34200 22.12900 23.30100
O  -7.96900 22.42200 22.19900
C  -9.55000 21.22800 23.39600
N  -3.99000 25.57800 24.14600
C  -4.54900 24.74500 23.17200
C  -4.01400 25.23000 21.77200
C  -2.97400 26.32400 22.15900
C  -3.01500 26.36500 23.66900
C  -3.49600 23.99700 20.95900
C  -3.25800 27.64100 21.39200
C  -2.17100 28.27400 20.61400
N  -3.28800 26.78500 26.75000
C  -2.36900 27.41200 25.96600
C  -1.57200 28.24200 26.78300
C  -2.00500 28.03100 28.11000
C  -2.95600 27.07600 28.03500
C  -0.60600 29.23900 26.20400
C  -1.88400 28.51500 29.44500
O  -1.17300 29.39200 29.95200
C  -2.87900 27.66100 30.26800
C  -2.05200 26.81600 31.15000
O  -1.41900 25.85100 30.85400
O  -2.06900 27.36700 32.39200
C  -1.14200 26.92400 33.41500
H  -7.57700 22.74700 28.60300
H  -5.92600 23.48200 22.43200
H  -1.52500 27.91100 24.19800
H  -4.25400 25.25300 31.32700
H  -6.85100 24.09200 30.70700
H  -5.13500 22.20600 29.75700
H  -5.68900 22.30200 31.43500
H  -4.06800 23.00900 30.88300
H  -7.12400 26.37300 31.08200
H  -5.88000 27.61600 31.02400
H  -7.20600 26.90600 33.35100
H  -5.60800 27.52700 33.23900
H  -9.99500 21.80300 26.10000
H  -9.31600 22.11400 27.61200
H  -8.63800 20.81900 26.59000
H  -9.48700 20.53800 24.23800
H  -9.49700 20.66800 22.46200
H  -10.38300 21.92700 23.48000
H  -4.93000 25.70800 21.42700
H  -1.95200 26.10800 21.84700
H  -2.43100 24.08500 20.74300
H  -4.17800 23.83000 20.12500
H  -3.65000 23.03700 21.45100
H  -3.66700 28.37100 22.09100
H  -4.08200 27.51400 20.69000
H  -1.88700 27.66700 19.75400
H  -1.36600 28.63500 21.25300
H  -2.49800 29.20200 20.14500
H  0.30800 28.78600 25.81800
H  -0.41600 29.82700 27.10200
H  -1.05000 29.82400 25.39900
H  -3.59800 28.31700 30.76000
H  -1.38300 25.88600 33.64600
H  -1.39600 27.49500 34.30800
H  -0.06700 26.97800 33.24700

