158

Mg 17.11800 -1.52100 27.75000
C  16.21200 0.90900 30.15400
C  18.73200 -3.21000 30.27100
C  18.71800 -3.38200 25.39000
C  15.91000 0.56800 25.33000
N  17.38000 -1.11900 29.96400
C  16.75600 -0.20200 30.71600
C  17.09700 -0.40100 32.18700
C  18.25700 -1.43300 32.10500
C  18.11700 -2.00300 30.68000
C  19.68100 -0.91800 32.50200
C  15.85200 -0.90300 33.00900
C  15.86100 -0.63100 34.53200
H  17.03700 0.23800 35.11200
N  18.35800 -3.13100 27.81600
C  18.86700 -3.72100 28.94300
C  19.61400 -4.90700 28.57600
C  19.80000 -4.88400 27.21600
C  18.91200 -3.84000 26.71400
C  20.17700 -5.89600 29.58000
C  20.63200 -5.77500 26.34700
O  20.67100 -5.75700 25.12900
C  21.40400 -6.94200 26.97300
N  17.40800 -1.29500 25.68400
C  18.00500 -2.29500 24.87700
C  17.85600 -1.97100 23.38400
C  16.95500 -0.66300 23.32600
C  16.74200 -0.44300 24.83500
C  19.23800 -1.74200 22.74000
C  15.55700 -0.78500 22.60100
C  15.42100 0.29400 21.56600
N  16.17000 0.35600 27.68000
C  15.53200 0.96200 26.65400
C  14.76100 2.09400 27.02100
C  15.14500 2.16600 28.40800
C  15.96500 1.08500 28.75300
C  13.94500 3.01200 26.16000
C  14.90500 2.92000 29.63200
O  14.24000 3.96100 29.80700
C  15.56500 2.09700 30.81500
C  16.52300 2.91900 31.65700
O  17.59100 3.31600 31.23200
O  15.98500 3.24400 32.90800
C  16.62700 4.32600 33.69900
H  19.26200 -3.69200 31.09500
H  19.05600 -3.94000 24.51400
H  15.42200 1.18200 24.57100
H  17.54700 0.50100 32.60100
H  17.93100 -2.20700 32.80000
H  20.06600 -1.35800 33.42200
H  19.69100 0.16200 32.64700
H  20.36000 -1.20000 31.69600
H  15.66100 -1.94900 32.76900
H  15.01100 -0.33900 32.60500
H  15.98600 -1.59700 35.02000
H  14.93400 -0.15600 34.85600
H  19.89000 -5.60900 30.59200
H  21.25300 -6.00800 29.45300
H  19.67100 -6.85300 29.45300
H  22.12300 -6.49600 27.66000
H  22.15700 -7.38900 26.32400
H  20.77900 -7.69100 27.46200
H  17.47200 -2.87300 22.90800
H  17.68400 0.08400 23.01100
H  19.68300 -0.76100 22.90600
H  19.05800 -1.87100 21.67200
H  20.00100 -2.48200 22.98400
H  14.69700 -0.70300 23.26600
H  15.42600 -1.78900 22.19500
H  14.63900 0.99600 21.85400
H  15.16500 -0.25400 20.65900
H  16.25500 0.93400 21.27600
H  12.90200 2.69700 26.13400
H  14.24100 2.93400 25.11400
H  14.12900 4.06000 26.39800
H  14.74600 1.75200 31.44700
H  17.64900 3.99900 33.89100
H  16.34200 4.40100 34.74900
H  16.61700 5.31300 33.23600
Mg 6.67800 53.74900 41.14600
C  6.58200 50.12300 41.37000
C  10.18000 53.36100 40.59000
C  6.83200 57.03100 40.38800
C  3.38600 53.82700 41.59000
N  8.19900 51.98900 40.90200
C  7.92100 50.64700 41.15700
C  9.22400 49.82100 40.82100
C  10.33800 50.86200 41.09900
C  9.54500 52.21700 40.85100
C  11.09400 50.88700 42.52300
C  9.34900 49.21200 39.41100
C  8.85500 50.09500 38.25900
H  7.54000 49.78600 37.58200
N  8.28900 55.03900 40.50000
C  9.65100 54.68600 40.48800
C  10.36300 55.84900 40.25000
C  9.45400 56.94000 39.91100
C  8.14200 56.38000 40.22600
C  11.94600 55.84200 40.03500
C  9.83000 58.40000 39.36700
O  10.98800 58.68300 39.28900
C  8.68000 59.40400 39.01900
N  5.36700 55.17300 40.81700
C  5.59900 56.49000 40.69700
C  4.35400 57.31800 40.85900
C  3.19500 56.32000 40.99000
C  4.02400 55.00800 41.18500
C  4.41500 58.23900 42.13900
C  2.29600 56.35500 39.71400
C  0.77600 56.39600 39.92500
N  5.16600 52.34900 41.38500
C  3.84400 52.51400 41.63700
C  3.21900 51.23100 42.01500
C  4.29400 50.28100 41.85900
C  5.41100 50.97900 41.46900
C  1.80200 51.04400 42.49400
C  4.54700 48.91900 41.99900
O  3.87100 47.99900 42.45100
C  6.05500 48.76300 41.67300
C  6.04500 47.87600 40.54900
O  5.66900 48.20500 39.44200
O  6.31200 46.61700 40.94000
C  6.22600 45.65400 39.85200
H  11.25400 53.16700 40.55800
H  6.94600 58.10000 40.19800
H  2.30900 54.00100 41.61800
H  9.16900 49.03000 41.56800
H  11.14300 50.78300 40.36900
H  10.70800 51.73900 43.08200
H  12.18200 50.82400 42.56700
H  10.75300 50.01500 43.08100
H  8.72100 48.32100 39.37300
H  10.41300 48.97900 39.37400
H  9.60800 49.98700 37.47800
H  8.77600 51.14600 38.53500
H  12.42200 55.07900 40.65100
H  12.36900 56.77500 40.40800
H  12.27100 55.77100 38.99700
H  8.21600 59.70100 39.96000
H  7.94800 58.98600 38.32800
H  9.16500 60.27100 38.57200
H  4.34200 57.94600 39.96900
H  2.66400 56.39500 41.93900
H  4.88700 59.19100 41.89500
H  5.04400 57.63600 42.79300
H  3.43100 58.30200 42.60400
H  2.53800 55.51200 39.06700
H  2.56700 57.27100 39.18800
H  0.23000 55.52200 39.57000
H  0.44200 57.29800 39.41200
H  0.51800 56.52000 40.97700
H  1.75500 50.10700 43.04900
H  1.04500 51.01300 41.71000
H  1.54500 51.84600 43.18700
H  6.57100 48.23800 42.47700
H  6.52300 44.62700 40.06800
H  6.73400 45.97700 38.94300
H  5.17800 45.67700 39.55400

