158

Mg 1.80500 -1.24900 44.09300
C  5.17500 -0.54700 43.36400
C  0.99100 1.59800 42.31100
C  -1.33400 -2.13800 44.49100
C  2.80400 -4.52700 45.35100
N  3.00200 0.22100 42.85800
C  4.29700 0.45500 42.91900
C  4.71100 1.77100 42.16100
C  3.35800 2.46000 41.96900
C  2.34100 1.36500 42.41800
C  3.19300 3.88400 42.60400
C  5.48600 1.51800 40.90200
C  6.41300 2.66500 40.39500
H  6.05700 3.47000 39.16500
N  0.03600 -0.46400 43.42300
C  -0.10000 0.71400 42.75900
C  -1.54300 0.97100 42.58500
C  -2.29700 -0.01100 43.28700
C  -1.21300 -0.91000 43.80200
C  -2.10600 2.27800 41.86600
C  -3.85200 -0.20100 43.32700
O  -4.63200 0.63700 42.85200
C  -4.49700 -1.37200 44.08000
N  0.89500 -3.10100 44.80400
C  -0.40600 -3.21600 44.85500
C  -0.88200 -4.56600 45.32300
C  0.40000 -5.20800 45.74000
C  1.46900 -4.25600 45.27300
C  -2.01600 -4.35600 46.44400
C  0.45100 -6.69500 45.13300
C  0.93000 -7.74600 46.06200
N  3.59400 -2.32300 44.47100
C  3.84300 -3.56800 45.03100
C  5.29000 -3.74800 45.15400
C  5.84700 -2.62200 44.55100
C  4.77000 -1.75400 44.07500
C  6.04100 -4.85500 45.88900
C  7.02600 -1.93000 44.21300
O  8.20500 -2.20000 44.31700
C  6.64900 -0.64900 43.43300
C  7.22200 0.66400 43.94100
O  6.87700 1.11400 45.01700
O  8.09500 1.22700 43.00700
C  8.75600 2.44100 43.56100
H  0.67900 2.48600 41.75600
H  -2.34900 -2.48900 44.68800
H  3.16400 -5.51000 45.66500
H  5.27100 2.41200 42.84100
H  3.14300 2.62800 40.91400
H  4.14500 4.20800 43.02300
H  2.35500 3.86300 43.30100
H  3.04800 4.67400 41.86700
H  4.79800 1.31100 40.08200
H  6.07000 0.59900 40.95600
H  7.43100 2.28900 40.29000
H  6.58800 3.37600 41.20200
H  -2.36300 2.07200 40.82700
H  -1.36500 3.07700 41.83300
H  -3.00700 2.66500 42.34200
H  -5.57700 -1.24300 44.01900
H  -4.10200 -1.38700 45.09600
H  -4.15200 -2.15800 43.40800
H  -1.41300 -5.10000 44.53500
H  0.45900 -5.21800 46.82800
H  -1.82900 -4.87700 47.38300
H  -2.87200 -4.98100 46.19000
H  -2.38500 -3.34000 46.58500
H  1.17100 -6.65900 44.31500
H  -0.52300 -6.95500 44.72100
H  0.25900 -8.59900 46.17500
H  1.01600 -7.35600 47.07600
H  1.90200 -8.17800 45.82400
H  5.43100 -5.54100 46.47700
H  6.72800 -4.30500 46.53200
H  6.40100 -5.39400 45.01300
H  7.06500 -0.86500 42.44900
H  9.14100 2.98900 42.70100
H  9.42000 2.22600 44.39900
H  8.02800 3.02700 44.12200
Mg 10.11300 47.78900 26.36000
C  8.23800 47.93500 29.46300
C  12.62600 49.32500 27.98400
C  11.69600 47.56900 23.59300
C  7.05300 46.80100 24.76700
N  10.28300 48.67000 28.34900
C  9.48500 48.52700 29.49500
C  10.11400 49.06600 30.77900
C  11.33800 49.83000 30.16000
C  11.46800 49.21200 28.76100
C  11.07900 51.32100 30.09000
C  10.46600 47.93900 31.86200
C  10.13900 48.12400 33.32900
H  10.05700 46.86100 34.17500
N  11.96000 48.14700 25.90200
C  12.90400 48.81300 26.69400
C  14.16000 48.75900 26.02300
C  13.98800 48.25100 24.70300
C  12.53100 47.95600 24.66200
C  15.49100 49.26200 26.61500
C  14.96400 48.14600 23.50500
O  14.61000 47.76500 22.37600
C  16.39400 48.46500 23.61900
N  9.49900 47.26300 24.51400
C  10.34800 47.34200 23.43200
C  9.64300 47.01200 22.07800
C  8.25900 46.55400 22.53800
C  8.26800 46.92700 23.99900
C  9.68300 48.25100 21.18400
C  8.01400 45.01500 22.35900
C  8.84500 44.09800 23.26200
N  8.08600 47.43700 26.94200
C  6.97200 47.05500 26.16300
C  5.76400 47.12800 27.02100
C  6.23000 47.31600 28.31900
C  7.64500 47.53400 28.21000
C  4.44900 46.82200 26.52700
C  5.84400 47.36500 29.75200
O  4.78100 47.17100 30.32700
C  7.22900 47.59900 30.55900
C  7.55200 46.30200 31.16500
O  8.16800 45.39500 30.64000
O  7.00900 46.24500 32.49000
C  7.07100 44.93500 33.15100
H  13.42700 49.74700 28.59400
H  12.26700 47.36000 22.68600
H  6.16600 46.38500 24.28500
H  9.43100 49.80400 31.19900
H  12.23900 49.56300 30.71200
H  10.47200 51.49900 29.20200
H  11.97000 51.94700 30.03300
H  10.58600 51.74300 30.96600
H  11.53500 47.72600 31.84300
H  10.04300 46.98700 31.53900
H  9.26800 48.77300 33.42500
H  10.90300 48.78500 33.74000
H  15.61900 48.93500 27.64700
H  15.47400 50.35200 26.59500
H  16.36700 48.90500 26.07300
H  16.96800 48.36300 22.69900
H  16.87000 47.73300 24.27200
H  16.60500 49.44600 24.04500
H  10.21300 46.24500 21.55300
H  7.50700 47.07200 21.94400
H  8.69500 48.58900 20.87100
H  10.14300 47.90700 20.25700
H  10.26700 49.04000 21.65600
H  8.20300 44.83900 21.30000
H  6.97000 44.86500 22.63300
H  9.58200 44.58900 23.89800
H  9.32500 43.39700 22.57900
H  8.10200 43.65300 23.92300
H  4.45300 46.10400 25.70700
H  4.01300 47.69100 26.03500
H  3.90500 46.37900 27.36100
H  7.12400 48.39000 31.30300
H  8.15900 44.87400 33.14300
H  6.47500 44.16400 32.66200
H  6.77700 45.02200 34.19700

