158

Mg 2.64100 -1.03900 43.89500
C  6.04800 -0.17500 43.53100
C  1.81200 1.95700 42.38800
C  -0.47700 -2.08300 43.85700
C  3.64800 -4.30000 44.88700
N  3.83900 0.66500 43.10400
C  5.19800 0.78700 42.96200
C  5.57600 2.07700 42.26800
C  4.20100 2.93000 42.37700
C  3.17000 1.83400 42.70600
C  4.19500 4.21000 43.26000
C  6.23800 1.91600 40.81700
C  6.04900 0.58900 40.14200
H  6.49900 0.58200 38.70600
N  0.88000 -0.15100 43.20000
C  0.69900 1.09000 42.61700
C  -0.70200 1.25600 42.28500
C  -1.35500 0.05400 42.65800
C  -0.33500 -0.78400 43.28600
C  -1.18700 2.51600 41.70500
C  -2.82400 -0.28100 42.23800
O  -3.50300 0.55400 41.79200
C  -3.45000 -1.70200 42.35600
N  1.71500 -2.91400 44.25800
C  0.40900 -3.08000 44.23300
C  -0.06100 -4.46500 44.71800
C  1.29400 -5.21300 44.70500
C  2.34400 -4.07200 44.58600
C  -0.75500 -4.44200 46.14300
C  1.51600 -6.17600 43.49400
C  1.89900 -7.65800 43.79100
N  4.46500 -1.99400 44.43300
C  4.69300 -3.31900 44.74100
C  6.11800 -3.56500 44.75400
C  6.72700 -2.28400 44.48900
C  5.64000 -1.44800 44.09500
C  6.87000 -4.78500 45.16300
C  7.94500 -1.59300 44.36400
O  9.07900 -1.89900 44.81500
C  7.60000 -0.26000 43.58800
C  8.36800 0.81200 44.34300
O  9.44600 1.30200 43.93900
O  7.72700 1.23000 45.46700
C  8.41000 2.33800 46.29000
H  1.56400 2.97600 42.08400
H  -1.49200 -2.48500 43.82900
H  4.11900 -5.27800 45.00900
H  6.32600 2.52200 42.92100
H  3.77600 3.23100 41.41900
H  3.84300 3.92600 44.25100
H  3.59500 5.01900 42.84300
H  5.22800 4.54000 43.36300
H  7.30900 2.11900 40.84400
H  5.74300 2.67300 40.20800
H  4.99000 0.33200 40.16900
H  6.70100 -0.15700 40.59500
H  -2.24600 2.75500 41.60800
H  -0.77200 2.69900 40.71400
H  -0.87000 3.36400 42.31300
H  -3.48900 -2.05100 43.38800
H  -2.95100 -2.49200 41.79400
H  -4.51100 -1.71600 42.10900
H  -0.73200 -4.76800 43.91500
H  1.51800 -5.75700 45.62200
H  -0.17900 -5.02200 46.86400
H  -1.78300 -4.79600 46.21600
H  -0.52200 -3.40800 46.39600
H  2.40200 -5.73600 43.03700
H  0.62400 -6.00500 42.89100
H  1.07300 -8.24200 43.38600
H  2.02100 -7.78900 44.86600
H  2.75300 -7.88000 43.15200
H  7.79800 -4.90400 44.60300
H  6.18100 -5.62700 45.10700
H  7.19200 -4.65800 46.19700
H  7.94600 -0.38200 42.56200
H  8.49000 2.14300 47.35900
H  7.78800 3.22300 46.15300
H  9.40400 2.62500 45.94800
Mg 9.31000 2.92700 27.76000
C  10.63800 1.59100 30.58000
C  7.21100 4.93100 29.75200
C  7.54200 3.95900 25.02300
C  10.86400 0.58000 25.83300
N  9.05400 3.17500 29.93600
C  9.70200 2.53000 30.90200
C  9.30300 3.12400 32.23800
C  8.10500 4.05800 31.90000
C  8.13000 4.07900 30.38600
C  6.69500 3.70800 32.56900
C  10.49600 3.83300 32.90600
C  10.96400 3.42900 34.28700
H  9.93200 3.18600 35.44500
N  7.66400 4.35900 27.37700
C  6.98400 5.04800 28.36900
C  5.96500 5.92000 27.71600
C  6.10000 5.69000 26.33800
C  7.11000 4.62500 26.19700
C  5.27000 7.09500 28.50600
C  5.41700 6.32400 25.11100
O  5.66200 6.08700 23.93200
C  4.26700 7.25000 25.46500
N  9.29000 2.42400 25.67400
C  8.45400 2.99100 24.72000
C  8.75500 2.37900 23.34800
C  9.90000 1.25800 23.60800
C  10.07000 1.41600 25.12000
C  7.53700 2.01300 22.58200
C  11.13500 1.41800 22.77000
C  11.32700 0.16600 21.92800
N  10.57300 1.40700 28.07900
C  11.21900 0.50600 27.17800
C  12.13600 -0.29600 27.90100
C  11.96800 0.09000 29.24900
C  10.96400 1.06400 29.30400
C  13.13400 -1.25100 27.36300
C  12.36000 -0.17800 30.58100
O  13.11400 -0.97700 31.00600
C  11.59100 0.81200 31.45600
C  10.87200 0.05000 32.66200
O  9.81400 -0.51300 32.64200
O  11.67400 0.12200 33.81300
C  11.37700 -0.68100 35.00000
H  6.78400 5.65800 30.44700
H  7.21500 4.51700 24.14300
H  11.33700 -0.19000 25.22000
H  8.96000 2.35000 32.92400
H  8.29900 5.04800 32.31400
H  6.50300 4.59000 33.18000
H  6.90700 2.89100 33.25900
H  5.94200 3.36700 31.85800
H  10.22200 4.88200 33.02100
H  11.35100 3.81800 32.23000
H  11.62000 4.21900 34.65200
H  11.59100 2.56900 34.05300
H  5.65000 8.06500 28.18600
H  5.45100 7.19400 29.57600
H  4.23600 7.10000 28.16000
H  3.47300 6.68700 25.95500
H  3.72500 7.61200 24.59200
H  4.58400 8.14400 26.00100
H  9.23400 3.21500 22.83900
H  9.35700 0.34200 23.37700
H  7.34300 1.05200 22.10500
H  7.54700 2.69900 21.73500
H  6.67500 2.22500 23.21400
H  12.04500 1.47800 23.36700
H  10.97500 2.28900 22.13400
H  11.19600 0.38500 20.86800
H  10.75400 -0.72600 22.18300
H  12.36100 -0.17600 21.96900
H  13.27900 -1.08400 26.29500
H  12.77700 -2.28000 27.39000
H  14.07300 -1.14700 27.90700
H  12.34200 1.49800 31.84700
H  11.53100 -0.03600 35.86600
H  12.12600 -1.45800 35.15300
H  10.33400 -0.98700 35.09000

