158

Mg 23.81700 -5.43500 46.49600
C  26.09700 -3.42800 44.79200
C  21.32500 -4.58700 44.35100
C  22.14400 -8.18900 47.42600
C  26.69900 -7.12300 47.85600
N  23.78800 -4.16100 44.84500
C  24.76000 -3.33600 44.36400
C  24.22100 -2.44400 43.26200
C  22.62200 -2.80800 43.23500
C  22.59300 -3.89500 44.27800
C  21.71900 -1.56100 43.50700
C  25.01000 -2.69300 41.83600
C  25.48600 -1.49200 41.06100
H  25.44400 -1.61600 39.55000
N  21.95000 -6.17400 46.11600
C  21.04500 -5.65900 45.21800
C  19.79600 -6.38100 45.29800
C  20.02900 -7.44700 46.17500
C  21.44000 -7.30400 46.64400
C  18.53700 -6.07200 44.52200
C  18.93600 -8.42400 46.64300
O  17.89700 -8.48000 46.06900
C  19.24500 -9.45600 47.75300
N  24.40400 -7.39200 47.62000
C  23.38600 -8.27100 47.93600
C  23.99300 -9.46200 48.71100
C  25.54600 -9.03900 48.93500
C  25.57000 -7.81200 48.06200
C  23.21800 -9.90800 49.97000
C  26.56300 -10.23300 48.70100
C  27.10800 -10.48500 47.38600
N  25.91400 -5.19600 46.57900
C  26.90600 -5.89400 47.19700
C  28.17400 -5.27400 46.92100
C  27.88000 -4.25400 46.06600
C  26.48900 -4.25100 45.81600
C  29.47300 -5.82200 47.38000
C  28.51700 -3.30300 45.18900
O  29.70500 -3.01000 45.04500
C  27.32500 -2.69300 44.35200
C  27.16500 -1.21300 44.68200
O  26.78900 -0.79300 45.75200
O  27.56800 -0.42700 43.61100
C  27.77100 0.98500 43.85700
H  20.58100 -4.36800 43.58300
H  21.70500 -9.12400 47.78100
H  27.59100 -7.59900 48.26700
H  24.38200 -1.43100 43.63100
H  22.43300 -3.12600 42.21000
H  21.95000 -1.20900 44.51200
H  20.69400 -1.91700 43.40100
H  22.09900 -0.84400 42.78000
H  24.34600 -3.12400 41.08700
H  25.85600 -3.37000 41.95500
H  26.50300 -1.45100 41.45200
H  24.87200 -0.71200 41.51100
H  18.57400 -5.12200 43.98900
H  17.66700 -6.07900 45.17900
H  18.29000 -6.78900 43.74000
H  18.28600 -9.91800 47.98700
H  19.54700 -8.97700 48.68500
H  19.99400 -10.20900 47.50900
H  23.86500 -10.33000 48.06400
H  25.59900 -8.69500 49.96800
H  23.84400 -10.06300 50.84900
H  22.66600 -10.79700 49.66600
H  22.49900 -9.09200 50.04800
H  26.06400 -11.17700 48.92000
H  27.43000 -10.14800 49.35500
H  28.18200 -10.65800 47.31100
H  26.85600 -9.77500 46.59900
H  26.72100 -11.46500 47.10600
H  29.68000 -6.73100 46.81600
H  29.45400 -5.94500 48.46300
H  30.35900 -5.22900 47.15100
H  27.54800 -2.90800 43.30600
H  27.28400 1.47600 43.01400
H  28.81000 1.31200 43.89000
H  27.27600 1.32600 44.76600
Mg 6.79800 53.95500 41.65700
C  6.18200 50.51000 41.55500
C  10.04300 53.38200 40.49300
C  6.93300 57.18100 40.81700
C  3.32000 54.30600 42.31700
N  7.82700 52.12700 40.90900
C  7.49000 50.84300 41.10600
C  8.69200 49.89600 40.96600
C  9.81800 50.92400 41.14600
C  9.19800 52.21900 40.75600
C  10.65400 51.00300 42.49300
C  8.74100 48.95800 39.63800
C  8.78800 49.79700 38.35600
H  7.76200 49.40800 37.27200
N  8.23600 55.13800 40.73500
C  9.54800 54.67700 40.36900
C  10.26000 55.80200 39.91600
C  9.33600 56.88200 39.76600
C  8.08700 56.43400 40.42100
C  11.66400 55.75200 39.29700
C  9.62100 58.17300 39.07600
O  10.73900 58.35900 38.62000
C  8.42500 59.20300 38.82200
N  5.34600 55.43500 41.59100
C  5.77100 56.71200 41.35300
C  4.58100 57.78400 41.65600
C  3.37200 56.79600 41.64200
C  4.04100 55.47900 41.87400
C  4.83000 58.49400 43.03300
C  2.35100 56.72200 40.48700
C  0.91200 56.38000 40.85100
N  5.12800 52.75200 42.09100
C  3.80900 53.01800 42.46000
C  3.04600 51.78200 42.76500
C  3.98300 50.78500 42.34600
C  5.18900 51.42000 41.90100
C  1.67100 51.63000 43.21200
C  4.12500 49.37500 42.25500
O  3.28500 48.52600 42.57500
C  5.58700 49.06400 41.73800
C  5.39200 48.39400 40.49200
O  4.85600 48.92300 39.48800
O  5.75300 47.14500 40.59500
C  5.51900 46.20700 39.41500
H  11.12900 53.26800 40.48300
H  6.90600 58.27200 40.77700
H  2.25900 54.43900 42.53700
H  8.62600 49.14900 41.75700
H  10.55200 50.65300 40.38700
H  10.71200 52.01300 42.89800
H  11.66700 50.61300 42.39100
H  10.24200 50.37300 43.28100
H  7.93700 48.22300 39.65500
H  9.67200 48.39400 39.69400
H  9.76600 49.79500 37.87400
H  8.74000 50.86100 38.59000
H  11.61300 55.98600 38.23400
H  12.16000 54.79000 39.41900
H  12.23100 56.58900 39.70400
H  7.61200 58.55700 38.48900
H  8.70400 59.83100 37.97600
H  8.25000 59.74300 39.75300
H  4.45000 58.56500 40.90600
H  2.81000 56.94500 42.56400
H  3.88000 58.50200 43.56700
H  5.15000 59.53500 42.97400
H  5.45900 57.97700 43.75800
H  2.57300 55.86700 39.84700
H  2.45300 57.63000 39.89300
H  0.90500 56.01600 41.87900
H  0.60400 55.53000 40.24200
H  0.30400 57.23500 40.55600
H  1.58600 50.66200 43.70600
H  1.14800 51.55900 42.25800
H  1.56400 52.51200 43.84200
H  6.24000 48.40000 42.30400
H  6.48000 45.74500 39.19100
H  5.25200 46.63300 38.44800
H  4.69200 45.52800 39.62400

