158

Mg 2.61200 -1.52900 43.81600
C  6.12700 -0.72800 43.32100
C  1.85300 1.16600 41.87700
C  -0.55200 -2.56600 43.80600
C  3.78700 -4.57500 45.15000
N  3.87900 -0.04800 42.71600
C  5.25700 0.16200 42.67200
C  5.63800 1.47100 42.01200
C  4.26300 2.12700 41.74100
C  3.22700 1.01000 42.08100
C  4.15600 3.61500 42.46500
C  6.43300 1.22400 40.69900
C  7.76500 1.94300 40.51500
H  8.32200 2.23100 39.16100
N  0.87600 -0.72400 43.07300
C  0.79600 0.33600 42.30100
C  -0.63000 0.68000 42.07400
C  -1.38200 -0.39500 42.70300
C  -0.34200 -1.31000 43.20500
C  -1.08100 1.87500 41.27300
C  -2.92800 -0.47900 42.68500
O  -3.69700 0.43600 42.45200
C  -3.63900 -1.74500 43.02500
N  1.76200 -3.42300 44.15800
C  0.43000 -3.45000 44.27500
C  0.08800 -4.91200 44.95100
C  1.48000 -5.48600 45.43300
C  2.36400 -4.36600 44.93200
C  -1.10100 -5.13100 45.94200
C  1.77000 -6.85400 44.73800
C  2.41400 -7.96000 45.69600
N  4.56700 -2.49800 44.27900
C  4.82700 -3.71300 44.89100
C  6.25600 -3.88100 45.04100
C  6.81100 -2.72500 44.44800
C  5.72100 -1.94600 43.95700
C  6.99900 -5.02300 45.61400
C  8.07800 -2.00700 44.11000
O  9.22400 -2.37000 44.30600
C  7.67200 -0.65400 43.45000
C  7.99500 0.42200 44.33900
O  8.04500 0.36600 45.57000
O  8.36100 1.54700 43.58500
C  8.79700 2.78100 44.40900
H  1.59000 2.02000 41.24900
H  -1.53300 -3.00100 44.01100
H  3.92800 -5.52900 45.66300
H  6.23300 2.00000 42.75600
H  4.13200 2.26000 40.66700
H  4.15900 4.39800 41.70700
H  4.97500 3.90200 43.12500
H  3.23200 3.61100 43.04400
H  5.89400 1.32300 39.75700
H  6.68300 0.16500 40.64500
H  8.46700 1.23700 40.96000
H  7.72100 2.86600 41.09400
H  -0.74100 1.78100 40.24200
H  -0.59800 2.78200 41.63700
H  -2.15400 2.05300 41.34200
H  -4.70600 -1.72700 42.80500
H  -3.44000 -1.99600 44.06700
H  -3.29900 -2.54000 42.36100
H  -0.18900 -5.43900 44.03800
H  1.43500 -5.39500 46.51800
H  -0.64700 -5.74500 46.72000
H  -1.98500 -5.56100 45.47200
H  -1.38400 -4.19500 46.42600
H  2.47700 -6.66000 43.93200
H  0.86500 -7.30500 44.33200
H  2.76600 -7.35400 46.53100
H  3.36200 -8.32400 45.30000
H  1.71900 -8.77500 45.89800
H  7.97100 -4.91700 45.13200
H  6.50100 -5.95500 45.34600
H  7.00600 -4.78100 46.67700
H  8.17700 -0.58300 42.48700
H  7.93800 3.42200 44.60800
H  9.55100 3.31900 43.83500
H  9.30200 2.44600 45.31500
Mg 25.89600 1.06900 29.71100
C  27.70600 0.76000 32.59400
C  23.15500 1.93200 31.56800
C  24.09300 1.46900 26.84500
C  28.56000 0.12500 27.85200
N  25.46900 1.38600 31.78400
C  26.37400 1.15600 32.79900
C  25.83500 1.47700 34.14500
C  24.27700 1.49500 33.87800
C  24.27900 1.65500 32.32300
C  23.40400 0.32000 34.40300
C  26.39900 2.82700 34.76200
C  27.28600 2.58600 36.08300
H  26.83200 3.27200 37.35800
N  23.89100 1.56100 29.27500
C  22.96400 1.91000 30.18700
C  21.69500 2.13300 29.50300
C  21.89500 1.91200 28.05100
C  23.31100 1.56300 27.99800
C  20.38900 2.54700 30.10700
C  20.99700 2.16800 26.81700
O  21.27900 1.99100 25.62900
C  19.56600 2.77200 27.05500
N  26.21800 0.60500 27.62600
C  25.44100 1.03800 26.64400
C  26.18800 1.23300 25.24900
C  27.59400 0.67500 25.59600
C  27.45800 0.44100 27.12000
C  25.49700 0.62000 24.04600
C  28.78900 1.55100 25.27300
C  28.80900 2.95500 26.05300
N  27.82400 0.34800 30.10100
C  28.79500 0.03800 29.18500
C  29.98400 -0.22600 30.02900
C  29.63700 0.08200 31.38200
C  28.27600 0.43600 31.34000
C  31.33900 -0.60600 29.65300
C  30.08100 0.12200 32.76600
O  31.16100 -0.09400 33.26400
C  28.79200 0.68500 33.60000
C  28.69800 -0.34700 34.62900
O  28.07200 -1.33800 34.44900
O  29.29300 0.08900 35.77400
C  29.04200 -0.77400 36.98400
H  22.33400 2.25000 32.21300
H  23.58400 1.81400 25.94300
H  29.50800 -0.05400 27.33900
H  26.08900 0.68100 34.84500
H  23.69100 2.38400 34.10700
H  23.16500 -0.35300 33.57900
H  22.44300 0.60900 34.82700
H  23.83300 -0.27100 35.21200
H  25.51500 3.43400 34.95700
H  26.98500 3.44800 34.08500
H  28.29700 2.77300 35.72200
H  27.35100 1.54800 36.41000
H  20.59900 2.57000 31.17700
H  19.57700 1.86600 29.85300
H  20.17300 3.56700 29.79100
H  19.05900 3.04700 26.13000
H  19.67800 3.79100 27.42600
H  18.93400 2.23900 27.76600
H  26.29500 2.26000 24.89900
H  27.75700 -0.28600 25.10800
H  26.19100 -0.08300 23.58400
H  25.11900 1.36700 23.34900
H  24.78100 -0.17100 24.27100
H  28.87700 1.83600 24.22500
H  29.77400 1.09600 25.38600
H  28.28700 2.81700 26.99900
H  28.32500 3.70000 25.42200
H  29.80800 3.32500 26.28100
H  31.19200 -1.40700 28.92800
H  31.91800 -1.06000 30.45700
H  31.85500 0.23300 29.18700
H  29.15700 1.63800 33.98400
H  29.05100 -1.82200 36.68700
H  28.17100 -0.46400 37.56100
H  29.88600 -0.59100 37.64900

