158

Mg 2.24500 -2.15400 45.38000
C  5.76300 -1.62800 44.87300
C  1.52400 0.32600 43.31600
C  -1.04600 -3.25600 45.25300
C  3.01500 -4.86900 47.31000
N  3.59500 -0.83200 44.18000
C  4.99500 -0.74800 44.12000
C  5.42900 0.34200 43.07200
C  4.07400 1.12200 42.89300
C  2.91200 0.21300 43.57200
C  4.04600 2.58000 43.37000
C  5.93000 -0.32100 41.78700
C  7.36600 -0.01000 41.34600
H  7.80800 0.33600 39.94100
N  0.43600 -1.52700 44.38400
C  0.38900 -0.45200 43.61000
C  -0.99600 -0.15100 43.31300
C  -1.81300 -1.11400 43.94300
C  -0.81900 -2.07700 44.56800
C  -1.45400 0.96100 42.41700
C  -3.27500 -0.95800 44.12600
O  -3.88000 -0.00100 43.64800
C  -4.01300 -2.03500 44.90800
N  1.07600 -3.87400 46.18900
C  -0.26000 -3.99400 46.10500
C  -0.76500 -5.25500 46.88900
C  0.57600 -5.62800 47.65300
C  1.64000 -4.82800 46.95000
C  -2.08000 -5.01800 47.76400
C  0.90400 -7.22400 47.73900
C  1.64100 -7.61200 48.97100
N  3.97600 -3.00100 46.03000
C  4.12700 -4.15700 46.80100
C  5.57500 -4.36700 47.04700
C  6.23800 -3.37900 46.35600
C  5.24200 -2.59400 45.76100
C  6.16300 -5.46800 47.90100
C  7.51300 -2.81900 46.13800
O  8.63800 -3.26400 46.45000
C  7.23000 -1.64300 45.13200
C  7.75100 -0.35200 45.68100
O  7.43800 0.12000 46.77300
O  8.44300 0.21600 44.66700
C  8.79700 1.63100 44.92600
H  1.43700 1.26900 42.77200
H  -2.07500 -3.62200 45.22900
H  3.26100 -5.59200 48.09000
H  6.21400 0.86500 43.61800
H  3.74900 1.10600 41.85200
H  4.99000 2.89600 43.81500
H  3.28500 2.78300 44.12300
H  3.87300 3.06600 42.40900
H  5.31500 -0.04900 40.93000
H  5.81600 -1.40000 41.88300
H  7.95500 -0.86800 41.67300
H  7.63900 0.91900 41.84600
H  -2.21100 0.65800 41.69500
H  -0.62100 1.20900 41.75900
H  -1.84300 1.83100 42.94600
H  -3.34100 -2.27900 45.73100
H  -4.15100 -2.85700 44.20600
H  -4.91000 -1.47600 45.17500
H  -1.10100 -6.09600 46.28200
H  0.58400 -5.13300 48.62400
H  -2.91400 -5.58800 47.35500
H  -2.09100 -3.92900 47.71000
H  -2.01800 -5.29700 48.81600
H  1.42900 -7.58600 46.85500
H  0.07000 -7.92100 47.65500
H  1.03700 -8.36000 49.48400
H  1.70600 -6.73500 49.61400
H  2.60700 -8.06900 48.75200
H  6.25300 -6.42200 47.38300
H  5.58900 -5.58600 48.82000
H  7.22100 -5.24900 48.04200
H  7.84000 -1.86100 44.25500
H  9.64700 1.63500 45.60900
H  7.90700 2.11700 45.32400
H  9.02800 2.09200 43.96500
Mg 40.58100 9.38800 29.20100
C  42.39400 10.73100 31.92900
C  38.42900 7.92200 31.43000
C  39.06300 8.14900 26.57800
C  43.11100 10.51900 27.08000
N  40.58100 9.23400 31.42500
C  41.25500 10.05800 32.33700
C  40.68600 9.92200 33.78200
C  39.50500 8.91200 33.60600
C  39.48100 8.59800 32.05900
C  39.72100 7.62200 34.40100
C  40.41200 11.26200 34.41500
C  39.54200 11.23200 35.68000
H  40.40500 11.31300 36.92400
N  38.93500 8.16200 29.00700
C  38.19100 7.75000 30.04100
C  37.03600 7.03600 29.53100
C  37.10800 7.19500 28.12100
C  38.34800 7.90000 27.79600
C  36.00400 6.25100 30.43000
C  36.14900 6.84000 27.08300
O  36.38100 7.10200 25.89800
C  34.86500 6.24300 27.47700
N  41.09900 9.29500 27.20500
C  40.29500 8.72100 26.26400
C  40.82100 8.86800 24.75600
C  42.04900 9.61400 25.01500
C  42.10500 9.84300 26.52700
C  41.01900 7.51300 24.01400
C  42.03100 10.99600 24.28500
C  41.00400 12.11400 24.55600
N  42.39700 10.45600 29.37400
C  43.23300 10.85300 28.44700
C  44.39300 11.55700 29.06200
C  44.05400 11.63000 30.41600
C  42.81500 10.86700 30.53800
C  45.60400 12.14000 28.41700
C  44.47700 12.08500 31.71000
O  45.44700 12.75500 32.09600
C  43.40100 11.59200 32.71300
C  44.09500 10.94100 33.84000
O  44.31300 9.75300 33.87100
O  44.20100 11.75700 34.95300
C  44.84300 11.19400 36.20600
H  37.59100 7.50400 31.99300
H  38.57800 7.77200 25.67500
H  43.79800 10.90900 26.32600
H  41.44000 9.46700 34.42300
H  38.53600 9.37100 33.80300
H  39.85700 6.74700 33.76600
H  38.82900 7.60600 35.02700
H  40.51100 7.71000 35.14800
H  40.23900 12.02700 33.65800
H  41.42200 11.63300 34.59000
H  38.95900 10.31200 35.67700
H  38.81500 12.04400 35.65800
H  34.99800 6.66400 30.34700
H  36.24900 6.05000 31.47300
H  35.85900 5.31000 29.90000
H  34.01200 6.08500 26.81700
H  34.40500 6.89900 28.21600
H  35.02500 5.30300 28.00500
H  40.02300 9.47600 24.33000
H  42.92800 9.00800 24.79600
H  41.08300 6.63100 24.65100
H  41.88500 7.44800 23.35400
H  40.10900 7.30900 23.45000
H  41.96000 10.79200 23.21700
H  43.02600 11.42700 24.40400
H  40.62900 12.33000 23.55500
H  41.38100 13.03400 25.00300
H  40.21400 11.81600 25.24500
H  45.89000 11.66800 27.47700
H  46.36600 12.29200 29.18100
H  45.38800 13.18600 28.19900
H  42.83000 12.44800 33.07200
H  45.38200 10.27400 35.98200
H  43.97200 11.08500 36.85400
H  45.59100 11.85200 36.64800

