158

Mg 48.49800 14.82900 28.39500
C  46.13800 14.90800 30.94500
C  50.67700 16.38100 30.43300
C  50.77600 14.71500 25.84000
C  46.15200 13.36800 26.29600
N  48.36700 15.61000 30.44900
C  47.33500 15.53800 31.34200
C  47.74900 16.10700 32.72100
C  49.15900 16.71700 32.40000
C  49.47700 16.21000 30.93800
C  49.30100 18.28400 32.52100
C  47.86500 14.84300 33.68800
C  47.18900 15.07400 35.08400
H  47.01700 16.44100 35.77000
N  50.42400 15.49600 28.20200
C  51.19700 16.09200 29.16100
C  52.49800 16.31300 28.63700
C  52.52200 15.72400 27.33000
C  51.24600 15.18100 27.07500
C  53.59300 17.02600 29.48700
C  53.65400 15.78800 26.25100
O  53.64600 15.17300 25.16600
C  54.88600 16.61400 26.57000
N  48.35200 14.37700 26.29800
C  49.50800 14.22000 25.55900
C  49.10300 13.61900 24.19100
C  47.70300 13.02400 24.43800
C  47.38600 13.62500 25.80500
C  49.22600 14.51000 22.91800
C  47.59900 11.49800 24.34600
C  46.38900 10.94700 23.60400
N  46.50700 14.38200 28.47300
C  45.71900 13.70900 27.56400
C  44.48600 13.36800 28.23400
C  44.62300 13.71000 29.61600
C  45.85400 14.40000 29.68400
C  43.34000 12.63100 27.66100
C  43.90500 13.76400 30.87200
O  42.79200 13.29500 31.29200
C  44.93400 14.49900 31.72800
C  44.14800 15.60400 32.40900
O  44.02800 16.78800 32.02200
O  43.55000 15.15100 33.53600
C  42.83600 16.10700 34.35400
H  51.47500 16.87900 30.98600
H  51.43000 14.55300 24.98100
H  45.43500 12.90600 25.61400
H  47.04600 16.86500 33.06700
H  49.90500 16.29900 33.07600
H  50.26800 18.48900 32.98000
H  48.49200 18.67400 33.14000
H  49.10500 18.73100 31.54700
H  48.92400 14.61200 33.80600
H  47.36700 13.99800 33.21300
H  47.83800 14.53500 35.77300
H  46.22600 14.56200 35.07600
H  54.01300 17.84200 28.90000
H  54.25100 16.21400 29.79600
H  53.38000 17.56000 30.41300
H  55.46500 16.51600 25.65100
H  55.45500 15.99800 27.26600
H  54.81900 17.67600 26.80700
H  49.84800 12.84000 24.02800
H  47.06200 13.47200 23.67900
H  49.63200 15.45900 23.26900
H  48.30900 14.65900 22.34900
H  50.01600 14.16300 22.25100
H  47.48600 11.15500 25.37400
H  48.53000 11.11500 23.92800
H  46.69700 10.87800 22.56100
H  45.55300 11.63700 23.72200
H  46.07100 9.98100 23.99600
H  43.37700 12.70000 26.57400
H  42.56000 13.18600 28.18300
H  43.39800 11.57500 27.92500
H  45.22600 13.78800 32.50100
H  41.77300 16.23900 34.15200
H  43.30700 17.08900 34.29800
H  42.97100 15.84100 35.40300
Mg -0.80900 44.32100 24.81100
C  1.14500 43.87100 27.56700
C  -3.33200 42.68000 26.42100
C  -2.60200 44.47300 21.96900
C  1.92700 45.53200 23.10500
N  -1.06200 43.52600 26.82400
C  -0.16900 43.51600 27.83400
C  -0.69600 43.04600 29.19800
C  -2.07400 42.46500 28.74500
C  -2.20000 42.92400 27.21600
C  -2.18200 40.95300 28.86800
C  -0.80000 44.23300 30.29900
C  -1.10500 43.84400 31.81000
H  -0.84700 42.37400 32.40500
N  -2.75600 43.70000 24.27200
C  -3.67100 43.05500 25.08400
C  -4.98600 42.91000 24.44600
C  -4.78200 43.48500 23.10700
C  -3.34200 43.93800 23.06900
C  -6.21600 42.55900 25.12400
C  -5.74300 43.48200 21.94400
O  -5.48000 44.04300 20.88200
C  -7.04600 42.86600 22.07900
N  -0.39800 44.89800 22.79700
C  -1.28600 44.86800 21.82400
C  -0.61400 45.26400 20.44100
C  0.67000 45.94500 20.88400
C  0.71400 45.50900 22.39500
C  -0.45100 44.15700 19.35100
C  0.72300 47.44100 20.57300
C  0.32800 48.47300 21.64300
N  1.18800 44.56800 25.17100
C  2.19500 45.04900 24.38100
C  3.43100 45.08700 25.10900
C  3.04600 44.61400 26.39200
C  1.70900 44.27600 26.34800
C  4.71500 45.76900 24.65600
C  3.56800 44.37600 27.76700
O  4.70300 44.38000 28.22400
C  2.25500 43.98000 28.58700
C  2.41900 42.61100 29.13400
O  2.31600 41.55200 28.58900
O  2.67200 42.82600 30.48400
C  2.92200 41.53800 31.12600
H  -4.15100 42.26600 27.01200
H  -3.10900 44.78200 21.05300
H  2.75000 45.99800 22.56000
H  -0.06000 42.23600 29.55500
H  -2.86800 42.96300 29.30000
H  -2.05700 40.41400 27.92900
H  -3.05400 40.68100 29.46300
H  -1.37400 40.52900 29.46400
H  -1.64300 44.79600 29.89900
H  0.11000 44.83200 30.27900
H  -2.11000 44.08600 32.15600
H  -0.31400 44.28800 32.41400
H  -6.88500 41.92700 24.54000
H  -6.67300 43.52600 25.33800
H  -6.01700 42.10300 26.09300
H  -7.67200 43.50200 22.70500
H  -6.87000 41.84300 22.41300
H  -7.43800 42.66200 21.08300
H  -1.22400 46.02300 19.95000
H  1.46500 45.48600 20.29600
H  -0.78100 43.19300 19.73900
H  0.57600 44.04100 19.00500
H  -1.16800 44.49800 18.60400
H  0.05300 47.78800 19.78500
H  1.69200 47.65100 20.12100
H  1.27300 48.87200 22.01200
H  -0.15600 47.93900 22.46100
H  -0.29700 49.33200 21.39700
H  5.52700 45.04300 24.64300
H  5.00200 46.58500 25.32000
H  4.51100 46.08400 23.63200
H  2.13200 44.65900 29.43100
H  3.96600 41.23800 31.03600
H  2.26000 40.69800 30.91700
H  2.76100 41.72900 32.18700

