158

Mg 2.39800 -0.09300 44.41200
C  5.94700 0.35800 43.98400
C  1.91900 2.55700 42.26300
C  -0.70000 -1.04600 43.93600
C  3.17100 -3.42600 45.69000
N  3.82400 1.26100 43.24100
C  5.19100 1.32600 43.26900
C  5.63100 2.51800 42.48900
C  4.30700 3.29300 42.20800
C  3.26600 2.22200 42.49900
C  4.00400 4.62000 43.01700
C  6.41800 2.10100 41.16700
C  5.53600 1.42200 40.05600
H  5.36500 2.19300 38.78800
N  0.78400 0.83100 43.53400
C  0.79500 1.98900 42.78000
C  -0.66000 2.34400 42.59000
C  -1.45000 1.32900 43.20400
C  -0.45400 0.28900 43.59300
C  -1.12600 3.52500 41.73300
C  -2.88100 1.39100 43.39700
O  -3.53200 2.29400 42.95500
C  -3.61900 0.18200 43.85800
N  1.35500 -1.99300 44.86700
C  0.09100 -2.15100 44.34200
C  -0.40000 -3.60400 44.42900
C  0.73900 -4.27500 45.25500
C  1.85800 -3.15800 45.33200
C  -1.91800 -3.81400 44.92400
C  1.25900 -5.63400 44.60800
C  0.90900 -6.90200 45.42600
N  4.11700 -1.21900 44.93900
C  4.28100 -2.47400 45.52700
C  5.71200 -2.74400 45.77900
C  6.34900 -1.62700 45.19400
C  5.37800 -0.78200 44.69000
C  6.35600 -3.95400 46.34600
C  7.65100 -1.07600 45.01600
O  8.70800 -1.55700 45.45500
C  7.45700 0.12700 44.05400
C  8.31800 1.27400 44.46200
O  8.95900 1.94100 43.65900
O  8.31600 1.40500 45.80100
C  9.27800 2.36700 46.33800
H  1.85000 3.47600 41.67800
H  -1.67000 -1.36900 43.55200
H  3.49000 -4.38500 46.10400
H  6.25100 3.18400 43.09000
H  4.43900 3.61500 41.17500
H  3.06700 4.50100 43.56100
H  3.91100 5.28200 42.15600
H  4.82700 4.76500 43.71700
H  7.19200 1.39500 41.46700
H  6.78700 3.05000 40.77700
H  4.56500 1.22100 40.50800
H  6.01000 0.48800 39.75400
H  -1.51700 3.15500 40.78500
H  -0.24100 4.10900 41.48300
H  -1.96400 4.11600 42.10300
H  -3.26100 -0.33100 44.75100
H  -3.64800 -0.49700 43.00600
H  -4.64600 0.46800 44.08500
H  -0.34900 -4.01800 43.42200
H  0.49300 -4.49800 46.29300
H  -2.68000 -4.03200 44.17500
H  -2.31500 -2.94400 45.44700
H  -2.00100 -4.67300 45.59000
H  2.31500 -5.71900 44.34900
H  0.87200 -5.77900 43.59900
H  0.52200 -6.59700 46.39800
H  1.77600 -7.55800 45.51000
H  0.08200 -7.45000 44.97300
H  6.15200 -4.87900 45.80600
H  5.88900 -4.13300 47.31500
H  7.43300 -3.78800 46.38000
H  7.74300 -0.29000 43.08900
H  8.99800 2.22200 47.38200
H  9.03200 3.37900 46.01700
H  10.32300 2.10700 46.16900
Mg 34.49000 49.41000 25.47400
C  34.65800 47.63800 28.58000
C  33.17200 52.07800 27.18400
C  34.01000 50.74200 22.52100
C  34.98400 46.31900 23.83800
N  33.94200 49.75600 27.58800
C  34.23700 48.93400 28.71600
C  34.04300 49.65800 30.03400
C  33.38200 51.01500 29.58000
C  33.50600 50.97100 28.05800
C  31.95200 51.29600 30.10500
C  35.24200 49.79300 31.02600
C  35.05300 49.42600 32.53700
H  33.55500 49.58600 33.11700
N  33.75300 51.20100 24.95000
C  33.21900 52.16200 25.77700
C  32.71500 53.25000 24.96600
C  33.12200 52.96200 23.60500
C  33.68700 51.59200 23.67000
C  31.69000 54.20700 25.55200
C  32.83200 53.76500 22.32400
O  33.25300 53.43100 21.22300
C  31.89400 54.96800 22.44600
N  34.40200 48.60000 23.40600
C  34.24300 49.39400 22.35500
C  34.44800 48.73400 20.94600
C  34.79300 47.28700 21.47400
C  34.74300 47.38200 23.01500
C  33.28500 48.72500 19.92800
C  36.22800 46.93900 21.05900
C  37.47400 47.55900 21.78600
N  34.86300 47.37600 26.02900
C  35.01700 46.20600 25.26900
C  35.22000 45.08800 26.12300
C  35.07400 45.55400 27.41200
C  34.86900 46.95800 27.30400
C  35.60500 43.66800 25.65700
C  35.17000 45.21500 28.81700
O  35.35900 44.15100 29.40400
C  34.81000 46.51000 29.58700
C  33.51700 46.16100 30.33300
O  32.42700 46.15400 29.79000
O  33.75200 45.74500 31.62500
C  32.52800 45.61700 32.44500
H  32.78100 52.94600 27.71800
H  33.84600 51.30800 21.60100
H  35.18800 45.31200 23.46700
H  33.28300 49.00500 30.46300
H  33.97400 51.79400 30.06100
H  31.47100 50.36600 30.40600
H  31.26400 51.75700 29.39700
H  31.95200 51.86600 31.03400
H  35.55800 50.83600 31.03200
H  36.00100 49.15600 30.57200
H  35.64900 50.14100 33.10400
H  35.47100 48.47800 32.87500
H  30.82400 54.47800 24.94900
H  32.13400 55.13200 25.92100
H  31.24200 53.79300 26.45500
H  32.26700 55.60600 23.24700
H  30.89100 54.55700 22.56500
H  32.01600 55.52200 21.51600
H  35.30000 49.15600 20.41300
H  34.10000 46.46800 21.28000
H  32.36500 49.05800 20.40700
H  33.25900 47.73100 19.48100
H  33.51700 49.31400 19.04100
H  36.42500 47.14600 20.00700
H  36.18200 45.85800 21.18500
H  37.27500 48.61200 21.98600
H  38.32100 47.51600 21.10200
H  37.69500 47.02600 22.71100
H  36.45300 43.30500 26.23800
H  35.87200 43.61900 24.60100
H  34.80300 42.97400 25.90900
H  35.51900 46.62900 30.40600
H  32.24200 44.56500 32.46900
H  31.70000 46.25300 32.13300
H  32.77100 45.87500 33.47600

