158

Mg 49.28700 47.09700 42.41700
C  46.09400 47.87900 41.65500
C  48.93100 43.99000 41.21400
C  52.81000 46.51000 42.65800
C  50.01500 50.45600 43.15100
N  47.66100 46.15400 41.34800
C  46.43000 46.55600 41.27000
C  45.56000 45.45100 40.61000
C  46.52500 44.18600 40.62500
C  47.75300 44.76700 41.19200
C  46.05300 42.90800 41.26900
C  45.11900 45.95200 39.10800
C  43.59500 45.82100 38.79800
H  43.13500 45.51900 37.36200
N  50.61600 45.41200 42.05100
C  50.19700 44.23400 41.69900
C  51.35100 43.31400 41.69000
C  52.45300 44.00700 42.22000
C  52.00100 45.35200 42.24400
C  51.28700 41.90100 41.16400
C  53.75500 43.39400 42.43400
O  53.90500 42.15500 42.39400
C  55.00100 44.16200 42.76200
N  51.14500 48.29700 42.46700
C  52.39300 47.79300 42.69900
C  53.39100 48.93300 42.95000
C  52.47300 50.21600 43.13000
C  51.12900 49.60800 42.95000
C  54.36900 48.81100 44.13400
C  52.69900 51.41100 42.11200
C  53.66800 52.60800 42.52700
N  48.22800 48.85600 42.61400
C  48.61700 50.12000 43.03100
C  47.38800 50.93500 43.06600
C  46.39900 50.08300 42.51400
C  46.95800 48.88700 42.22900
C  47.21500 52.37400 43.39400
C  45.06000 50.02300 42.11600
O  44.24600 50.92400 42.25200
C  44.80200 48.60600 41.41900
C  43.70000 47.90800 42.10100
O  43.59600 47.81100 43.33400
O  42.79900 47.48400 41.16200
C  41.61600 46.84900 41.70900
H  48.83400 43.02900 40.70500
H  53.86500 46.36700 42.90200
H  50.20600 51.49700 43.41800
H  44.70600 45.23000 41.25000
H  46.77400 43.94800 39.59100
H  46.57000 42.74300 42.21400
H  46.34400 42.07600 40.62700
H  44.97900 42.88300 41.45100
H  45.63600 45.41300 38.31400
H  45.31000 47.01800 38.98400
H  43.10000 46.77400 38.98200
H  43.22700 45.07100 39.49800
H  51.39600 41.21800 42.00700
H  51.97500 41.82100 40.32200
H  50.28800 41.67800 40.79000
H  55.17700 44.86300 41.94600
H  55.88600 43.52600 42.73300
H  54.98000 44.72100 43.69700
H  54.00900 49.18100 42.08800
H  52.51100 50.64200 44.13300
H  54.29300 47.79700 44.52800
H  54.09900 49.54500 44.89300
H  55.43000 49.01600 43.99300
H  51.74400 51.83000 41.79500
H  53.19500 51.07400 41.20200
H  54.00200 52.44600 43.55100
H  53.10200 53.53600 42.60400
H  54.56400 52.71300 41.91600
H  47.97700 52.72500 44.09000
H  46.23100 52.38900 43.86200
H  47.13700 53.07100 42.55900
H  44.72400 48.57700 40.33200
H  41.20900 47.40400 42.55400
H  41.84300 45.80900 41.94200
H  40.92200 46.90700 40.87000
Mg 42.04400 41.64700 26.27300
C  41.06000 44.05700 28.56900
C  42.76400 39.42000 28.91800
C  43.29500 39.39000 24.01000
C  42.08600 44.05200 23.77300
N  42.04400 41.77500 28.51700
C  41.40900 42.79300 29.18300
C  41.35000 42.51300 30.66400
C  41.89500 41.01300 30.80900
C  42.25800 40.67200 29.31300
C  43.15700 40.81800 31.69100
C  39.88200 42.72600 31.35300
C  39.68900 41.92600 32.69100
H  38.87200 42.61500 33.80800
N  42.80600 39.63400 26.40100
C  43.05800 38.95600 27.58800
C  43.68300 37.68500 27.26100
C  43.78000 37.63200 25.84900
C  43.36200 38.91600 25.36200
C  44.03600 36.61600 28.28600
C  44.17200 36.47200 24.94500
O  44.32500 36.54400 23.72400
C  44.50900 35.11700 25.48600
N  42.67500 41.67900 24.19900
C  43.08400 40.60700 23.48000
C  43.29800 40.97300 21.98200
C  42.81900 42.50700 21.95100
C  42.48600 42.80200 23.40000
C  44.79600 40.72500 21.48600
C  41.58400 42.64100 20.91900
C  41.51000 44.04100 20.20300
N  41.63800 43.67100 26.13800
C  41.60900 44.43200 25.01900
C  40.91700 45.72500 25.39600
C  40.78900 45.61800 26.80000
C  41.15500 44.34000 27.19900
C  40.51600 46.70700 24.41400
C  40.30400 46.31600 27.99000
O  39.77300 47.39100 28.05800
C  40.50500 45.30700 29.21000
C  41.43300 45.94000 30.15700
O  42.62900 46.14100 29.90200
O  40.80400 46.13000 31.36900
C  41.55700 46.73100 32.49400
H  42.76900 38.64700 29.68900
H  43.55400 38.60600 23.29500
H  42.05100 44.83800 23.01600
H  42.07300 43.17400 31.14200
H  41.14200 40.25500 31.02300
H  43.95700 41.25100 31.09000
H  43.28500 39.74900 31.85900
H  43.04100 41.40200 32.60400
H  39.13400 42.48500 30.59800
H  39.70600 43.76900 31.61600
H  40.60500 41.81300 33.27100
H  39.19800 41.00300 32.38200
H  44.07300 36.99200 29.30800
H  45.05700 36.34100 28.02200
H  43.33700 35.78200 28.22400
H  43.63100 34.92500 26.10300
H  45.43500 35.21300 26.05300
H  44.68700 34.35500 24.72700
H  42.62700 40.27400 21.48100
H  43.63500 43.19100 21.71600
H  45.47900 40.60800 22.32800
H  45.26800 41.52700 20.91700
H  44.89400 39.96500 20.71200
H  40.65900 42.47800 21.47200
H  41.67800 41.86900 20.15500
H  40.46900 44.36500 20.21700
H  41.96800 43.99800 19.21500
H  42.15700 44.70300 20.77700
H  39.60700 47.23500 24.70000
H  40.11200 46.24600 23.51300
H  41.34900 47.38600 24.23000
H  39.54500 45.07600 29.67200
H  42.59300 47.06500 32.43500
H  41.61400 45.98800 33.28800
H  40.86500 47.43900 32.95000

