158

Mg 54.64900 24.58600 45.02100
C  51.83000 26.47900 44.03300
C  52.91800 21.80900 43.77400
C  57.47100 22.73200 45.16900
C  56.36600 27.41900 45.76700
N  52.68600 24.26200 43.91600
C  51.64100 25.13900 43.69400
C  50.36900 24.45200 43.18900
C  50.72500 22.92600 43.45600
C  52.26700 23.04000 43.67600
C  49.86100 22.28600 44.54600
C  50.00900 24.76400 41.73100
C  48.53000 24.67400 41.52700
H  48.17800 24.38400 40.09200
N  55.18400 22.52300 44.63800
C  54.23900 21.54800 44.17200
C  54.86600 20.29500 44.18000
C  56.27700 20.45200 44.43000
C  56.36300 21.93900 44.81800
C  54.06800 19.04000 44.03400
C  57.27500 19.43300 44.40300
O  57.04500 18.35000 43.92500
C  58.65600 19.71200 44.93400
N  56.62300 25.05400 45.19900
C  57.63500 24.13100 45.33400
C  59.00800 24.76100 45.72600
C  58.56800 26.20900 46.03800
C  57.07200 26.26600 45.61600
C  59.69400 23.95900 46.93300
C  59.38600 27.25700 45.20600
C  59.94500 28.40200 46.05600
N  54.17200 26.53700 45.16600
C  54.96400 27.59600 45.50100
C  54.15800 28.81200 45.58000
C  52.90500 28.36700 45.06100
C  52.96600 27.01100 44.74900
C  54.65000 30.11900 45.96900
C  51.60700 28.90200 44.61300
O  51.23400 30.06800 44.61300
C  50.94100 27.68000 43.90800
C  50.70800 28.13600 42.53700
O  51.57400 28.32200 41.66100
O  49.38000 28.44400 42.36200
C  48.98900 28.93200 41.06000
H  52.27900 20.93900 43.61300
H  58.44600 22.24800 45.25300
H  56.99500 28.30800 45.84400
H  49.47200 24.85200 43.66200
H  50.70500 22.36600 42.52000
H  49.37100 21.45000 44.04700
H  49.03000 22.84900 44.97200
H  50.54100 21.98000 45.34100
H  50.48800 23.96200 41.16900
H  50.25100 25.78700 41.44400
H  48.28100 25.71700 41.72600
H  48.01700 24.03300 42.24300
H  53.44100 19.02000 43.14300
H  53.29400 18.98800 44.79900
H  54.55800 18.07500 44.16600
H  59.05500 20.46000 44.24900
H  59.13300 18.73200 44.90600
H  58.63100 20.07200 45.96300
H  59.55100 24.70100 44.78300
H  58.63900 26.28000 47.12400
H  60.58200 23.46300 46.54200
H  58.96800 23.26700 47.36000
H  60.07500 24.60100 47.72700
H  58.73400 27.83100 44.54700
H  60.11600 26.76400 44.56400
H  59.66900 28.26200 47.10100
H  59.63900 29.38800 45.70800
H  61.02500 28.29300 45.96300
H  55.65200 30.30200 45.57900
H  54.67800 30.24800 47.05100
H  54.01700 30.90800 45.56200
H  49.96600 27.43700 44.33000
H  48.09900 29.55300 40.95700
H  48.71200 28.02600 40.52000
H  49.81500 29.32800 40.46900
Mg 35.43400 48.59200 26.15800
C  36.17200 46.42700 28.90600
C  34.06400 50.89000 28.28600
C  34.34100 50.34000 23.33200
C  36.16700 45.76000 24.04000
N  35.09900 48.57500 28.31900
C  35.58500 47.67800 29.26400
C  35.43600 48.23000 30.69900
C  34.55200 49.56300 30.45600
C  34.58100 49.71500 28.92300
C  33.12200 49.63300 31.05800
C  36.82300 48.55400 31.17800
C  37.22800 48.14200 32.56500
H  37.16900 49.18500 33.66300
N  34.49900 50.35800 25.86300
C  34.02300 51.19900 26.88300
C  33.47400 52.40500 26.35400
C  33.73200 52.36300 24.90100
C  34.26600 50.93200 24.64400
C  32.75700 53.43900 27.22700
C  33.63800 53.46900 23.87600
O  33.90100 53.39100 22.69300
C  33.17700 54.83200 24.30700
N  35.10100 48.03400 23.97200
C  34.80000 49.04000 23.10000
C  34.82300 48.44700 21.72800
C  35.74000 47.18000 21.87200
C  35.70600 46.93900 23.35200
C  33.46100 48.22600 21.10900
C  37.25600 47.22800 21.45700
C  37.57300 46.06000 20.56100
N  36.02100 46.50500 26.38600
C  36.34000 45.53800 25.42000
C  36.82500 44.33700 26.09700
C  36.77500 44.67800 27.43600
C  36.26600 45.95200 27.60700
C  37.25500 42.97400 25.47400
C  37.04700 44.12500 28.77800
O  37.44300 43.08800 29.20200
C  36.72500 45.26800 29.74000
C  35.86500 44.75200 30.81000
O  34.72100 44.38600 30.64000
O  36.54100 44.70300 32.00800
C  35.82800 44.23200 33.17900
H  33.71100 51.68200 28.95000
H  34.07800 50.91000 22.43800
H  36.58600 44.96500 23.42000
H  34.92100 47.53100 31.35800
H  35.12200 50.37600 30.90400
H  33.02300 48.78300 31.73300
H  32.37800 49.47100 30.27800
H  32.86000 50.60400 31.47900
H  36.99000 49.62800 31.26400
H  37.58100 48.11200 30.53100
H  38.22900 47.70900 32.57600
H  36.47300 47.41000 32.85100
H  32.07100 53.07500 27.99100
H  32.20200 54.01200 26.48400
H  33.48700 54.15200 27.61000
H  33.57900 55.20200 25.25000
H  32.09200 54.79400 24.40400
H  33.28500 55.63400 23.57600
H  35.35700 49.19600 21.14400
H  35.20000 46.32700 21.46200
H  33.16700 47.18000 21.01800
H  33.46900 48.58900 20.08100
H  32.66100 48.73900 21.64300
H  37.96800 47.20300 22.28200
H  37.50500 48.12500 20.89100
H  37.25000 46.36400 19.56500
H  37.00500 45.15700 20.78300
H  38.60700 45.72200 20.63700
H  37.53200 43.10700 24.42900
H  36.54900 42.16500 25.66000
H  38.17000 42.60800 25.94000
H  37.63700 45.61200 30.22900
H  36.01200 44.91800 34.00500
H  36.25200 43.29700 33.54700
H  34.77000 44.07000 32.97600

