158

Mg 41.78100 40.98700 26.03500
C  41.21600 43.25700 28.77200
C  43.27000 38.88100 28.22800
C  42.21100 38.91500 23.51400
C  40.55800 43.46400 23.91700
N  42.08600 41.13500 28.19200
C  41.81900 42.10200 29.14800
C  42.20300 41.73400 30.60600
C  42.97400 40.42600 30.36100
C  42.77400 40.08100 28.78300
C  44.52900 40.62500 30.63300
C  40.96700 41.53100 31.60700
C  41.50800 41.23300 33.01900
H  40.52000 41.47100 34.12300
N  42.63600 39.09600 25.89000
C  43.23900 38.33400 26.89100
C  43.65000 37.08200 26.34400
C  43.23000 37.06100 25.01400
C  42.68500 38.40400 24.72700
C  44.37200 36.10900 27.16900
C  43.34400 35.88900 24.01300
O  42.99000 35.99000 22.84500
C  43.76200 34.57400 24.45800
N  41.51900 41.19700 24.07600
C  41.65400 40.14600 23.19600
C  41.30800 40.53800 21.73700
C  40.61100 41.87900 21.98700
C  40.91000 42.21800 23.42800
C  42.48400 40.48900 20.69000
C  39.15600 41.90700 21.76200
C  38.24400 40.99300 22.51200
N  41.03800 42.99900 26.21500
C  40.58000 43.84300 25.23700
C  40.16600 45.07400 25.86200
C  40.39300 44.90000 27.27800
C  40.89000 43.59300 27.39600
C  39.72200 46.31600 25.24300
C  40.35100 45.56600 28.59600
O  39.97200 46.64100 29.00400
C  40.81900 44.47500 29.59500
C  41.87500 44.99300 30.45800
O  43.02500 44.97900 30.12400
O  41.37900 45.50300 31.62400
C  42.27700 45.80700 32.74400
H  43.80200 38.26300 28.95500
H  42.37200 38.26700 22.65100
H  40.14900 44.24700 23.27500
H  42.80200 42.51200 31.07900
H  42.57900 39.57700 30.91900
H  44.88300 41.65600 30.60100
H  45.14000 40.01200 29.97000
H  44.77200 40.23700 31.62200
H  40.30000 40.72800 31.29400
H  40.27900 42.37600 31.65400
H  42.46100 41.72300 33.21600
H  41.72800 40.16500 33.03300
H  44.57000 36.62100 28.11100
H  45.23900 35.76700 26.60400
H  43.75000 35.24100 27.38700
H  43.68400 33.89000 23.61300
H  43.11000 34.24200 25.26600
H  44.78600 34.41900 24.79700
H  40.59200 39.75600 21.48900
H  41.16800 42.58500 21.37200
H  43.38400 40.07600 21.14500
H  42.72100 41.50800 20.38300
H  42.24400 39.94000 19.77900
H  39.07200 41.84100 20.67800
H  38.88100 42.94400 21.95300
H  37.30700 41.47900 22.78200
H  38.59400 40.40200 23.35900
H  37.89000 40.30400 21.74500
H  40.00100 46.25400 24.19200
H  40.25900 47.11600 25.75300
H  38.69400 46.62400 25.43400
H  39.96000 44.22600 30.21900
H  42.60700 44.82800 33.09100
H  41.80200 46.31600 33.58300
H  43.08700 46.40600 32.32800
Mg 35.43400 48.59200 26.15800
C  36.17200 46.42700 28.90600
C  34.06400 50.89000 28.28600
C  34.34100 50.34000 23.33200
C  36.16700 45.76000 24.04000
N  35.09900 48.57500 28.31900
C  35.58500 47.67800 29.26400
C  35.43600 48.23000 30.69900
C  34.55200 49.56300 30.45600
C  34.58100 49.71500 28.92300
C  33.12200 49.63300 31.05800
C  36.82300 48.55400 31.17800
C  37.22800 48.14200 32.56500
H  37.16900 49.18500 33.66300
N  34.49900 50.35800 25.86300
C  34.02300 51.19900 26.88300
C  33.47400 52.40500 26.35400
C  33.73200 52.36300 24.90100
C  34.26600 50.93200 24.64400
C  32.75700 53.43900 27.22700
C  33.63800 53.46900 23.87600
O  33.90100 53.39100 22.69300
C  33.17700 54.83200 24.30700
N  35.10100 48.03400 23.97200
C  34.80000 49.04000 23.10000
C  34.82300 48.44700 21.72800
C  35.74000 47.18000 21.87200
C  35.70600 46.93900 23.35200
C  33.46100 48.22600 21.10900
C  37.25600 47.22800 21.45700
C  37.57300 46.06000 20.56100
N  36.02100 46.50500 26.38600
C  36.34000 45.53800 25.42000
C  36.82500 44.33700 26.09700
C  36.77500 44.67800 27.43600
C  36.26600 45.95200 27.60700
C  37.25500 42.97400 25.47400
C  37.04700 44.12500 28.77800
O  37.44300 43.08800 29.20200
C  36.72500 45.26800 29.74000
C  35.86500 44.75200 30.81000
O  34.72100 44.38600 30.64000
O  36.54100 44.70300 32.00800
C  35.82800 44.23200 33.17900
H  33.71100 51.68200 28.95000
H  34.07800 50.91000 22.43800
H  36.58600 44.96500 23.42000
H  34.92100 47.53100 31.35800
H  35.12200 50.37600 30.90400
H  33.02300 48.78300 31.73300
H  32.37800 49.47100 30.27800
H  32.86000 50.60400 31.47900
H  36.99000 49.62800 31.26400
H  37.58100 48.11200 30.53100
H  38.22900 47.70900 32.57600
H  36.47300 47.41000 32.85100
H  32.07100 53.07500 27.99100
H  32.20200 54.01200 26.48400
H  33.48700 54.15200 27.61000
H  33.57900 55.20200 25.25000
H  32.09200 54.79400 24.40400
H  33.28500 55.63400 23.57600
H  35.35700 49.19600 21.14400
H  35.20000 46.32700 21.46200
H  33.16700 47.18000 21.01800
H  33.46900 48.58900 20.08100
H  32.66100 48.73900 21.64300
H  37.96800 47.20300 22.28200
H  37.50500 48.12500 20.89100
H  37.25000 46.36400 19.56500
H  37.00500 45.15700 20.78300
H  38.60700 45.72200 20.63700
H  37.53200 43.10700 24.42900
H  36.54900 42.16500 25.66000
H  38.17000 42.60800 25.94000
H  37.63700 45.61200 30.22900
H  36.01200 44.91800 34.00500
H  36.25200 43.29700 33.54700
H  34.77000 44.07000 32.97600

