158

Mg 42.17600 40.83900 27.10900
C  41.59700 43.09000 29.63200
C  42.77500 38.48600 29.48500
C  42.72000 38.60900 24.57500
C  41.98200 43.31900 24.71100
N  42.31800 40.87400 29.32700
C  41.92100 41.83700 30.16400
C  41.98100 41.41400 31.62200
C  42.76000 40.08500 31.52300
C  42.56000 39.73200 30.01200
C  44.23100 39.95100 32.12600
C  40.58200 41.34500 32.24700
C  40.27200 42.36000 33.40700
H  39.81000 41.85900 34.79100
N  42.56900 38.80700 27.05500
C  42.78100 38.00600 28.15700
C  43.10700 36.65000 27.67300
C  42.97700 36.61200 26.27200
C  42.68200 38.04900 25.91300
C  43.34000 35.42200 28.67300
C  43.11700 35.47800 25.30500
O  43.00800 35.70500 24.09900
C  43.40300 34.05700 25.81900
N  42.24500 40.93000 24.85400
C  42.56700 39.84500 24.10100
C  42.66900 40.28000 22.64100
C  42.55100 41.82000 22.67900
C  42.17400 42.05300 24.16800
C  43.86400 39.67700 21.85200
C  41.52000 42.43300 21.66400
C  40.09000 42.65000 22.18100
N  41.95700 42.84300 27.10000
C  41.81000 43.72200 26.06800
C  41.45900 45.02200 26.61200
C  41.24100 44.74600 27.97300
C  41.63800 43.47100 28.19800
C  41.22800 46.24900 25.85000
C  40.92700 45.46400 29.23700
O  40.59300 46.64600 29.51800
C  40.94000 44.32200 30.34700
C  41.97500 44.76800 31.30000
O  43.18400 44.67200 31.18100
O  41.41300 45.38700 32.35500
C  42.22500 46.00300 33.38800
H  43.02900 37.77500 30.27400
H  43.02400 37.95500 23.75500
H  42.01500 44.10500 23.95300
H  42.60000 42.01600 32.28700
H  42.16500 39.38000 32.10400
H  44.85600 39.60200 31.30400
H  44.11100 39.27400 32.97200
H  44.71000 40.86100 32.48900
H  40.42000 40.34500 32.65000
H  39.86300 41.46200 31.43700
H  39.40600 42.94400 33.09500
H  41.10300 43.05900 33.49000
H  43.42100 35.77800 29.70000
H  44.29500 34.91100 28.55800
H  42.52400 34.71600 28.51500
H  42.49000 33.71800 26.30800
H  44.25700 34.01200 26.49400
H  43.55300 33.40100 24.96100
H  41.77700 40.01700 22.07300
H  43.49700 42.34400 22.54700
H  44.42900 40.48200 21.38300
H  43.65700 38.99400 21.02800
H  44.60000 39.20600 22.50400
H  41.55300 41.69100 20.86600
H  42.03000 43.32500 21.30000
H  39.49900 42.24200 21.36100
H  39.94800 43.71400 22.37100
H  39.76000 42.10700 23.06700
H  41.97400 46.99300 26.12900
H  40.29400 46.70600 26.17600
H  41.22700 46.05800 24.77700
H  39.93600 44.10600 30.71300
H  42.30800 45.19400 34.11400
H  41.71600 46.84900 33.84900
H  43.19800 46.25300 32.96400
Mg -1.98400 35.82800 27.09600
C  -4.05000 34.03300 29.29600
C  -1.38700 38.09000 29.68200
C  0.05800 37.60300 25.18100
C  -3.33600 34.13100 24.39300
N  -2.63200 36.01900 29.24700
C  -3.36800 35.11100 29.91700
C  -3.37700 35.40000 31.43300
C  -2.70100 36.83000 31.45800
C  -2.20300 37.01600 30.05100
C  -3.63200 37.96800 32.01200
C  -2.81100 34.27400 32.32700
C  -2.10700 34.69400 33.69300
H  -2.43900 33.77800 34.94200
N  -0.82200 37.62000 27.43200
C  -0.63500 38.31400 28.56500
C  0.33500 39.39400 28.37300
C  0.75700 39.25200 27.01500
C  -0.01600 38.14400 26.45300
C  0.80100 40.37600 29.43700
C  1.72000 40.12100 26.20000
O  1.93800 39.91000 25.04900
C  2.68800 41.14000 26.86500
N  -1.80800 35.93800 24.97500
C  -0.76800 36.65300 24.45100
C  -0.63200 36.34600 22.97600
C  -1.49200 35.03600 22.78300
C  -2.30200 35.01800 24.10200
C  -1.03800 37.67600 22.11000
C  -0.70500 33.75200 22.71100
C  -1.39700 32.69300 21.73200
N  -3.45700 34.40300 26.86200
C  -3.91500 33.83700 25.70500
C  -4.91400 32.85400 26.04600
C  -4.98300 32.93700 27.41300
C  -4.07500 33.83200 27.84500
C  -5.53700 31.74800 25.24400
C  -5.58400 32.25900 28.66100
O  -6.27700 31.23200 28.82300
C  -5.05800 33.08800 29.89000
C  -6.22700 33.77200 30.43400
O  -7.03700 34.52500 29.84000
O  -6.40800 33.52600 31.77400
C  -7.51300 34.09300 32.62300
H  -1.29500 38.80600 30.50100
H  0.94100 37.90800 24.61600
H  -3.84000 33.66600 23.54200
H  -4.39700 35.57000 31.77700
H  -1.81200 36.80100 32.08800
H  -3.00100 38.85700 32.02200
H  -3.98500 37.79300 33.02800
H  -4.53000 38.02800 31.39700
H  -2.17500 33.63800 31.71200
H  -3.68300 33.65800 32.54500
H  -2.44800 35.71400 33.87100
H  -1.04400 34.62400 33.46400
H  1.69600 39.98000 29.91800
H  -0.04300 40.60200 30.08900
H  0.93600 41.32600 28.92000
H  3.50200 41.48900 26.22800
H  3.18000 40.78600 27.77100
H  2.18600 42.07400 27.11500
H  0.40600 36.11400 22.73700
H  -2.10900 35.20400 21.90000
H  -1.77000 37.52500 21.31600
H  -0.06700 38.02900 21.76300
H  -1.46600 38.45600 22.73900
H  -0.45700 33.35100 23.69400
H  0.29500 33.97000 22.33600
H  -0.80400 32.46000 20.84800
H  -2.25300 33.15600 21.24000
H  -1.59200 31.72500 22.19400
H  -4.75200 31.41500 24.56500
H  -6.35600 32.17600 24.66600
H  -5.82200 30.96100 25.94200
H  -4.57800 32.44800 30.63100
H  -8.47000 33.67900 32.30700
H  -7.55700 35.18200 32.63800
H  -7.34200 33.90400 33.68200

