158

Mg -2.55600 16.99200 27.10800
C  -3.19800 14.65900 29.73000
C  -2.71300 19.39600 29.45500
C  -2.27300 19.27000 24.64400
C  -2.53900 14.41900 24.80700
N  -3.04100 16.94200 29.39300
C  -3.23100 15.95000 30.29000
C  -3.27100 16.42100 31.75300
C  -3.26600 18.04400 31.48100
C  -2.98500 18.14500 30.00100
C  -4.35600 18.92800 32.14300
C  -2.18800 15.86900 32.77300
C  -2.09000 16.88500 33.93500
H  -1.63900 16.29000 35.26400
N  -2.50900 19.06300 27.10400
C  -2.45900 19.88100 28.18900
C  -2.25700 21.27400 27.70900
C  -2.05200 21.22900 26.32000
C  -2.29100 19.81200 25.97200
C  -2.23000 22.45700 28.73800
C  -1.56400 22.31100 25.46100
O  -1.72800 22.34400 24.25900
C  -1.04800 23.51100 26.00900
N  -2.62500 16.83600 25.03200
C  -2.36200 17.92800 24.25100
C  -2.22700 17.56600 22.79800
C  -2.12400 16.01200 22.87000
C  -2.44600 15.70400 24.30800
C  -3.35800 18.17900 21.91600
C  -0.80300 15.47100 22.31400
C  0.45600 15.58700 23.18800
N  -2.87000 15.03100 27.18600
C  -2.81600 14.13000 26.15300
C  -3.15400 12.82400 26.64600
C  -3.20000 12.96700 28.03400
C  -3.06700 14.35500 28.34200
C  -3.00900 11.49800 25.89900
C  -3.16500 12.17000 29.25900
O  -3.10400 11.00300 29.42100
C  -3.43300 13.28800 30.35800
C  -2.38900 13.04800 31.38900
O  -1.19000 13.27500 31.19900
O  -2.87200 12.53300 32.56900
C  -1.85700 12.32700 33.63600
H  -2.91700 20.21700 30.14600
H  -2.07800 19.98800 23.84500
H  -2.45200 13.58400 24.10900
H  -4.29900 16.21300 32.05100
H  -2.26800 18.42200 31.70100
H  -4.86500 19.48500 31.35600
H  -3.90500 19.54600 32.91900
H  -5.13800 18.35900 32.64500
H  -1.24000 15.96900 32.24500
H  -2.26200 14.86800 33.19800
H  -3.05900 17.32500 34.17400
H  -1.32900 17.59100 33.60400
H  -2.74200 23.28300 28.24500
H  -1.21000 22.82200 28.85400
H  -2.68700 22.10800 29.66500
H  -1.74900 24.14200 26.55500
H  -0.77100 24.13100 25.15700
H  -0.16800 23.34400 26.63100
H  -1.29700 18.00100 22.43100
H  -2.93300 15.60600 22.26300
H  -3.84400 18.97400 22.48000
H  -3.99100 17.39300 21.50100
H  -2.82500 18.54200 21.03700
H  -0.65600 15.93700 21.33900
H  -0.93900 14.41500 22.08100
H  0.34700 16.21100 24.07500
H  1.24000 16.05100 22.59000
H  0.89200 14.61900 23.43800
H  -2.75400 11.68900 24.85600
H  -3.91400 10.92100 26.08200
H  -2.18700 10.99400 26.40700
H  -4.43300 13.24200 30.78900
H  -2.29700 11.43900 34.09000
H  -1.85300 13.07000 34.43400
H  -0.84300 12.01700 33.38400
Mg 23.67500 -5.67400 45.88500
C  25.73900 -3.35900 44.11600
C  21.13200 -4.90300 43.59500
C  21.82500 -8.10300 47.18700
C  26.36600 -6.60600 47.86500
N  23.50500 -4.27200 44.06300
C  24.42000 -3.42200 43.59700
C  23.87100 -2.65000 42.35800
C  22.30500 -2.88200 42.53000
C  22.29900 -4.14400 43.40400
C  21.60500 -1.74400 43.32800
C  24.49200 -3.01400 40.97400
C  24.98500 -1.81300 40.17900
H  24.80000 -1.88700 38.59100
N  21.69600 -6.43000 45.44100
C  20.81900 -5.93900 44.48100
C  19.55100 -6.58900 44.70000
C  19.76200 -7.66900 45.55500
C  21.14100 -7.41900 46.13000
C  18.34800 -6.07800 43.93700
C  18.75200 -8.71700 45.96600
O  17.70200 -8.63900 45.36100
C  18.93000 -9.70000 47.05300
N  24.10200 -7.25400 47.23900
C  23.06800 -8.05700 47.72000
C  23.58600 -9.05300 48.75000
C  24.91700 -8.38700 49.24000
C  25.18500 -7.38800 48.05600
C  22.60600 -9.44000 49.89800
C  26.07400 -9.41200 49.54600
C  26.44600 -9.68800 50.97300
N  25.68000 -5.10400 46.02600
C  26.63000 -5.49200 46.93400
C  27.89000 -4.88200 46.62700
C  27.49500 -3.92400 45.64100
C  26.22100 -4.13300 45.26000
C  29.32800 -5.11200 47.26500
C  28.01600 -2.84600 44.83000
O  29.16400 -2.32000 44.82400
C  26.84500 -2.44500 43.78400
C  26.48000 -0.99400 44.01300
O  26.55900 -0.39700 45.08600
O  26.16300 -0.38700 42.90100
C  26.00400 1.04900 42.80400
H  20.34600 -4.57600 42.91100
H  21.17000 -8.87600 47.59400
H  27.21400 -6.58700 48.55300
H  24.08300 -1.62800 42.67300
H  21.74600 -3.00100 41.60200
H  22.31400 -0.93600 43.51100
H  21.30100 -2.14700 44.29400
H  20.81100 -1.23800 42.78100
H  23.70900 -3.53000 40.41800
H  25.30500 -3.73100 41.08900
H  25.94100 -1.38300 40.47900
H  24.29700 -1.02100 40.47100
H  17.96600 -5.35100 44.65400
H  17.59000 -6.84400 43.77700
H  18.57700 -5.72700 42.93100
H  18.14800 -10.45800 47.09100
H  19.04700 -9.19700 48.01300
H  19.81800 -10.30700 46.87700
H  23.77600 -9.92400 48.12300
H  24.75800 -7.88000 50.19100
H  21.62900 -8.95900 49.85700
H  23.04300 -9.26800 50.88200
H  22.49900 -10.49500 49.64700
H  27.04900 -9.13700 49.14500
H  25.80100 -10.29500 48.96800
H  27.29300 -9.12400 51.36300
H  26.65500 -10.74000 51.16600
H  25.49400 -9.48500 51.46400
H  29.59500 -6.14300 47.03200
H  29.20700 -4.94300 48.33500
H  30.11400 -4.47000 46.86700
H  27.27200 -2.53400 42.78500
H  26.01800 1.59100 43.75000
H  24.96000 1.21100 42.53700
H  26.50900 1.49700 41.94900

