158

Mg -12.23100 37.49900 41.96200
C  -9.87300 34.86500 41.39700
C  -10.01900 39.62600 40.46100
C  -14.59000 39.78600 42.10700
C  -14.42500 34.98500 43.09200
N  -10.30800 37.21100 40.87400
C  -9.49100 36.15200 40.81800
C  -8.20400 36.44100 40.07400
C  -8.11400 38.00700 40.16000
C  -9.56900 38.29500 40.47300
C  -7.09800 38.60100 41.13900
C  -8.38500 35.94900 38.60100
C  -7.08000 35.25500 38.09100
H  -6.21200 36.02200 37.10700
N  -12.27100 39.45300 41.43700
C  -11.28900 40.17200 40.89600
C  -11.66400 41.52300 40.79000
C  -12.99900 41.63100 41.21400
C  -13.35700 40.24900 41.63600
C  -10.84800 42.69700 40.29800
C  -13.89300 42.91300 41.21700
O  -13.55700 44.00000 40.76100
C  -15.22900 42.83500 41.84000
N  -14.29000 37.37400 42.38500
C  -15.02300 38.49600 42.46000
C  -16.50300 38.11300 42.84500
C  -16.34100 36.58400 43.28300
C  -14.96600 36.28500 42.76800
C  -17.08900 39.02000 43.92700
C  -17.43800 35.59400 42.62100
C  -18.12700 34.69700 43.58700
N  -12.30000 35.29600 42.17000
C  -13.27100 34.45300 42.69000
C  -12.72700 33.16000 42.84100
C  -11.41700 33.19600 42.34100
C  -11.16900 34.58200 42.00400
C  -13.56900 31.92400 43.34600
C  -10.17800 32.47000 41.94800
O  -9.80900 31.31500 42.03500
C  -9.09900 33.55700 41.46800
C  -8.16100 33.63100 42.62900
O  -8.52600 34.01800 43.74700
O  -6.93600 33.18600 42.26400
C  -6.04500 32.96100 43.41700
H  -9.22700 40.26400 40.06500
H  -15.46900 40.43300 42.11800
H  -15.08100 34.27400 43.60000
H  -7.36000 35.99800 40.60300
H  -7.83600 38.44500 39.20200
H  -7.58700 39.50900 41.49300
H  -6.23100 38.88800 40.54500
H  -6.92800 37.86300 41.92300
H  -8.58400 36.82800 37.98800
H  -9.25000 35.28700 38.66200
H  -7.38300 34.35300 37.55900
H  -6.43600 34.95800 38.91900
H  -11.47300 43.19700 39.55800
H  -9.87700 42.34800 39.94700
H  -10.60900 43.48300 41.01500
H  -15.85700 42.37600 41.07700
H  -15.44600 43.90100 41.91100
H  -15.25000 42.33200 42.80700
H  -17.14700 38.16300 41.96700
H  -16.23700 36.48000 44.36300
H  -17.71900 39.78600 43.47400
H  -16.28100 39.46000 44.51300
H  -17.72000 38.38600 44.54900
H  -16.92500 34.94300 41.91300
H  -18.06600 36.22200 41.99000
H  -17.85600 33.66800 43.35000
H  -19.17700 34.98600 43.53300
H  -17.87900 35.01800 44.59800
H  -14.38000 31.63000 42.68000
H  -13.86700 31.95400 44.39400
H  -12.96600 31.01600 43.31700
H  -8.52900 33.38900 40.55400
H  -6.61200 32.36200 44.13100
H  -5.69500 33.94500 43.72700
H  -5.11300 32.44900 43.17900
Mg -11.83900 16.73100 41.68000
C  -8.15900 16.33000 41.39700
C  -11.23500 20.02700 40.91400
C  -14.99200 16.89000 41.01300
C  -12.01800 13.14900 41.67700
N  -9.88100 17.95800 41.12900
C  -8.55900 17.64900 41.23900
C  -7.70200 18.91100 41.08800
C  -8.69600 20.07100 41.35100
C  -10.04100 19.30500 41.22000
C  -8.38100 20.74200 42.67800
C  -7.07100 19.02900 39.61800
C  -5.52100 18.82000 39.49400
H  -5.13800 17.92600 38.34200
N  -12.93100 18.35800 41.12800
C  -12.51000 19.59900 40.78900
C  -13.70500 20.37500 40.45100
C  -14.87600 19.54800 40.53100
C  -14.34700 18.20700 40.88700
C  -13.68100 21.87900 40.19100
C  -16.29400 19.94500 40.35500
O  -16.58600 21.10700 40.08500
C  -17.40000 18.95700 40.54500
N  -13.31800 15.21500 41.42900
C  -14.52200 15.59300 41.32900
C  -15.52900 14.38600 41.57800
C  -14.54700 13.16800 41.64500
C  -13.21600 13.87500 41.48000
C  -16.43800 14.60600 42.78900
C  -14.86600 12.11300 40.59400
C  -14.53800 10.66200 40.99100
N  -10.44600 15.15700 41.75200
C  -10.73100 13.77400 41.84800
C  -9.42900 13.11900 42.13600
C  -8.45800 14.06100 42.04500
C  -9.08300 15.29600 41.74800
C  -9.31000 11.69100 42.46000
C  -7.01400 14.22800 42.01400
O  -6.12500 13.43700 42.16900
C  -6.73800 15.77400 41.59700
C  -6.17100 16.41300 42.77800
O  -6.78100 16.73200 43.81800
O  -4.78900 16.51100 42.62500
C  -3.97000 17.15800 43.68300
H  -11.09100 21.08200 40.67300
H  -16.07600 17.01800 40.96800
H  -12.01300 12.06400 41.55400
H  -6.88500 18.82900 41.80400
H  -8.61800 20.86600 40.60800
H  -7.62200 21.51700 42.57600
H  -8.12600 19.94200 43.37200
H  -9.25700 21.26100 43.06800
H  -7.28100 20.07200 39.38500
H  -7.51400 18.34800 38.89100
H  -5.12400 18.36400 40.40100
H  -5.04000 19.77700 39.29300
H  -14.46900 22.21500 39.51600
H  -12.67800 22.01100 39.78500
H  -13.77100 22.45500 41.11300
H  -18.38300 19.41500 40.43900
H  -17.35200 18.56100 41.55900
H  -17.33400 18.11100 39.86100
H  -16.17500 14.55600 40.71700
H  -14.49900 12.69200 42.62500
H  -16.20700 15.58000 43.21900
H  -16.30500 13.89100 43.60100
H  -17.46300 14.61600 42.42000
H  -14.32100 12.39000 39.69200
H  -15.91000 12.23000 40.30500
H  -13.77600 10.58800 41.76600
H  -14.20100 10.09400 40.12400
H  -15.44500 10.29800 41.47400
H  -8.69800 11.25500 41.67000
H  -10.31900 11.27900 42.43800
H  -8.83300 11.48600 43.41900
H  -6.05200 15.86300 40.75500
H  -3.82000 16.35700 44.40700
H  -4.51800 17.95900 44.17800
H  -2.96100 17.43500 43.37900

