158

Mg 9.28400 3.37800 27.79100
C  10.37700 1.72300 30.66500
C  7.69000 5.66800 29.73900
C  7.86900 4.57600 24.91000
C  10.66700 0.70200 25.92800
N  9.01800 3.59400 29.97600
C  9.67300 2.94000 30.98700
C  9.47600 3.58900 32.32000
C  8.48700 4.75200 32.00300
C  8.42300 4.71600 30.49800
C  7.07600 4.47500 32.61100
C  10.80900 4.03100 32.94600
C  11.20200 3.37400 34.35000
H  11.50400 4.34600 35.45800
N  7.99700 4.93700 27.44800
C  7.40200 5.78300 28.32100
C  6.67100 6.83300 27.65700
C  6.66200 6.38100 26.27100
C  7.55500 5.27500 26.12500
C  5.92200 7.95800 28.37300
C  5.84300 6.89000 25.09500
O  6.02300 6.64300 23.90700
C  4.85000 8.02200 25.29600
N  9.30000 2.58500 25.69700
C  8.67400 3.36700 24.74000
C  8.65500 2.79000 23.35800
C  9.57500 1.48900 23.59000
C  9.92500 1.57900 25.12600
C  7.28000 2.26600 22.74700
C  10.81700 1.46100 22.76500
C  10.65400 1.07500 21.20000
N  10.27800 1.63000 28.14500
C  10.81100 0.68300 27.28400
C  11.59200 -0.36600 28.07200
C  11.44700 0.06000 29.36100
C  10.61600 1.20900 29.39000
C  12.43000 -1.43200 27.42100
C  11.85200 -0.25900 30.79700
O  12.56700 -1.08300 31.25600
C  11.13200 0.88600 31.59400
C  10.15300 0.11300 32.53900
O  9.01800 -0.33000 32.33500
O  10.82300 0.03400 33.76500
C  10.15600 -0.51500 34.89200
H  7.40800 6.54300 30.32800
H  7.57900 4.92800 23.91800
H  11.17500 -0.01400 25.27800
H  9.06900 2.80400 32.95800
H  8.86100 5.69000 32.41500
H  7.16800 4.91500 33.60500
H  6.99900 3.39000 32.68200
H  6.40100 4.84300 31.83800
H  10.79800 5.09500 33.18100
H  11.58400 3.87900 32.19500
H  12.12300 2.80200 34.23900
H  10.36500 2.73800 34.63600
H  6.25200 7.94000 29.41200
H  4.87000 7.83800 28.11500
H  6.21500 8.92300 27.95900
H  4.17700 8.17000 24.45100
H  5.36300 8.97200 25.44500
H  4.28900 7.69300 26.17100
H  9.08200 3.59300 22.75800
H  9.17200 0.50400 23.35800
H  6.88600 2.91800 21.96700
H  6.51200 2.34400 23.51700
H  7.28400 1.20100 22.51500
H  11.47600 0.68300 23.15100
H  11.29300 2.43700 22.85900
H  9.64100 0.83100 20.87800
H  11.09100 0.07700 21.19200
H  11.11200 1.79400 20.52100
H  11.75800 -2.00400 26.78200
H  12.88900 -2.11600 28.13500
H  13.15600 -0.96300 26.75700
H  11.80000 1.55900 32.13100
H  9.34600 -1.19300 34.62100
H  9.60900 0.20100 35.50600
H  10.89300 -1.00900 35.52400
Mg 41.90800 41.36600 26.26200
C  41.06500 43.97300 28.52700
C  42.72600 39.37100 28.92000
C  42.97400 39.10700 24.01000
C  41.39700 43.75900 23.67500
N  41.92400 41.68700 28.39200
C  41.47400 42.80100 29.09000
C  41.37900 42.49700 30.58700
C  41.99800 41.14600 30.69100
C  42.28500 40.69100 29.21800
C  43.11400 40.90900 31.70300
C  39.89300 42.60300 31.09600
C  39.51500 41.95100 32.46800
H  38.72200 42.84100 33.46100
N  42.77900 39.51400 26.46200
C  42.95400 38.80000 27.60500
C  43.35700 37.47400 27.30100
C  43.29200 37.31700 25.87400
C  42.97300 38.67400 25.40500
C  43.67400 36.43500 28.39600
C  43.43800 36.04500 24.99600
O  43.28900 35.97900 23.80000
C  43.85600 34.69000 25.67400
N  42.22700 41.46100 24.18000
C  42.65800 40.37900 23.43900
C  42.33500 40.52700 21.87600
C  41.84100 42.02800 21.81800
C  41.78100 42.43500 23.29700
C  43.55700 40.34000 20.92900
C  40.48700 42.20200 21.13500
C  39.25700 42.08500 21.96700
N  41.32000 43.42500 26.11100
C  41.20000 44.26600 24.97400
C  40.84200 45.60400 25.38500
C  40.88100 45.54600 26.76100
C  41.11100 44.18300 27.12800
C  40.54900 46.79000 24.52500
C  40.58800 46.37300 27.97800
O  40.31500 47.52200 28.16800
C  40.69400 45.32300 29.14400
C  41.70500 45.76200 30.19900
O  42.88900 45.76200 30.09000
O  41.11100 45.92400 31.40200
C  41.93200 46.27600 32.66800
H  42.94100 38.77900 29.81200
H  43.07300 38.35800 23.22100
H  41.24200 44.51100 22.89800
H  41.95900 43.22300 31.15600
H  41.16900 40.47300 30.91000
H  43.18700 41.81400 32.30600
H  44.04000 40.77400 31.14500
H  42.90800 40.15100 32.45800
H  39.25400 42.17000 30.32700
H  39.74500 43.68000 31.16800
H  40.44200 41.71400 32.99100
H  39.07600 40.96700 32.30400
H  43.20500 36.71700 29.33900
H  44.72400 36.61900 28.62300
H  43.43000 35.45900 27.97800
H  43.06100 34.42600 26.37200
H  44.78000 34.90000 26.21200
H  43.95900 33.89900 24.93100
H  41.54800 39.85300 21.53700
H  42.55900 42.62200 21.25400
H  44.26000 40.88800 21.55700
H  43.55000 40.76900 19.92700
H  43.75500 39.27300 21.02300
H  40.34100 41.51800 20.30000
H  40.57100 43.22500 20.76800
H  39.26200 41.28700 22.71100
H  38.44000 41.86000 21.28200
H  38.96100 43.04100 22.39800
H  39.48500 46.92200 24.33100
H  41.10700 46.68600 23.59400
H  41.01900 47.63500 25.02900
H  39.67600 45.26400 29.52900
H  41.87500 47.31600 32.98900
H  42.97100 46.05900 32.42200
H  41.56800 45.56500 33.40900

