158

Mg 1.12400 7.65000 25.10500
C  1.84100 9.32000 28.06300
C  0.85700 4.73300 26.82900
C  0.70400 6.17400 22.17100
C  2.09900 10.57900 23.40300
N  1.34200 7.14100 27.21100
C  1.55000 7.99300 28.26400
C  1.45700 7.23600 29.61600
C  1.51700 5.72300 29.13400
C  1.16500 5.88000 27.63700
C  2.83500 5.00500 29.42300
C  0.28200 7.66800 30.43600
C  0.58500 8.03700 31.87700
H  1.80500 7.24500 32.48200
N  0.73100 5.73700 24.55100
C  0.64500 4.66600 25.38800
C  0.39600 3.44700 24.66800
C  0.43400 3.83000 23.21800
C  0.64800 5.31100 23.27200
C  0.22400 2.12700 25.32300
C  0.34000 2.98100 21.97700
O  0.49200 3.47300 20.87700
C  0.08700 1.51600 22.20300
N  1.26500 8.30800 23.08100
C  1.05400 7.49600 22.02600
C  1.03500 8.30400 20.74300
C  1.63100 9.63000 21.14800
C  1.64900 9.50600 22.64500
C  1.79500 7.56500 19.62500
C  0.85000 10.90300 20.57400
C  -0.46200 11.38800 21.25000
N  1.79300 9.67800 25.58900
C  2.16400 10.72400 24.77700
C  2.52100 11.86900 25.63400
C  2.33700 11.36900 26.91200
C  1.99100 10.04000 26.82900
C  2.96500 13.24600 25.10600
C  2.54500 11.75500 28.27000
O  3.06200 12.79000 28.75700
C  2.06500 10.46200 29.06500
C  3.13200 10.25100 30.08000
O  3.98300 9.37600 29.96300
O  3.03900 11.14400 31.12800
C  4.02900 11.10800 32.19000
H  0.88000 3.73900 27.28100
H  0.25600 5.73500 21.27800
H  2.34200 11.42500 22.75700
H  2.39900 7.52600 30.08000
H  0.71300 5.15000 29.59700
H  3.38500 5.65700 30.10200
H  3.42800 4.97600 28.50900
H  2.64500 4.01400 29.83500
H  -0.52400 6.93500 30.40700
H  -0.17300 8.54300 29.97200
H  -0.34800 7.85300 32.40900
H  0.64500 9.11800 32.00400
H  1.16600 1.57800 25.33400
H  -0.51600 1.53100 24.78700
H  -0.17900 2.29000 26.32200
H  -0.94000 1.25200 22.45200
H  0.85000 1.14000 22.88400
H  0.37900 1.00800 21.28400
H  -0.01200 8.42700 20.46700
H  2.64900 9.73000 20.77000
H  2.36600 6.77400 20.11100
H  2.42800 8.27700 19.09600
H  1.16100 6.95500 18.98200
H  0.65800 10.74800 19.51200
H  1.42400 11.82300 20.68200
H  -0.75800 10.69500 22.03800
H  -1.31000 11.46100 20.56800
H  -0.31600 12.34600 21.74900
H  3.60800 13.81700 25.77500
H  2.18700 13.82600 24.61000
H  3.58100 12.87000 24.28900
H  1.11700 10.81600 29.47000
H  3.63000 10.44000 32.95400
H  4.22400 12.07900 32.64500
H  4.95500 10.70700 31.77900
Mg 23.92600 -6.59900 45.75400
C  26.32900 -4.09600 45.26900
C  21.59900 -4.59800 44.15200
C  21.86400 -9.23300 45.86900
C  26.59500 -8.61100 46.95800
N  23.97800 -4.63600 44.84900
C  25.08000 -3.89600 44.68500
C  24.67400 -2.63200 43.82900
C  23.11600 -2.59900 43.95300
C  22.85700 -4.01600 44.42600
C  22.49800 -1.54700 44.90100
C  25.24500 -2.73300 42.38200
C  25.50500 -1.37600 41.75500
H  24.65200 -1.04900 40.50800
N  21.96600 -6.86600 45.10800
C  21.20300 -5.89200 44.44800
C  19.90700 -6.47700 44.21500
C  19.98900 -7.86100 44.63600
C  21.27900 -8.01700 45.23100
C  18.85300 -5.71500 43.33700
C  18.92800 -8.89600 44.53600
O  18.05000 -8.67400 43.77000
C  19.00000 -10.26300 45.13600
N  24.17400 -8.54500 46.31700
C  23.19800 -9.46300 46.34500
C  23.70300 -10.84800 46.95400
C  25.16100 -10.60600 46.88900
C  25.34300 -9.14000 46.66400
C  23.09900 -11.23400 48.34800
C  25.88400 -11.42100 45.78000
C  26.97700 -12.41100 46.08900
N  26.05400 -6.42200 46.15800
C  26.96400 -7.31600 46.67300
C  28.21500 -6.66500 46.91100
C  28.02300 -5.38100 46.25800
C  26.70500 -5.30900 45.79800
C  29.46100 -7.25800 47.42500
C  28.63400 -4.08400 45.95100
O  29.72700 -3.64400 46.15600
C  27.50800 -3.25900 45.10800
C  27.27300 -1.84200 45.63700
O  27.07700 -1.59500 46.82300
O  27.34700 -0.96600 44.65800
C  27.61100 0.41000 45.00700
H  20.80900 -3.96700 43.73900
H  21.27600 -10.15200 45.81500
H  27.31600 -9.36000 47.29200
H  24.90700 -1.67400 44.29400
H  22.60400 -2.49800 42.99600
H  23.24900 -0.91400 45.37300
H  21.90400 -1.95500 45.71900
H  21.82100 -0.96500 44.27600
H  24.43200 -3.17700 41.80700
H  26.14700 -3.33600 42.27400
H  26.56700 -1.27400 41.53100
H  25.35700 -0.53700 42.43500
H  19.12500 -5.24500 42.39200
H  18.53300 -4.84400 43.91000
H  17.90700 -6.20800 43.11300
H  18.00500 -10.70800 45.10600
H  19.19500 -10.02000 46.18000
H  19.73200 -10.91000 44.65200
H  23.36600 -11.56600 46.20600
H  25.54800 -10.82400 47.88400
H  22.08200 -11.56300 48.12900
H  23.09900 -10.32300 48.94600
H  23.58500 -12.00900 48.94000
H  26.43800 -10.72200 45.15300
H  25.19300 -12.02200 45.18900
H  26.65500 -13.44400 45.95900
H  27.55100 -12.21800 46.99500
H  27.60200 -12.25900 45.20800
H  29.39000 -7.73300 48.40300
H  30.28100 -6.54100 47.38000
H  29.79000 -7.92800 46.63100
H  27.85400 -3.22600 44.07400
H  27.95000 1.05600 44.19700
H  28.27100 0.49600 45.87000
H  26.66100 0.90700 45.20300

