158

Mg 47.74200 16.68800 28.52200
C  45.93000 16.93500 31.50000
C  50.26800 18.46000 30.07700
C  49.29400 16.96900 25.49400
C  44.84700 15.78800 26.76800
N  47.92600 17.68600 30.60200
C  47.20000 17.50100 31.71800
C  47.83500 18.07200 32.94900
C  49.20300 18.54200 32.38700
C  49.09400 18.33700 30.92800
C  49.69700 19.99200 32.68200
C  47.98600 16.99900 34.03000
C  48.71300 17.62600 35.23400
H  48.12900 18.97400 35.90700
N  49.59100 17.49300 27.90200
C  50.45900 18.27300 28.69700
C  51.59700 18.60000 27.82900
C  51.34500 18.03300 26.52800
C  50.00800 17.44000 26.57600
C  52.78100 19.36400 28.29200
C  52.27900 17.89500 25.33000
O  51.93400 17.44600 24.25600
C  53.72700 18.40700 25.40800
N  47.21800 16.26300 26.46700
C  48.01200 16.37500 25.43800
C  47.32900 15.97900 24.09400
C  45.91300 15.61500 24.49400
C  46.04200 15.79500 25.99200
C  47.33000 17.09700 23.05000
C  45.24200 14.28000 24.06900
C  45.69400 13.53600 22.81300
N  45.84200 16.40500 28.95900
C  44.76600 15.95700 28.18900
C  43.58400 15.78100 28.97000
C  43.99600 16.10500 30.30000
C  45.39400 16.49400 30.21300
C  42.19900 15.24400 28.56900
C  43.63600 16.14300 31.68600
O  42.55700 15.90800 32.17300
C  44.87700 16.65300 32.52300
C  44.50700 17.84400 33.36200
O  44.70600 19.00600 33.07000
O  43.80100 17.41900 34.46500
C  43.26600 18.39000 35.33400
H  51.10400 19.02400 30.49500
H  49.73200 17.00600 24.49400
H  43.95800 15.61300 26.15700
H  47.28600 18.94600 33.30000
H  49.99700 17.86600 32.70600
H  48.88500 20.58500 33.10300
H  50.16000 20.49900 31.83500
H  50.45500 19.88400 33.45800
H  48.62600 16.17300 33.72200
H  47.00200 16.75200 34.43000
H  49.76600 17.86300 35.08500
H  48.56800 16.95900 36.08300
H  53.73200 18.83200 28.33400
H  52.58900 19.86900 29.23900
H  52.87600 20.22100 27.62400
H  53.75300 19.47400 25.63000
H  54.11800 18.14100 24.42600
H  54.25700 17.75500 26.10200
H  47.87200 15.18800 23.57700
H  45.25200 16.42700 24.19100
H  48.38900 17.18900 22.80800
H  46.93500 18.05700 23.38300
H  46.85200 16.67000 22.16800
H  44.15900 14.24200 23.95100
H  45.51800 13.64400 24.91000
H  46.25900 14.22700 22.18900
H  44.88100 13.36700 22.10700
H  46.14700 12.59200 23.11400
H  41.80900 15.81500 27.72500
H  41.45500 15.33700 29.35900
H  42.37900 14.18000 28.41800
H  45.09500 15.82800 33.20200
H  43.10500 19.41500 34.99900
H  43.79300 18.30300 36.28400
H  42.29400 17.94600 35.55200
Mg 48.80300 35.64300 27.89100
C  46.70900 33.92100 30.10700
C  48.84100 38.29900 30.17700
C  50.17500 37.59200 25.53900
C  48.50100 33.05100 25.57700
N  47.92200 36.08300 29.90500
C  47.28100 35.12800 30.69300
C  47.25900 35.56000 32.14900
C  47.39700 37.07600 31.97600
C  48.14900 37.19400 30.59800
C  46.04500 37.87100 31.99600
C  48.47300 34.97700 33.01300
C  48.43000 34.92400 34.54300
H  47.53700 35.98000 35.28200
N  49.50500 37.63600 27.93800
C  49.44400 38.48700 28.99100
C  50.08800 39.74200 28.61700
C  50.52100 39.56000 27.26100
C  50.10700 38.20100 26.85000
C  50.18200 40.92700 29.63500
C  51.20300 40.55300 26.30000
O  51.58200 40.34400 25.17300
C  51.64200 41.87400 26.87200
N  49.22100 35.33000 25.81600
C  49.79500 36.31300 25.03700
C  50.09300 35.80200 23.57700
C  49.78700 34.29700 23.66100
C  49.17900 34.18800 25.10800
C  49.39400 36.49200 22.44200
C  51.05000 33.32100 23.41200
C  50.98800 32.48700 22.16900
N  47.79300 33.83900 27.77200
C  47.80000 32.78100 26.81000
C  46.98900 31.67700 27.26000
C  46.55800 32.07700 28.54800
C  46.98100 33.42500 28.82200
C  46.71700 30.34100 26.56300
C  45.84400 31.65800 29.73100
O  45.33900 30.56200 29.93300
C  45.85400 32.87700 30.75100
C  46.42500 32.26200 31.94800
O  47.52000 31.74100 32.05600
O  45.53500 32.23100 32.97300
C  45.92200 31.56800 34.20200
H  48.91100 39.12500 30.88700
H  50.75800 38.09600 24.76600
H  48.37900 32.20700 24.89600
H  46.28500 35.38000 32.60400
H  48.04200 37.44000 32.77600
H  45.96300 38.76200 31.37300
H  45.87600 38.17000 33.03100
H  45.31200 37.10700 31.73600
H  49.38200 35.52300 32.75900
H  48.67500 33.96000 32.67700
H  49.42800 35.02700 34.96900
H  48.01600 33.96500 34.85500
H  51.05900 41.51900 29.37200
H  50.31800 40.63300 30.67600
H  49.30700 41.56000 29.48500
H  50.73600 42.43100 27.10900
H  52.14500 42.32700 26.01800
H  52.32600 41.73100 27.71000
H  51.15400 36.00600 23.43200
H  48.98100 34.04900 22.97000
H  48.73400 35.78400 21.94000
H  50.15300 36.93700 21.79800
H  48.88100 37.29700 22.96800
H  51.26600 32.63600 24.23100
H  51.91100 33.97900 23.28900
H  51.51800 32.89400 21.30700
H  49.98100 32.19600 21.86700
H  51.53400 31.61200 22.52200
H  47.70100 29.91200 26.37500
H  46.34100 30.51900 25.55500
H  46.05100 29.72700 27.16800
H  44.88300 33.24900 31.07900
H  46.53100 30.67200 34.08000
H  45.03900 31.35200 34.80500
H  46.55200 32.26100 34.76000

