158

Mg 24.29800 1.16900 29.13000
C  26.42300 1.03900 32.09800
C  21.68100 1.59300 31.01000
C  22.53800 0.97800 26.38700
C  27.28300 0.60800 27.23400
N  24.12000 1.16900 31.37300
C  25.05500 1.20200 32.39100
C  24.43800 1.56300 33.74200
C  22.90600 1.70500 33.33500
C  22.87000 1.46800 31.76000
C  21.81900 0.74700 33.98800
C  25.05800 2.88600 34.43200
C  25.70500 2.69200 35.82500
H  25.52800 3.67900 36.98800
N  22.35100 1.32800 28.75400
C  21.40300 1.59100 29.69900
C  20.09300 1.59000 29.06300
C  20.32200 1.27700 27.72500
C  21.78000 1.15300 27.54000
C  18.82700 2.00100 29.76100
C  19.29100 1.15200 26.59800
O  19.65600 0.94300 25.45500
C  17.76100 1.18800 26.90200
N  24.88400 0.85200 27.08100
C  23.90800 0.90800 26.11800
C  24.53000 1.11400 24.75100
C  26.07200 0.96200 25.04300
C  26.09700 0.73900 26.53000
C  24.01400 0.02900 23.71100
C  26.87000 2.25800 24.63100
C  26.28100 3.59900 25.02400
N  26.41100 0.95300 29.51100
C  27.44900 0.60800 28.65400
C  28.69300 0.66500 29.41700
C  28.33800 0.83900 30.81300
C  26.92800 0.97200 30.79800
C  30.02500 0.34200 28.91900
C  28.78400 0.88700 32.15300
O  29.92500 0.72500 32.65000
C  27.59400 1.12200 33.08700
C  27.52300 0.12500 34.12500
O  26.92800 -0.94800 33.99000
O  28.24500 0.53200 35.15700
C  28.32500 -0.36700 36.32100
H  20.76900 1.65300 31.60800
H  21.93700 0.86300 25.48200
H  28.16600 0.55700 26.59300
H  24.66600 0.67300 34.33000
H  22.50900 2.70200 33.52800
H  21.07800 1.40200 34.44500
H  22.30000 0.03100 34.65500
H  21.34100 0.24800 33.14500
H  24.31100 3.67300 34.52800
H  25.74000 3.38900 33.74700
H  26.78200 2.71100 35.66200
H  25.35500 1.72800 36.19500
H  18.25900 1.07100 29.79700
H  18.27800 2.72600 29.15900
H  18.89500 2.31700 30.80200
H  17.46500 2.21200 27.12900
H  17.45600 0.62500 27.78500
H  17.17300 0.70600 26.12100
H  24.24500 2.07100 24.31500
H  26.54700 0.17500 24.45700
H  23.13400 -0.41400 24.17900
H  24.68700 -0.81800 23.58500
H  23.79200 0.38700 22.70600
H  27.06100 2.24700 23.55800
H  27.87400 2.22400 25.05500
H  25.35000 3.52900 25.58600
H  26.13200 4.18900 24.12000
H  26.99300 4.20000 25.58900
H  30.31600 0.72500 27.94100
H  30.20100 -0.73300 28.91900
H  30.71600 0.66200 29.69900
H  27.68400 2.08300 33.59400
H  29.37800 -0.30500 36.59300
H  28.23100 -1.40800 36.01100
H  27.64500 -0.20200 37.15700
Mg 40.11100 10.50000 30.02800
C  42.02100 11.39100 32.90700
C  37.89900 8.99800 32.26500
C  38.65000 9.08100 27.39800
C  42.79400 11.72300 28.07100
N  40.06600 10.10400 32.31200
C  40.87600 10.70700 33.27400
C  40.28000 10.59900 34.68400
C  38.99400 9.70100 34.40400
C  38.96600 9.62600 32.86900
C  38.81800 8.35600 35.22200
C  39.92400 12.02600 35.28300
C  39.45700 12.14200 36.74700
H  40.24700 12.99900 37.75700
N  38.56400 9.10900 29.90300
C  37.69800 8.74800 30.92500
C  36.66000 7.94300 30.34800
C  36.90000 7.87900 28.93300
C  38.07000 8.73900 28.66600
C  35.73900 7.03500 31.15000
C  36.06100 7.25700 27.80300
O  36.35600 7.32000 26.63700
C  34.91200 6.35300 28.23500
N  40.61800 10.46000 28.02300
C  39.70500 9.94600 27.11200
C  40.12200 10.25400 25.68500
C  41.41300 11.17100 25.89600
C  41.67700 11.12700 27.40100
C  40.23800 8.91300 24.77400
C  41.23000 12.53000 25.30500
C  40.10000 13.40900 25.91000
N  41.97300 11.40100 30.37900
C  42.89700 11.87700 29.47000
C  44.03600 12.47600 30.15300
C  43.60900 12.34600 31.49200
C  42.42600 11.65400 31.60300
C  45.31800 13.00400 29.52200
C  44.13300 12.57700 32.82400
O  45.16900 13.03200 33.20600
C  43.13800 11.99500 33.78800
C  43.75300 10.99800 34.65400
O  43.78900 9.78600 34.46800
O  44.26800 11.59200 35.75200
C  44.90100 10.79500 36.73700
H  37.12300 8.54200 32.88200
H  38.11400 8.90700 26.46300
H  43.52500 12.25900 27.46200
H  40.98700 10.22800 35.42500
H  38.10300 10.27600 34.65700
H  37.79000 8.15700 35.52500
H  39.40300 8.41500 36.13900
H  39.24900 7.53900 34.64500
H  39.28100 12.56900 34.59000
H  40.86400 12.57300 35.20100
H  39.31400 11.17500 37.22900
H  38.43900 12.46600 36.53100
H  35.76000 6.01800 30.75700
H  34.71100 7.35000 30.97400
H  36.00600 6.89300 32.19700
H  34.29300 6.15000 27.36100
H  34.29100 6.79000 29.01700
H  35.28900 5.38300 28.55900
H  39.37400 10.88000 25.19700
H  42.21800 10.73300 25.30600
H  39.97000 7.99900 25.30500
H  41.24800 8.73000 24.40700
H  39.52300 9.01800 23.95800
H  41.03500 12.41000 24.23900
H  42.14100 13.07200 25.55400
H  40.52300 14.35900 26.23600
H  39.46900 12.98100 26.68900
H  39.47100 13.71000 25.07200
H  45.10300 13.17100 28.46600
H  46.14100 12.31100 29.69700
H  45.60600 13.94100 29.99900
H  42.88100 12.82200 34.45000
H  45.20000 11.40900 37.58700
H  45.87000 10.46900 36.35800
H  44.28100 9.93500 36.98900

