158

Mg 17.34600 -0.89600 27.68500
C  15.81000 1.34600 30.16600
C  18.88600 -2.43500 30.26000
C  18.86300 -2.67800 25.47400
C  15.51700 0.97100 25.28800
N  17.37300 -0.51300 29.96000
C  16.69000 0.37700 30.73300
C  16.90700 0.18800 32.27300
C  18.08100 -0.88200 32.23200
C  18.10400 -1.37700 30.77600
C  19.40300 -0.16800 32.62800
C  15.63400 -0.26300 32.95800
C  15.75000 -0.52900 34.51500
H  16.92500 0.11100 35.28200
N  18.79700 -2.34200 27.82400
C  19.31500 -2.91900 28.97300
C  20.16400 -4.05800 28.63300
C  20.08200 -4.13900 27.17300
C  19.20900 -3.04200 26.73200
C  20.96800 -4.74700 29.65500
C  20.73600 -5.11100 26.23200
O  20.69000 -5.18900 24.99400
C  21.41300 -6.28900 26.86600
N  17.15800 -0.86500 25.60800
C  18.02700 -1.64700 24.89800
C  17.88900 -1.29800 23.41000
C  16.73600 -0.20800 23.32500
C  16.42200 -0.03200 24.85400
C  19.24800 -0.91500 22.72000
C  15.47400 -0.58000 22.50800
C  15.17800 0.34000 21.27300
N  16.00200 0.81500 27.67300
C  15.31000 1.38700 26.60100
C  14.45500 2.45200 27.00400
C  14.57800 2.47000 28.43300
C  15.57400 1.46600 28.77300
C  13.50600 3.29100 26.18400
C  14.15400 3.10200 29.73200
O  13.50200 4.08900 30.09200
C  14.92800 2.38600 30.81300
C  15.63600 3.41500 31.59800
O  16.35100 4.24500 31.10700
O  15.43600 3.26600 32.98000
C  16.26800 4.14600 33.81300
H  19.40100 -2.97400 31.05800
H  19.51000 -3.23800 24.79600
H  15.11200 1.65700 24.54000
H  17.30800 1.09000 32.73300
H  17.96200 -1.73500 32.90000
H  19.87600 -0.80400 33.37700
H  19.36400 0.86900 32.96100
H  20.07600 -0.21100 31.77100
H  15.51100 -1.16600 32.35900
H  14.76800 0.38400 32.82000
H  15.91400 -1.60500 34.58200
H  14.79500 -0.36200 35.01400
H  20.75400 -4.31500 30.63300
H  22.02700 -4.52800 29.52100
H  20.83400 -5.82700 29.71200
H  21.54000 -7.00500 26.05300
H  20.67100 -6.70600 27.54700
H  22.27500 -5.87900 27.39200
H  17.57400 -2.18500 22.86100
H  17.21800 0.69600 22.95400
H  19.19900 0.16000 22.54300
H  19.37300 -1.33500 21.72200
H  20.10800 -1.18600 23.33200
H  14.56100 -0.51000 23.09900
H  15.61300 -1.59800 22.14300
H  14.24400 0.88200 21.41900
H  15.13500 -0.19900 20.32600
H  15.90000 1.12000 21.03300
H  12.65100 3.61200 26.77900
H  13.08600 2.66300 25.39800
H  13.96000 4.18800 25.76300
H  14.24200 1.84200 31.46200
H  16.04600 5.17400 33.52600
H  17.31200 3.83900 33.73800
H  15.95800 4.13700 34.85800
Mg 35.57500 2.50400 30.41300
C  33.03700 3.47000 32.63400
C  37.76700 2.79500 32.95400
C  38.02600 1.67400 28.16200
C  33.26900 2.59900 27.82000
N  35.34600 3.20400 32.53000
C  34.22700 3.28100 33.24500
C  34.54200 3.23800 34.79300
C  36.09300 3.39000 34.77900
C  36.46200 3.03000 33.34100
C  36.61500 4.83500 35.04500
C  34.04600 1.89800 35.39600
C  33.97200 1.90100 36.85300
H  34.59700 2.99500 37.70500
N  37.60100 2.35400 30.51200
C  38.29700 2.47800 31.68400
C  39.70400 2.22100 31.41000
C  39.79700 1.63200 30.10100
C  38.43900 1.89600 29.53500
C  40.85900 2.26100 32.50100
C  40.97300 0.98900 29.34200
O  40.90500 0.74000 28.15500
C  42.29700 0.79300 30.20900
N  35.67400 2.23300 28.34600
C  36.80200 1.93000 27.64100
C  36.50400 1.51700 26.17000
C  34.95000 1.68900 26.12400
C  34.59000 2.27500 27.50000
C  37.12600 2.56700 25.03500
C  34.20100 0.30500 25.92300
C  34.13700 -0.32200 24.49600
N  33.61300 2.98000 30.19900
C  32.79500 2.93700 29.08400
C  31.47800 3.32200 29.47900
C  31.54400 3.52100 30.87300
C  32.86900 3.29100 31.28300
C  30.24600 3.52700 28.59400
C  30.72800 3.90300 31.98700
O  29.55800 4.24200 32.04800
C  31.68800 3.75400 33.25700
C  31.73000 5.06100 33.97600
O  32.02100 6.13400 33.47100
O  31.41200 4.89600 35.32300
C  31.68600 6.10900 36.14500
H  38.49000 2.85000 33.77100
H  38.82300 1.45500 27.44800
H  32.61000 2.52000 26.95300
H  34.00600 4.09900 35.19500
H  36.41300 2.72600 35.58200
H  35.85100 5.44200 35.53200
H  37.06100 5.24800 34.14100
H  37.40500 4.73500 35.79000
H  34.64100 1.05700 35.04100
H  33.05400 1.84300 34.94900
H  34.51900 1.01100 37.16700
H  32.94700 1.88300 37.22300
H  41.14400 1.26400 32.83600
H  40.46200 2.76600 33.38100
H  41.66500 2.88000 32.10700
H  42.95600 1.65100 30.34300
H  42.83200 0.04400 29.62700
H  42.08100 0.17400 31.08000
H  36.89200 0.51100 26.01100
H  34.65300 2.39100 25.34500
H  37.39900 3.53800 25.44900
H  36.37200 2.84500 24.29700
H  38.05900 2.18400 24.62200
H  33.19600 0.36200 26.34100
H  34.73300 -0.43600 26.52000
H  34.24000 0.44200 23.72600
H  33.22600 -0.91900 24.50600
H  34.86100 -1.13500 24.43700
H  29.28800 3.59200 29.11000
H  30.16400 2.75500 27.83000
H  30.36300 4.44800 28.02200
H  31.39200 2.93100 33.90700
H  32.43300 6.79300 35.74200
H  31.93700 5.74300 37.14100
H  30.68500 6.52200 36.27300

