158

Mg 47.50200 34.50900 26.56200
C  45.72100 33.47100 29.37900
C  48.33900 37.34300 28.25200
C  48.89300 35.60800 23.74400
C  46.30400 31.70000 24.87200
N  47.08100 35.20500 28.59100
C  46.47600 34.61700 29.62800
C  46.73200 35.34700 30.91600
C  47.22200 36.76900 30.45800
C  47.57700 36.43300 28.98800
C  46.05700 37.79600 30.51700
C  47.84000 34.62600 31.77200
C  47.52700 34.39300 33.25600
H  46.57000 35.42200 33.86200
N  48.44300 36.14700 26.05600
C  48.75500 37.21500 26.91500
C  49.51800 38.15900 26.21100
C  49.72200 37.68800 24.90800
C  48.99000 36.42700 24.84300
C  50.03900 39.40900 26.90000
C  50.53000 38.30300 23.75300
O  50.67400 37.64600 22.74800
C  51.20600 39.65000 23.88000
N  47.43900 33.85200 24.59500
C  48.24000 34.43300 23.68200
C  48.18100 33.65400 22.32500
C  47.64000 32.24500 22.85800
C  46.96500 32.64100 24.15800
C  47.32000 34.44400 21.21700
C  48.73300 31.18000 23.14300
C  48.28800 29.73100 22.84600
N  46.27700 32.83000 26.96200
C  45.91800 31.75300 26.19900
C  45.09100 30.89300 26.99600
C  44.96800 31.54200 28.20700
C  45.70900 32.71700 28.15500
C  44.52400 29.57400 26.60400
C  44.41400 31.38200 29.51900
O  43.76100 30.43600 29.98100
C  44.75700 32.66500 30.27100
C  45.20300 32.32900 31.63900
O  46.21900 31.74300 31.93600
O  44.18900 32.60900 32.54900
C  44.14400 31.77200 33.72100
H  48.54800 38.23800 28.84200
H  49.29900 35.80000 22.74900
H  45.92500 30.88400 24.25300
H  45.82100 35.40600 31.51100
H  48.05600 37.18200 31.02600
H  45.47200 37.90200 29.60400
H  46.37600 38.78100 30.85800
H  45.37200 37.44700 31.29100
H  48.80800 35.11800 31.67200
H  47.96300 33.60700 31.40500
H  48.52200 34.40400 33.70000
H  47.20200 33.35200 33.28700
H  51.12400 39.36200 27.00400
H  49.61900 39.45500 27.90500
H  49.76400 40.33600 26.39600
H  52.00600 39.56500 24.61500
H  50.49800 40.42400 24.17700
H  51.65400 39.82800 22.90300
H  49.20800 33.59400 21.96400
H  46.82900 31.78500 22.29300
H  48.12600 34.81500 20.58500
H  46.66600 35.24200 21.56900
H  46.65900 33.75900 20.68600
H  48.94400 31.26200 24.20900
H  49.64500 31.46800 22.61900
H  48.51900 29.03700 23.65400
H  48.70700 29.43000 21.88700
H  47.22600 29.75300 22.59900
H  44.34200 29.47700 25.53300
H  43.54600 29.39300 27.05000
H  45.22800 28.82200 26.95900
H  43.80000 33.18200 30.19500
H  43.36700 31.02600 33.55600
H  43.86900 32.37300 34.58700
H  45.09900 31.33900 34.02000
Mg 6.35100 54.80100 41.09900
C  5.55500 51.29100 40.92800
C  9.61700 53.96800 40.21700
C  7.01400 58.02500 41.00900
C  2.90300 55.33800 41.46400
N  7.40700 52.84000 40.40500
C  6.89200 51.58300 40.46800
C  7.85400 50.58700 39.89800
C  9.19600 51.36000 39.91700
C  8.74500 52.83600 40.22900
C  10.21500 51.00200 40.99500
C  7.49400 49.96400 38.47700
C  7.77500 50.79000 37.20200
H  6.89000 50.44200 36.00600
N  8.08700 55.81800 40.72300
C  9.31300 55.33000 40.42800
C  10.28300 56.45100 40.34200
C  9.53700 57.61100 40.58300
C  8.18200 57.18400 40.86800
C  11.72200 56.22400 39.99500
C  10.10000 58.99800 40.56700
O  11.28600 59.15900 40.40000
C  9.34400 60.30000 40.75400
N  5.06600 56.46800 41.18300
C  5.61200 57.70000 41.15400
C  4.60200 58.80400 41.38900
C  3.22300 57.94500 41.56600
C  3.70400 56.49100 41.40400
C  4.94800 59.76800 42.59700
C  2.07600 58.41000 40.54800
C  0.80300 59.00100 41.12300
N  4.53800 53.61800 41.25400
C  3.25800 53.96900 41.53800
C  2.44900 52.74100 41.94400
C  3.34500 51.78900 41.74400
C  4.60000 52.27800 41.27500
C  1.05100 52.70500 42.53900
C  3.47300 50.37500 41.94900
O  2.74500 49.52300 42.42900
C  4.79400 49.99000 41.31200
C  4.44000 49.26700 40.10600
O  3.76100 49.73000 39.16300
O  4.72300 47.92400 40.27900
C  4.44800 47.05100 39.08800
H  10.65600 53.80000 39.92700
H  7.21900 59.09400 40.92300
H  1.88300 55.58900 41.76200
H  7.81200 49.70500 40.53700
H  9.75100 51.23400 38.98700
H  10.41700 51.80500 41.70400
H  11.11300 50.74300 40.43600
H  9.78500 50.12400 41.47700
H  6.45700 49.64200 38.56800
H  8.02300 49.02200 38.33300
H  8.85700 50.75500 37.07200
H  7.60900 51.84500 37.42000
H  12.31400 57.13500 40.07800
H  11.74600 55.90800 38.95200
H  12.11400 55.46600 40.67300
H  8.73300 60.62800 39.91300
H  10.08900 61.09600 40.75600
H  8.81200 60.24000 41.70300
H  4.52400 59.45800 40.52000
H  2.74600 58.05800 42.54000
H  4.94300 60.83400 42.37100
H  5.88900 59.52300 43.08900
H  4.24500 59.50400 43.38600
H  1.71100 57.58200 39.94100
H  2.47000 59.20400 39.91300
H  0.98200 59.19500 42.18100
H  -0.06600 58.35400 41.00000
H  0.57700 59.94400 40.62600
H  1.17100 52.17000 43.48100
H  0.29900 52.12000 42.01000
H  0.61400 53.68200 42.74700
H  5.46800 49.42500 41.95600
H  5.22000 46.28600 39.00600
H  4.29400 47.52700 38.11900
H  3.51600 46.53600 39.32100

