158

Mg 34.90300 1.06800 29.34200
C  33.01000 2.21400 32.05600
C  37.77100 1.63100 31.49400
C  37.04300 0.45700 26.69900
C  32.25900 1.02600 27.38200
N  35.31500 1.63300 31.60200
C  34.35200 2.00700 32.48800
C  34.91700 2.28500 33.85800
C  36.44300 2.45600 33.58000
C  36.51700 1.95400 32.10300
C  36.99600 3.87900 33.78600
C  34.50500 1.33200 35.01600
C  33.86100 1.97100 36.31300
H  34.35800 3.30900 36.86300
N  37.05200 1.03400 29.13200
C  38.00200 1.23400 30.15600
C  39.32600 0.95800 29.58800
C  39.11300 0.53200 28.22200
C  37.68600 0.67200 27.92400
C  40.49400 1.00800 30.42400
C  40.11200 0.07700 27.17900
O  39.86200 -0.25200 26.02400
C  41.63700 -0.12700 27.51600
N  34.63800 0.82700 27.35300
C  35.61100 0.42500 26.51700
C  35.07000 0.23800 25.12800
C  33.51400 0.14900 25.36500
C  33.40700 0.65400 26.77500
C  35.52600 1.35600 24.12700
C  32.88400 -1.24000 25.11300
C  33.47300 -2.38500 25.99000
N  32.95700 1.52600 29.55700
C  31.92000 1.49300 28.68600
C  30.71800 1.83600 29.30400
C  31.06700 2.12800 30.58700
C  32.45900 1.94400 30.76100
C  29.34900 1.82400 28.70100
C  30.47300 2.47900 31.87600
O  29.32400 2.73600 32.24900
C  31.78600 2.68500 32.83400
C  31.85100 4.11300 33.29900
O  32.24000 5.06500 32.60500
O  31.42100 4.19300 34.62300
C  31.38000 5.60100 35.09400
H  38.62700 1.69200 32.16900
H  37.59400 0.22800 25.78400
H  31.45600 1.01800 26.64100
H  34.39900 3.22200 34.06200
H  36.98100 1.77000 34.23400
H  36.34300 4.53400 34.36300
H  37.37500 4.38700 32.89900
H  37.90500 3.75700 34.37500
H  35.39000 0.76600 35.30600
H  33.80100 0.65700 34.52800
H  33.68600 1.16200 37.02200
H  32.86200 2.20600 35.94500
H  40.27300 0.61600 31.41800
H  40.71300 2.06300 30.58900
H  41.40000 0.47800 30.13200
H  42.07500 0.84000 27.76300
H  42.16900 -0.66100 26.72800
H  41.73100 -0.76600 28.39400
H  35.42300 -0.71300 24.73000
H  32.85900 0.79400 24.77900
H  36.33400 1.99300 24.48600
H  34.70300 1.95300 23.73400
H  35.88800 0.83800 23.23900
H  32.81400 -1.39200 24.03600
H  31.86300 -1.29500 25.49200
H  34.51400 -2.15600 26.21600
H  33.48700 -3.30400 25.40400
H  32.93000 -2.53200 26.92500
H  29.25100 1.02300 27.96800
H  29.00400 2.79800 28.35600
H  28.65100 1.59200 29.50600
H  31.63700 2.12000 33.75500
H  31.11800 5.59900 36.15200
H  30.72400 6.21500 34.47700
H  32.42100 5.92100 35.05400
Mg 9.51300 47.03500 26.24900
C  7.21800 46.82800 28.83700
C  11.78400 48.02800 28.34300
C  11.53600 47.62400 23.61100
C  6.80600 46.73200 24.01500
N  9.48700 47.45000 28.44100
C  8.49200 47.17000 29.31500
C  8.94300 47.39500 30.77500
C  10.37000 47.97400 30.60000
C  10.60600 47.88400 29.04300
C  10.52700 49.41600 31.20300
C  8.75700 46.12300 31.75300
C  9.76100 45.97500 32.91100
H  9.16200 45.46500 34.24900
N  11.43900 47.47700 26.05400
C  12.27700 47.86500 27.04200
C  13.60200 47.94700 26.51700
C  13.54900 47.73600 25.08000
C  12.11200 47.64500 24.86700
C  14.79200 47.96700 27.43800
C  14.64300 47.65600 24.03100
O  14.40600 47.49000 22.82600
C  16.07200 47.45900 24.53200
N  9.20300 47.13000 24.10600
C  10.22500 47.44700 23.23800
C  9.77300 47.36700 21.75900
C  8.24200 47.15100 21.88200
C  8.06300 47.02600 23.41700
C  10.11900 48.71700 21.07300
C  7.68400 45.89900 21.04600
C  6.44500 46.27000 20.21200
N  7.43000 46.93200 26.35200
C  6.47500 46.67300 25.39000
C  5.22900 46.47900 25.95300
C  5.44400 46.50200 27.30900
C  6.83500 46.78200 27.53900
C  3.90700 46.37900 25.32200
C  4.78900 46.32100 28.61200
O  3.69600 45.98600 29.00300
C  6.00500 46.56700 29.68300
C  6.01100 45.37100 30.46800
O  6.76200 44.40900 30.37100
O  5.27700 45.51800 31.58400
C  5.16900 44.44900 32.63900
H  12.61300 47.95900 29.05100
H  12.15700 47.75300 22.72300
H  5.92200 46.52800 23.40800
H  8.19300 48.11700 31.09700
H  11.11400 47.31500 31.04900
H  10.99700 49.29300 32.17900
H  9.55100 49.79300 31.50800
H  10.98100 50.19500 30.59100
H  8.85400 45.23000 31.13600
H  7.77600 46.13300 32.22900
H  10.39500 46.82600 33.16000
H  10.42700 45.17300 32.59200
H  15.30800 48.91300 27.26900
H  15.61000 47.30500 27.15500
H  14.56600 47.92900 28.50400
H  16.78000 47.29500 23.72000
H  16.11800 46.61700 25.22200
H  16.38500 48.36500 25.05200
H  10.26300 46.63300 21.11900
H  7.65700 48.04200 21.65400
H  9.19500 49.23600 20.82000
H  10.67800 48.57000 20.14900
H  10.71200 49.30400 21.77500
H  7.29600 45.16800 21.75600
H  8.40200 45.53000 20.31400
H  6.41100 45.64400 19.32000
H  6.41500 47.34200 20.02000
H  5.49200 46.04800 20.69200
H  4.06900 45.78000 24.42600
H  3.62100 47.38400 25.01100
H  3.11000 45.96300 25.93700
H  5.71300 47.38500 30.34100
H  5.23700 43.48700 32.12900
H  4.16400 44.48700 33.05800
H  5.97700 44.50500 33.36800

