158

Mg 42.12600 41.31800 26.82800
C  41.39900 43.26200 29.79300
C  43.61300 39.08400 28.85500
C  42.85000 39.47200 24.14700
C  40.86100 43.82200 24.89300
N  42.32400 41.09900 29.09400
C  41.93000 41.92600 30.03800
C  42.11300 41.34900 31.41600
C  43.19700 40.17400 31.12000
C  43.07900 40.07700 29.59100
C  44.66600 40.45900 31.60100
C  40.83400 41.02700 32.26700
C  40.47100 41.91900 33.55800
H  40.05800 41.20400 34.83400
N  42.89700 39.46900 26.58200
C  43.57700 38.74800 27.53100
C  44.03900 37.50400 26.89600
C  43.59200 37.49700 25.55900
C  43.14700 38.86400 25.34700
C  44.72800 36.42400 27.75000
C  43.67100 36.35900 24.51000
O  43.28400 36.50800 23.39700
C  44.35300 35.10400 24.81600
N  41.97400 41.75100 24.77700
C  42.26400 40.72900 23.89300
C  41.52300 41.01400 22.53100
C  41.11900 42.51200 22.66400
C  41.31600 42.74500 24.15500
C  42.53600 40.79900 21.38900
C  39.66400 42.79700 22.10400
C  39.36200 44.26100 21.76500
N  41.25500 43.09100 27.17800
C  40.89900 44.06800 26.25800
C  40.29600 45.19800 26.98500
C  40.39300 44.93000 28.35300
C  41.06600 43.63800 28.46500
C  39.78300 46.47500 26.33800
C  40.22100 45.42300 29.69800
O  39.60500 46.42000 29.99800
C  40.86400 44.36200 30.67700
C  42.03200 45.02100 31.36600
O  43.03800 45.36100 30.74500
O  41.72000 45.28300 32.67900
C  42.70100 46.12600 33.37900
H  44.14300 38.33700 29.45000
H  43.03400 38.76400 23.33600
H  40.35400 44.69200 24.46900
H  42.64100 42.13500 31.95600
H  43.01400 39.21900 31.61200
H  45.34800 40.64100 30.77100
H  44.88500 39.49400 32.05900
H  44.76400 41.20200 32.39200
H  40.79700 40.03400 32.71300
H  39.95800 41.07400 31.62000
H  39.58600 42.47100 33.24200
H  41.23400 42.69000 33.66600
H  44.97700 35.51600 27.20000
H  44.36800 36.28000 28.76900
H  45.71300 36.85800 27.92400
H  44.43700 34.67000 23.82000
H  43.93700 34.35400 25.48800
H  45.31900 35.38600 25.23400
H  40.65500 40.35500 22.50400
H  41.83000 43.18000 22.17700
H  43.56900 40.67600 21.71500
H  42.40400 41.55700 20.61700
H  42.25400 39.85800 20.91500
H  38.97300 42.46700 22.88000
H  39.58000 42.12600 21.24900
H  39.43500 44.37400 20.68300
H  40.05600 44.97300 22.21100
H  38.33500 44.58900 21.92500
H  38.87500 46.27000 25.77100
H  40.52200 46.95100 25.69300
H  39.61900 47.18400 27.15000
H  40.13000 43.95900 31.37500
H  43.53400 46.39800 32.73100
H  43.12900 45.66700 34.27000
H  42.20400 46.94400 33.90000
Mg -2.07700 35.37100 26.69500
C  -3.92600 34.07100 29.37400
C  -0.84600 37.76100 28.78100
C  -0.46000 36.71900 23.96900
C  -3.55300 32.98700 24.68100
N  -2.25900 35.82000 28.88400
C  -3.05600 35.15400 29.74500
C  -2.84800 35.64500 31.16900
C  -1.93600 36.88800 30.95900
C  -1.64800 36.89700 29.42500
C  -2.66500 38.28600 31.41200
C  -2.23800 34.48900 32.07300
C  -1.78100 34.98400 33.42900
H  -2.17600 34.11200 34.59100
N  -0.87400 37.08500 26.39700
C  -0.46800 37.95800 27.42100
C  0.43800 38.97100 26.94500
C  0.47300 38.72400 25.49300
C  -0.29900 37.44200 25.23400
C  1.06400 39.99700 27.79700
C  1.31100 39.43300 24.46500
O  1.34600 39.12700 23.28800
C  2.21000 40.54800 24.87000
N  -1.99100 34.94200 24.66400
C  -1.25900 35.58200 23.71100
C  -1.22200 34.77000 22.38000
C  -2.28200 33.68300 22.59700
C  -2.69300 33.83900 24.07900
C  -1.24200 35.66000 21.11500
C  -1.64300 32.27200 22.36100
C  -2.56400 31.18400 21.84700
N  -3.56400 33.89900 26.84200
C  -4.05400 32.97800 25.98400
C  -4.89000 31.99200 26.57700
C  -4.87500 32.39200 27.92300
C  -4.05200 33.54200 28.04800
C  -5.52900 30.72100 25.94000
C  -5.40600 32.05500 29.24800
O  -6.10600 31.14600 29.62000
C  -4.69400 33.09700 30.21200
C  -5.63700 33.75300 31.08400
O  -6.54300 34.50700 30.84300
O  -5.34700 33.36300 32.38300
C  -6.09600 33.97600 33.47800
H  -0.30900 38.37900 29.50300
H  0.11500 36.86500 23.05200
H  -3.86800 32.20000 23.99200
H  -3.80500 35.96800 31.57700
H  -0.97400 36.86900 31.46900
H  -2.63100 38.97900 30.57100
H  -2.07700 38.74500 32.20600
H  -3.68400 37.99800 31.67100
H  -1.46100 33.96100 31.51900
H  -2.93400 33.66600 32.23500
H  -2.10400 35.97800 33.74000
H  -0.70000 35.12100 33.45600
H  0.73800 40.08000 28.83400
H  0.91700 40.94800 27.28500
H  2.14400 39.84500 27.78000
H  3.04700 40.20800 25.48000
H  1.68200 41.31300 25.43900
H  2.59400 41.00100 23.95600
H  -0.25500 34.28000 22.27600
H  -3.19800 33.87700 22.03900
H  -1.39500 36.71600 21.33900
H  -1.99000 35.31800 20.39900
H  -0.25300 35.62500 20.65700
H  -1.35500 31.94200 23.35900
H  -0.72400 32.25700 21.77400
H  -3.54500 31.59100 21.60300
H  -2.60900 30.38300 22.58600
H  -2.19300 30.84900 20.87900
H  -6.55100 31.01400 25.70200
H  -5.59000 29.88300 26.63500
H  -5.03000 30.43600 25.01400
H  -3.93400 32.54600 30.76600
H  -5.44300 34.01600 34.35100
H  -7.02000 33.40800 33.58800
H  -6.35100 34.98900 33.16700

