158

Mg 55.91200 24.65400 45.16900
C  53.24800 26.50900 43.87000
C  54.49000 21.82500 43.67900
C  58.78000 22.98600 45.80000
C  57.27000 27.61800 46.47100
N  54.13400 24.27100 43.59900
C  53.19600 25.19600 43.34400
C  52.15100 24.63000 42.38100
C  52.25100 23.13500 42.88000
C  53.75900 22.98400 43.26700
C  51.25000 22.78500 43.95200
C  52.64000 24.91500 40.93300
C  51.70100 25.25100 39.81200
H  51.71600 24.45600 38.39700
N  56.52900 22.65000 44.82800
C  55.78000 21.60900 44.14500
C  56.56800 20.42800 44.16300
C  57.72600 20.68400 45.02400
C  57.73500 22.18000 45.31400
C  56.11800 19.18900 43.39400
C  58.68600 19.60400 45.44100
O  58.47800 18.42500 45.09900
C  59.93600 19.78500 46.19300
N  57.83200 25.29300 45.83700
C  58.79700 24.35000 46.17400
C  60.00300 25.05200 46.79700
C  59.52400 26.47000 47.14200
C  58.15800 26.49100 46.46500
C  60.66200 24.27900 47.98400
C  60.47700 27.68600 46.76600
C  60.90200 28.59700 47.93000
N  55.48500 26.71800 45.07500
C  56.01600 27.78500 45.78100
C  55.24100 28.97700 45.67300
C  54.12800 28.53100 44.88400
C  54.29300 27.17200 44.61500
C  55.41900 30.25200 46.42300
C  52.85500 28.93300 44.32900
O  52.21700 30.00100 44.48400
C  52.22600 27.65500 43.56400
C  52.13400 27.96800 42.17900
O  52.96500 28.51600 41.47900
O  50.79200 27.86800 41.81800
C  50.33200 28.67000 40.66200
H  54.03900 20.87500 43.38600
H  59.66900 22.45500 46.14700
H  57.59700 28.45900 47.08600
H  51.10300 24.89400 42.52400
H  52.04800 22.48700 42.02700
H  50.60000 23.65000 44.08000
H  51.85400 22.42900 44.78700
H  50.65900 21.96500 43.54300
H  53.12400 24.00100 40.59000
H  53.46000 25.62600 41.03500
H  51.76400 26.32400 39.63000
H  50.70900 25.01200 40.19600
H  55.63900 18.49600 44.08700
H  56.95400 18.60100 43.01600
H  55.61100 19.36000 42.44400
H  60.28300 18.78100 46.43700
H  59.59200 20.25500 47.11400
H  60.82200 20.21300 45.72400
H  60.77300 25.10800 46.02700
H  59.39000 26.47800 48.22300
H  61.71200 24.25900 47.69200
H  60.34600 23.26600 48.23000
H  60.66300 24.91100 48.87300
H  60.03200 28.30000 45.98300
H  61.42700 27.28900 46.40800
H  60.90900 29.64600 47.63200
H  61.91200 28.28100 48.19200
H  60.25200 28.38600 48.77900
H  56.46500 30.49600 46.61000
H  54.93400 30.20400 47.39700
H  55.07500 31.02700 45.73800
H  51.20900 27.50300 43.92600
H  49.29100 28.96000 40.80000
H  50.27200 28.12900 39.71700
H  50.92300 29.58200 40.57800
Mg 35.57300 48.09400 25.76500
C  35.84000 45.96200 28.59400
C  34.56000 50.55200 27.84700
C  34.85200 49.88500 23.13300
C  36.23500 45.33600 23.72700
N  35.03500 48.09400 27.94200
C  35.36400 47.19700 28.89700
C  35.15600 47.82900 30.31500
C  34.44600 49.16600 30.00300
C  34.63400 49.23200 28.50000
C  32.87400 49.23900 30.41800
C  36.40100 47.90800 31.22500
C  36.26800 47.44200 32.70200
H  34.90400 47.59000 33.31400
N  34.86700 49.98800 25.53200
C  34.67300 50.87900 26.49300
C  34.44500 52.20400 25.88700
C  34.52900 52.06900 24.46800
C  34.81100 50.60600 24.31800
C  34.20500 53.38900 26.78900
C  34.29200 53.12300 23.32000
O  34.51300 52.87700 22.11500
C  33.67100 54.36400 23.62800
N  35.28400 47.52200 23.71600
C  35.10200 48.52800 22.83400
C  34.98000 47.98600 21.37700
C  35.64200 46.62700 21.57500
C  35.70800 46.45100 23.05700
C  33.56500 47.90900 20.87000
C  36.98700 46.49100 20.88100
C  38.19700 46.89300 21.61400
N  36.12900 46.15000 25.98600
C  36.36800 45.09400 25.13400
C  36.89500 43.96200 25.81700
C  36.66400 44.19100 27.14200
C  36.11700 45.55600 27.27200
C  37.42000 42.65200 25.24100
C  36.75700 43.66500 28.44700
O  37.14500 42.59200 28.88600
C  36.26000 44.84200 29.45000
C  35.03700 44.37100 30.21100
O  34.06000 43.89400 29.77900
O  35.28400 44.44600 31.54700
C  34.28400 43.87900 32.42400
H  34.19000 51.35000 28.49500
H  34.60200 50.53900 22.29500
H  36.66200 44.49000 23.18300
H  34.39200 47.22300 30.80000
H  34.92400 50.01900 30.48500
H  32.58200 50.20200 30.83800
H  32.70900 48.53900 31.23700
H  32.26900 49.01400 29.53900
H  36.86000 48.89700 31.24200
H  37.08800 47.19800 30.76500
H  37.01600 47.93500 33.32300
H  36.50900 46.39400 32.88000
H  33.11900 53.47700 26.75900
H  34.59900 54.27400 26.28900
H  34.71800 53.36300 27.75000
H  34.39600 55.16300 23.77900
H  33.18900 54.22400 24.59600
H  32.89100 54.63700 22.91700
H  35.63000 48.62200 20.77500
H  34.95000 45.89300 21.16100
H  32.92900 48.54000 21.49200
H  33.18400 46.90600 21.06600
H  33.48400 48.13500 19.80700
H  37.04300 46.98500 19.91100
H  37.15100 45.42800 20.70200
H  38.40500 45.98600 22.18100
H  37.96500 47.59100 22.41900
H  39.10500 47.13400 21.06100
H  38.43600 42.66800 25.63600
H  37.45400 42.39900 24.18100
H  36.77700 41.92200 25.73400
H  37.08500 44.97700 30.15000
H  34.00500 42.90600 32.02000
H  33.42100 44.54500 32.44600
H  34.70400 43.67800 33.40900

