158

Mg 45.10100 4.58200 45.34900
C  43.10800 7.39100 45.84700
C  42.43900 2.62700 45.11500
C  47.29400 2.14300 44.58500
C  47.77500 6.88300 45.06600
N  42.94100 4.98700 45.40100
C  42.33400 6.15000 45.69700
C  40.77000 5.95700 45.87600
C  40.65000 4.33300 45.78900
C  42.11200 3.94400 45.44300
C  40.08100 3.64000 47.06900
C  39.91700 6.67400 44.75300
C  40.64100 7.13200 43.50000
H  40.09800 6.79200 42.08900
N  44.86900 2.63900 44.79100
C  43.67900 2.03400 44.82400
C  43.87700 0.61700 44.36900
C  45.31700 0.46600 44.23700
C  45.90000 1.78600 44.53100
C  42.77000 -0.38400 44.28500
C  46.05300 -0.81100 43.87600
O  45.46900 -1.87800 44.00300
C  47.51000 -0.90000 43.63800
N  47.26300 4.56200 44.80100
C  47.92900 3.33200 44.75700
C  49.43100 3.52300 44.66400
C  49.61300 5.11000 44.57300
C  48.14700 5.55300 44.82700
C  50.24700 2.88000 45.75700
C  50.08500 5.58900 43.13900
C  49.20300 5.19800 41.91700
N  45.45100 6.68800 45.46000
C  46.55700 7.40100 45.32400
C  46.28700 8.81000 45.48000
C  44.92300 8.82200 45.85500
C  44.44900 7.55200 45.68600
C  47.25200 9.87400 45.47000
C  43.79500 9.67100 46.16000
O  43.71500 10.91200 46.28600
C  42.57000 8.69900 46.29600
C  42.00400 8.70600 47.67800
O  42.45800 8.10900 48.61100
O  40.77300 9.35800 47.67900
C  39.92400 9.26900 48.91600
H  41.61600 1.92000 45.23300
H  48.05900 1.36600 44.52300
H  48.66300 7.51600 45.11900
H  40.50100 6.37400 46.84600
H  40.02900 4.08600 44.92700
H  39.95700 4.30800 47.92200
H  40.82400 2.87600 47.30000
H  39.09500 3.21100 46.89100
H  39.57800 7.59400 45.22900
H  39.02000 6.13300 44.45400
H  41.60500 6.63500 43.38900
H  40.80800 8.20900 43.48500
H  42.91300 -0.97100 43.37800
H  41.84600 0.19400 44.24600
H  42.68000 -0.98000 45.19300
H  47.81700 -1.84100 43.18200
H  48.06900 -0.91300 44.57400
H  47.78700 -0.05000 43.01500
H  49.59500 3.06400 43.68900
H  50.31800 5.47800 45.31800
H  49.50900 2.58900 46.50400
H  51.04400 3.50100 46.16600
H  50.64800 1.98600 45.28000
H  51.02300 5.12900 42.82700
H  50.28800 6.65800 43.21000
H  49.28600 5.90100 41.08800
H  48.12500 5.13000 42.05900
H  49.51400 4.24200 41.49600
H  47.59000 10.05600 44.45000
H  48.11000 9.61200 46.08800
H  46.82900 10.79600 45.86800
H  41.75900 8.89600 45.59500
H  39.40900 8.31000 48.97200
H  39.14400 10.00100 48.70600
H  40.47600 9.56700 49.80800
Mg 17.12100 50.91700 26.12300
C  18.79100 49.91900 29.02900
C  14.64100 52.09100 28.00200
C  15.70800 51.81700 23.23000
C  19.81900 49.57100 24.32500
N  16.73000 50.73700 28.32000
C  17.54600 50.38700 29.32000
C  16.95400 50.69700 30.72700
C  15.48700 51.14700 30.38500
C  15.53600 51.26700 28.80600
C  14.37000 50.18500 30.84400
C  17.87800 51.81200 31.46100
C  18.18500 51.50900 32.99500
H  17.29600 50.55100 33.77800
N  15.45700 51.84900 25.72300
C  14.57900 52.32700 26.64000
C  13.59800 53.20200 25.99100
C  13.88000 53.12000 24.58200
C  15.01300 52.19200 24.46100
C  12.45800 53.90000 26.75900
C  13.27600 53.87800 23.36600
O  13.65800 53.71000 22.21900
C  12.12800 54.84100 23.68000
N  17.65700 50.59700 24.03200
C  16.88800 51.09200 23.01600
C  17.51000 50.78400 21.62100
C  18.82700 50.13500 22.06400
C  18.75800 50.08400 23.55800
C  16.54800 50.03300 20.71100
C  20.07000 50.92400 21.54900
C  20.28800 52.36500 22.11000
N  18.90500 50.02200 26.49000
C  19.91800 49.48600 25.68900
C  20.98600 48.82600 26.47000
C  20.54300 49.02500 27.77700
C  19.29600 49.73900 27.74900
C  22.25400 48.17600 25.94600
C  20.96600 48.75800 29.11600
O  21.97900 48.19500 29.46400
C  19.86400 49.38300 30.05400
C  19.31500 48.21800 30.97200
O  18.55100 47.38500 30.50700
O  19.75000 48.24900 32.28900
C  19.48900 46.95800 32.95200
H  13.79400 52.53100 28.53100
H  15.26600 52.21800 22.31500
H  20.70700 49.29900 23.75100
H  16.88000 49.78000 31.31100
H  15.25500 52.18100 30.63900
H  14.37900 49.90200 31.89700
H  14.40500 49.34900 30.14500
H  13.48900 50.81300 30.71200
H  17.37400 52.77200 31.35000
H  18.75200 51.88500 30.81400
H  18.11000 52.48200 33.47900
H  19.21800 51.18000 33.11200
H  11.54000 54.02900 26.18600
H  12.73200 54.90500 27.08100
H  12.07700 53.24300 27.54100
H  12.34300 55.60600 24.42700
H  11.18700 54.38100 23.98200
H  11.95000 55.41300 22.76900
H  17.56500 51.72300 21.07000
H  18.94100 49.16500 21.57900
H  16.78300 49.18400 20.06900
H  15.94900 50.59900 19.99800
H  15.72200 49.66200 21.31800
H  19.83600 51.01900 20.48900
H  21.02000 50.40800 21.69000
H  21.33200 52.50400 22.38900
H  19.70200 52.50500 23.01800
H  19.88300 53.07400 21.38800
H  22.71700 48.74700 25.14100
H  21.83700 47.22400 25.61800
H  23.04700 48.04300 26.68200
H  20.33000 50.14800 30.67500
H  19.83200 46.11400 32.35300
H  18.47600 46.77900 33.31300
H  20.04000 46.85100 33.88700

