158

Mg 2.15500 -1.69500 44.06600
C  5.45800 -0.78000 43.51000
C  1.23200 1.14800 42.30600
C  -1.09600 -2.63900 44.34900
C  3.17100 -4.79900 45.29700
N  3.21900 -0.03700 42.92700
C  4.54200 0.10100 42.90400
C  4.95900 1.30900 41.95800
C  3.61900 2.00100 41.68700
C  2.63800 1.05100 42.39500
C  3.51800 3.48500 42.27600
C  5.75200 0.86700 40.70600
C  7.15500 1.41500 40.48600
H  7.32800 2.15700 39.05700
N  0.31700 -0.90100 43.38000
C  0.20800 0.30100 42.79200
C  -1.18300 0.60500 42.56800
C  -1.94200 -0.44400 43.12900
C  -0.91100 -1.37700 43.72100
C  -1.62500 1.71400 41.72500
C  -3.41600 -0.55000 43.25100
O  -4.06100 0.34500 42.71800
C  -4.08200 -1.58000 44.10900
N  1.20100 -3.53700 44.66400
C  -0.15500 -3.62400 44.70000
C  -0.60000 -4.91400 45.33400
C  0.73600 -5.68100 45.58200
C  1.80100 -4.64700 45.11400
C  -1.54800 -4.82100 46.57700
C  0.96800 -7.00700 44.83900
C  1.85500 -8.00200 45.60200
N  3.96300 -2.64100 44.40200
C  4.17500 -3.87900 44.89700
C  5.62700 -4.03200 44.99700
C  6.19100 -2.85800 44.47800
C  5.11700 -2.02500 44.11600
C  6.41100 -5.34000 45.42600
C  7.46700 -2.09200 44.23600
O  8.62400 -2.28800 44.47500
C  6.94900 -0.82900 43.53800
C  7.49700 0.29900 44.27800
O  7.16300 0.68400 45.44800
O  8.46000 0.82500 43.41100
C  9.06700 2.10000 43.79100
H  0.94000 2.00900 41.70000
H  -2.13000 -2.99000 44.31700
H  3.44300 -5.75100 45.75700
H  5.65200 1.95200 42.50100
H  3.33100 2.08600 40.63900
H  4.52800 3.86700 42.41800
H  2.83100 3.59600 43.11600
H  3.08200 4.19000 41.56900
H  5.15000 1.05600 39.81700
H  5.87700 -0.21300 40.78700
H  7.84300 0.57100 40.52600
H  7.39800 2.18400 41.22000
H  -1.76300 2.55500 42.40500
H  -2.61500 1.52800 41.30900
H  -0.86000 1.86400 40.96400
H  -5.15000 -1.41700 44.25200
H  -3.59700 -1.61300 45.08500
H  -3.90200 -2.50700 43.56500
H  -1.18800 -5.58300 44.70500
H  0.82500 -5.96100 46.63100
H  -1.39100 -5.56000 47.36300
H  -2.62500 -4.76700 46.42200
H  -1.44400 -3.81100 46.97400
H  1.33100 -6.69000 43.86200
H  0.01400 -7.48600 44.62000
H  2.89500 -8.04200 45.27900
H  1.45300 -8.99900 45.42100
H  1.82600 -7.89300 46.68600
H  6.59000 -5.88800 44.50100
H  5.88100 -5.99200 46.12100
H  7.37900 -5.08600 45.85800
H  7.38400 -0.84900 42.53900
H  9.73700 2.03100 44.64800
H  8.21300 2.71100 44.08200
H  9.56500 2.56600 42.94100
Mg 26.63600 50.22300 26.36300
C  24.54400 51.58400 28.83700
C  28.80400 49.35100 28.84900
C  28.80900 49.06400 23.99400
C  24.53400 51.50600 23.94100
N  26.68200 50.54400 28.60800
C  25.73600 51.07800 29.40400
C  26.06400 50.91600 30.83300
C  27.59300 50.51300 30.84000
C  27.70600 50.06400 29.32600
C  28.60300 51.54500 31.36000
C  25.16700 49.86400 31.61300
C  24.46800 50.40500 32.96100
H  25.41700 51.09500 33.97800
N  28.44300 49.23300 26.42600
C  29.18400 48.96500 27.54100
C  30.45400 48.26900 27.16900
C  30.48600 48.24600 25.75000
C  29.21600 48.78900 25.35200
C  31.44800 47.75400 28.20200
C  31.53400 47.70000 24.81000
O  31.47900 47.81800 23.64300
C  32.66200 46.89100 25.30600
N  26.69300 50.31900 24.28200
C  27.68000 49.77500 23.49900
C  27.36700 49.80300 21.99600
C  25.95300 50.52300 21.95300
C  25.66000 50.79000 23.53600
C  28.44400 50.61100 21.13200
C  24.85000 49.65000 21.30700
C  23.56200 50.39800 20.89600
N  24.80900 51.37100 26.32000
C  24.09800 51.79700 25.26400
C  22.96800 52.54300 25.74900
C  23.04200 52.44300 27.18300
C  24.22400 51.73500 27.45800
C  21.80400 53.04600 25.05100
C  22.49100 52.83700 28.40200
O  21.56300 53.59000 28.65400
C  23.35300 52.27300 29.54600
C  23.90300 53.38300 30.33500
O  24.96800 53.96900 30.08900
O  23.07200 53.73200 31.38700
C  23.58300 54.80000 32.20200
H  29.43900 49.05900 29.68800
H  29.46700 48.72600 23.19100
H  23.92700 51.79200 23.07900
H  25.90000 51.90300 31.26400
H  27.70800 49.73400 31.59400
H  28.09100 52.43700 31.72300
H  29.35600 51.73700 30.59700
H  29.16500 51.09300 32.17700
H  25.84200 49.03100 31.81000
H  24.42000 49.40400 30.96500
H  23.90300 49.64000 33.49400
H  23.73400 51.16300 32.69000
H  31.47200 46.68100 28.39100
H  31.38600 48.24300 29.17400
H  32.42600 48.01000 27.79500
H  33.53300 47.44400 25.65700
H  32.91200 46.24900 24.46100
H  32.41800 46.12900 26.04600
H  27.32500 48.77000 21.64900
H  26.17900 51.46200 21.44900
H  28.64400 49.99000 20.25900
H  29.30100 50.81700 21.77400
H  28.21200 51.60500 20.75000
H  24.57200 48.71500 21.79400
H  25.30100 49.24500 20.40100
H  22.85100 50.15400 21.68500
H  23.15600 50.00900 19.96200
H  23.56100 51.48700 20.84500
H  21.83600 54.13400 25.00000
H  20.91400 52.89400 25.66200
H  21.71000 52.71500 24.01600
H  22.71900 51.63500 30.16200
H  23.77500 55.70200 31.62100
H  24.48700 54.49000 32.72600
H  22.87000 54.98400 33.00600

