158

Mg 35.19400 48.65800 25.92800
C  35.49100 46.68500 28.86500
C  33.87400 51.07500 27.80700
C  34.87100 50.26900 23.15200
C  35.90400 45.62400 24.05700
N  34.59100 48.72200 27.96600
C  34.95100 47.91100 29.03000
C  34.65800 48.59600 30.38600
C  33.78100 49.83200 29.97500
C  34.15100 49.92100 28.46800
C  32.24800 49.72400 30.31300
C  36.02900 49.00700 30.99900
C  36.35400 48.41800 32.40900
H  36.17400 49.37200 33.61500
N  34.56600 50.51100 25.49500
C  34.02900 51.37600 26.44300
C  33.81800 52.63600 25.72700
C  34.21500 52.40700 24.41300
C  34.57400 51.00800 24.32300
C  33.31600 53.80600 26.48200
C  34.26800 53.41400 23.26400
O  34.50900 53.06300 22.14200
C  34.03200 54.89100 23.62000
N  35.26900 48.01700 23.89700
C  35.11700 48.91300 22.91600
C  35.11800 48.27600 21.48300
C  35.75800 46.88900 21.85700
C  35.58100 46.81800 23.37400
C  33.64000 48.21700 20.87000
C  37.24800 46.67900 21.45600
C  37.50700 45.33400 20.66500
N  35.61200 46.51900 26.35700
C  35.89500 45.47700 25.47800
C  36.11700 44.24700 26.28100
C  36.11000 44.72300 27.62300
C  35.66600 46.09800 27.57700
C  36.39200 42.86600 25.78300
C  36.23300 44.38300 29.02100
O  36.52400 43.34400 29.57100
C  35.90100 45.65000 29.89800
C  34.71700 45.16500 30.71600
O  33.53600 44.97400 30.32100
O  35.17000 44.97100 32.01400
C  34.08300 44.82600 33.07700
H  33.49300 51.83000 28.49700
H  34.81900 50.78000 22.18900
H  36.24100 44.78700 23.44200
H  34.13000 47.88900 31.02600
H  33.99800 50.80600 30.41300
H  31.62700 50.16600 29.53400
H  32.06500 50.15500 31.29700
H  32.02900 48.65800 30.36700
H  36.18400 50.08500 30.93900
H  36.88000 48.58400 30.46400
H  37.37000 48.03000 32.48300
H  35.68200 47.59300 32.64400
H  34.07900 54.57900 26.57400
H  32.81800 53.68600 27.44400
H  32.49700 54.25900 25.92500
H  34.52900 55.27400 24.51100
H  32.97300 54.95500 23.87300
H  34.12500 55.48300 22.70900
H  35.76400 48.80800 20.78500
H  35.10500 46.06600 21.56800
H  33.35800 47.21000 20.56500
H  33.46200 48.87000 20.01600
H  32.89400 48.61700 21.55700
H  37.87300 46.57800 22.34300
H  37.61300 47.57900 20.96200
H  38.47200 45.55800 20.21100
H  36.85800 45.21100 19.79700
H  37.48800 44.49000 21.35400
H  36.12100 42.81200 24.72900
H  35.84900 42.01600 26.19600
H  37.46800 42.69300 25.76500
H  36.75300 45.88700 30.53500
H  33.92500 43.77100 33.30200
H  33.12100 45.21200 32.73800
H  34.48700 45.31200 33.96500
Mg -11.86400 38.80700 41.90300
C  -9.50900 36.22200 41.26700
C  -9.78900 40.83400 40.25600
C  -14.34100 40.97100 41.91100
C  -14.11000 36.21900 42.78200
N  -10.05200 38.45600 40.54700
C  -9.23600 37.37000 40.55100
C  -8.07400 37.59600 39.56900
C  -8.08400 39.12700 39.34000
C  -9.43000 39.51800 40.02800
C  -6.91100 39.96900 40.02400
C  -8.27300 36.70700 38.28200
C  -6.97800 36.06100 37.77100
H  -6.19900 36.79200 36.73400
N  -11.95100 40.70400 41.27300
C  -10.93200 41.42200 40.75600
C  -11.22200 42.79500 40.68400
C  -12.60900 42.82000 41.02900
C  -13.05700 41.42700 41.45900
C  -10.34900 43.99100 40.22200
C  -13.51000 44.02900 40.96300
O  -13.01500 45.09700 40.64300
C  -14.95500 44.09800 41.38600
N  -13.92100 38.57400 42.20800
C  -14.68100 39.69400 42.24800
C  -16.13800 39.35400 42.55700
C  -16.09100 37.84500 42.78900
C  -14.64200 37.48200 42.58700
C  -16.70300 40.30600 43.67900
C  -17.03600 36.96600 41.89500
C  -17.56800 35.56700 42.50700
N  -11.83700 36.62300 42.07400
C  -12.78400 35.76500 42.53800
C  -12.25900 34.45900 42.73900
C  -10.89900 34.58300 42.29100
C  -10.76600 35.87000 41.77900
C  -13.01500 33.26500 43.52100
C  -9.60200 33.94000 42.20600
O  -9.27300 32.81200 42.46900
C  -8.64700 34.89900 41.36900
C  -7.38800 34.98900 42.11300
O  -6.61400 34.01200 42.14600
O  -7.18400 36.27200 42.59000
C  -6.05200 36.45100 43.50600
H  -9.12600 41.60600 39.85900
H  -15.10000 41.74100 42.06500
H  -14.73400 35.35500 43.01800
H  -7.20900 37.43100 40.21200
H  -8.20000 39.47100 38.31300
H  -7.10900 40.36000 41.02200
H  -6.71500 40.75100 39.29100
H  -5.98200 39.40000 40.02400
H  -8.60900 37.34100 37.46200
H  -8.90500 35.83400 38.44600
H  -7.24300 35.03100 37.53000
H  -6.27600 35.98000 38.60100
H  -10.76000 44.57100 39.39500
H  -9.36100 43.63200 39.93200
H  -10.00900 44.68400 40.99100
H  -15.30200 45.12300 41.25900
H  -15.00900 43.81900 42.43800
H  -15.49400 43.35100 40.80200
H  -16.58300 39.63500 41.60200
H  -16.47500 37.54200 43.76300
H  -17.20800 41.21900 43.36300
H  -15.88800 40.56300 44.35500
H  -17.36800 39.69400 44.28800
H  -16.34800 36.80200 41.06600
H  -17.81300 37.59800 41.46400
H  -18.65000 35.50000 42.39500
H  -17.27600 35.39900 43.54400
H  -17.30100 34.74400 41.84400
H  -12.35100 32.51100 43.94300
H  -13.74500 32.81500 42.84800
H  -13.45600 33.72800 44.40300
H  -8.48600 34.46700 40.38200
H  -5.26600 36.90300 42.90100
H  -5.63000 35.49100 43.80200
H  -6.30800 37.08000 44.35800

