158

Mg 49.84300 46.94500 43.63200
C  46.37000 47.07700 43.00300
C  49.84800 43.81300 42.08400
C  53.21600 47.17500 43.43000
C  49.72400 50.35300 44.32700
N  48.25800 45.58800 42.73200
C  46.95300 45.87800 42.51500
C  46.22900 44.63900 41.93700
C  47.25000 43.45700 42.21600
C  48.55400 44.28500 42.30300
C  46.98000 42.69700 43.55900
C  45.71900 44.88500 40.50700
C  44.16800 44.72900 40.37400
H  43.58600 45.24000 39.03900
N  51.37600 45.61700 42.99700
C  51.11700 44.43400 42.34000
C  52.36900 43.82600 41.84200
C  53.37200 44.77700 42.27900
C  52.66200 45.93700 42.92200
C  52.47200 42.45800 41.17700
C  54.93800 44.63900 42.03200
O  55.33400 43.60600 41.43400
C  55.91400 45.65900 42.53800
N  51.25300 48.45100 43.94800
C  52.57100 48.26300 43.99400
C  53.28300 49.41900 44.61800
C  52.32500 50.56000 44.75700
C  50.99500 49.75200 44.40000
C  54.01800 49.03900 45.90300
C  52.73700 51.81600 43.93000
C  52.30500 53.19700 44.64900
N  48.38300 48.47700 43.61300
C  48.47100 49.79600 43.96800
C  47.12900 50.36700 44.04000
C  46.30400 49.35700 43.63200
C  47.10500 48.23300 43.41800
C  46.72800 51.77400 44.31900
C  44.96900 48.98900 43.31600
O  43.89200 49.58800 43.33400
C  44.93200 47.48800 42.93100
C  44.17800 46.73900 43.96400
O  44.63500 46.03300 44.86500
O  42.88800 46.79100 43.55600
C  41.88700 45.94000 44.21000
H  49.82200 42.75100 41.83100
H  54.29800 47.31800 43.38300
H  49.71500 51.36600 44.73500
H  45.36700 44.38700 42.55500
H  47.30200 42.76000 41.38000
H  47.78200 42.68200 44.29800
H  46.93300 41.61800 43.41600
H  45.97200 42.96300 43.87700
H  46.23000 44.15500 39.87900
H  46.01800 45.85800 40.11500
H  43.70600 45.27200 41.19800
H  43.96100 43.66700 40.50400
H  53.34200 41.99500 41.64300
H  52.84000 42.47300 40.15100
H  51.63100 41.77500 41.29700
H  55.67100 46.57600 42.00000
H  56.93100 45.29700 42.39000
H  55.67600 45.87400 43.58000
H  54.06500 49.72300 43.92200
H  52.02000 50.80600 45.77400
H  53.80600 48.03000 46.25700
H  53.83400 49.68500 46.76200
H  55.07400 49.10000 45.64000
H  52.26800 51.78400 42.94600
H  53.81500 51.83700 43.77200
H  51.67400 53.68800 43.90900
H  53.12900 53.90300 44.75800
H  51.64100 53.15800 45.51300
H  47.30200 52.21600 45.13300
H  45.65400 51.75000 44.50200
H  46.89500 52.51000 43.53200
H  44.60900 47.28500 41.91000
H  41.34100 45.45900 43.39900
H  41.25800 46.59200 44.81700
H  42.23800 45.09500 44.80100
Mg 16.66500 52.22700 26.39500
C  18.52500 50.79500 29.06700
C  14.13000 52.93100 28.65900
C  14.81700 53.31000 23.80200
C  19.14400 51.21000 24.29200
N  16.44700 51.95200 28.67900
C  17.31100 51.38600 29.51800
C  16.81200 51.54900 30.96400
C  15.31500 51.91400 30.71100
C  15.25100 52.33300 29.21000
C  14.30400 50.80100 30.99900
C  17.62300 52.68300 31.63300
C  18.36400 52.15500 32.95600
H  17.61300 52.35100 34.23000
N  14.75200 53.13400 26.24300
C  13.93000 53.41700 27.32300
C  12.79300 54.20700 26.86300
C  12.99900 54.30900 25.44800
C  14.24100 53.56500 25.09000
C  11.58300 54.64900 27.75000
C  12.19100 55.05100 24.37400
O  12.56200 55.08200 23.18100
C  10.87500 55.69300 24.74300
N  16.98000 52.36700 24.37600
C  16.00100 52.74400 23.51500
C  16.45200 52.55600 22.06100
C  17.86300 51.96800 22.26900
C  18.04300 51.82900 23.75600
C  15.44800 51.68800 21.23400
C  18.90500 52.73700 21.48800
C  19.85000 51.81400 20.66100
N  18.47800 51.20000 26.56300
C  19.39100 50.82500 25.59600
C  20.44000 49.99800 26.22400
C  20.10100 49.94700 27.58700
C  18.95500 50.72300 27.73600
C  21.71700 49.59200 25.56400
C  20.55300 49.50700 28.86500
O  21.47000 48.78200 29.21200
C  19.60200 50.09000 29.87800
C  19.21000 49.04000 30.84300
O  18.61800 48.03500 30.45000
O  19.76500 49.17300 32.07500
C  19.38500 48.20300 33.12400
H  13.39100 53.10500 29.44400
H  14.20600 53.61100 22.94900
H  19.83700 50.88300 23.51300
H  16.83000 50.57700 31.45800
H  14.94500 52.82900 31.17300
H  13.45200 51.35200 31.39600
H  14.74400 50.01900 31.61800
H  13.92100 50.33300 30.09200
H  16.95900 53.50700 31.89200
H  18.48100 53.02000 31.05100
H  19.23000 52.81400 33.02600
H  18.58100 51.09100 32.86200
H  11.75700 54.53600 28.82000
H  10.67300 54.09100 27.53000
H  11.40500 55.71800 27.63200
H  10.45300 56.05500 23.80500
H  11.09800 56.56600 25.35600
H  10.24700 54.93500 25.21100
H  16.52800 53.56300 21.65100
H  17.91400 50.95600 21.86700
H  14.71900 51.21800 21.89400
H  15.84800 51.04300 20.45100
H  14.82900 52.38900 20.67500
H  19.52100 53.15400 22.28400
H  18.54400 53.60100 20.93000
H  20.21100 52.40900 19.82100
H  19.35100 50.97000 20.18600
H  20.69000 51.40700 21.22500
H  22.39800 50.42500 25.74400
H  21.61500 49.55800 24.48000
H  22.11300 48.67300 25.99700
H  20.20400 50.79600 30.45000
H  19.53400 48.59800 34.12900
H  19.84700 47.21600 33.16000
H  18.32200 47.97900 33.03800

