158

Mg 24.18300 -4.85700 45.02600
C  26.17200 -2.16400 43.79600
C  21.65800 -3.64700 43.13900
C  22.41900 -7.65300 45.90300
C  26.97800 -6.08200 46.67300
N  23.99500 -3.09700 43.48500
C  24.86500 -2.09300 43.30200
C  24.32200 -1.15800 42.20200
C  22.77400 -1.45100 42.27100
C  22.75000 -2.79400 43.03800
C  22.14000 -0.34200 43.09400
C  24.97900 -1.55400 40.85000
C  25.69900 -0.47700 40.02100
H  25.41000 -0.36200 38.60900
N  22.27500 -5.61200 44.53000
C  21.38900 -4.90300 43.79900
C  20.13200 -5.72400 43.74700
C  20.30600 -6.81900 44.69200
C  21.69300 -6.70300 45.14300
C  19.01300 -5.30900 42.82900
C  19.26700 -7.83700 45.02100
O  18.21900 -7.70500 44.41700
C  19.47700 -8.96000 46.07000
N  24.68000 -6.62600 45.96700
C  23.76600 -7.66400 46.20200
C  24.45800 -8.88900 46.89300
C  25.81200 -8.31700 47.25300
C  25.86200 -6.94200 46.58300
C  23.70400 -9.46800 48.11500
C  26.99800 -9.23400 46.82000
C  27.71600 -10.06500 47.92300
N  26.18900 -4.34000 45.20100
C  27.19700 -4.89400 45.95000
C  28.42200 -4.18400 45.74700
C  28.08900 -3.19300 44.90100
C  26.71100 -3.24500 44.66800
C  29.69600 -4.53100 46.40100
C  28.59400 -1.99700 44.25500
O  29.78200 -1.59500 44.31000
C  27.37300 -1.32300 43.45500
C  27.16700 0.14100 43.95100
O  26.41300 0.48100 44.85100
O  27.91600 1.04400 43.25300
C  28.03900 2.37400 43.88400
H  20.75000 -3.26900 42.66500
H  21.86600 -8.51200 46.28900
H  27.81500 -6.37500 47.31000
H  24.58700 -0.12200 42.41100
H  22.33900 -1.48500 41.27200
H  21.51800 -0.80600 43.86000
H  21.60000 0.26800 42.37000
H  22.91100 0.27800 43.55300
H  24.21500 -1.92200 40.16500
H  25.78300 -2.26000 41.05400
H  26.77000 -0.60000 40.17600
H  25.46700 0.51600 40.40800
H  19.06600 -4.32700 42.35800
H  18.08200 -5.45600 43.37500
H  18.91500 -5.96100 41.96000
H  19.71100 -8.52200 47.04000
H  20.25700 -9.65300 45.75700
H  18.55600 -9.52000 46.23900
H  24.37900 -9.60700 46.07700
H  25.85500 -8.20800 48.33700
H  23.12000 -10.28500 47.69100
H  22.89400 -8.80600 48.42100
H  24.33900 -9.81200 48.93200
H  27.73100 -8.57400 46.35700
H  26.67200 -9.77600 45.93200
H  28.76400 -10.25000 47.68700
H  27.22100 -11.03500 47.96700
H  27.67200 -9.51200 48.86200
H  29.90900 -5.42700 45.81800
H  29.51200 -4.81100 47.43900
H  30.46000 -3.77300 46.23000
H  27.44800 -1.29300 42.36800
H  27.11600 2.93400 44.03700
H  28.70700 3.03500 43.33100
H  28.38800 2.14500 44.89100
Mg -5.56500 26.06800 26.57800
C  -4.41600 27.66900 29.48300
C  -7.40900 24.09100 28.46300
C  -6.52500 24.51100 23.67700
C  -3.27600 27.87100 24.69200
N  -5.71000 25.89100 28.63900
C  -5.11700 26.58400 29.71400
C  -5.74700 26.25000 31.03200
C  -6.34100 24.81200 30.66800
C  -6.53300 24.89600 29.20800
C  -5.58600 23.55700 31.16000
C  -6.83200 27.20600 31.67500
C  -6.88500 27.27200 33.24500
H  -6.08300 26.20400 34.01900
N  -6.78800 24.51400 26.13600
C  -7.59100 23.91400 27.10000
C  -8.36000 22.86600 26.47700
C  -8.11200 22.91000 25.08500
C  -7.10600 24.00700 24.88000
C  -9.22200 21.94800 27.24600
C  -8.64900 21.97100 23.89200
O  -8.36900 22.15500 22.72000
C  -9.60200 20.85500 24.22100
N  -5.06900 26.28100 24.47000
C  -5.56300 25.47600 23.49000
C  -4.99600 25.77300 22.15200
C  -3.89800 26.81000 22.42200
C  -4.12000 27.04200 23.94300
C  -4.25800 24.52300 21.53200
C  -4.26800 28.08600 21.68000
C  -3.84500 28.25500 20.19900
N  -4.16900 27.52500 26.91400
C  -3.36200 28.18600 26.06600
C  -2.59000 29.16100 26.84100
C  -3.01900 29.00900 28.20600
C  -4.03200 28.02500 28.20300
C  -1.49400 29.97600 26.22400
C  -2.78400 29.56800 29.48100
O  -2.08400 30.46400 29.93300
C  -3.82300 28.77600 30.36400
C  -3.01400 28.30300 31.52800
O  -2.04300 27.56100 31.44000
O  -3.29900 29.04000 32.63600
C  -2.30200 28.83000 33.76600
H  -7.80600 23.39100 29.20000
H  -6.81000 23.98400 22.76400
H  -2.40700 28.29200 24.18200
H  -4.87900 26.18300 31.68800
H  -7.37300 24.76400 31.01500
H  -6.11300 23.13900 32.01800
H  -4.61400 23.89700 31.52000
H  -5.49300 22.87800 30.31300
H  -7.82900 27.07700 31.25500
H  -6.47100 28.17700 31.33500
H  -7.92100 27.37400 33.56800
H  -6.29200 28.17400 33.40100
H  -10.26700 21.92300 26.93700
H  -9.18900 22.25700 28.29100
H  -8.86400 20.92900 27.10700
H  -9.27300 20.23400 25.05400
H  -9.72900 20.20500 23.35500
H  -10.54400 21.15300 24.68100
H  -5.81700 26.16800 21.55400
H  -2.88400 26.44500 22.25800
H  -4.37500 23.64300 22.16500
H  -3.18500 24.55000 21.34500
H  -4.87100 24.32400 20.65300
H  -3.86300 28.91300 22.26400
H  -5.34000 28.26900 21.76300
H  -3.55300 27.29400 19.77500
H  -2.97800 28.91300 20.14300
H  -4.64700 28.81300 19.71600
H  -1.90100 30.66100 25.48000
H  -0.80500 29.31200 25.70300
H  -0.99000 30.56600 26.98900
H  -4.54200 29.50600 30.73700
H  -1.29400 28.97400 33.37600
H  -2.43600 27.86900 34.26300
H  -2.49300 29.58100 34.53200

