158

Mg 25.20200 1.80900 30.11900
C  27.40100 1.71400 32.85800
C  22.59000 2.17400 32.36800
C  23.18700 1.81700 27.40200
C  27.87600 0.97600 27.93500
N  25.09300 2.13300 32.32300
C  26.10100 2.10400 33.21500
C  25.67800 2.48700 34.63700
C  24.14700 2.42900 34.52100
C  23.86700 2.20100 33.02500
C  23.39400 1.39800 35.46100
C  26.28500 3.78900 35.17600
C  26.92400 3.65800 36.56700
H  26.63600 4.71800 37.59000
N  23.12500 1.85500 29.88000
C  22.29500 2.02300 31.00900
C  20.96700 1.99400 30.36600
C  21.07100 1.86600 28.92500
C  22.50900 1.78800 28.72800
C  19.64600 2.13100 31.16300
C  19.98900 1.80500 27.83500
O  20.25600 1.54800 26.66600
C  18.56400 1.98100 28.15100
N  25.53800 1.33300 28.00900
C  24.52700 1.64600 27.03500
C  25.04100 1.54500 25.56700
C  26.60900 1.38400 25.83700
C  26.71800 1.27600 27.34600
C  24.38100 0.50100 24.64500
C  27.54000 2.50800 25.14900
C  27.61600 3.81100 25.98000
N  27.17500 1.42400 30.31500
C  28.11300 1.01500 29.38100
C  29.31800 0.57600 30.07800
C  29.16600 0.99500 31.43300
C  27.78300 1.46400 31.51500
C  30.53200 -0.01200 29.42300
C  29.76100 1.13300 32.68300
O  30.92000 1.05000 33.01500
C  28.67300 1.65900 33.66500
C  28.56300 0.70500 34.75500
O  27.86000 -0.35500 34.79900
O  29.30100 1.22400 35.81800
C  29.28800 0.52300 37.11300
H  21.77200 2.36800 33.06500
H  22.54100 1.77500 26.52200
H  28.71900 0.82500 27.25700
H  26.01200 1.65800 35.26200
H  23.64900 3.35700 34.79800
H  22.87100 0.59500 34.94100
H  22.62800 1.99800 35.95200
H  24.00200 0.99600 36.27200
H  25.47400 4.51400 35.11200
H  27.09000 4.01100 34.47600
H  28.00600 3.60500 36.44400
H  26.62300 2.67300 36.92400
H  19.03100 3.01800 31.01500
H  19.73700 1.96800 32.23700
H  19.01000 1.30300 30.85000
H  18.56000 2.93800 28.67400
H  18.32200 1.16300 28.82900
H  17.91500 1.94100 27.27600
H  24.89300 2.56200 25.20200
H  26.85400 0.40900 25.41800
H  23.96400 0.98900 23.76400
H  23.57000 -0.00900 25.16500
H  25.09400 -0.28400 24.39500
H  27.38800 2.54900 24.07000
H  28.57000 2.16700 25.25100
H  27.37900 4.62900 25.29900
H  28.63800 3.99400 26.31100
H  26.89100 3.86400 26.79200
H  30.85000 -0.84100 30.05500
H  31.36400 0.68400 29.31400
H  30.47300 -0.50600 28.45300
H  28.97000 2.61700 34.09400
H  28.47500 0.82800 37.77300
H  30.16700 0.83200 37.67900
H  29.54200 -0.53400 37.04500
Mg 26.62500 50.82700 27.02800
C  24.41200 51.83700 29.52800
C  29.02600 50.26700 29.51700
C  28.87400 50.37400 24.62800
C  24.31900 52.01700 24.62900
N  26.76700 51.33500 29.21700
C  25.66900 51.49000 30.03200
C  25.93400 51.08100 31.49800
C  27.50800 50.83300 31.52700
C  27.79900 50.75100 29.97700
C  28.38500 51.92800 32.23200
C  25.03500 49.95100 32.06100
C  24.18100 50.18700 33.29600
H  24.35700 49.22500 34.40200
N  28.69200 50.23400 27.08000
C  29.44500 49.97100 28.14900
C  30.70500 49.49200 27.70900
C  30.66200 49.53100 26.31800
C  29.36600 50.11000 25.92300
C  31.74600 49.07300 28.68600
C  31.73500 49.05400 25.43100
O  31.68000 49.13900 24.18300
C  33.03300 48.45500 25.93800
N  26.63800 51.21500 24.94600
C  27.64000 50.79200 24.20500
C  27.26000 50.66100 22.70500
C  25.80700 51.21300 22.68300
C  25.52300 51.45300 24.14700
C  28.33100 51.43300 21.71900
C  24.73800 50.38600 21.92800
C  24.14800 51.05400 20.69400
N  24.70700 51.78900 26.95800
C  23.87900 52.27200 25.95700
C  22.66400 52.75000 26.49700
C  22.76600 52.50800 27.88800
C  24.06600 51.98500 28.11500
C  21.51700 53.27800 25.81400
C  22.04600 52.56800 29.12300
O  20.93300 52.90000 29.34800
C  23.11400 52.21800 30.27300
C  23.21400 53.35500 31.15800
O  23.64500 54.46600 30.93600
O  22.81600 52.91500 32.41000
C  22.92300 53.91800 33.50500
H  29.59700 49.80700 30.32600
H  29.52000 50.14700 23.77700
H  23.45500 52.09700 23.96600
H  25.76100 51.97600 32.09700
H  27.84400 49.89100 31.95900
H  29.13800 51.49500 32.89000
H  27.72100 52.55600 32.82500
H  28.83700 52.51100 31.42900
H  25.62200 49.03800 32.16000
H  24.41900 49.70500 31.19500
H  23.17200 50.23300 32.88400
H  24.35700 51.20500 33.64000
H  31.42600 49.00400 29.72600
H  32.62200 49.71800 28.61300
H  31.92000 48.02100 28.45900
H  33.71900 48.38000 25.09500
H  32.79700 47.44700 26.28000
H  33.45500 49.03700 26.75700
H  27.20900 49.61300 22.41200
H  25.78800 52.21500 22.25400
H  29.30900 51.66000 22.14300
H  27.87700 52.32100 21.27900
H  28.46100 50.68500 20.93700
H  23.97300 50.08900 22.64600
H  25.24300 49.48600 21.57600
H  23.21200 51.56100 20.92700
H  23.96300 50.29900 19.92900
H  24.82800 51.79400 20.27200
H  21.78200 54.03800 25.07900
H  20.87500 53.78600 26.53300
H  21.02000 52.38300 25.43900
H  22.64200 51.39100 30.80400
H  22.93900 54.97500 33.24000
H  23.87500 53.81600 34.02700
H  22.13800 53.81000 34.25400

