158

Mg 7.77700 2.93200 26.89700
C  9.21700 1.68800 29.99500
C  5.55800 4.59700 28.86600
C  6.33500 3.91100 24.06300
C  9.60700 0.48900 25.22800
N  7.54600 3.21500 29.16300
C  8.20300 2.62200 30.23100
C  7.63300 3.04700 31.57100
C  6.29900 3.84400 31.18400
C  6.42900 3.83500 29.61300
C  4.96300 3.08700 31.64600
C  8.62400 3.80700 32.38700
C  8.54200 3.51500 33.92100
H  9.37800 4.45000 34.85400
N  6.36500 4.32500 26.51900
C  5.55300 4.86400 27.45200
C  4.68700 5.85100 26.81500
C  4.94100 5.72800 25.39100
C  5.92100 4.62400 25.21400
C  3.65700 6.72700 27.50300
C  4.49700 6.64700 24.17600
O  4.75300 6.35200 23.02000
C  3.66400 7.91600 24.54400
N  8.00300 2.30400 24.94000
C  7.20000 2.80600 23.91100
C  7.49100 2.09600 22.57600
C  8.68600 1.13100 22.95700
C  8.82200 1.32900 24.45200
C  6.26100 1.32300 22.14300
C  10.06100 1.51700 22.21200
C  10.71100 0.23000 21.66300
N  9.18700 1.49600 27.42000
C  9.78700 0.57000 26.61500
C  10.69600 -0.20600 27.39100
C  10.53400 0.21600 28.74100
C  9.58900 1.26200 28.67100
C  11.62300 -1.32000 26.90200
C  11.02200 0.01300 30.07600
O  11.92600 -0.68200 30.60600
C  10.03900 0.93200 30.95200
C  9.32400 0.01200 31.96300
O  8.23800 -0.55700 31.69500
O  9.98800 -0.02500 33.22100
C  9.16300 -0.67400 34.27800
H  4.93700 5.25200 29.48200
H  5.96400 4.32200 23.12100
H  10.19400 -0.28500 24.73000
H  7.43000 2.13900 32.13800
H  6.32100 4.86600 31.56200
H  5.16100 2.21000 32.26200
H  4.32200 2.85700 30.79500
H  4.37900 3.71200 32.32200
H  8.59100 4.89000 32.26500
H  9.64200 3.54700 32.09600
H  9.01200 2.54000 34.04800
H  7.51800 3.46800 34.29200
H  2.70300 6.44700 27.05600
H  3.68600 7.81500 27.44900
H  3.48100 6.43400 28.53800
H  4.32500 8.65300 24.99800
H  2.80800 7.73400 25.19400
H  3.16500 8.21200 23.62100
H  7.64900 2.89600 21.85200
H  8.43800 0.08700 22.76900
H  5.38800 1.50900 22.77000
H  6.34200 0.25600 21.93500
H  5.90800 1.55800 21.13900
H  10.68900 2.08300 22.90000
H  9.80600 2.20700 21.40900
H  11.41100 0.60500 20.91500
H  10.02400 -0.47200 21.19100
H  11.18700 -0.41600 22.40100
H  11.10500 -1.67400 26.01000
H  11.53100 -2.15900 27.59200
H  12.60500 -0.93100 26.63300
H  10.64900 1.56900 31.59300
H  8.51300 0.11900 34.64700
H  9.85000 -0.87400 35.10100
H  8.57600 -1.56600 34.06000
Mg -2.48000 34.29500 26.59500
C  -3.88700 32.72700 29.31300
C  -0.53500 36.25700 28.58800
C  -1.51800 36.04300 23.81500
C  -4.46500 32.21800 24.47400
N  -2.30500 34.47000 28.73600
C  -2.92700 33.73500 29.68800
C  -2.25600 33.98400 31.06000
C  -1.22800 35.20600 30.78800
C  -1.37600 35.39200 29.27200
C  -1.46300 36.55200 31.54300
C  -1.59900 32.72600 31.69100
C  -1.47700 32.91000 33.23000
H  -2.35200 32.13100 34.22000
N  -1.20900 35.98500 26.25600
C  -0.46300 36.56000 27.20400
C  0.27700 37.65700 26.54900
C  -0.09500 37.62000 25.17900
C  -0.92000 36.52200 25.03400
C  1.35800 38.50100 27.30300
C  0.20700 38.61400 24.11700
O  -0.17000 38.49600 22.91900
C  0.94800 39.82700 24.42000
N  -2.95400 34.15400 24.44400
C  -2.35600 34.92100 23.47800
C  -2.69100 34.51800 22.01700
C  -3.51700 33.22600 22.34500
C  -3.74200 33.21800 23.80300
C  -3.58800 35.59700 21.24700
C  -2.81500 31.91900 21.85400
C  -3.65100 30.78300 21.29900
N  -3.96800 32.89800 26.78700
C  -4.58400 32.03300 25.81700
C  -5.34400 31.02000 26.51000
C  -5.18500 31.30500 27.86500
C  -4.29400 32.42700 27.97700
C  -6.14200 29.91900 25.94000
C  -5.53600 30.92200 29.21500
O  -6.32200 30.08300 29.61700
C  -4.80300 31.85500 30.17900
C  -5.81200 32.48100 31.02200
O  -6.76900 33.15000 30.60800
O  -5.54000 32.27300 32.32800
C  -6.34200 32.85500 33.33600
H  0.14100 36.73100 29.30200
H  -1.18800 36.47000 22.86600
H  -5.09700 31.67300 23.77000
H  -2.99600 34.37600 31.75700
H  -0.26100 34.89500 31.18300
H  -2.02800 37.32200 31.01700
H  -0.50600 36.88400 31.94600
H  -2.13300 36.44800 32.39700
H  -0.57700 32.62700 31.32500
H  -2.09300 31.79600 31.41000
H  -1.51300 33.96700 33.49200
H  -0.44100 32.64100 33.43500
H  2.32500 38.42900 26.80400
H  1.47900 38.21000 28.34700
H  1.03700 39.54100 27.24900
H  0.37500 40.44900 25.10800
H  0.96300 40.37500 23.47700
H  1.91200 39.52900 24.83100
H  -1.72400 34.34300 21.54600
H  -4.54200 33.29000 21.97800
H  -3.70100 36.50200 21.84400
H  -4.60600 35.33000 20.96200
H  -3.04100 35.99000 20.39000
H  -2.41600 31.51800 22.78600
H  -1.99300 32.10200 21.16100
H  -2.96900 30.48400 20.50300
H  -4.62500 31.19900 21.04300
H  -3.78400 29.97800 22.02200
H  -7.15800 30.31300 25.90600
H  -6.14300 29.06500 26.61700
H  -5.61900 29.63500 25.02700
H  -4.16700 31.24600 30.82200
H  -7.10700 32.09200 33.48200
H  -6.82700 33.79100 33.05900
H  -5.67100 33.09200 34.16200

