158

Mg 41.24100 41.36900 26.67300
C  40.74700 44.11800 29.01900
C  41.87100 39.31700 29.35900
C  42.06500 39.10400 24.52000
C  41.14300 43.77200 24.19000
N  41.27500 41.73900 28.92600
C  40.91900 42.80900 29.64100
C  40.96600 42.55500 31.10700
C  41.43700 41.02600 31.32500
C  41.63600 40.70700 29.80200
C  42.74500 40.60500 32.12800
C  39.64700 42.86300 31.92500
C  39.81400 43.78900 33.19400
H  39.32100 43.25900 34.54800
N  41.80500 39.48300 26.93000
C  42.00500 38.80600 28.08700
C  42.41300 37.45800 27.82800
C  42.38400 37.33000 26.42300
C  42.07600 38.70300 25.88200
C  42.90200 36.42200 28.90400
C  42.58400 36.14000 25.53000
O  42.46600 36.17500 24.31700
C  43.12900 34.89700 26.08000
N  41.69200 41.39000 24.65000
C  41.85600 40.31200 23.94900
C  41.67800 40.56600 22.43500
C  41.35700 42.10600 22.35000
C  41.41600 42.48000 23.82900
C  42.90400 40.10300 21.57500
C  40.01100 42.48300 21.69700
C  38.69300 42.26200 22.46500
N  40.94900 43.53400 26.56500
C  41.00500 44.31700 25.45000
C  40.83100 45.66500 25.90600
C  40.78000 45.62500 27.31500
C  40.84100 44.32300 27.66700
C  40.79200 46.85300 25.09700
C  40.70600 46.40800 28.46600
O  40.69100 47.61900 28.62500
C  40.68600 45.42300 29.65800
C  41.81700 45.79500 30.52900
O  42.96600 45.34000 30.40400
O  41.42100 46.79900 31.37600
C  42.56200 47.30500 32.17500
H  42.06300 38.79000 30.29600
H  42.11900 38.45200 23.64600
H  41.05200 44.57000 23.45000
H  41.77400 43.09500 31.60000
H  40.67700 40.33200 31.68300
H  42.69300 39.60800 32.56500
H  42.70700 41.36100 32.91200
H  43.59500 40.70600 31.45200
H  39.26800 41.92100 32.32100
H  38.89300 43.39400 31.34300
H  39.15900 44.64900 33.05800
H  40.86100 43.98700 33.42400
H  43.92300 36.07400 28.74100
H  42.32200 35.50500 29.01100
H  42.89500 36.87400 29.89600
H  42.41600 34.49600 26.80000
H  44.01000 35.08700 26.69400
H  43.38000 34.22100 25.26200
H  40.76300 40.02000 22.20500
H  42.15900 42.62000 21.82000
H  43.64400 39.53700 22.14000
H  43.57300 40.77500 21.03700
H  42.52200 39.33300 20.90500
H  39.85400 42.01000 20.72800
H  40.06500 43.52700 21.38700
H  38.80100 42.03500 23.52600
H  38.17300 41.48800 21.90000
H  38.15800 43.20300 22.34300
H  40.04300 47.57100 25.42900
H  40.57100 46.69100 24.04200
H  41.75800 47.34700 24.98800
H  39.69700 45.61000 30.07500
H  43.34900 47.72400 31.54800
H  43.06900 46.48900 32.69000
H  42.28500 48.11200 32.85300
Mg -2.21200 34.51100 27.03200
C  -4.24800 32.95300 29.46500
C  -0.93700 36.49000 29.50600
C  -0.73500 36.24700 24.64900
C  -3.78500 32.59600 24.53600
N  -2.71900 34.84000 29.19400
C  -3.39200 33.91900 30.01800
C  -3.18700 34.23600 31.49000
C  -2.41100 35.59700 31.35500
C  -2.03500 35.69200 29.89000
C  -3.08800 36.85300 31.89600
C  -2.41600 33.18100 32.33300
C  -3.27700 32.55400 33.41200
H  -3.86300 33.46700 34.48200
N  -0.86400 36.06500 27.06000
C  -0.39800 36.64500 28.23200
C  0.51200 37.71600 27.79600
C  0.59100 37.70100 26.36900
C  -0.35200 36.65800 25.96000
C  1.16300 38.69400 28.74100
C  1.46900 38.39700 25.48900
O  1.56700 38.06700 24.32700
C  2.39100 39.56500 25.91500
N  -2.32800 34.48800 24.91900
C  -1.56900 35.26900 24.13500
C  -1.57400 34.87500 22.66300
C  -2.58100 33.73200 22.65800
C  -2.88500 33.55200 24.16400
C  -1.87400 36.07000 21.72300
C  -1.88700 32.43700 21.96600
C  -0.61100 31.81800 22.71200
N  -3.68700 33.05900 26.95000
C  -4.24200 32.40900 25.86700
C  -5.23800 31.40900 26.31300
C  -5.27000 31.50400 27.78000
C  -4.35800 32.58300 28.08500
C  -5.91800 30.28900 25.47500
C  -5.81700 31.06300 29.02400
O  -6.64700 30.21100 29.30800
C  -5.15200 31.89400 30.16500
C  -6.23900 32.51500 30.92900
O  -6.62500 33.68100 30.73600
O  -6.61000 31.60700 31.90900
C  -7.66700 32.11400 32.84900
H  -0.36400 36.92700 30.32600
H  -0.26700 36.67700 23.76200
H  -4.37600 32.03200 23.81100
H  -4.16500 34.32600 31.96300
H  -1.52900 35.42700 31.97300
H  -3.58600 36.71200 32.85500
H  -3.84100 37.11000 31.15100
H  -2.27300 37.57000 31.99500
H  -1.57700 33.59100 32.89600
H  -1.96900 32.40600 31.71100
H  -2.63400 31.96800 34.06900
H  -4.04200 31.85600 33.07400
H  0.84200 39.67900 28.40300
H  2.24500 38.57500 28.68400
H  0.89500 38.51600 29.78200
H  1.86900 40.49000 26.16000
H  3.07900 39.73900 25.08700
H  2.97000 39.22600 26.77400
H  -0.57000 34.58000 22.35800
H  -3.48200 34.15000 22.21000
H  -2.84700 36.01000 21.23500
H  -1.18700 36.06400 20.87600
H  -1.86900 36.96200 22.35000
H  -1.48400 32.77000 21.00900
H  -2.74300 31.77600 21.82700
H  -1.06600 30.89200 23.06500
H  -0.48000 32.43200 23.60300
H  0.34900 31.77300 22.19900
H  -5.80600 29.36000 26.03400
H  -5.47100 30.20100 24.48400
H  -6.95700 30.58400 25.33100
H  -4.64300 31.21000 30.84500
H  -7.40600 33.12300 33.16900
H  -7.83200 31.41300 33.66600
H  -8.60500 32.28900 32.32300

