158

Mg 36.16100 2.82700 30.93700
C  33.27100 3.19100 32.86400
C  37.97500 3.19900 33.76800
C  38.81200 2.01200 29.18900
C  34.30800 3.00400 28.04200
N  35.57900 3.09800 33.03900
C  34.40900 3.13600 33.65200
C  34.54100 3.10200 35.17200
C  36.06900 3.44700 35.36100
C  36.61100 3.25100 33.95200
C  36.26500 4.96600 35.82100
C  34.17700 1.71100 35.67400
C  33.89900 1.67700 37.21400
H  34.40500 2.77900 38.19100
N  38.15200 2.60500 31.40100
C  38.72300 2.87000 32.61600
C  40.17400 2.49900 32.54400
C  40.38500 1.97600 31.24800
C  39.08700 2.17700 30.53000
C  41.24500 2.62400 33.74400
C  41.55200 1.14600 30.72500
O  41.55500 0.61900 29.60900
C  42.67700 0.90500 31.69700
N  36.59600 2.88800 28.82400
C  37.80200 2.42500 28.32700
C  37.79800 2.03900 26.87800
C  36.25200 2.29900 26.51400
C  35.70600 2.82200 27.86400
C  38.82000 2.76900 26.07900
C  35.45700 1.12600 25.84900
C  35.10600 1.35100 24.33700
N  34.18800 2.97000 30.50500
C  33.59200 3.15000 29.28400
C  32.13600 3.48300 29.50100
C  31.91100 3.41500 30.88500
C  33.23900 3.18100 31.43000
C  31.08500 3.78600 28.35600
C  30.99300 3.52500 32.04500
O  29.79100 3.67500 32.07200
C  31.86700 3.42700 33.33600
C  31.66700 4.71200 34.00900
O  32.27000 5.75100 33.70200
O  30.89700 4.57200 35.15600
C  31.19900 5.48700 36.26300
H  38.71000 3.27500 34.57200
H  39.59400 1.39100 28.74800
H  33.65600 2.98300 27.16700
H  33.92600 3.93700 35.50600
H  36.56300 2.80400 36.08900
H  36.83800 5.49700 35.06100
H  36.79400 4.99400 36.77300
H  35.34300 5.54100 35.91300
H  34.95500 0.95100 35.60500
H  33.35100 1.28300 35.10600
H  34.22800 0.69100 37.54500
H  32.81000 1.67000 37.26700
H  40.81400 3.17500 34.58000
H  42.14800 3.08000 33.33700
H  41.43600 1.59700 34.05700
H  43.08200 1.86100 32.02900
H  43.40700 0.40200 31.06300
H  42.32600 0.22900 32.47700
H  38.03300 0.98500 26.73200
H  36.25200 3.22000 25.93000
H  38.33700 3.51500 25.44800
H  39.53600 2.10300 25.59800
H  39.35800 3.38400 26.80000
H  34.53500 0.92400 26.39300
H  36.00000 0.18100 25.81600
H  35.74800 0.75300 23.69000
H  35.04800 2.39500 24.02800
H  34.08600 1.06200 24.08500
H  31.44900 4.34200 27.49200
H  30.30100 4.42100 28.76700
H  30.66700 2.79800 28.16500
H  31.38800 2.70700 34.00000
H  32.25600 5.74400 36.20800
H  31.01000 4.84200 37.12100
H  30.50500 6.32800 36.27100
Mg 48.45400 45.13900 43.83400
C  45.29300 45.73000 42.31700
C  48.51200 41.99200 42.40300
C  51.80800 45.05800 44.45400
C  48.48600 48.55500 44.79700
N  47.05000 44.08200 42.42100
C  45.83200 44.46800 42.09400
C  45.08400 43.26400 41.47900
C  46.04300 42.00200 41.65800
C  47.28900 42.72500 42.20700
C  45.52900 40.85800 42.65800
C  44.67800 43.50000 39.96800
C  43.67000 42.45500 39.45400
H  44.06700 41.73400 38.12800
N  49.97500 43.69800 43.54200
C  49.73000 42.46400 42.92800
C  50.97700 41.83700 42.91200
C  51.96500 42.56400 43.65400
C  51.29600 43.81900 43.92200
C  51.14100 40.48000 42.25500
C  53.40600 42.13900 43.94000
O  53.94900 41.22600 43.32300
C  54.26600 42.84000 44.88100
N  50.00700 46.71600 44.37400
C  51.26000 46.27400 44.72400
C  52.14400 47.47700 45.10600
C  51.07200 48.54200 45.45400
C  49.75100 47.93800 44.83700
C  53.11700 47.17700 46.31000
C  51.41500 49.95600 44.89300
C  51.22500 51.00900 46.03000
N  47.17200 46.80500 43.75200
C  47.30300 48.04000 44.24900
C  46.01500 48.77100 44.06900
C  45.22800 47.84100 43.36600
C  45.99100 46.68700 43.09300
C  45.68300 50.15300 44.63500
C  43.89000 47.65000 42.64000
O  43.00800 48.45400 42.52100
C  43.90700 46.18500 41.94400
C  42.75800 45.40000 42.43000
O  42.64200 45.13300 43.63300
O  41.90000 45.05000 41.43300
C  40.75500 44.23400 41.87200
H  48.47000 40.91300 42.24200
H  52.89600 45.07400 44.54800
H  48.47000 49.60000 45.11600
H  44.16200 43.05800 42.02300
H  46.26100 41.53000 40.70000
H  46.34800 40.52500 43.29700
H  45.21100 40.12400 41.91800
H  44.64000 41.24000 43.16000
H  45.53600 43.27900 39.33400
H  44.46900 44.51200 39.62000
H  42.71000 42.95500 39.32100
H  43.54700 41.72500 40.25400
H  52.08300 40.53200 41.70900
H  50.36700 40.17300 41.55200
H  51.20700 39.76300 43.07300
H  53.81400 42.89600 45.87200
H  54.49100 43.78100 44.37900
H  55.20400 42.31900 45.07400
H  52.64200 47.68800 44.16000
H  50.92100 48.63800 46.53000
H  53.19300 48.05200 46.95600
H  54.13700 46.98800 45.97500
H  52.77200 46.29500 46.85000
H  50.82900 50.10100 43.98600
H  52.45200 50.04900 44.56900
H  50.17300 51.23700 46.20200
H  51.78400 51.93900 45.92800
H  51.48300 50.64400 47.02400
H  46.63400 50.68400 44.67700
H  45.13900 50.02100 45.57000
H  45.09800 50.73800 43.92500
H  43.70400 46.50400 40.92200
H  40.96700 43.50600 42.65600
H  40.41100 43.57000 41.07900
H  40.02400 44.93000 42.28400

