158

Mg 47.52800 16.60900 29.65400
C  45.51000 16.13000 32.48700
C  49.77800 18.30600 31.65300
C  49.26900 17.64900 26.96800
C  45.12000 15.31100 27.72600
N  47.64100 17.11500 31.80900
C  46.72500 16.74800 32.74000
C  47.29000 17.10100 34.12200
C  48.51900 17.94800 33.83100
C  48.67900 17.82300 32.32900
C  48.55500 19.41000 34.57300
C  47.54400 15.76400 34.96800
C  46.94200 15.61900 36.40700
H  46.89800 16.89200 37.27700
N  49.40700 17.67500 29.40100
C  50.14900 18.26400 30.31000
C  51.42300 18.74300 29.71800
C  51.29100 18.62000 28.33200
C  49.91600 17.93800 28.17800
C  52.70900 19.30600 30.45400
C  52.19400 18.91700 27.20400
O  51.90400 18.70900 26.05600
C  53.57900 19.45600 27.50100
N  47.37400 16.21800 27.57000
C  48.15400 16.86400 26.63600
C  47.58300 16.67300 25.21500
C  46.22300 15.96900 25.50000
C  46.20300 15.78300 27.04500
C  47.38800 17.93900 24.32600
C  45.99500 14.66700 24.65100
C  45.50800 14.97200 23.18600
N  45.69500 15.79200 29.93500
C  44.79000 15.30200 29.05400
C  43.60200 14.86800 29.80100
C  43.78900 15.14200 31.14400
C  45.10300 15.69700 31.18000
C  42.36900 14.19700 29.25800
C  43.28300 15.01900 32.52800
O  42.28200 14.56500 32.98500
C  44.42900 15.56500 33.43000
C  43.70900 16.62300 34.22900
O  43.47400 17.80500 33.98700
O  43.15800 15.93500 35.32800
C  42.50300 16.86000 36.22100
H  50.37900 18.95300 32.29500
H  49.73900 18.05300 26.06900
H  44.24600 15.12300 27.09900
H  46.50500 17.71700 34.56100
H  49.31000 17.33900 34.26600
H  47.94200 19.44200 35.47400
H  48.12900 20.15700 33.90300
H  49.60000 19.65200 34.76700
H  48.61400 15.55700 34.98800
H  47.12000 14.91000 34.44000
H  47.45800 14.84200 36.97100
H  45.86900 15.42800 36.41800
H  53.47400 18.54100 30.58000
H  52.36100 19.49100 31.47000
H  52.99700 20.15800 29.83800
H  53.54400 20.50600 27.79100
H  54.27800 19.38100 26.66800
H  54.00800 18.78000 28.24000
H  48.22900 16.01000 24.63900
H  45.40200 16.62700 25.21600
H  47.63500 18.87500 24.82800
H  46.46900 18.01900 23.74500
H  48.09000 17.89800 23.49300
H  45.23100 14.09400 25.17700
H  46.85700 14.02000 24.49200
H  45.69100 16.03200 23.01200
H  44.42700 14.84500 23.12000
H  46.03200 14.33400 22.47500
H  41.45200 14.69200 29.57900
H  42.32100 13.17500 29.63300
H  42.25900 14.18300 28.17300
H  44.91600 14.79300 34.02500
H  41.90400 17.53300 35.60900
H  43.19500 17.32600 36.92300
H  41.81400 16.24400 36.80000
Mg 0.45700 43.28300 25.43700
C  2.23000 43.05900 28.28600
C  -2.46300 42.52500 27.23200
C  -1.16400 42.26400 22.59900
C  3.33100 43.87100 23.54000
N  -0.06600 42.81000 27.56100
C  0.82800 42.91800 28.59700
C  0.21800 42.83300 30.00900
C  -1.29800 42.72300 29.54100
C  -1.28800 42.61400 28.03800
C  -2.13800 41.56300 30.27800
C  0.51900 44.02800 31.07700
C  0.92200 43.74100 32.46600
H  0.61300 42.30600 33.16400
N  -1.47200 42.57900 24.92500
C  -2.49800 42.51800 25.83300
C  -3.75000 42.43600 25.08500
C  -3.39300 42.20700 23.73600
C  -1.96000 42.35100 23.73400
C  -5.08200 42.63300 25.81800
C  -4.32100 41.98200 22.42900
O  -3.92100 42.11800 21.29700
C  -5.72700 41.74900 22.66700
N  1.05000 42.99500 23.31600
C  0.15800 42.57600 22.40200
C  0.83700 42.64400 20.98400
C  2.13600 43.50900 21.31300
C  2.18000 43.46100 22.83900
C  1.14800 41.31700 20.29200
C  2.19800 44.99400 20.75700
C  2.26000 46.12300 21.76100
N  2.46900 43.41900 25.80200
C  3.51800 43.70300 24.93500
C  4.70100 43.83100 25.77300
C  4.26200 43.61800 27.08200
C  2.85100 43.30200 27.05800
C  6.10000 44.19300 25.35000
C  4.67300 43.51300 28.45700
O  5.79000 43.62500 28.95100
C  3.43900 43.09800 29.28900
C  3.73300 41.89300 30.14700
O  3.38100 40.75300 29.88200
O  4.37700 42.30500 31.33100
C  4.83400 41.19700 32.18900
H  -3.35700 42.47400 27.85700
H  -1.69900 41.78100 21.77800
H  4.23100 44.26800 23.06600
H  0.60100 41.93900 30.50100
H  -1.81200 43.64200 29.82300
H  -2.84600 42.08700 30.92000
H  -1.48800 40.88200 30.82800
H  -2.74600 41.09900 29.50200
H  -0.41000 44.58500 31.20100
H  1.23500 44.72300 30.63800
H  0.37900 44.30800 33.22100
H  1.97500 44.00300 32.57500
H  -5.83400 43.09000 25.17500
H  -4.99500 43.32000 26.66000
H  -5.56300 41.78500 26.30500
H  -5.85200 41.03300 23.48000
H  -6.22900 41.42700 21.75500
H  -6.26200 42.69200 22.77200
H  0.09800 43.20200 20.40900
H  3.05100 42.98000 21.04900
H  1.24500 40.60500 21.11200
H  2.13500 41.32000 19.83100
H  0.39900 41.11100 19.52800
H  1.45000 45.31600 20.03200
H  3.16000 44.93000 20.24700
H  1.28600 46.14400 22.25000
H  2.38000 47.14800 21.41200
H  2.93600 46.04700 22.61200
H  6.32500 45.11800 25.88100
H  6.24400 44.21700 24.27000
H  6.85500 43.50500 25.73000
H  3.48000 43.90200 30.02500
H  5.54400 40.63700 31.58200
H  3.93800 40.67100 32.51800
H  5.28200 41.73000 33.02800

