158

Mg 47.39800 25.09300 28.76300
C  48.29300 27.18500 31.32900
C  46.14800 22.97500 31.25600
C  46.80400 22.96900 26.40000
C  48.77600 27.30700 26.42200
N  47.02800 25.18000 31.02400
C  47.46200 26.17200 31.82700
C  47.07100 25.96800 33.26800
C  46.54600 24.43700 33.27300
C  46.56800 24.17400 31.76500
C  47.24800 23.29800 34.06500
C  46.02700 26.99300 33.78100
C  46.23800 27.75800 35.13800
H  44.95600 28.08100 35.98700
N  46.51700 23.34300 28.79800
C  46.04200 22.59500 29.85100
C  45.43800 21.42600 29.43900
C  45.61800 21.35700 27.99000
C  46.38300 22.57200 27.67300
C  44.79400 20.41900 30.31400
C  45.32000 20.20100 27.04200
O  45.69100 20.25900 25.86200
C  44.74200 18.80700 27.49400
N  48.09200 24.98900 26.66800
C  47.40900 24.07700 25.91300
C  47.84600 24.24600 24.47000
C  48.14400 25.77900 24.41800
C  48.38500 26.07200 25.90200
C  49.09900 23.32200 24.16800
C  46.98700 26.59100 23.79300
C  47.03800 26.47900 22.21200
N  48.39100 26.86900 28.83900
C  48.86900 27.72000 27.79600
C  49.33000 28.93800 28.38300
C  49.22000 28.70600 29.75600
C  48.61200 27.48000 29.99200
C  49.84000 30.12800 27.64800
C  49.40100 29.31800 31.09500
O  49.82200 30.41500 31.45300
C  48.96800 28.25800 32.17300
C  50.05700 27.79200 33.11100
O  51.05400 27.15600 32.76100
O  49.82700 28.33100 34.38300
C  51.02300 28.23500 35.28500
H  45.64400 22.28900 31.94000
H  46.45300 22.28700 25.62200
H  49.10600 27.98100 25.63000
H  48.01100 26.02600 33.81700
H  45.48500 24.31700 33.49200
H  47.96600 22.70600 33.49800
H  46.56100 22.56300 34.48500
H  47.74900 23.79100 34.89900
H  45.04000 26.53300 33.79800
H  45.94200 27.79500 33.04700
H  46.77700 28.70500 35.11200
H  46.77500 27.10400 35.82500
H  45.54400 19.71000 30.66400
H  44.00200 19.84200 29.83800
H  44.36600 20.86700 31.21100
H  45.42400 18.43300 28.25800
H  44.67500 18.11000 26.65900
H  43.76100 18.97000 27.94200
H  47.06500 24.01100 23.74700
H  49.06300 25.99400 23.87300
H  49.16900 22.70200 25.06100
H  50.09100 23.76900 24.09400
H  48.98100 22.68100 23.29400
H  47.02700 27.63500 24.10500
H  46.04800 26.08300 24.00900
H  46.19900 26.07100 21.64700
H  47.93900 26.00300 21.82600
H  47.17100 27.51800 21.90900
H  50.88300 30.28100 27.92300
H  49.24400 30.97400 27.99000
H  49.71800 30.12800 26.56500
H  48.17100 28.81200 32.66800
H  50.88000 27.41200 35.98500
H  51.12700 29.21400 35.75200
H  51.93300 28.06400 34.71100
Mg -12.23100 16.56000 43.02000
C  -9.57900 14.37800 42.19400
C  -10.77800 19.01900 41.26700
C  -15.28100 17.87000 42.98100
C  -13.87000 13.44000 44.29500
N  -10.30500 16.61500 41.93200
C  -9.42700 15.67700 41.73100
C  -8.17200 16.28500 41.04800
C  -8.49400 17.81800 41.16700
C  -9.99100 17.90500 41.44600
C  -7.80600 18.44700 42.27500
C  -7.74600 15.83000 39.62000
C  -6.23700 15.55600 39.39600
H  -5.68100 16.53100 38.27900
N  -13.00300 18.29200 42.28400
C  -12.17600 19.22200 41.60300
C  -13.02000 20.27200 41.17100
C  -14.38800 19.94000 41.55100
C  -14.29300 18.63500 42.30500
C  -12.56700 21.45400 40.32100
C  -15.63000 20.75300 41.32600
O  -15.53500 21.85100 40.87100
C  -17.06600 20.32200 41.61800
N  -14.32200 15.71100 43.52700
C  -15.37300 16.56300 43.41500
C  -16.66200 15.78200 43.60900
C  -16.26800 14.42900 44.26500
C  -14.72700 14.55000 44.05000
C  -17.71700 16.58900 44.44700
C  -16.99400 13.22700 43.73000
C  -18.21200 12.65700 44.47600
N  -11.78900 14.34800 43.35900
C  -12.49900 13.30500 43.92500
C  -11.79600 12.04600 43.74700
C  -10.59400 12.46100 43.15300
C  -10.68100 13.86600 42.96500
C  -12.17800 10.61200 44.12500
C  -9.29400 11.98000 42.62500
O  -8.78200 10.85100 42.70900
C  -8.57900 13.24600 42.05900
C  -7.29400 13.49800 42.73800
O  -7.23900 13.98400 43.86500
O  -6.18800 13.16800 41.91800
C  -4.88700 13.72500 42.35600
H  -10.26700 19.79800 40.69600
H  -16.22300 18.41100 43.08300
H  -14.37600 12.58200 44.74200
H  -7.45000 15.98000 41.80500
H  -8.14800 18.36500 40.29100
H  -6.80800 18.82800 42.05800
H  -7.67100 17.79700 43.14000
H  -8.42400 19.24200 42.69300
H  -8.06700 16.62000 38.94100
H  -8.40600 15.01600 39.31800
H  -6.32900 14.49300 39.17700
H  -5.71400 15.67600 40.34500
H  -12.99100 21.33700 39.32300
H  -11.48300 21.52200 40.23000
H  -12.78500 22.36600 40.87600
H  -17.34500 20.46700 42.66200
H  -17.33800 19.31100 41.31500
H  -17.64400 20.90200 40.89900
H  -17.02400 15.55200 42.60700
H  -16.32800 14.51100 45.35100
H  -18.43000 16.96500 43.71300
H  -17.28700 17.30400 45.14800
H  -18.18400 15.81300 45.05400
H  -16.26700 12.46000 43.46600
H  -17.38200 13.41200 42.72800
H  -18.14500 12.85700 45.54500
H  -18.32600 11.57600 44.39500
H  -19.16700 13.11900 44.22500
H  -11.50500 10.45300 44.96800
H  -11.96400 9.92900 43.30300
H  -13.20900 10.57200 44.47400
H  -8.51700 13.00800 40.99700
H  -4.60300 13.12700 43.22200
H  -4.99000 14.74100 42.73700
H  -4.18600 13.70400 41.52200

