158

Mg 40.63300 8.57100 29.47500
C  42.26100 10.37200 31.91500
C  38.52200 7.28800 31.85900
C  38.87000 7.31000 27.04800
C  43.00400 9.72200 27.15300
N  40.44900 8.90700 31.73400
C  41.13400 9.72100 32.50200
C  40.71400 9.63700 34.00300
C  39.44700 8.64100 33.84600
C  39.50200 8.23400 32.41100
C  39.37600 7.34900 34.74800
C  40.32200 11.01700 34.66800
C  39.38900 10.95600 35.78200
H  39.66900 11.77100 36.99800
N  38.95100 7.47600 29.40100
C  38.19200 6.97200 30.47100
C  37.16100 6.13900 30.06100
C  37.14400 6.21500 28.62200
C  38.35000 7.04900 28.28800
C  36.37900 5.25600 30.96500
C  36.09300 5.78100 27.53600
O  36.09400 6.05200 26.35200
C  34.84600 5.13600 28.12800
N  41.11400 8.31400 27.42000
C  40.06800 7.86900 26.63500
C  40.36500 8.14100 25.12000
C  41.85200 8.67200 25.17000
C  42.06600 8.92300 26.67400
C  40.11500 7.03500 24.03000
C  42.10900 9.81500 24.17200
C  41.47700 11.18400 24.46100
N  42.35100 9.61800 29.53600
C  43.17200 10.06700 28.51100
C  44.22700 10.86900 29.03100
C  43.88500 11.11400 30.33600
C  42.69500 10.36800 30.56200
C  45.33300 11.31700 28.22300
C  44.24400 11.75200 31.60800
O  45.22600 12.43200 31.83900
C  43.21600 11.35400 32.61800
C  43.95400 10.73000 33.79200
O  44.21200 9.54200 33.95800
O  43.94800 11.67400 34.79400
C  44.33100 11.18300 36.19500
H  37.81100 6.98200 32.62900
H  38.31400 7.04700 26.14600
H  43.58300 10.29500 26.42600
H  41.47800 9.02900 34.48600
H  38.47700 9.09000 34.06000
H  38.36500 7.21500 35.13400
H  40.09800 7.32900 35.56500
H  39.72200 6.47200 34.20200
H  39.98500 11.77200 33.95800
H  41.28300 11.37200 35.04000
H  39.34000 9.91300 36.09300
H  38.36400 11.08500 35.43300
H  36.63500 4.22900 30.70300
H  35.30300 5.28500 30.79900
H  36.48100 5.43200 32.03600
H  34.06800 4.92600 27.39400
H  34.44800 5.90400 28.79200
H  35.12400 4.20200 28.61500
H  39.68000 8.95700 24.89100
H  42.49500 7.82300 24.93400
H  39.97200 6.08000 24.53500
H  40.92100 7.06100 23.29500
H  39.21500 7.32700 23.48900
H  41.66900 9.52100 23.22000
H  43.18700 9.91300 24.03700
H  41.00000 11.39200 25.41900
H  40.74400 11.23500 23.65600
H  42.30000 11.85300 24.21100
H  45.78900 12.20900 28.65200
H  44.94700 11.56500 27.23400
H  46.08800 10.53300 28.16500
H  42.66200 12.21200 33.00000
H  43.64700 11.46200 36.99700
H  45.21200 11.77300 36.44600
H  44.58400 10.13100 36.32600
Mg 47.33300 15.91300 28.27700
C  45.18400 15.78400 30.96100
C  49.63300 17.41800 30.38800
C  49.06800 16.58400 25.56200
C  44.79600 14.57500 26.25100
N  47.32000 16.71900 30.39900
C  46.33000 16.41600 31.31600
C  46.70000 16.99900 32.67500
C  48.05900 17.72700 32.37100
C  48.40200 17.25900 30.97000
C  47.90600 19.31300 32.38800
C  46.91100 15.89100 33.71000
C  46.66400 16.32000 35.23900
H  46.28100 17.71300 35.56200
N  49.11300 16.74300 28.08200
C  49.95500 17.19100 29.08000
C  51.22300 17.55700 28.40200
C  51.06500 17.40400 26.98100
C  49.75000 16.85700 26.82000
C  52.39900 18.04600 29.23100
C  52.04500 17.76700 25.81700
O  51.81000 17.56500 24.66400
C  53.39100 18.41500 26.07600
N  46.86600 15.78300 26.09600
C  47.80400 16.07100 25.22900
C  47.42200 15.70400 23.79500
C  46.01600 15.01900 24.03500
C  45.88400 15.10400 25.54600
C  47.38400 16.88900 22.83300
C  45.93700 13.54000 23.53100
C  44.96900 13.46200 22.38600
N  45.45100 15.24300 28.53600
C  44.51200 14.71900 27.62400
C  43.29300 14.27700 28.27400
C  43.50700 14.66000 29.63700
C  44.82100 15.26700 29.70900
C  41.99000 13.83100 27.58500
C  42.95300 14.73000 30.96400
O  41.86200 14.35900 31.42600
C  43.99300 15.42000 31.87400
C  43.23300 16.55800 32.44200
O  43.06100 17.62900 31.86400
O  42.67200 16.33800 33.65600
C  41.84600 17.43900 34.23200
H  50.43100 17.82900 31.01000
H  49.68700 16.69300 24.67000
H  44.06900 13.99700 25.67700
H  45.81600 17.59800 32.89400
H  48.76100 17.44500 33.15700
H  48.79300 19.89500 32.63900
H  47.18000 19.71400 33.09500
H  47.63700 19.61100 31.37500
H  47.96900 15.64700 33.61600
H  46.31000 14.98400 33.64100
H  47.65500 16.09100 35.62900
H  46.00700 15.58400 35.70100
H  52.82100 18.89600 28.69500
H  53.04500 17.16900 29.18800
H  52.22900 18.39900 30.24900
H  53.29100 19.49700 25.98600
H  54.13700 18.19200 25.31400
H  53.89200 18.17600 27.01400
H  48.08600 14.89900 23.47900
H  45.17600 15.61700 23.68300
H  47.39500 17.83100 23.38200
H  46.42900 16.83900 22.31100
H  48.24800 16.91400 22.16900
H  45.70800 12.81700 24.31400
H  46.90000 13.20600 23.14500
H  45.58600 12.94000 21.65500
H  44.59000 14.42300 22.03900
H  44.05700 12.90700 22.60700
H  41.96500 12.78800 27.26900
H  41.94000 14.44600 26.68600
H  41.12600 13.97400 28.23400
H  44.20100 14.67800 32.64400
H  42.04000 18.47900 33.96900
H  41.91400 17.27300 35.30700
H  40.79000 17.40300 33.96300

