158

Mg 35.30400 0.90400 29.36200
C  33.35700 2.11200 32.01800
C  37.94700 0.92000 31.58000
C  37.18200 -0.40300 26.97000
C  32.66600 1.48800 27.13700
N  35.55000 1.31700 31.61800
C  34.61700 1.76200 32.45700
C  35.08700 1.79100 33.93100
C  36.66900 1.79800 33.75400
C  36.76700 1.32500 32.24300
C  37.41000 3.13600 34.08500
C  34.50000 0.54800 34.64400
C  34.08400 0.67400 36.13500
H  35.03200 1.48700 37.04900
N  37.32900 0.28800 29.27600
C  38.18500 0.30000 30.32500
C  39.45900 -0.33100 29.88800
C  39.26900 -0.72000 28.58900
C  37.90000 -0.28200 28.17000
C  40.69000 -0.47900 30.88100
C  40.19400 -1.51600 27.64200
O  39.99100 -1.55400 26.43700
C  41.51000 -2.07600 28.05400
N  34.90500 0.43400 27.36600
C  35.89200 -0.00600 26.53100
C  35.39000 -0.12400 25.06700
C  33.86300 0.27700 25.18400
C  33.78100 0.74200 26.65500
C  36.24500 0.85900 24.11400
C  32.86000 -0.86400 24.75500
C  32.37100 -0.64000 23.31700
N  33.41100 1.65700 29.50300
C  32.39700 1.78600 28.52900
C  31.21600 2.37400 29.17300
C  31.63400 2.56300 30.54100
C  32.91600 2.07000 30.66700
C  29.95800 2.58900 28.48300
C  31.10800 3.03400 31.83900
O  29.99200 3.54100 32.13200
C  32.17800 2.63800 32.91900
C  32.56000 3.85300 33.68800
O  33.49800 4.57100 33.48800
O  31.83300 3.96500 34.86500
C  32.37300 4.60100 36.04100
H  38.83300 0.93200 32.21800
H  37.80400 -0.79700 26.16300
H  31.90400 1.52000 26.35500
H  34.71500 2.62300 34.53000
H  37.07700 0.91300 34.24300
H  37.82900 3.55600 33.17000
H  38.20500 2.84300 34.77100
H  36.65000 3.76700 34.54700
H  35.26900 -0.22500 34.66700
H  33.56200 0.29200 34.15300
H  34.06400 -0.33800 36.54000
H  33.05000 0.97900 36.29900
H  41.44100 -1.22400 30.61900
H  40.47500 -0.62400 31.94000
H  41.33100 0.39800 30.78300
H  42.16600 -1.22800 28.25300
H  41.81600 -2.68100 27.20000
H  41.35100 -2.61400 28.98800
H  35.52300 -1.15900 24.75200
H  33.60100 1.11800 24.54200
H  37.07300 0.98000 24.81200
H  35.75900 1.83400 24.14000
H  36.56900 0.37900 23.19100
H  31.99500 -0.72300 25.40400
H  33.11200 -1.91100 24.92500
H  31.33200 -0.92400 23.14800
H  32.84100 -1.26600 22.55900
H  32.56300 0.36500 22.94300
H  29.82100 1.84700 27.69600
H  29.89400 3.58500 28.04600
H  29.16100 2.43900 29.21100
H  31.95400 1.89000 33.67900
H  31.63300 5.25000 36.51000
H  33.15400 5.34700 35.89400
H  32.70000 3.84100 36.75000
Mg -0.26100 43.52800 26.67500
C  2.09600 43.17500 29.31700
C  -2.67500 42.92300 28.88400
C  -2.36300 43.36200 24.13100
C  2.52500 43.96300 24.38600
N  -0.30700 43.20500 28.89500
C  0.74300 43.04700 29.78600
C  0.26000 42.98500 31.21600
C  -1.30300 42.73200 30.97200
C  -1.42800 42.99000 29.49600
C  -1.79500 41.37500 31.53700
C  0.77600 44.27100 32.01800
C  1.57400 44.04000 33.28500
H  1.11600 43.05000 34.35100
N  -2.26200 43.29300 26.47400
C  -3.13500 43.03900 27.54200
C  -4.51700 42.86700 27.04400
C  -4.44500 43.06300 25.62500
C  -3.03300 43.28100 25.32300
C  -5.70200 42.71600 28.01300
C  -5.60100 43.21100 24.62700
O  -5.36900 43.57000 23.48400
C  -7.02700 43.10700 25.03200
N  0.03400 43.76500 24.57100
C  -0.99800 43.54900 23.71000
C  -0.54700 43.39300 22.29300
C  0.96200 43.74700 22.35000
C  1.21600 43.88500 23.86000
C  -0.74800 41.90000 21.79700
C  1.24400 45.18300 21.67300
C  2.61900 45.37800 21.05400
N  1.84900 43.68600 26.79000
C  2.82500 43.90500 25.78300
C  4.17900 43.80700 26.38800
C  3.94000 43.57400 27.76200
C  2.51500 43.44800 27.94400
C  5.56700 44.01200 25.76500
C  4.58500 43.37600 29.09000
O  5.75300 43.39000 29.48200
C  3.35700 43.10800 30.02200
C  3.56400 41.87200 30.85000
O  3.35800 40.73800 30.46800
O  4.17400 42.25600 31.95100
C  4.78400 41.15400 32.80700
H  -3.50300 42.74200 29.57300
H  -2.90600 43.17200 23.20300
H  3.25000 44.14300 23.59000
H  0.58500 42.10900 31.77700
H  -1.74300 43.49300 31.61700
H  -2.80800 41.37800 31.93800
H  -1.13800 41.00100 32.32300
H  -1.65600 40.67300 30.71400
H  -0.06300 44.89800 32.31800
H  1.36100 44.93900 31.38700
H  1.63700 45.03100 33.73300
H  2.61300 43.87000 33.00400
H  -6.48200 42.19200 27.46100
H  -6.04600 43.67800 28.39200
H  -5.38400 42.08500 28.84300
H  -7.23800 42.06900 25.28700
H  -7.70600 43.34300 24.21300
H  -7.38600 43.82400 25.77000
H  -0.95700 44.16000 21.63500
H  1.53400 42.99000 21.81400
H  0.13400 41.34000 21.48700
H  -1.35700 42.14000 20.92500
H  -1.43100 41.25500 22.35000
H  1.05600 45.87000 22.49800
H  0.41300 45.33800 20.98600
H  2.45600 45.37300 19.97700
H  3.28700 44.54100 21.25800
H  2.95300 46.38700 21.29700
H  5.56400 44.71100 24.92900
H  5.94300 43.08400 25.33500
H  6.34900 44.26700 26.48000
H  3.41600 43.90400 30.76400
H  5.20800 40.32900 32.23500
H  3.94300 40.66400 33.29800
H  5.55400 41.52400 33.48400

