158

Mg 40.91900 9.29100 29.73200
C  42.94800 10.75200 32.13000
C  38.85600 8.17100 32.08500
C  39.33900 7.77400 27.18700
C  43.55900 10.01200 27.18700
N  40.88700 9.57200 31.86600
C  41.73600 10.27500 32.64600
C  41.32600 10.32300 34.12900
C  40.06900 9.33900 34.15100
C  39.97000 8.98000 32.59800
C  40.27100 8.11000 34.99600
C  41.19000 11.84100 34.61300
C  40.31500 12.12200 35.90400
H  40.90200 13.00300 37.04200
N  39.29500 8.19500 29.67600
C  38.50700 7.95400 30.72300
C  37.25700 7.25700 30.22100
C  37.37600 7.14100 28.75200
C  38.75900 7.66500 28.43400
C  36.04400 6.90100 31.20000
C  36.44200 6.54900 27.73000
O  36.62600 6.58700 26.53000
C  35.14100 5.95300 28.07000
N  41.45100 9.05000 27.33100
C  40.55000 8.32700 26.65500
C  40.93700 8.40700 25.11500
C  42.32300 9.18300 25.14400
C  42.50700 9.31500 26.62400
C  41.02600 6.97100 24.46400
C  42.43000 10.51400 24.36800
C  41.71800 11.74900 24.94700
N  42.82300 10.17400 29.61900
C  43.73900 10.31800 28.54900
C  44.85800 11.04100 29.05500
C  44.57700 11.26600 30.43700
C  43.39300 10.61600 30.78500
C  46.04300 11.43800 28.17900
C  45.13400 11.83800 31.63200
O  46.19500 12.45400 31.72800
C  44.07200 11.53700 32.80200
C  44.75500 10.92200 33.96500
O  45.16700 9.76700 33.89200
O  44.66800 11.79400 34.92900
C  45.09900 11.38100 36.28900
H  38.15900 7.80700 32.84300
H  38.77600 7.10600 26.53100
H  44.36600 10.27200 26.49900
H  42.10500 9.95600 34.79800
H  39.08900 9.76900 34.36200
H  40.40700 7.20400 34.40400
H  39.31700 8.00800 35.51200
H  41.18100 8.18100 35.59200
H  40.79800 12.27100 33.69200
H  42.16600 12.28200 34.81800
H  39.96200 11.13300 36.19700
H  39.42300 12.65200 35.57100
H  36.26000 7.01700 32.26200
H  35.75500 5.88900 30.91800
H  35.24000 7.57700 30.90700
H  34.52600 6.65200 28.63800
H  35.24300 5.08900 28.72700
H  34.69600 5.63100 27.12900
H  40.26800 9.04100 24.53300
H  43.19100 8.60000 24.83900
H  40.72600 6.16400 25.13100
H  41.97000 6.67600 24.00500
H  40.26800 7.11000 23.69200
H  42.10000 10.27500 23.35800
H  43.51900 10.56500 24.36400
H  41.20000 11.64300 25.90000
H  41.02700 12.02500 24.15100
H  42.36900 12.61700 25.05700
H  46.58700 12.19600 28.74400
H  45.67800 11.96900 27.30000
H  46.70500 10.64200 27.83800
H  43.67700 12.51300 33.08500
H  45.07000 10.29200 36.32000
H  44.25600 11.83700 36.80800
H  46.09400 11.74800 36.54200
Mg 47.67200 16.21500 27.58000
C  45.75300 16.25700 30.56000
C  50.06500 17.99600 29.25200
C  49.24500 16.43200 24.76300
C  44.80900 14.87500 26.00500
N  47.82700 16.90700 29.70500
C  47.02400 16.74200 30.79700
C  47.64200 17.22600 32.10200
C  48.93300 18.08100 31.57700
C  48.94200 17.60300 30.01300
C  48.78500 19.60500 31.62900
C  48.06300 15.97400 33.02300
C  47.68900 16.23000 34.55900
H  47.74400 17.62300 35.16500
N  49.53700 17.00700 27.12000
C  50.37800 17.65100 27.92600
C  51.50200 18.09300 27.17500
C  51.32600 17.59200 25.84600
C  49.95000 16.99200 25.82600
C  52.69900 18.61700 27.95000
C  52.17300 17.62800 24.61000
O  51.92800 16.91700 23.55500
C  53.49900 18.41600 24.64600
N  47.04200 15.74300 25.64500
C  47.92800 15.89300 24.62900
C  47.26200 15.41200 23.23200
C  45.89400 14.83800 23.68100
C  45.89500 15.12300 25.18900
C  47.22000 16.60200 22.28500
C  45.73200 13.29200 23.41100
C  44.84800 12.78600 22.23500
N  45.63700 15.70600 28.08700
C  44.70700 15.15400 27.38900
C  43.53000 14.86600 28.28100
C  43.94300 15.25300 29.51700
C  45.18800 15.82700 29.32600
C  42.21700 14.19600 27.91700
C  43.58600 15.29500 30.91400
O  42.51900 14.99300 31.40600
C  44.72600 15.91500 31.65300
C  44.15400 17.01900 32.50100
O  43.78100 18.11200 32.04200
O  44.06300 16.71900 33.85800
C  43.59500 17.72900 34.75600
H  50.76100 18.57300 29.86400
H  49.75400 16.45800 23.79800
H  43.98000 14.33200 25.54600
H  46.93500 17.97700 32.45500
H  49.88700 17.68900 31.92900
H  47.95500 19.81900 32.30200
H  48.46300 20.05300 30.68800
H  49.74600 20.08100 31.82400
H  49.11000 15.67700 32.95900
H  47.36700 15.17200 32.77400
H  48.35500 15.66300 35.21000
H  46.70800 15.78000 34.70600
H  53.32000 17.83200 28.38100
H  52.41400 19.34700 28.70700
H  53.35200 19.17000 27.27500
H  53.39800 19.30500 25.26800
H  53.73700 18.69300 23.61900
H  54.30100 17.79100 25.03800
H  47.91700 14.68200 22.75600
H  45.02900 15.39400 23.31800
H  47.84800 17.46500 22.51000
H  46.19900 16.96800 22.39600
H  47.54700 16.16600 21.34100
H  45.40700 12.74000 24.29300
H  46.74400 12.93200 23.22900
H  45.41300 12.08600 21.61900
H  44.41500 13.58900 21.63800
H  43.93700 12.23700 22.47300
H  42.30100 13.15500 28.23000
H  41.92600 14.33700 26.87600
H  41.34000 14.57400 28.44300
H  45.11400 15.17800 32.35600
H  43.07400 17.22400 35.56800
H  42.92800 18.45600 34.29200
H  44.42700 18.28500 35.18800

