158

Mg 1.66300 -1.76900 44.87900
C  4.88700 -0.97100 44.12200
C  0.51900 0.83600 42.90500
C  -1.44600 -3.09400 44.92000
C  2.95300 -4.79900 46.48100
N  2.62500 -0.43000 43.48500
C  3.93000 -0.10800 43.56000
C  4.23700 1.22200 42.81200
C  2.85300 1.90400 42.78300
C  1.92800 0.69400 43.06200
C  2.61900 3.03700 43.70200
C  4.80200 0.95200 41.38700
C  5.94600 1.83800 40.85200
H  5.65700 2.72800 39.63500
N  -0.19300 -1.12600 44.15800
C  -0.47800 0.00000 43.41500
C  -1.88300 0.09100 43.23700
C  -2.52600 -0.98000 43.91000
C  -1.39800 -1.79800 44.36100
C  -2.52500 1.33200 42.58000
C  -4.06800 -1.22200 44.14300
O  -4.87000 -0.47200 43.67800
C  -4.66100 -2.26000 45.17900
N  0.87600 -3.69900 45.52500
C  -0.46400 -3.95500 45.47400
C  -0.78700 -5.30600 46.05200
C  0.55000 -5.69600 46.69700
C  1.53600 -4.69700 46.20800
C  -2.05300 -5.32400 46.98900
C  0.92700 -7.14400 46.22700
C  1.48600 -7.95300 47.37000
N  3.60200 -2.72300 45.30300
C  3.95300 -3.88000 45.96600
C  5.41200 -3.99600 46.02900
C  5.88700 -2.80200 45.31900
C  4.71100 -2.15700 44.84000
C  6.14200 -5.16000 46.69200
C  7.03700 -2.03100 44.87400
O  8.26100 -2.20200 44.91200
C  6.39600 -0.74000 44.11200
C  6.78400 0.33200 45.06700
O  6.19200 0.73800 46.05600
O  7.70900 1.03600 44.38900
C  8.17200 2.35900 44.96900
H  0.24400 1.75000 42.37500
H  -2.45600 -3.50100 44.82800
H  3.17800 -5.70300 47.05000
H  4.99200 1.80600 43.33700
H  2.53000 2.12400 41.76600
H  3.49100 3.68000 43.82200
H  2.12800 2.67200 44.60400
H  1.83700 3.68900 43.31300
H  3.95600 0.91000 40.70100
H  5.18300 -0.06900 41.40400
H  6.77700 1.18300 40.58900
H  6.22300 2.44000 41.71800
H  -2.90200 1.24500 41.56100
H  -1.86600 2.19200 42.45800
H  -3.38900 1.63800 43.16900
H  -5.06300 -3.12200 44.64600
H  -5.54800 -1.80700 45.62100
H  -3.99900 -2.49000 46.01400
H  -1.06700 -6.03900 45.29600
H  0.36300 -5.49100 47.75100
H  -2.82900 -5.84300 46.42600
H  -2.42500 -4.35300 47.31400
H  -1.78500 -6.01900 47.78500
H  1.76100 -6.95400 45.55100
H  0.08600 -7.67400 45.78100
H  0.86300 -8.83000 47.54100
H  1.57400 -7.35200 48.27600
H  2.46600 -8.33300 47.07900
H  5.48600 -5.64400 47.41500
H  7.09700 -4.83900 47.10900
H  6.32900 -5.94000 45.95500
H  6.83800 -0.59300 43.12700
H  8.94500 2.81900 44.35400
H  8.73000 2.13500 45.87800
H  7.33600 3.04300 45.11900
Mg 6.49900 55.01500 40.72300
C  5.15700 51.65600 40.15300
C  9.37100 54.02300 39.20300
C  7.15500 58.34200 40.24400
C  3.16800 55.81900 41.61200
N  7.12600 53.04100 39.85700
C  6.45400 51.85000 39.61500
C  7.33700 50.91300 38.74400
C  8.77000 51.48900 38.98200
C  8.46700 52.91500 39.41400
C  9.65200 50.71700 40.01600
C  6.91600 50.90300 37.25700
C  6.85500 49.48800 36.56200
H  7.60600 49.45000 35.25800
N  8.07200 56.02600 39.85800
C  9.21900 55.42800 39.43200
C  10.22000 56.47600 39.23900
C  9.58300 57.70500 39.46600
C  8.19600 57.39600 39.93400
C  11.67200 56.24300 38.90600
C  10.30600 58.94900 39.29400
O  11.41500 59.04400 38.77500
C  9.80700 60.22500 40.05600
N  5.25300 56.82200 40.72100
C  5.80700 58.09900 40.70800
C  4.81300 59.17500 41.19400
C  3.57100 58.30900 41.47200
C  4.05900 56.90400 41.37300
C  5.21300 60.17800 42.41600
C  2.35900 58.53000 40.59700
C  1.17800 59.16800 41.34100
N  4.67500 53.92200 41.17000
C  3.46200 54.45400 41.61000
C  2.60300 53.33800 41.89800
C  3.16100 52.20700 41.22500
C  4.42600 52.66200 40.81400
C  1.22700 53.38100 42.57200
C  2.99200 50.79100 40.92000
O  2.09300 50.01100 41.12700
C  4.35100 50.40400 40.30400
C  4.15100 49.60200 39.05200
O  4.02000 50.02200 37.93500
O  4.21700 48.26900 39.29800
C  3.87700 47.36000 38.11800
H  10.37900 53.67900 38.96000
H  7.43500 59.38500 40.08300
H  2.12700 56.09700 41.79300
H  7.34700 49.90900 39.16600
H  9.31900 51.50400 38.04000
H  9.42800 49.66000 39.87100
H  9.47600 50.98000 41.06000
H  10.69600 50.94300 39.80200
H  7.53400 51.59900 36.69100
H  5.95200 51.41200 37.26700
H  5.84200 49.08700 36.52200
H  7.35600 48.82800 37.27000
H  12.00200 56.85300 38.06500
H  11.99000 55.22000 38.70500
H  12.24200 56.58600 39.76900
H  10.63000 60.89500 40.30900
H  9.41200 59.72400 40.94000
H  9.07800 60.64900 39.36600
H  4.62800 59.78500 40.31000
H  3.24500 58.48300 42.49800
H  6.17800 59.89000 42.83100
H  4.53600 60.13900 43.27000
H  5.39200 61.19300 42.06200
H  1.92800 57.72900 39.99600
H  2.66400 59.24700 39.83500
H  1.37500 60.23600 41.43800
H  1.01700 58.93900 42.39500
H  0.29400 58.98100 40.73000
H  0.49400 53.34000 41.76600
H  1.12500 54.32000 43.11500
H  1.08600 52.53200 43.24200
H  4.88100 49.64600 40.88200
H  2.80100 47.22700 38.22600
H  4.40900 46.41800 38.24900
H  4.11400 47.61900 37.08600

