158

Mg 49.52300 45.47000 42.37600
C  45.96100 45.69600 41.51500
C  49.17600 42.16900 41.43800
C  52.70900 45.44000 42.09400
C  49.46600 48.93600 42.78900
N  47.70500 44.06500 41.49400
C  46.40900 44.40400 41.22100
C  45.75400 43.20400 40.55000
C  46.69100 42.10400 41.04600
C  47.90800 42.81700 41.30000
C  46.27000 41.27000 42.26700
C  45.60000 43.41600 39.04200
C  44.59600 42.52100 38.27500
H  44.97100 41.74700 36.96200
N  50.78400 43.96800 41.95400
C  50.50500 42.65700 41.60100
C  51.75900 41.93200 41.61700
C  52.83300 42.88000 41.65300
C  52.13600 44.17200 41.92600
C  51.77500 40.45300 41.65600
C  54.34800 42.61800 41.63900
O  54.82800 41.50300 41.39900
C  55.30300 43.81600 41.95000
N  50.89900 46.98800 42.47300
C  52.26200 46.72200 42.49200
C  53.10500 48.03800 42.65100
C  51.99200 49.14800 42.84300
C  50.66300 48.32600 42.74600
C  54.18800 47.98200 43.80800
C  52.13000 50.25700 41.65600
C  51.87000 51.68600 42.15400
N  48.10900 47.06600 42.27700
C  48.26700 48.38600 42.54800
C  46.95400 49.01600 42.48700
C  46.03400 48.06200 42.03200
C  46.75200 46.86000 41.90300
C  46.65800 50.49600 42.68100
C  44.64200 47.82700 41.66000
O  43.74000 48.68100 41.63800
C  44.59400 46.29300 41.21200
C  43.55900 45.48700 41.80500
O  42.81700 44.71300 41.21200
O  43.37200 45.83100 43.07800
C  42.12900 45.37200 43.84500
H  49.11400 41.09100 41.27200
H  53.79400 45.53400 42.02200
H  49.35600 50.02200 42.81500
H  44.73300 42.94200 40.82900
H  47.00700 41.39900 40.27700
H  47.12200 41.09400 42.92300
H  46.06300 40.30200 41.81100
H  45.31800 41.61000 42.67800
H  46.58900 43.44500 38.58500
H  45.12900 44.39400 38.94400
H  43.77800 43.19000 38.00600
H  44.07900 41.88000 38.98900
H  51.47700 40.05800 42.62700
H  52.69000 40.00300 41.27200
H  51.08400 40.05400 40.91400
H  56.28800 43.37100 42.08600
H  54.90600 44.15100 42.90800
H  55.41000 44.50300 41.11100
H  53.67100 48.27900 41.75100
H  51.98400 49.55400 43.85500
H  55.18400 48.18500 43.41500
H  54.35500 47.02500 44.30400
H  53.93100 48.56300 44.69400
H  51.30600 49.98700 40.99600
H  53.05000 50.29600 41.07300
H  51.09700 52.07800 41.49300
H  52.78300 52.28000 42.20600
H  51.66500 51.72000 43.22400
H  47.50500 50.92100 43.21900
H  45.82000 50.52600 43.37700
H  46.40100 51.12600 41.83000
H  44.39300 46.29900 40.14000
H  41.21000 45.75500 43.40300
H  42.15200 45.72300 44.87700
H  42.01900 44.29800 43.69000
Mg 42.38200 41.94800 25.23300
C  41.84100 44.40100 27.70200
C  43.95400 39.94300 27.58600
C  42.74400 39.66800 22.84800
C  41.21500 44.30700 22.89300
N  42.75100 42.13900 27.31800
C  42.33400 43.14700 28.16800
C  42.61000 42.84300 29.61700
C  43.27500 41.48800 29.53100
C  43.44500 41.20200 28.03700
C  44.54400 41.37800 30.42500
C  41.34300 42.75200 30.54600
C  41.40800 42.16300 31.96500
H  42.00200 43.06000 33.01900
N  43.30900 40.03800 25.22100
C  43.94300 39.40400 26.28800
C  44.31200 38.10100 25.92000
C  43.85700 37.98000 24.55000
C  43.26300 39.26000 24.12400
C  44.87700 37.02700 26.89600
C  43.89200 36.73300 23.70800
O  43.61600 36.75400 22.53900
C  44.31600 35.41200 24.31300
N  42.19900 42.04600 23.10800
C  42.20600 40.88700 22.39100
C  41.88200 41.19600 20.87500
C  41.24900 42.58500 20.99300
C  41.67600 43.05900 22.41400
C  43.13200 41.04000 19.99200
C  39.73900 42.67200 20.79400
C  38.83500 41.64400 21.59800
N  41.77800 43.97600 25.19100
C  41.35900 44.74400 24.19500
C  41.03200 46.08800 24.66800
C  41.12800 45.96500 26.10100
C  41.63500 44.71200 26.32500
C  40.56300 47.24000 23.94800
C  41.00000 46.71500 27.32900
O  40.64800 47.86700 27.55500
C  41.32600 45.66600 28.42900
C  42.31500 46.34200 29.30800
O  43.47000 46.49600 29.01100
O  41.69600 46.64600 30.54400
C  42.67000 47.29300 31.45600
H  44.45900 39.37400 28.36900
H  42.82300 38.87000 22.10700
H  40.73000 45.04500 22.25100
H  43.32700 43.58800 29.96200
H  42.49500 40.82500 29.90500
H  45.31400 41.35800 29.65300
H  44.48100 40.39000 30.88000
H  44.49100 42.22800 31.10400
H  40.46700 42.31800 30.06500
H  41.03700 43.74500 30.87400
H  41.94200 41.21400 32.01900
H  40.39500 41.96900 32.31900
H  44.86900 37.32600 27.94400
H  45.89100 36.81800 26.55700
H  44.33600 36.08200 26.94400
H  45.27300 35.70500 24.74600
H  44.51600 34.68700 23.52400
H  43.45800 35.11300 24.91500
H  41.13600 40.50400 20.48400
H  41.65400 43.29100 20.26800
H  43.36600 41.98400 19.50000
H  42.99400 40.37600 19.13900
H  44.00300 40.67200 20.53500
H  39.70600 42.53800 19.71300
H  39.35800 43.66800 21.01600
H  38.12400 42.28000 22.12500
H  39.47100 41.23500 22.38300
H  38.46800 40.94200 20.84900
H  39.98600 46.99300 23.05700
H  41.37500 47.89200 23.62500
H  39.91400 47.76800 24.64600
H  40.47700 45.41000 29.06200
H  43.35000 48.01800 31.00700
H  43.32300 46.58900 31.97300
H  42.13400 47.87300 32.20800

