158

Mg 23.90200 -4.86200 45.74700
C  25.86900 -2.66700 43.76200
C  21.15900 -3.92700 44.00600
C  22.43400 -7.64300 46.72800
C  26.93800 -5.88400 47.33000
N  23.51300 -3.56600 43.89800
C  24.45800 -2.71000 43.40500
C  23.83300 -1.76400 42.37700
C  22.29800 -2.05400 42.59900
C  22.29800 -3.22800 43.55100
C  21.41600 -0.87100 43.10100
C  24.44000 -2.05700 40.96300
C  24.82300 -0.85300 40.11000
H  24.60800 -1.06900 38.62800
N  22.04200 -5.66100 45.54900
C  21.03100 -5.09500 44.87400
C  19.81200 -5.79200 45.02700
C  20.10700 -6.86700 45.93000
C  21.58100 -6.79800 46.04900
C  18.43900 -5.42700 44.48600
C  19.20700 -7.82800 46.52600
O  17.97800 -7.99100 46.31000
C  19.78700 -8.85500 47.41100
N  24.53900 -6.44900 47.00400
C  23.72100 -7.48900 47.22800
C  24.52300 -8.58900 48.00100
C  25.85400 -7.87900 48.49700
C  25.78000 -6.61800 47.63300
C  23.81300 -9.31800 49.17900
C  27.20100 -8.74500 48.31900
C  28.11400 -8.62200 49.58300
N  25.99500 -4.47500 45.61700
C  27.07300 -4.86200 46.40000
C  28.19100 -4.02100 46.16700
C  27.75100 -3.15500 45.13200
C  26.43000 -3.49700 44.78600
C  29.44100 -4.08200 46.91900
C  28.17900 -2.08700 44.35100
O  29.24800 -1.54300 44.31400
C  26.99600 -1.71600 43.36100
C  26.74900 -0.26200 43.63500
O  26.13300 0.07900 44.62700
O  27.55400 0.48300 42.77500
C  27.56200 1.89900 43.23200
H  20.21400 -3.54600 43.61400
H  22.15900 -8.69700 46.79400
H  27.81900 -6.23500 47.87100
H  24.08300 -0.74400 42.66800
H  21.80800 -2.43100 41.70200
H  21.31700 -0.75100 44.17900
H  20.44700 -0.92800 42.60500
H  21.87200 0.00600 42.64200
H  23.71300 -2.58700 40.34700
H  25.32300 -2.66600 41.15400
H  25.84400 -0.68400 40.45100
H  24.12400 -0.07400 40.41300
H  18.34500 -5.72400 43.44100
H  18.40200 -4.33800 44.49700
H  17.60800 -5.83700 45.06100
H  19.01600 -9.31700 48.02700
H  20.49400 -8.41400 48.11400
H  20.19700 -9.63500 46.77000
H  24.77000 -9.39000 47.30400
H  25.81000 -7.41300 49.48200
H  24.20300 -10.33100 49.28100
H  22.73700 -9.14300 49.21300
H  24.18800 -8.86000 50.09400
H  27.75700 -8.40900 47.44400
H  26.82900 -9.75400 48.14400
H  28.16700 -9.54800 50.15600
H  27.82400 -7.70200 50.09100
H  29.12600 -8.49100 49.20000
H  30.16400 -3.56400 46.29000
H  29.83800 -5.07600 47.12800
H  29.37500 -3.49000 47.83200
H  27.40500 -1.76900 42.35200
H  27.75500 1.90500 44.30400
H  26.63700 2.45300 43.06900
H  28.44700 2.42300 42.87200
Mg -1.95100 34.27800 26.27500
C  -4.09800 33.04600 28.91000
C  -0.61600 36.45300 28.36300
C  -0.36200 35.35400 23.57300
C  -4.06400 32.26500 24.14600
N  -2.29400 34.66900 28.41100
C  -3.13000 34.03100 29.32800
C  -2.77700 34.51100 30.69400
C  -1.71900 35.71000 30.49800
C  -1.52500 35.64400 28.98400
C  -2.12400 37.03300 31.05200
C  -2.22600 33.41900 31.71700
C  -3.07000 33.36300 32.90300
H  -3.06000 32.04900 33.77800
N  -0.73900 35.83900 25.97700
C  -0.21700 36.64500 26.94900
C  0.78600 37.44600 26.39400
C  0.85600 37.12700 24.97900
C  -0.15100 36.08300 24.76800
C  1.57200 38.50100 27.22700
C  1.77200 37.63700 23.85600
O  1.77900 37.33300 22.64700
C  2.83900 38.62300 24.28900
N  -2.28900 33.93000 24.18100
C  -1.37800 34.51300 23.30300
C  -1.38600 33.79500 21.94500
C  -2.53300 32.72700 22.09100
C  -2.94100 32.94000 23.59800
C  -1.48700 34.73400 20.70500
C  -2.02000 31.33600 21.75400
C  -2.96300 30.47000 20.99500
N  -3.62800 32.85100 26.46500
C  -4.34900 32.14600 25.48500
C  -5.43200 31.30700 26.15800
C  -5.33100 31.62200 27.50600
C  -4.27000 32.53000 27.62700
C  -6.34500 30.32900 25.51300
C  -5.83900 31.23100 28.81300
O  -6.71100 30.34100 29.08800
C  -5.09000 32.18700 29.77700
C  -6.18300 33.02600 30.37900
O  -6.90300 33.85600 29.86000
O  -6.25000 32.77800 31.77200
C  -7.31200 33.47500 32.58000
H  -0.05300 36.98200 29.13400
H  0.36200 35.62900 22.80400
H  -4.69800 31.53900 23.63400
H  -3.69300 34.95900 31.07900
H  -0.74800 35.59100 30.97900
H  -2.51000 37.70000 30.28200
H  -1.35000 37.49900 31.66200
H  -3.05200 36.97900 31.62100
H  -1.21600 33.74300 31.97000
H  -2.16800 32.47900 31.16700
H  -4.08600 33.61800 32.60200
H  -2.85500 34.13900 33.63800
H  1.44100 38.55900 28.30800
H  1.43000 39.50200 26.81900
H  2.62900 38.30900 27.04200
H  3.54700 38.08200 24.91700
H  2.40400 39.40400 24.91200
H  3.37800 39.07300 23.45600
H  -0.37300 33.39400 21.92300
H  -3.35000 32.97900 21.41400
H  -1.58500 35.77100 21.02700
H  -2.27000 34.61800 19.95600
H  -0.70800 34.68600 19.94300
H  -1.57500 30.97300 22.68100
H  -1.17600 31.52600 21.09100
H  -3.80600 31.03400 20.59700
H  -3.27300 29.60200 21.57600
H  -2.39900 30.02100 20.17700
H  -5.83200 29.39600 25.28000
H  -6.74800 30.82100 24.62800
H  -7.13800 30.03600 26.20200
H  -4.47600 31.64000 30.49200
H  -8.11000 32.73700 32.65500
H  -7.72300 34.41800 32.22000
H  -6.89000 33.67300 33.56500

