158

Mg 25.72700 -0.76900 29.37800
C  27.44900 -0.97200 32.33700
C  22.78600 -0.52200 31.22900
C  23.92700 -0.76700 26.57500
C  28.63300 -1.36000 27.55300
N  25.21700 -1.02600 31.51500
C  26.05800 -0.93500 32.59300
C  25.34800 -0.53000 33.96600
C  23.91300 -0.86700 33.49400
C  23.96300 -0.85300 31.94600
C  23.30100 -2.22300 34.13600
C  25.72900 0.90200 34.40600
C  24.83200 1.63300 35.40800
H  25.59700 2.19100 36.68600
N  23.68500 -0.51400 28.95100
C  22.66900 -0.38600 29.82700
C  21.44600 -0.07300 29.14000
C  21.79400 -0.10100 27.78600
C  23.19200 -0.46000 27.71100
C  20.10000 0.07000 29.84400
C  20.97700 0.31400 26.56000
O  21.48900 0.34700 25.44800
C  19.53200 0.82400 26.67800
N  26.26100 -1.08500 27.39600
C  25.29900 -1.09200 26.36500
C  25.97300 -1.26800 25.03200
C  27.51300 -1.24400 25.34700
C  27.45000 -1.31000 26.82500
C  25.50600 -2.55900 24.21100
C  28.21800 0.10000 24.94100
C  29.29800 0.05900 23.81900
N  27.67400 -1.25600 29.80000
C  28.75000 -1.38900 28.95900
C  29.90000 -1.54700 29.80500
C  29.48300 -1.28000 31.10900
C  28.12900 -1.15400 31.06200
C  31.25000 -1.86100 29.29100
C  29.93300 -1.03000 32.46000
O  31.07500 -1.04900 32.89800
C  28.61400 -0.69600 33.31900
C  28.67000 -1.68600 34.39900
O  28.46400 -2.89300 34.23800
O  29.07400 -1.09000 35.63000
C  29.37400 -2.01200 36.74800
H  21.90700 -0.43500 31.87100
H  23.33900 -0.85400 25.65900
H  29.52000 -1.46700 26.92500
H  25.63100 -1.23200 34.75000
H  23.40900 0.04400 33.81800
H  23.96800 -2.67900 34.86800
H  23.06400 -2.94500 33.35600
H  22.31300 -1.95000 34.50600
H  25.80800 1.45400 33.47000
H  26.71400 0.89300 34.87300
H  23.98100 1.05100 35.76100
H  24.43700 2.56400 35.00100
H  19.50100 0.89300 29.45600
H  20.17000 0.12300 30.93100
H  19.44300 -0.78900 29.70700
H  19.19900 1.07700 25.67100
H  19.46600 1.64200 27.39500
H  18.81800 0.08800 27.04900
H  25.55900 -0.41900 24.48800
H  28.00200 -2.16900 25.04100
H  24.65900 -3.07400 24.66500
H  26.21500 -3.38300 24.12900
H  25.18800 -2.35500 23.18800
H  28.71300 0.64400 25.74600
H  27.48500 0.80000 24.53800
H  30.22300 0.39800 24.28600
H  28.97300 0.59400 22.92700
H  29.40400 -0.98000 23.50700
H  31.33500 -2.05600 28.22200
H  31.77800 -2.64900 29.82800
H  31.82900 -0.94100 29.37600
H  28.59700 0.28500 33.79500
H  29.35300 -3.05100 36.41700
H  28.55900 -1.90300 37.46300
H  30.30900 -1.81200 37.27200
Mg 48.05600 34.02400 26.77700
C  46.21500 32.76700 29.40000
C  48.35400 37.01600 28.63100
C  49.18400 35.57900 24.07900
C  47.23600 31.24000 24.93400
N  47.29700 34.85200 28.68100
C  46.84700 33.97500 29.65500
C  46.91400 34.63100 31.06200
C  47.11700 36.05700 30.65800
C  47.64100 35.99500 29.25700
C  45.94000 37.04400 30.91000
C  48.12600 34.05300 31.86100
C  48.14300 34.03200 33.40100
H  47.41100 35.09400 34.15600
N  48.67600 36.06300 26.38900
C  48.85600 37.04600 27.32300
C  49.49000 38.12700 26.62800
C  49.66200 37.79800 25.20200
C  49.15700 36.41900 25.16100
C  49.69900 39.42800 27.23000
C  50.13600 38.63500 23.99300
O  50.09000 38.26300 22.80500
C  50.76300 39.93000 24.34500
N  48.08400 33.54800 24.69400
C  48.74400 34.32000 23.81600
C  48.79300 33.60600 22.39500
C  48.29200 32.17900 22.73600
C  47.78800 32.37400 24.18100
C  47.98100 34.46500 21.36700
C  49.41900 31.10800 22.85300
C  48.88400 29.68800 22.61800
N  47.09100 32.21000 27.10600
C  46.79600 31.20600 26.26000
C  45.92600 30.19900 26.88100
C  45.67500 30.84800 28.14400
C  46.38400 32.05500 28.17700
C  45.40800 28.89600 26.35000
C  44.95400 30.65200 29.40400
O  44.25200 29.75000 29.80400
C  45.24300 31.94000 30.25100
C  45.48900 31.67700 31.67800
O  46.25800 30.83700 32.15400
O  44.71100 32.51900 32.45500
C  44.58800 32.24800 33.87000
H  48.41300 37.88900 29.28400
H  49.56100 35.85100 23.09100
H  46.92000 30.31000 24.45700
H  45.96900 34.60300 31.60400
H  47.89700 36.46500 31.30100
H  45.96800 37.86100 30.18800
H  46.05600 37.48000 31.90200
H  44.97700 36.53400 30.91100
H  49.08600 34.54900 31.72100
H  48.15900 32.98000 31.67200
H  49.18600 34.07000 33.71600
H  47.77000 33.06200 33.73000
H  50.62100 39.86200 26.84400
H  49.84000 39.29300 28.30300
H  48.82200 40.07100 27.16200
H  51.66300 39.73700 24.92900
H  49.96100 40.50600 24.80600
H  50.93900 40.43900 23.39800
H  49.84300 33.50500 22.12100
H  47.43100 31.89100 22.13200
H  47.02100 34.61300 21.86200
H  47.83900 33.91400 20.43700
H  48.38800 35.46400 21.21300
H  49.87300 31.11400 23.84300
H  50.09600 31.44600 22.06800
H  49.45500 29.12400 21.88000
H  47.90100 29.70900 22.14700
H  48.79800 29.17700 23.57700
H  45.73800 28.50200 25.38900
H  44.33300 29.07500 26.38600
H  45.80900 28.21000 27.09700
H  44.34000 32.54800 30.18900
H  45.51000 32.60000 34.33300
H  44.49900 31.20400 34.17100
H  43.81700 32.83400 34.36900

