158

Mg 46.93600 25.10500 27.87500
C  48.01800 27.28500 30.29600
C  46.68400 22.72000 30.28700
C  46.53600 22.84500 25.36800
C  47.82400 27.42300 25.32800
N  47.31500 25.04400 30.01900
C  47.69200 26.07500 30.85200
C  47.83900 25.74700 32.32700
C  47.33300 24.23100 32.30000
C  47.17900 23.90200 30.76900
C  48.17300 23.18300 33.09000
C  46.93700 26.66800 33.15500
C  46.21900 26.02500 34.35700
H  46.11900 26.92100 35.60600
N  46.58800 23.08800 27.86800
C  46.47500 22.31700 28.96100
C  46.27000 20.93900 28.53800
C  46.01300 20.94900 27.13700
C  46.38900 22.35100 26.74700
C  46.17600 19.78600 29.46000
C  45.59700 19.79300 26.17300
O  45.48300 19.91900 24.95200
C  45.12600 18.50100 26.67100
N  47.23600 25.06500 25.56600
C  46.87500 24.06800 24.79000
C  46.74800 24.38900 23.33100
C  47.05700 25.94000 23.39800
C  47.37000 26.21300 24.90300
C  47.72400 23.66000 22.44000
C  45.82200 26.74800 22.90200
C  46.07000 27.89900 21.88200
N  47.70800 26.93600 27.76100
C  48.09800 27.77100 26.69100
C  48.51800 29.05000 27.18500
C  48.39800 28.92400 28.57100
C  48.01700 27.62800 28.90600
C  48.69200 30.29300 26.38800
C  48.56000 29.64600 29.84500
O  48.88800 30.80200 30.15200
C  48.30900 28.66400 31.01000
C  49.42800 28.77600 31.99800
O  50.45200 28.21600 31.87000
O  49.01000 29.50600 33.09500
C  49.73900 29.20700 34.30400
H  46.48400 21.91500 30.99700
H  46.34500 22.08200 24.61000
H  47.83100 28.22200 24.58300
H  48.88400 25.78100 32.63600
H  46.32000 24.18300 32.70000
H  48.77700 23.71700 33.82300
H  48.75000 22.62500 32.35200
H  47.49600 22.45500 33.53500
H  46.29300 27.31100 32.55500
H  47.72900 27.23500 33.64300
H  46.73100 25.12500 34.69900
H  45.21600 25.77200 34.01300
H  45.13300 19.50700 29.61200
H  46.50500 19.94000 30.48800
H  46.67100 18.89100 29.08400
H  44.84400 17.91500 25.79700
H  44.34200 18.55800 27.42700
H  45.99500 18.15100 27.22800
H  45.74800 24.17200 22.95600
H  47.95800 26.19000 22.83800
H  48.57200 24.17600 21.99100
H  47.14000 23.38800 21.56100
H  48.03800 22.68100 22.80200
H  45.33000 27.14100 23.79200
H  45.14100 26.05500 22.40800
H  47.12000 27.85100 21.59300
H  45.77700 28.83500 22.35900
H  45.44100 27.69900 21.01500
H  47.91700 30.20200 25.62800
H  49.75800 30.24100 26.16600
H  48.51700 31.21700 26.93900
H  47.37900 29.04700 31.43000
H  49.15600 28.54600 34.94500
H  49.87000 30.09200 34.92600
H  50.70400 28.70900 34.20600
Mg 35.15700 49.12700 26.56300
C  35.84300 47.09700 29.45800
C  34.46800 51.65300 28.68500
C  34.69700 51.04500 23.81400
C  35.87500 46.33400 24.50800
N  35.08400 49.29800 28.84700
C  35.39800 48.35400 29.79100
C  35.43200 48.97500 31.12200
C  34.63100 50.29000 30.89200
C  34.77200 50.47300 29.38100
C  33.09200 50.23400 31.35200
C  36.91200 49.13300 31.68600
C  36.97900 48.56500 33.10300
H  36.99600 49.55200 34.21900
N  34.54600 51.05400 26.27900
C  34.24500 51.91900 27.22800
C  33.82200 53.21200 26.65100
C  33.95500 53.06200 25.24600
C  34.41200 51.65300 25.00200
C  33.44200 54.50600 27.50700
C  33.64600 54.07800 24.09900
O  33.68500 53.77600 22.91100
C  33.22500 55.60200 24.47000
N  35.28100 48.73200 24.50000
C  34.96200 49.69000 23.59700
C  35.08800 49.13600 22.13000
C  35.69500 47.77700 22.33200
C  35.54900 47.56700 23.86400
C  33.79200 49.21200 21.31500
C  37.03600 47.49300 21.67200
C  37.02100 46.57900 20.43500
N  35.60300 46.99400 26.89800
C  35.91100 46.08000 25.95000
C  36.30300 44.84200 26.68500
C  36.26700 45.20200 28.04200
C  35.94600 46.53500 28.11100
C  36.71200 43.49700 26.07800
C  36.60500 44.81000 29.38400
O  37.00100 43.69700 29.69300
C  36.29300 45.97000 30.39900
C  35.30200 45.50500 31.35600
O  34.21600 45.17100 31.11300
O  35.91200 45.26100 32.57600
C  35.07200 44.71900 33.66500
H  34.41000 52.55000 29.30400
H  34.58100 51.65100 22.91400
H  36.17900 45.55200 23.80900
H  34.82500 48.34400 31.77200
H  35.12900 51.14400 31.35100
H  32.83600 50.80400 32.24500
H  32.73300 49.20700 31.43000
H  32.44800 50.70200 30.60800
H  37.34400 50.13200 31.63200
H  37.62700 48.56300 31.09200
H  37.85400 47.92600 33.22200
H  36.19800 47.82400 33.27400
H  32.48200 54.73900 27.04700
H  34.11300 55.31700 27.22400
H  33.43900 54.46000 28.59600
H  34.10400 56.04000 24.94100
H  32.29400 55.66000 25.03400
H  32.98800 56.12000 23.54000
H  35.74300 49.83500 21.61100
H  34.97500 47.11900 21.84500
H  32.95500 49.46700 21.96400
H  33.53200 48.31800 20.74800
H  33.96700 50.01200 20.59600
H  37.65000 46.90700 22.35600
H  37.58100 48.43700 21.63900
H  37.48500 45.60800 20.61200
H  37.57300 47.17400 19.70800
H  36.04000 46.31900 20.03700
H  35.78400 42.94000 25.95000
H  37.43700 42.95200 26.68300
H  37.21800 43.57100 25.11500
H  37.16100 46.32700 30.95300
H  34.37600 45.48500 34.00500
H  35.70700 44.36500 34.47700
H  34.48200 43.89300 33.26700

