158

Mg 26.20400 0.71000 29.37200
C  28.11500 0.19500 32.02200
C  23.27400 0.56700 31.33800
C  24.24100 0.95200 26.57900
C  28.91200 0.04900 27.36600
N  25.79800 0.27800 31.45400
C  26.77000 0.31500 32.36300
C  26.21500 0.59900 33.76800
C  24.65700 0.71700 33.51900
C  24.51200 0.42900 32.01400
C  23.70400 -0.07800 34.48200
C  26.77200 1.83800 34.48400
C  26.09200 2.23100 35.83100
H  26.71400 2.85500 37.05200
N  24.02100 0.70100 29.04400
C  23.03900 0.67000 29.97100
C  21.73300 0.81700 29.31800
C  21.92100 0.86900 27.93600
C  23.42800 0.83000 27.78200
C  20.53100 0.91400 30.14700
C  20.94700 1.14400 26.81600
O  21.27200 1.17800 25.63500
C  19.47200 1.38000 27.20300
N  26.53300 0.46700 27.25100
C  25.59200 0.73300 26.33800
C  26.15800 0.66100 24.91300
C  27.65200 0.39200 25.20300
C  27.69300 0.19600 26.69500
C  25.57800 -0.40900 23.92700
C  28.52100 1.65000 24.71100
C  28.62900 2.87000 25.63800
N  28.12000 0.23900 29.58000
C  29.16200 0.02300 28.68700
C  30.39800 -0.24900 29.41000
C  30.05700 -0.15300 30.77800
C  28.69300 0.09600 30.80800
C  31.79300 -0.43100 28.89200
C  30.44500 -0.25900 32.16400
O  31.54400 -0.55300 32.60900
C  29.26400 0.11400 33.03500
C  29.12300 -0.90400 34.14500
O  28.80500 -2.03700 34.01200
O  29.31900 -0.23400 35.35500
C  29.46700 -0.98100 36.60400
H  22.38900 0.73600 31.95400
H  23.60700 1.24400 25.73900
H  29.64700 -0.11100 26.57400
H  26.41600 -0.29400 34.35900
H  24.48900 1.79000 33.61400
H  23.16900 -0.82900 33.90100
H  23.02100 0.55300 35.05100
H  24.30600 -0.53500 35.26800
H  26.69400 2.62100 33.73000
H  27.85400 1.73000 34.57100
H  25.93400 1.21000 36.17700
H  25.13100 2.69700 35.61500
H  19.75100 0.37800 29.60600
H  20.18300 1.94100 30.25300
H  20.59600 0.34600 31.07500
H  18.90000 1.67700 26.32400
H  19.62900 2.20500 27.89800
H  19.00400 0.52000 27.68100
H  25.94800 1.65900 24.52800
H  28.02000 -0.56500 24.83500
H  25.44400 -0.06600 22.90200
H  24.68700 -0.82000 24.40100
H  26.32300 -1.17900 23.72400
H  28.23100 2.06400 23.74600
H  29.51000 1.22500 24.54000
H  28.34200 2.63300 26.66200
H  28.03100 3.67500 25.21200
H  29.64400 3.26000 25.72100
H  32.16300 0.43400 28.34200
H  31.65900 -1.32600 28.28400
H  32.49200 -0.58700 29.71300
H  29.53400 1.10400 33.40200
H  28.92200 -0.43000 37.37100
H  30.51700 -1.11100 36.86600
H  28.99300 -1.96100 36.65500
Mg 45.28300 4.05300 47.18500
C  43.41100 6.96800 46.26300
C  42.24900 2.30700 46.41300
C  46.94100 1.34400 47.87800
C  48.15400 6.03000 47.17700
N  43.06500 4.61500 46.47700
C  42.63800 5.79900 46.02600
C  41.19300 5.75400 45.50200
C  40.74700 4.28100 45.76200
C  42.08900 3.69100 46.28900
C  39.63900 4.22000 46.80700
C  41.14900 6.14500 44.00600
C  40.22300 7.24300 43.61500
H  40.38500 7.61500 42.09400
N  44.66500 2.11100 47.15400
C  43.40300 1.57500 46.79200
C  43.56700 0.15700 46.82700
C  44.82900 -0.20400 47.38700
C  45.53700 1.09300 47.56300
C  42.48400 -0.72500 46.40600
C  45.33300 -1.60400 47.62100
O  44.49400 -2.49000 47.53900
C  46.74700 -1.90600 48.05400
N  47.34800 3.71100 47.36800
C  47.76300 2.51800 47.83100
C  49.25600 2.65900 48.19300
C  49.62000 4.11800 47.92900
C  48.28900 4.65500 47.45400
C  49.65900 2.16700 49.57700
C  50.78600 4.36200 47.00700
C  50.67300 3.84700 45.49400
N  45.76600 6.07800 46.88100
C  46.91100 6.70300 46.96700
C  46.77400 8.13000 46.71700
C  45.38200 8.30600 46.49300
C  44.81200 7.05400 46.56600
C  47.94400 9.09200 46.60400
C  44.31100 9.25500 46.16700
O  44.28600 10.45900 46.01800
C  43.03800 8.42600 45.97600
C  41.99900 8.94100 47.02700
O  41.52100 8.29200 47.98100
O  41.49900 10.17500 46.61700
C  40.35000 10.58400 47.53200
H  41.29600 1.85200 46.13200
H  47.53000 0.45400 48.10900
H  49.01700 6.67700 47.34500
H  40.57100 6.43700 46.08000
H  40.39900 3.74800 44.87700
H  38.70700 4.17000 46.24500
H  39.59700 5.07200 47.48600
H  39.78500 3.30000 47.37300
H  40.86900 5.21600 43.51000
H  42.11300 6.40800 43.57000
H  40.45100 8.18700 44.11000
H  39.15500 7.02400 43.59100
H  42.96100 -1.26300 45.58700
H  41.56700 -0.26000 46.04300
H  42.19400 -1.33000 47.26500
H  46.82900 -2.99100 48.11600
H  47.12100 -1.49700 48.99300
H  47.42400 -1.66100 47.23600
H  49.67500 2.00000 47.43300
H  49.86600 4.68500 48.82700
H  50.44500 2.83200 49.93500
H  50.05900 1.15400 49.53100
H  48.77000 2.26800 50.20000
H  51.70800 3.96400 47.43100
H  51.02100 5.42600 47.02500
H  51.34000 3.07700 45.10600
H  50.76900 4.73900 44.87400
H  49.67900 3.44300 45.30400
H  48.56700 8.79200 45.76100
H  48.53300 9.28300 47.50100
H  47.57900 10.07300 46.30200
H  42.59900 8.56100 44.98800
H  39.91700 9.80600 48.16200
H  39.59000 10.92800 46.83000
H  40.61100 11.42000 48.18000

