158

Mg 36.61800 1.18600 29.77100
C  34.17800 2.26200 32.12900
C  38.96600 1.50000 32.23700
C  38.82500 0.74300 27.32400
C  34.05400 1.15700 27.35600
N  36.47900 1.79200 31.97300
C  35.42500 2.19400 32.71400
C  35.79600 2.29200 34.16400
C  37.39600 2.40000 34.13800
C  37.64600 1.86200 32.69700
C  38.05700 3.84100 34.39200
C  35.21000 1.13100 35.00200
C  34.76200 1.54300 36.38300
H  35.18900 2.89900 36.95100
N  38.63200 1.25200 29.80500
C  39.42200 1.29700 30.89700
C  40.81600 0.97300 30.43800
C  40.80400 0.80000 28.97700
C  39.37500 0.95500 28.66800
C  41.98100 0.81000 31.46100
C  41.91000 0.50800 28.06200
O  41.78800 0.35100 26.86100
C  43.33500 0.32300 28.66500
N  36.51500 0.88200 27.68300
C  37.53600 0.76100 26.84800
C  37.14900 0.60000 25.37200
C  35.63300 0.63000 25.48200
C  35.37500 0.85300 26.96000
C  37.63900 1.69400 24.44600
C  34.86800 -0.66700 25.00000
C  34.34800 -0.64800 23.52900
N  34.52100 1.46600 29.77400
C  33.64100 1.46400 28.70100
C  32.28300 1.85900 29.13700
C  32.50900 2.14600 30.47700
C  33.88900 1.93200 30.80400
C  31.04600 2.06100 28.31400
C  31.90400 2.76300 31.65600
O  30.78500 3.25200 31.78400
C  32.91200 2.70900 32.81500
C  32.92900 4.04800 33.46900
O  33.60800 4.99200 33.08000
O  32.08500 4.00700 34.55600
C  31.91400 5.29100 35.23500
H  39.67200 1.42200 33.06600
H  39.57900 0.59100 26.54900
H  33.24400 1.31300 26.64100
H  35.37400 3.28000 34.34600
H  37.87000 1.76200 34.88500
H  38.83300 3.70500 35.14500
H  37.36700 4.62800 34.69700
H  38.51000 4.16700 33.45600
H  35.95700 0.34600 35.11800
H  34.43600 0.65400 34.40000
H  35.03100 0.83200 37.16500
H  33.69900 1.73600 36.24500
H  42.42400 -0.17200 31.29700
H  41.73800 1.02500 32.50100
H  42.57300 1.66500 31.13200
H  43.60900 1.13000 29.34500
H  43.98100 0.49400 27.80500
H  43.47100 -0.66400 29.10800
H  37.61200 -0.33500 25.05500
H  35.27600 1.51100 24.94800
H  38.46600 1.45000 23.78000
H  37.85600 2.67400 24.87100
H  36.92300 1.90100 23.65100
H  34.02500 -0.94500 25.63300
H  35.64100 -1.42500 25.12700
H  33.28900 -0.39200 23.54800
H  34.47600 -1.58100 22.98000
H  34.95200 0.08300 22.99200
H  30.15900 1.58300 28.73000
H  31.16600 1.77500 27.26900
H  30.95200 3.14600 28.30300
H  32.50300 1.96900 33.50300
H  31.39300 5.92100 34.51400
H  32.82900 5.82000 35.50200
H  31.33800 5.10900 36.14300
Mg 36.38300 49.05400 24.12700
C  36.71000 47.49100 27.20700
C  35.25400 51.87500 25.57200
C  35.69600 50.33900 21.01600
C  37.59400 46.21200 22.63300
N  35.83800 49.49400 26.12500
C  36.17900 48.80600 27.29600
C  35.70000 49.54800 28.53700
C  35.10100 50.92100 27.94600
C  35.32100 50.71200 26.41400
C  33.64000 51.23700 28.29900
C  36.89400 49.88500 29.52000
C  36.57300 49.65800 31.07300
H  35.16700 49.60000 31.57500
N  35.61300 50.84300 23.45900
C  35.26700 51.90600 24.21900
C  34.81600 53.02000 23.37300
C  34.88800 52.56100 22.04500
C  35.39400 51.20000 22.14200
C  34.63600 54.38100 23.90400
C  34.60900 53.33200 20.72100
O  34.74500 52.93000 19.55900
C  34.15000 54.74900 20.87500
N  36.49400 48.38400 22.10000
C  36.16800 49.06200 21.01200
C  36.56300 48.25800 19.65900
C  37.54700 47.16000 20.24700
C  37.27000 47.27800 21.75000
C  35.31800 47.75500 18.80400
C  39.02200 47.10300 19.68800
C  39.94200 48.11800 20.28800
N  37.03400 47.19700 24.74500
C  37.40400 46.08600 24.02300
C  37.57800 44.95800 24.92600
C  37.36200 45.50000 26.18900
C  37.10300 46.87900 26.02900
C  37.97000 43.54200 24.46400
C  37.42200 45.16600 27.61200
O  37.81300 44.17900 28.27900
C  36.91100 46.50400 28.30600
C  35.61300 46.10900 28.95000
O  34.50300 46.11700 28.44000
O  35.90700 45.75700 30.29200
C  34.79800 45.08400 30.93900
H  34.91100 52.81500 26.00900
H  35.56600 50.82000 20.04400
H  38.12100 45.38300 22.15500
H  34.93300 49.00400 29.08800
H  35.73400 51.72200 28.32700
H  33.50100 52.31800 28.30900
H  33.37500 50.89900 29.30100
H  33.01400 50.71500 27.57500
H  37.33200 50.86900 29.34800
H  37.66600 49.14900 29.29400
H  36.99200 50.53500 31.56500
H  37.15400 48.83000 31.48100
H  35.16300 55.14000 23.32600
H  35.16500 54.43400 24.85500
H  33.55900 54.54700 23.89700
H  33.31800 54.92800 21.55600
H  33.91700 55.03200 19.84900
H  35.03500 55.35700 21.06300
H  37.19600 48.90800 19.05500
H  37.19300 46.18300 19.91900
H  34.31000 48.11900 19.00500
H  35.38100 46.67500 18.67100
H  35.41400 48.15200 17.79400
H  39.07400 47.23900 18.60800
H  39.50100 46.18000 20.01300
H  39.33400 48.83900 20.83500
H  40.39800 48.66100 19.46000
H  40.66800 47.74300 21.00800
H  37.44500 43.48000 23.51100
H  37.55700 42.77200 25.11500
H  39.03900 43.34900 24.37200
H  37.56300 46.83500 29.11400
H  34.23800 44.54200 30.17700
H  34.13700 45.74200 31.50300
H  35.28300 44.39700 31.63200

