158

Mg 54.69200 24.55500 45.72000
C  51.92200 26.38100 44.66100
C  53.18900 21.70500 44.73100
C  57.52300 22.96200 46.38800
C  56.03600 27.43600 47.03100
N  52.89900 24.19000 44.49100
C  51.80600 25.08800 44.28300
C  50.62900 24.27200 43.61800
C  50.91900 22.87200 44.40600
C  52.42100 22.91900 44.65400
C  50.02400 22.53500 45.55500
C  50.73800 24.16500 42.06300
C  49.37700 24.65800 41.32900
H  48.98500 23.77800 40.10700
N  55.31800 22.64400 45.40400
C  54.56900 21.56900 45.06400
C  55.35900 20.35500 45.27000
C  56.69600 20.71900 45.50400
C  56.55200 22.19400 45.78000
C  54.75300 19.04600 45.12500
C  57.96200 19.79100 45.70100
O  57.75400 18.59200 45.70000
C  59.33800 20.30300 45.96700
N  56.48200 25.12700 46.84400
C  57.53700 24.31700 46.73200
C  58.89400 25.00000 47.09200
C  58.37700 26.41400 47.54200
C  56.91400 26.39600 47.08100
C  59.73800 24.20700 48.12200
C  59.17800 27.59400 46.92500
C  60.07600 28.20300 47.92700
N  54.22500 26.61800 45.70500
C  54.75200 27.62500 46.50400
C  53.98200 28.83100 46.34100
C  52.83400 28.45200 45.61900
C  53.00700 27.02100 45.35400
C  54.27800 30.24300 46.95100
C  51.62200 28.86200 44.97600
O  51.07700 29.95100 44.82300
C  50.93900 27.54800 44.38000
C  50.69200 27.69000 42.95900
O  51.55500 27.73900 42.05500
O  49.32800 27.82500 42.71600
C  48.98300 28.49100 41.41700
H  52.73500 20.74500 44.47800
H  58.56400 22.64000 46.31600
H  56.33600 28.45100 47.30200
H  49.71100 24.76600 43.93800
H  50.73000 22.03700 43.73100
H  50.55500 22.68800 46.49400
H  49.76700 21.47600 45.55300
H  49.13500 23.16600 45.55900
H  51.00200 23.17300 41.69600
H  51.58200 24.78700 41.76400
H  49.50200 25.70000 41.03500
H  48.49600 24.66700 41.97000
H  54.34300 19.04700 44.11500
H  53.88200 19.02400 45.78100
H  55.24100 18.08100 45.26300
H  59.47100 21.03100 45.16600
H  60.12700 19.57400 45.78300
H  59.33000 20.80200 46.93700
H  59.40200 25.24400 46.15900
H  58.30500 26.40700 48.63000
H  60.18300 24.80100 48.92000
H  60.64100 23.83400 47.64000
H  59.25900 23.28300 48.44700
H  58.48100 28.33000 46.52400
H  59.79700 27.24600 46.09900
H  60.08600 27.74400 48.91600
H  59.73000 29.19600 48.21400
H  61.07300 28.35700 47.51600
H  55.26900 30.54000 46.60700
H  54.13800 30.30300 48.03000
H  53.53600 30.97700 46.64000
H  50.00600 27.40800 44.92600
H  48.24900 27.85700 40.92000
H  49.75200 28.48200 40.64400
H  48.60700 29.49500 41.61100
Mg 26.89500 50.26800 26.02900
C  24.78100 51.51600 28.51500
C  28.90800 49.06800 28.49900
C  28.94200 49.22600 23.57100
C  24.73500 51.84700 23.63900
N  26.83400 50.32000 28.25400
C  25.85500 50.83800 29.03100
C  26.06900 50.57500 30.55700
C  27.51000 49.98600 30.52100
C  27.81100 49.86000 29.00500
C  28.68100 50.78100 31.22800
C  25.00400 49.53400 31.13100
C  24.46400 49.93800 32.55000
H  25.46500 50.57600 33.58200
N  28.63200 49.23200 25.99300
C  29.28700 48.79500 27.13300
C  30.57100 48.28000 26.76600
C  30.56900 48.28500 25.32900
C  29.29500 48.93200 24.90300
C  31.59500 47.79800 27.75300
C  31.56100 47.71400 24.39800
O  31.48200 47.76400 23.14900
C  32.85100 47.05600 24.89400
N  26.74100 50.39500 23.94600
C  27.73000 49.86300 23.17900
C  27.41100 50.01800 21.68200
C  26.06700 50.84500 21.71700
C  25.80400 51.06700 23.20600
C  28.59800 50.85100 20.97300
C  24.75300 50.30200 20.99100
C  24.03600 49.14900 21.65900
N  25.10800 51.47600 26.02400
C  24.38600 51.97900 25.01600
C  23.22700 52.73400 25.53300
C  23.33900 52.58400 26.91700
C  24.51700 51.83000 27.18100
C  22.25900 53.44000 24.72000
C  22.69000 52.97900 28.14700
O  21.69300 53.66200 28.28600
C  23.54700 52.21600 29.21800
C  23.95900 53.24600 30.22500
O  24.95800 53.93600 30.17100
O  23.10400 53.36500 31.29700
C  23.50200 54.30800 32.36200
H  29.59800 48.82400 29.30900
H  29.56300 48.83500 22.76200
H  24.16600 52.35900 22.86000
H  26.11600 51.55400 31.03400
H  27.63400 49.01100 30.99400
H  28.40500 51.78000 31.56800
H  29.53500 50.84800 30.55500
H  29.00800 50.28800 32.14300
H  25.40800 48.52200 31.16300
H  24.16000 49.38000 30.45900
H  23.92500 49.10400 33.00000
H  23.76100 50.75700 32.40100
H  32.61500 48.09600 27.51200
H  31.51600 46.71100 27.79600
H  31.40500 48.11100 28.77900
H  33.54700 46.70000 24.13400
H  32.56300 46.28300 25.60600
H  33.38500 47.84500 25.42200
H  27.15700 49.03300 21.29200
H  26.38500 51.82100 21.35000
H  29.36000 51.29500 21.61300
H  28.25400 51.68500 20.36200
H  29.04600 50.11900 20.30000
H  25.24600 50.00500 20.06500
H  24.04200 51.11800 20.86400
H  23.13800 49.61300 22.06800
H  24.65500 48.72600 22.45100
H  23.96900 48.34500 20.92600
H  21.78300 52.83900 23.94600
H  22.72000 54.27200 24.18700
H  21.53500 53.90400 25.39000
H  22.79600 51.63000 29.74800
H  24.11900 55.15800 32.07200
H  24.19400 53.81700 33.04600
H  22.55300 54.64500 32.77800

