158

Mg 48.92400 36.32100 28.16300
C  46.83900 34.52300 30.32700
C  48.87200 39.06700 30.25700
C  50.83100 38.04100 25.98000
C  48.54200 33.75000 25.89300
N  48.00400 36.69600 30.05800
C  47.32700 35.75100 30.83400
C  47.21900 36.29100 32.26100
C  47.56500 37.82500 32.17200
C  48.23300 37.89800 30.75000
C  46.28200 38.74900 32.21600
C  48.33100 35.60100 33.14200
C  47.84100 35.34300 34.61100
H  46.75600 36.24500 35.17000
N  49.63900 38.33300 28.04200
C  49.54900 39.29500 29.04400
C  50.12600 40.51100 28.57900
C  50.79100 40.24100 27.38400
C  50.44800 38.78800 27.09600
C  50.13500 41.78400 29.38500
C  51.80000 41.08800 26.62700
O  52.52300 40.58600 25.77600
C  51.95800 42.55500 26.92800
N  49.66300 35.88900 26.28000
C  50.41500 36.75600 25.57600
C  50.96000 36.11900 24.32900
C  50.32100 34.65600 24.36300
C  49.39000 34.81400 25.54700
C  50.64700 36.89900 22.96200
C  51.31200 33.42200 24.46600
C  51.17500 32.23100 23.41500
N  47.92000 34.47300 28.08200
C  47.85600 33.52500 27.11400
C  47.10500 32.36700 27.66000
C  46.67800 32.73100 28.92800
C  47.16800 34.03400 29.07700
C  46.87900 31.06500 27.00600
C  45.85200 32.32600 30.05300
O  45.28300 31.28300 30.28600
C  45.88100 33.60100 30.96100
C  46.07800 33.24500 32.41500
O  46.98000 32.51300 32.74900
O  44.90500 33.58500 33.16500
C  44.76300 32.78100 34.42300
H  49.00200 39.92200 30.92400
H  51.53700 38.45500 25.25800
H  48.47900 32.93100 25.17400
H  46.22500 35.94500 32.54300
H  48.20200 38.16200 32.99000
H  46.17900 39.43500 33.05700
H  45.34800 38.18800 32.22500
H  46.21800 39.28800 31.27000
H  49.19000 36.27100 33.19900
H  48.76200 34.72000 32.66700
H  48.68200 35.36900 35.30300
H  47.61400 34.27800 34.63100
H  50.09000 42.77800 28.94000
H  51.08900 41.79700 29.91300
H  49.40000 41.77800 30.18900
H  52.33100 42.75600 27.93200
H  51.00800 43.08500 26.85300
H  52.63900 42.82200 26.12000
H  52.01700 35.92800 24.51000
H  49.71900 34.47600 23.47300
H  50.03400 37.77500 23.17500
H  50.12500 36.26600 22.24500
H  51.47500 37.37200 22.43400
H  51.26600 33.05100 25.49000
H  52.34000 33.77600 24.37700
H  50.41400 32.40100 22.65200
H  50.92800 31.29300 23.91400
H  52.14900 32.09900 22.94400
H  47.15100 30.23400 27.65700
H  47.41000 30.81600 26.08700
H  45.81200 30.88700 26.86500
H  44.92300 34.10100 30.82200
H  45.56800 32.11400 34.73000
H  43.79100 32.28900 34.45000
H  44.75100 33.46300 35.27300
Mg 9.98500 47.83700 26.01500
C  7.84200 47.94100 28.87500
C  12.39200 49.42200 27.94700
C  11.80200 48.23500 23.19600
C  7.23900 46.77900 24.06700
N  10.06300 48.73800 28.19500
C  9.13700 48.41200 29.18400
C  9.62700 49.08000 30.49800
C  11.12600 49.56500 30.21400
C  11.25400 49.29100 28.72300
C  11.26500 51.04800 30.47300
C  9.44200 48.16700 31.83200
C  10.47000 48.19600 33.00200
H  10.05000 48.55500 34.40700
N  11.86000 48.54300 25.69300
C  12.72300 49.14500 26.57100
C  13.91500 49.39500 25.85600
C  13.83200 49.11800 24.52300
C  12.41800 48.63000 24.41300
C  15.11600 49.99000 26.58700
C  14.82500 49.35500 23.51700
O  14.55600 49.18100 22.34100
C  16.21100 49.80600 23.75500
N  9.52000 47.63200 23.91100
C  10.51300 47.67200 22.92200
C  10.03100 47.02900 21.59300
C  8.66700 46.38000 22.02100
C  8.47300 46.99300 23.36500
C  9.94500 47.99800 20.37800
C  8.64200 44.77100 22.12200
C  9.61100 44.16000 23.21100
N  7.92800 47.52900 26.34000
C  6.97400 47.05900 25.44800
C  5.71900 46.82600 26.21400
C  6.02300 47.10000 27.58700
C  7.37900 47.52400 27.61500
C  4.45800 46.22400 25.61700
C  5.57400 47.11500 28.96600
O  4.52700 46.79100 29.45900
C  6.80000 47.49700 29.85100
C  7.07100 46.25600 30.60900
O  7.63100 45.27600 30.16700
O  6.66500 46.40700 31.91400
C  7.05200 45.33100 32.84000
H  13.15700 49.86600 28.58800
H  12.37700 48.37200 22.27800
H  6.40600 46.39600 23.47500
H  8.90300 49.89400 30.54700
H  11.89700 49.00700 30.74500
H  12.14700 51.31100 31.05700
H  10.36100 51.33200 31.01200
H  11.30600 51.61900 29.54500
H  9.48300 47.09900 31.61900
H  8.39100 48.40200 32.00200
H  11.30000 48.87600 32.80900
H  10.88200 47.18700 33.01100
H  15.01900 50.09500 27.66700
H  15.35400 50.93400 26.09600
H  15.95000 49.30400 26.43900
H  16.70400 49.93900 22.79200
H  16.80500 49.10800 24.34400
H  16.32100 50.80000 24.18800
H  10.64300 46.21100 21.21300
H  7.81700 46.80000 21.48300
H  10.43500 48.93400 20.64300
H  8.96000 48.11500 19.92600
H  10.62700 47.56800 19.64400
H  8.86900 44.36400 21.13700
H  7.64000 44.39200 22.32400
H  10.20000 44.97100 23.63900
H  10.17100 43.32100 22.79800
H  8.95600 43.85500 24.02700
H  4.46800 45.57700 24.74000
H  3.69000 46.98500 25.47800
H  4.26600 45.63900 26.51700
H  6.53700 48.31800 30.51900
H  7.92900 45.74500 33.33900
H  7.19500 44.39200 32.30500
H  6.24700 45.30400 33.57500

