158

Mg 1.75000 -0.24500 43.86600
C  5.29900 0.05100 43.38500
C  1.29100 2.60000 42.14400
C  -1.42400 -1.06300 43.84300
C  2.56600 -3.55000 44.99900
N  3.16000 1.05000 42.85900
C  4.53000 1.06100 42.70900
C  4.98100 2.11800 41.67800
C  3.80700 3.13900 41.69100
C  2.65200 2.17700 42.28500
C  3.95400 4.44900 42.60600
C  5.23200 1.56400 40.23800
C  6.40100 2.26600 39.58100
H  5.81900 2.88800 38.28900
N  0.12100 0.68000 43.17400
C  0.09100 1.88400 42.54000
C  -1.26700 2.22600 42.35900
C  -2.08600 1.13000 42.86100
C  -1.09600 0.21200 43.32100
C  -1.68800 3.42700 41.65000
C  -3.57700 1.01500 42.81300
O  -4.20200 2.09000 42.61200
C  -4.37300 -0.26500 43.04000
N  0.72000 -2.01200 44.43100
C  -0.62600 -2.06300 44.36300
C  -1.18600 -3.38500 44.86600
C  0.06600 -4.25400 45.22600
C  1.22500 -3.24000 44.89400
C  -2.10600 -3.29000 46.19400
C  0.20000 -5.53100 44.27500
C  0.58700 -6.82700 44.98700
N  3.51500 -1.47200 44.28800
C  3.68100 -2.75900 44.72400
C  5.10200 -2.98300 44.99600
C  5.76400 -1.89700 44.55900
C  4.77300 -0.99300 44.07700
C  5.65100 -4.38900 45.36400
C  7.10000 -1.38500 44.27400
O  8.20300 -1.95500 44.36300
C  6.79700 -0.06200 43.47500
C  7.39800 1.08400 44.18100
O  6.93700 1.81900 45.08400
O  8.63600 1.30500 43.57900
C  9.40800 2.55300 43.84500
H  1.13700 3.58500 41.69800
H  -2.45600 -1.38600 44.00000
H  2.73900 -4.59400 45.27000
H  5.82300 2.66400 42.10100
H  3.39400 3.51000 40.75300
H  3.12400 4.57300 43.30100
H  3.99900 5.27700 41.89700
H  4.84500 4.43700 43.23400
H  4.32500 1.75800 39.66600
H  5.47000 0.50100 40.28300
H  7.11800 1.48000 39.34500
H  6.78200 3.08300 40.19400
H  -2.47400 3.90700 42.23300
H  -2.07600 3.07100 40.69600
H  -1.00800 4.19700 41.28800
H  -5.38300 -0.10000 42.66400
H  -4.38900 -0.38600 44.12300
H  -3.93900 -0.98400 42.34600
H  -1.78200 -3.82900 44.06900
H  0.16500 -4.56900 46.26500
H  -3.07600 -3.74400 45.99000
H  -2.37800 -2.25500 46.40400
H  -1.69000 -3.82500 47.04800
H  0.95200 -5.29700 43.52100
H  -0.73500 -5.68000 43.73500
H  -0.35500 -7.33000 45.20700
H  1.06000 -6.67700 45.95700
H  1.20400 -7.40400 44.29800
H  5.49700 -5.05700 44.51600
H  5.16300 -4.73700 46.27400
H  6.73200 -4.41000 45.50600
H  7.31700 -0.00900 42.51800
H  10.07600 2.51400 44.70600
H  8.78100 3.44100 43.92900
H  10.13500 2.70400 43.04800
Mg -0.45600 44.03000 26.59100
C  1.83400 43.69500 29.17600
C  -2.98200 43.10900 28.87400
C  -2.68700 44.22700 24.07700
C  2.29400 44.51700 24.38800
N  -0.53500 43.39500 28.70000
C  0.47200 43.63500 29.61700
C  0.05900 43.47600 31.04400
C  -1.46200 43.08200 30.90900
C  -1.69700 43.27300 29.41100
C  -1.87100 41.74600 31.49300
C  0.33600 44.77300 31.90000
C  0.45100 44.57700 33.43600
H  -0.12800 43.33100 34.08200
N  -2.60200 43.70200 26.50400
C  -3.40900 43.29600 27.54500
C  -4.77200 43.13400 27.01200
C  -4.71300 43.57800 25.63200
C  -3.28000 43.88400 25.35900
C  -5.88900 42.69200 27.88100
C  -5.83300 43.57700 24.62600
O  -5.78900 43.98400 23.48900
C  -7.12000 42.85000 24.91900
N  -0.21100 44.32700 24.56600
C  -1.31600 44.41800 23.74100
C  -0.93400 44.77500 22.30100
C  0.64300 45.07200 22.51400
C  0.97900 44.65100 23.89400
C  -1.35400 43.74800 21.19700
C  1.03100 46.57200 22.39500
C  1.12600 47.22100 20.96000
N  1.64400 43.98800 26.71400
C  2.59900 44.19800 25.73400
C  3.90200 44.09300 26.36500
C  3.66100 43.87300 27.72300
C  2.28100 43.82100 27.86700
C  5.17900 44.44400 25.74500
C  4.27000 43.77100 29.00300
O  5.43500 43.85000 29.35500
C  3.14800 43.61300 29.99700
C  3.30600 42.30100 30.54400
O  3.27700 41.22700 29.95900
O  3.40900 42.40900 31.95700
C  3.41200 41.07400 32.54600
H  -3.71500 42.88300 29.65100
H  -3.35600 44.37300 23.22600
H  3.13400 44.68100 23.70900
H  0.46500 42.52500 31.39000
H  -1.98100 43.89500 31.41700
H  -2.37800 41.10500 30.77200
H  -2.54000 42.00300 32.31500
H  -1.01700 41.16400 31.84000
H  -0.49800 45.43300 31.66200
H  1.32300 45.08400 31.55900
H  0.06200 45.44100 33.97400
H  1.47600 44.58600 33.80800
H  -5.53800 42.25800 28.81700
H  -6.57600 41.98400 27.41700
H  -6.48400 43.57300 28.12200
H  -7.60200 43.43900 25.70000
H  -6.82700 41.87400 25.30600
H  -7.70700 42.76100 24.00500
H  -1.45000 45.70400 22.05800
H  1.23600 44.52000 21.78400
H  -0.46000 43.31900 20.74500
H  -2.03600 44.24400 20.50600
H  -1.88300 42.90100 21.63300
H  2.03400 46.76300 22.77700
H  0.31000 47.15800 22.96500
H  0.85400 46.49100 20.19700
H  2.17000 47.49000 20.79600
H  0.48400 48.10000 21.01400
H  5.50100 45.37700 26.20800
H  5.13400 44.61300 24.67000
H  5.86800 43.61800 25.92900
H  3.18800 44.32800 30.81900
H  4.41300 40.80300 32.21000
H  2.62400 40.43200 32.15300
H  3.22700 41.24500 33.60700

