158

Mg -1.89000 17.03900 26.12600
C  -1.77700 14.79700 28.89000
C  -2.00800 19.61400 28.25800
C  -2.07300 19.03700 23.44200
C  -2.15100 14.17100 24.09200
N  -2.10100 17.11700 28.32900
C  -1.90900 16.15400 29.25900
C  -2.01000 16.81000 30.68000
C  -2.35800 18.30800 30.35000
C  -2.11500 18.36000 28.85700
C  -3.78800 18.78300 30.68300
C  -0.82200 16.55200 31.57300
C  -0.57200 17.60900 32.72000
H  -0.00100 17.01900 33.97700
N  -1.88800 19.06400 25.89600
C  -1.83800 19.98400 26.89600
C  -1.85200 21.32000 26.27900
C  -1.87900 21.14900 24.90500
C  -1.94900 19.72600 24.72100
C  -1.93200 22.59200 27.16600
C  -1.69700 22.15200 23.84300
O  -1.67500 21.85700 22.66600
C  -1.40500 23.60100 24.13600
N  -2.07100 16.68900 24.13300
C  -2.10000 17.64800 23.20000
C  -2.02700 17.09400 21.74700
C  -1.81800 15.63200 21.96700
C  -2.00600 15.45500 23.49500
C  -3.17800 17.57200 20.79400
C  -0.43000 14.96800 21.51400
C  -0.48400 14.35900 20.06800
N  -1.96900 14.98600 26.38400
C  -2.10600 13.90700 25.46800
C  -1.95000 12.73700 26.13600
C  -1.84400 12.97200 27.47300
C  -1.91900 14.40400 27.59400
C  -2.01300 11.42100 25.47700
C  -1.65400 12.39300 28.77600
O  -1.44700 11.24400 29.05600
C  -1.74700 13.56200 29.78500
C  -0.53000 13.27500 30.65800
O  0.66400 13.58700 30.51900
O  -1.11300 12.72000 31.74600
C  -0.40100 12.62200 33.04300
H  -2.02000 20.51100 28.88100
H  -2.14200 19.61500 22.51800
H  -2.06300 13.31400 23.42100
H  -2.89100 16.41900 31.18800
H  -1.68000 19.06100 30.75300
H  -4.29700 18.40000 31.56700
H  -4.45800 18.63400 29.83700
H  -3.76000 19.87000 30.76100
H  0.07100 16.52200 30.94900
H  -0.96200 15.54400 31.96300
H  -1.46100 18.12300 33.08300
H  0.12300 18.33400 32.29600
H  -2.21700 22.31900 28.18100
H  -2.53000 23.40800 26.76000
H  -0.90900 22.96800 27.14600
H  -2.25100 24.21600 24.44400
H  -1.11500 24.11300 23.21900
H  -0.59700 23.68100 24.86300
H  -1.16900 17.43900 21.17000
H  -2.53400 15.09600 21.34500
H  -3.86100 18.20000 21.36700
H  -3.73100 16.70600 20.42800
H  -2.88800 18.21500 19.96400
H  -0.08300 14.17900 22.18200
H  0.39600 15.67700 21.45900
H  0.53700 14.53600 19.73100
H  -1.09000 14.86400 19.31500
H  -0.68500 13.29100 20.14600
H  -1.63400 11.38900 24.45600
H  -3.01600 11.00700 25.58800
H  -1.40400 10.76400 26.09900
H  -2.67800 13.37800 30.32200
H  -0.64000 13.51200 33.62500
H  0.67500 12.55400 32.88400
H  -0.84200 11.80600 33.61500
Mg 40.84100 7.84200 29.79600
C  42.56300 9.08100 32.58400
C  38.38500 6.63500 31.86600
C  39.38200 6.39600 27.16500
C  43.73900 8.45200 27.83700
N  40.44400 7.83500 32.04600
C  41.19800 8.57400 32.93000
C  40.42100 8.71100 34.26700
C  39.15300 7.71000 34.07900
C  39.30700 7.36000 32.62500
C  39.01000 6.46500 35.06400
C  40.17200 10.18600 34.50200
C  39.83400 10.50300 36.01000
H  40.88000 11.32100 36.80700
N  39.07800 6.81200 29.54100
C  38.18000 6.43700 30.47300
C  37.00500 5.74900 29.91900
C  37.32900 5.59500 28.54500
C  38.64800 6.26200 28.36200
C  35.84100 5.12000 30.69000
C  36.61100 4.79700 27.50400
O  37.12900 4.53100 26.40800
C  35.21800 4.14100 27.74900
N  41.45700 7.41600 27.79600
C  40.69700 6.74300 26.90000
C  41.44600 6.70300 25.55200
C  42.79600 7.27700 25.80300
C  42.67800 7.75600 27.24600
C  41.59000 5.20000 24.91800
C  43.14800 8.44000 24.80100
C  42.29900 9.69300 24.99300
N  42.76300 8.51600 30.10200
C  43.82200 8.81000 29.25600
C  44.95800 9.41000 29.92300
C  44.50200 9.58800 31.18600
C  43.16500 8.94400 31.32200
C  46.26400 9.85200 29.27800
C  44.77700 10.14400 32.51600
O  45.76500 10.68900 32.95100
C  43.59500 9.75100 33.50300
C  44.09300 8.90500 34.66900
O  45.12700 8.25000 34.65400
O  43.20200 8.90200 35.69100
C  43.52500 8.05100 36.84500
H  37.51000 6.38600 32.47000
H  38.91400 6.04800 26.24200
H  44.59100 8.74500 27.22000
H  40.95800 8.24700 35.09500
H  38.19600 8.23000 34.03800
H  38.18100 6.63600 35.75000
H  39.88700 6.26900 35.68200
H  38.83900 5.58700 34.44200
H  39.30500 10.49000 33.91600
H  41.06200 10.74500 34.21500
H  39.72700 9.59800 36.61000
H  38.94900 11.12000 36.16400
H  34.85800 5.13600 30.21900
H  35.65900 5.55100 31.67400
H  36.14700 4.08800 30.86000
H  34.55800 4.90100 28.16800
H  35.37500 3.15300 28.18400
H  34.65300 3.97300 26.83200
H  40.82400 7.27100 24.86000
H  43.63000 6.57800 25.85100
H  41.29500 4.52700 25.72300
H  42.62800 4.96100 24.68800
H  41.06400 5.06200 23.97300
H  42.99800 8.08100 23.78300
H  44.22500 8.59700 24.85900
H  41.71900 9.80600 24.07700
H  42.93400 10.56900 25.12600
H  41.55900 9.59800 25.78800
H  46.49900 9.26500 28.39000
H  46.96300 9.44500 30.00900
H  46.29500 10.93900 29.20400
H  43.24100 10.66800 33.97400
H  43.37100 6.98700 36.67000
H  42.93700 8.39500 37.69600
H  44.55300 8.09600 37.20500

