158

Mg -2.70700 17.39600 25.61900
C  -2.55400 14.80900 28.14400
C  -2.76800 19.70400 27.94700
C  -2.83700 19.56300 23.13600
C  -2.85400 14.80700 23.21300
N  -2.87100 17.23200 27.85000
C  -2.63400 16.15500 28.67400
C  -2.68100 16.57700 30.17900
C  -2.81900 18.14300 30.04300
C  -2.74800 18.37300 28.49000
C  -4.09700 18.73700 30.58100
C  -1.37600 16.24400 31.01600
C  -1.18400 16.98600 32.35600
H  -0.78100 16.25500 33.63500
N  -2.69800 19.42300 25.56200
C  -2.79300 20.19200 26.64600
C  -2.70500 21.57900 26.26200
C  -2.88500 21.58000 24.90000
C  -2.81700 20.13200 24.44500
C  -2.62200 22.73700 27.26100
C  -3.09600 22.77000 23.99200
O  -3.12300 22.63400 22.79200
C  -3.33400 24.16100 24.51100
N  -2.91800 17.22600 23.44600
C  -2.86000 18.25200 22.62100
C  -2.73100 17.91100 21.11800
C  -3.07300 16.39900 21.15500
C  -2.94500 16.12400 22.74800
C  -3.68300 18.69200 20.25100
C  -2.09900 15.56800 20.14400
C  -2.84400 14.57800 19.20100
N  -2.54600 15.30700 25.62700
C  -2.64500 14.42400 24.56300
C  -2.48900 13.04200 25.05800
C  -2.41000 13.19800 26.47500
C  -2.51200 14.59100 26.75300
C  -2.36900 11.81700 24.21200
C  -2.32700 12.46100 27.69400
O  -2.03600 11.28100 27.91400
C  -2.54500 13.43700 28.83100
C  -1.41000 13.15600 29.73500
O  -0.27400 13.47400 29.54500
O  -1.88600 12.44600 30.83200
C  -0.90000 12.13900 31.84300
H  -2.73000 20.43100 28.76100
H  -2.87100 20.30800 22.33800
H  -2.89900 13.95500 22.53100
H  -3.53500 16.11600 30.67500
H  -2.00600 18.75400 30.43700
H  -4.86200 19.13600 29.91400
H  -3.86400 19.52600 31.29600
H  -4.57100 17.93000 31.14000
H  -0.58400 16.37500 30.27900
H  -1.20300 15.21600 31.33600
H  -2.13000 17.44000 32.64700
H  -0.54100 17.83600 32.12600
H  -3.56000 23.24800 27.47900
H  -1.83100 23.43700 26.99600
H  -2.29700 22.49600 28.27400
H  -3.96000 24.22500 25.40100
H  -3.74800 24.80200 23.73300
H  -2.40300 24.65700 24.79000
H  -1.69000 18.15300 20.90500
H  -4.12200 16.28100 20.88300
H  -4.52100 18.10200 19.88000
H  -3.14800 19.25500 19.48600
H  -4.24800 19.43900 20.80800
H  -1.33600 15.07300 20.74600
H  -1.64800 16.35300 19.53600
H  -2.40300 14.57200 18.20500
H  -3.88100 14.89200 19.08000
H  -2.80500 13.64900 19.77000
H  -3.34000 11.54200 23.80100
H  -1.85200 11.06200 24.80400
H  -1.82000 12.02800 23.29400
H  -3.52400 13.14100 29.20900
H  -0.56300 11.15300 31.52100
H  -1.45100 11.90300 32.75300
H  -0.02900 12.78900 31.93000
Mg 24.35100 -6.20100 45.42300
C  26.61600 -3.64200 44.31700
C  21.85700 -4.46500 43.85800
C  22.72500 -8.97900 45.69100
C  27.10600 -7.61500 47.01800
N  24.33200 -4.42000 43.99200
C  25.28300 -3.50100 43.80000
C  24.70200 -2.36800 42.88600
C  23.15000 -2.47500 43.02400
C  23.09400 -3.88700 43.72500
C  22.39700 -1.43800 43.87700
C  25.22400 -2.51200 41.40600
C  25.77100 -1.16100 40.73300
H  25.35100 -0.82100 39.27300
N  22.42800 -6.55500 45.05900
C  21.53800 -5.72700 44.44400
C  20.26700 -6.36700 44.41300
C  20.46200 -7.72500 44.79700
C  21.90800 -7.84700 45.28400
C  19.05700 -5.80600 43.79700
C  19.42900 -8.78000 44.72100
O  18.33600 -8.57100 44.24600
C  19.65300 -10.17900 45.25300
N  24.87300 -8.05400 46.21500
C  24.02500 -9.06000 46.20600
C  24.62500 -10.38200 46.78300
C  26.00400 -9.89700 47.36600
C  26.00400 -8.44600 46.86800
C  23.65100 -11.24100 47.63600
C  27.31800 -10.62500 46.80600
C  28.37600 -10.99300 47.83000
N  26.41900 -5.74300 45.67200
C  27.36600 -6.35600 46.40900
C  28.63500 -5.64700 46.28500
C  28.33900 -4.56800 45.48300
C  27.01900 -4.62300 45.11000
C  29.95500 -6.22800 46.79900
C  28.97700 -3.39000 44.91100
O  30.06300 -2.96900 45.05500
C  27.81600 -2.72900 44.08700
C  27.53400 -1.31100 44.45400
O  27.05300 -0.88300 45.45600
O  27.82900 -0.49600 43.42000
C  27.63400 0.94500 43.62900
H  20.93400 -3.95000 43.58200
H  22.16600 -9.90500 45.54100
H  27.96200 -8.13700 47.45000
H  24.97900 -1.34000 43.12400
H  22.67900 -2.58200 42.04700
H  23.09800 -0.67900 44.22400
H  22.01300 -1.91000 44.78100
H  21.55500 -0.92100 43.41600
H  24.38600 -2.76000 40.75300
H  25.94400 -3.32200 41.29000
H  26.82300 -1.43600 40.65300
H  25.59000 -0.34100 41.42900
H  18.17400 -6.37200 44.09300
H  19.25400 -5.84200 42.72600
H  18.92000 -4.76200 44.08000
H  18.76000 -10.77800 45.07700
H  19.92100 -10.12300 46.30800
H  20.42300 -10.63900 44.63400
H  24.76100 -11.02900 45.91700
H  25.93700 -9.96900 48.45100
H  24.12100 -11.57800 48.56000
H  23.22800 -12.08600 47.09300
H  22.83500 -10.56200 47.88200
H  27.67900 -10.22600 45.85800
H  26.84300 -11.56600 46.52900
H  28.54500 -12.06900 47.79800
H  28.10100 -10.69000 48.84000
H  29.33100 -10.57600 47.50900
H  30.71500 -5.45800 46.93100
H  30.23400 -7.10400 46.21400
H  29.83500 -6.51700 47.84300
H  28.03100 -2.69600 43.01900
H  27.78400 1.46600 42.68400
H  28.33200 1.42200 44.31700
H  26.68200 1.36200 43.95700

