158

Mg -2.30800 16.71200 27.13200
C  -2.60600 14.64900 29.93700
C  -2.58900 19.46500 28.95100
C  -2.32100 18.55600 24.28600
C  -2.81900 13.81400 25.16800
N  -2.62900 16.99700 29.23900
C  -2.56400 16.04100 30.21700
C  -2.38000 16.78700 31.56200
C  -2.38300 18.26500 31.21900
C  -2.67100 18.26100 29.69800
C  -3.35400 19.16500 32.09700
C  -1.11100 16.24700 32.36000
C  -0.54100 17.18000 33.42100
H  -0.19500 16.60500 34.82400
N  -2.43300 18.71500 26.74500
C  -2.57900 19.73900 27.61000
C  -2.64600 21.00300 26.92300
C  -2.31300 20.71200 25.57300
C  -2.43900 19.26700 25.49800
C  -2.90000 22.22900 27.62700
C  -2.03200 21.66900 24.43000
O  -1.82100 21.37500 23.25500
C  -1.74500 23.12800 24.83300
N  -2.32900 16.17800 25.03200
C  -2.32600 17.15600 24.06600
C  -2.45200 16.57300 22.65100
C  -2.55500 14.97900 22.92800
C  -2.55700 14.97200 24.44900
C  -3.54300 17.04800 21.69400
C  -1.34800 14.13700 22.31100
C  -1.50300 13.55000 20.93400
N  -2.58900 14.60800 27.40800
C  -2.76600 13.57700 26.54600
C  -2.88100 12.34300 27.23600
C  -2.75800 12.67300 28.60100
C  -2.62500 14.06200 28.65300
C  -3.04000 11.05100 26.50000
C  -2.72100 12.14900 29.91400
O  -2.70800 10.97800 30.34200
C  -2.52500 13.40300 30.89000
C  -1.27700 13.08000 31.59300
O  -0.12800 13.18100 31.13600
O  -1.50700 12.68200 32.87000
C  -0.39300 12.60400 33.78600
H  -2.61400 20.37800 29.54900
H  -2.29400 19.08300 23.32900
H  -3.09000 12.96300 24.54000
H  -3.31100 16.64500 32.10900
H  -1.35100 18.61000 31.27800
H  -2.75200 19.72200 32.81400
H  -4.12700 18.58600 32.60300
H  -3.77000 19.83200 31.34200
H  -0.38700 16.02000 31.57700
H  -1.34800 15.32900 32.89600
H  -1.10500 18.11100 33.48100
H  0.42300 17.45100 32.98900
H  -3.64600 22.85300 27.13500
H  -1.91800 22.69800 27.69300
H  -3.30900 22.05100 28.62200
H  -1.33600 23.57200 23.92600
H  -0.94900 23.13400 25.57900
H  -2.69000 23.63700 25.02400
H  -1.57800 16.85600 22.06400
H  -3.46900 14.49600 22.58300
H  -3.41700 18.11400 21.50600
H  -4.46500 16.95100 22.26800
H  -3.71100 16.53400 20.74800
H  -1.22400 13.25900 22.94500
H  -0.42800 14.72000 22.26000
H  -2.52700 13.73500 20.60900
H  -1.30900 12.47900 20.98200
H  -0.71900 13.96100 20.29900
H  -2.76500 10.22700 27.15900
H  -2.50200 10.96200 25.55700
H  -4.11600 11.08700 26.33200
H  -3.34400 13.45100 31.60900
H  -0.04000 11.58400 33.63000
H  -0.77200 12.89600 34.76500
H  0.41700 13.24700 33.44100
Mg 30.65500 58.31700 41.16400
C  27.66800 56.65100 40.34100
C  32.51200 55.65800 39.76900
C  33.38700 60.16500 41.43300
C  28.71500 61.07700 42.17200
N  30.10700 56.43200 40.21600
C  28.82700 55.88300 40.06400
C  28.85500 54.53600 39.44200
C  30.40400 54.19100 39.55400
C  31.06900 55.51600 39.85000
C  30.66400 53.22700 40.75800
C  28.21200 54.54200 37.96600
C  28.41600 55.80000 37.07200
H  27.91800 55.61800 35.62400
N  32.62800 57.99500 40.55300
C  33.24000 56.80900 40.00100
C  34.65300 56.99900 39.78000
C  34.92800 58.36100 40.23400
C  33.61700 58.97100 40.70000
C  35.59300 55.93100 39.20500
C  36.19900 59.23300 40.04900
O  37.19700 58.73000 39.54700
C  36.25600 60.69500 40.30800
N  30.97300 60.39200 41.60500
C  32.24400 60.73800 41.88600
C  32.24700 62.20200 42.38800
C  30.79400 62.35100 42.86600
C  30.09900 61.27100 42.17000
C  33.45200 62.45500 43.38000
C  30.24300 63.76500 42.52200
C  29.65900 64.54300 43.70800
N  28.57100 58.87800 41.25400
C  27.97100 60.01500 41.59400
C  26.56700 59.81100 41.57900
C  26.34200 58.45900 41.08500
C  27.63800 57.97100 40.83100
C  25.52000 60.81000 41.97800
C  25.36800 57.51700 40.78800
O  24.12600 57.55000 40.90900
C  26.18100 56.26800 40.19600
C  25.73900 54.98300 40.73500
O  26.09100 54.53900 41.83600
O  24.91200 54.28700 39.82800
C  24.58300 52.87300 40.09800
H  33.17600 54.81500 39.56700
H  34.27900 60.77000 41.60800
H  28.23100 61.97400 42.56400
H  28.23100 53.86000 40.02700
H  30.96100 53.86600 38.67500
H  30.92400 53.84700 41.61600
H  31.50400 52.60900 40.44100
H  29.86100 52.56600 41.08600
H  27.15800 54.27300 37.89900
H  28.65000 53.72300 37.39700
H  29.48000 56.03400 37.11500
H  27.90800 56.61600 37.58600
H  36.67200 56.05900 39.29100
H  35.27400 55.57900 38.22400
H  35.28700 55.09500 39.83400
H  35.39800 61.10600 39.77500
H  37.13100 61.10900 39.80700
H  36.22000 60.81700 41.39100
H  32.44000 62.83000 41.51800
H  30.75100 62.21500 43.94600
H  33.79800 61.50400 43.78500
H  32.94400 62.97200 44.19300
H  34.28300 63.10500 43.10200
H  29.46000 63.61400 41.78000
H  31.09800 64.26100 42.06100
H  29.46500 63.81100 44.49200
H  28.73700 65.00000 43.34900
H  30.38000 65.31100 43.99100
H  25.51700 61.66500 41.30200
H  25.72100 61.15600 42.99100
H  24.58000 60.25800 41.98600
H  25.99000 56.28100 39.12300
H  24.16400 52.27800 39.28700
H  23.86500 52.82700 40.91700
H  25.56500 52.44300 40.29500

