158

Mg 43.06000 41.38300 26.01600
C  41.87600 43.53800 28.43500
C  43.97200 39.21600 28.47800
C  44.34100 39.40000 23.71400
C  42.40900 43.83200 23.52000
N  42.96300 41.41200 28.24300
C  42.33500 42.37000 29.01600
C  42.52700 42.14200 30.58900
C  43.33400 40.77500 30.51600
C  43.47100 40.47600 29.03100
C  44.67200 40.80500 31.26500
C  41.15100 42.11700 31.32100
C  41.02900 42.83600 32.67800
H  40.55900 42.09700 33.94200
N  43.95800 39.49600 26.08600
C  44.19700 38.78500 27.20000
C  44.74200 37.51700 26.75600
C  44.83200 37.45400 25.36300
C  44.35900 38.81200 24.99000
C  45.06500 36.41000 27.75100
C  45.29200 36.34600 24.43900
O  45.31300 36.44200 23.20100
C  45.85600 35.09400 24.98600
N  43.62500 41.76100 23.96000
C  44.00700 40.65500 23.25900
C  43.82600 40.84300 21.79100
C  43.16000 42.28900 21.67100
C  43.04200 42.64000 23.07300
C  44.95900 40.57200 20.83100
C  41.84500 42.34100 20.86600
C  41.60300 43.69800 20.13300
N  42.32900 43.32500 25.94900
C  42.12400 44.18700 24.87500
C  41.62700 45.36500 25.33900
C  41.53300 45.23800 26.72100
C  41.90200 43.95400 27.05100
C  41.04700 46.48800 24.49700
C  41.21600 45.85900 27.98200
O  40.77800 46.99300 28.21000
C  41.48600 44.81800 29.17200
C  42.59400 45.34200 30.02300
O  43.80800 45.32100 29.64200
O  42.13000 45.85300 31.26000
C  43.21600 46.24300 32.21300
H  44.14600 38.48800 29.27300
H  44.75700 38.61100 23.08400
H  42.15800 44.54500 22.73200
H  43.03000 43.02700 30.98000
H  42.71700 39.97300 30.92200
H  45.48500 40.71500 30.54500
H  44.66900 39.98200 31.97900
H  44.65800 41.78300 31.74500
H  40.90000 41.10500 31.64000
H  40.41300 42.44400 30.58900
H  40.20800 43.55200 32.66000
H  41.89300 43.39900 33.03000
H  44.80900 36.57600 28.79800
H  46.13900 36.24500 27.66600
H  44.48600 35.53600 27.45100
H  46.62200 35.35100 25.71800
H  46.16200 34.29500 24.31200
H  44.94500 34.74200 25.47000
H  43.04000 40.13600 21.52400
H  43.89100 42.99300 21.27100
H  44.54500 39.77900 20.20800
H  45.97900 40.46300 21.19900
H  45.12600 41.46900 20.23500
H  40.99300 42.14000 21.51600
H  41.93600 41.54500 20.12600
H  41.17600 44.47800 20.76300
H  40.90700 43.39800 19.34900
H  42.51100 44.05200 19.64600
H  40.14000 46.91000 24.92800
H  40.78300 45.97400 23.57300
H  41.76600 47.27400 24.26400
H  40.59900 44.69200 29.79300
H  44.24400 46.31200 31.85800
H  43.15700 45.61600 33.10200
H  43.01300 47.26600 32.53100
Mg 1.56900 42.28500 25.23500
C  2.96600 42.19200 28.52400
C  -1.43000 41.07300 26.61200
C  0.37700 41.79600 22.06400
C  4.62000 43.14900 23.96200
N  0.86200 41.69500 27.30000
C  1.53300 41.88100 28.46700
C  0.60900 41.62300 29.71900
C  -0.66500 40.97600 29.02500
C  -0.37500 41.13500 27.53400
C  -1.04300 39.54800 29.52100
C  0.35900 43.02400 30.48800
C  0.27800 42.99200 32.05500
H  0.09200 41.67500 32.80800
N  -0.29900 41.65700 24.44600
C  -1.39500 41.30900 25.18300
C  -2.44900 40.93300 24.28900
C  -2.04700 41.05600 22.97400
C  -0.61000 41.56500 23.06900
C  -3.78400 40.41100 24.80000
C  -2.74000 40.74000 21.68900
O  -2.18300 40.84100 20.55100
C  -4.23400 40.27800 21.77300
N  2.42300 42.53300 23.21200
C  1.74400 42.21500 22.08200
C  2.61100 42.60500 20.86200
C  3.92900 43.22700 21.46000
C  3.68400 42.96800 22.99000
C  2.93200 41.31400 20.08200
C  4.23400 44.66200 20.99300
C  4.42000 44.85300 19.48400
N  3.40600 42.62400 25.99900
C  4.58700 42.87900 25.31300
C  5.68200 42.96000 26.25100
C  5.07100 42.81400 27.52200
C  3.71600 42.49000 27.33100
C  7.16000 43.28100 25.90900
C  5.30300 42.71200 28.95000
O  6.37400 42.68000 29.56500
C  3.97000 42.34800 29.68600
C  4.29800 41.01300 30.35300
O  4.42100 39.92800 29.78500
O  4.28900 41.18800 31.71400
C  4.14600 40.06900 32.63400
H  -2.37300 40.92500 27.14200
H  0.05600 41.55300 21.04900
H  5.61800 43.44300 23.62800
H  0.92200 40.86500 30.43700
H  -1.47900 41.68500 29.17700
H  -0.92000 38.96600 28.60800
H  -2.09900 39.66800 29.76600
H  -0.46900 39.08000 30.32100
H  -0.51300 43.60100 30.17800
H  1.22500 43.63200 30.22600
H  -0.47200 43.70500 32.39900
H  1.19900 43.37600 32.49200
H  -4.69300 40.86900 24.41200
H  -3.85400 40.50300 25.88400
H  -3.82500 39.32700 24.69200
H  -4.26000 39.36500 22.36700
H  -4.43800 40.01900 20.73400
H  -4.91700 41.07500 22.06700
H  1.98700 43.20800 20.20200
H  4.86400 42.76400 21.14400
H  2.79100 40.42100 20.69200
H  3.94900 41.29500 19.69000
H  2.30900 41.08600 19.21800
H  5.16700 45.01100 21.43400
H  3.51800 45.34500 21.45100
H  4.64200 44.00400 18.83800
H  5.36300 45.38700 19.36400
H  3.52300 45.31400 19.07000
H  7.18000 44.32100 25.58400
H  7.24400 42.61000 25.05300
H  7.80900 43.00500 26.74000
H  3.57100 42.93300 30.51400
H  5.13900 39.85200 33.02800
H  3.82100 39.23000 32.01900
H  3.52500 40.33800 33.48800

