158

Mg 17.27900 -1.21300 27.75300
C  16.40300 0.92000 30.40700
C  19.09400 -3.07700 29.98500
C  18.67200 -2.78900 25.09800
C  15.87400 1.15600 25.50000
N  17.67500 -1.00800 29.98000
C  17.15800 -0.07900 30.86600
C  17.48300 -0.46300 32.27900
C  18.53400 -1.64300 32.08900
C  18.46900 -1.95100 30.58000
C  19.96900 -1.24200 32.55500
C  16.27200 -0.77900 33.13000
C  16.35000 -0.13000 34.54900
H  17.81500 0.07800 35.12200
N  18.57700 -2.72100 27.61200
C  19.14700 -3.40400 28.61200
C  19.70800 -4.56100 28.10000
C  19.59600 -4.46000 26.69700
C  18.93400 -3.30000 26.39800
C  20.26300 -5.64800 28.94600
C  20.07400 -5.55200 25.69600
O  19.95300 -5.42300 24.51500
C  20.92800 -6.70900 26.08900
N  17.09300 -0.90300 25.51900
C  17.94600 -1.60800 24.76600
C  17.88600 -1.07100 23.33900
C  16.67700 -0.07400 23.40300
C  16.64200 0.18900 24.91000
C  19.19500 -0.34000 23.03600
C  15.27000 -0.68700 22.84100
C  14.88700 -0.43400 21.32700
N  16.14400 0.55700 27.89000
C  15.61300 1.36000 26.88900
C  14.84800 2.38500 27.46100
C  15.16300 2.33600 28.87200
C  15.95000 1.20300 29.04900
C  13.89700 3.36400 26.87100
C  14.99300 2.99100 30.17800
O  14.32300 3.95800 30.53300
C  15.77400 2.04000 31.20900
C  16.87500 2.86900 31.87400
O  18.03800 2.96200 31.50900
O  16.30900 3.58000 32.87300
C  17.01500 4.45600 33.71800
H  19.61600 -3.64500 30.75800
H  19.32700 -3.17200 24.31200
H  15.46900 1.94900 24.86800
H  18.01500 0.44900 32.55100
H  18.34500 -2.53000 32.69400
H  19.90800 -0.23600 32.97000
H  20.64800 -1.17000 31.70500
H  20.36700 -1.91100 33.31700
H  15.92000 -1.81100 33.12700
H  15.45000 -0.23200 32.66900
H  15.86700 -0.75700 35.29900
H  15.80800 0.81600 34.54400
H  19.89300 -5.63900 29.97100
H  21.32300 -5.39400 28.94600
H  20.08400 -6.68300 28.65500
H  20.43500 -7.53000 26.60900
H  21.78200 -6.44300 26.71100
H  21.29900 -7.20400 25.19100
H  17.79300 -1.96400 22.72000
H  16.97300 0.80000 22.82300
H  19.20200 0.73000 23.24300
H  19.38400 -0.34300 21.96200
H  20.01600 -0.70800 23.65100
H  14.48100 -0.25000 23.45300
H  15.05900 -1.73500 23.05400
H  15.37600 0.49000 21.01900
H  13.82900 -0.30700 21.09700
H  15.26800 -1.26300 20.73000
H  13.32600 3.91200 27.61900
H  13.24300 2.86100 26.15800
H  14.58400 4.07000 26.40500
H  15.07200 1.69300 31.96700
H  16.63100 5.47500 33.67300
H  18.08600 4.29600 33.59400
H  16.79200 4.24400 34.76300
Mg 41.79500 41.27300 26.68100
C  40.80600 43.50200 29.22800
C  42.85000 39.14200 29.24100
C  42.31600 39.03200 24.35800
C  41.24000 43.88300 24.22300
N  41.83300 41.38900 29.01100
C  41.29300 42.33900 29.80700
C  41.35800 41.96100 31.26200
C  42.22400 40.64800 31.28200
C  42.42000 40.37600 29.72900
C  43.58700 40.66500 32.14000
C  39.92200 41.76600 31.88600
C  39.72200 42.72100 33.07500
H  39.56400 42.11400 34.42800
N  42.69100 39.47600 26.77900
C  42.96100 38.63900 27.85500
C  43.38400 37.31200 27.43600
C  43.29600 37.25600 26.00100
C  42.74100 38.63900 25.64700
C  43.74300 36.19700 28.43300
C  43.70600 36.10700 24.98200
O  43.74200 36.31100 23.76800
C  44.06700 34.70400 25.50800
N  41.86000 41.49200 24.54600
C  42.06300 40.35100 23.86900
C  41.91600 40.68000 22.35700
C  41.73300 42.21600 22.24800
C  41.65500 42.59600 23.75800
C  43.20000 40.18400 21.59300
C  40.54100 42.76400 21.38800
C  41.02500 43.80200 20.36300
N  41.09300 43.21700 26.70100
C  40.84700 44.11200 25.60200
C  40.27600 45.32100 26.14900
C  40.28300 45.13700 27.54000
C  40.73500 43.82500 27.84600
C  39.94300 46.48400 25.28700
C  39.91400 45.81700 28.76700
O  39.49800 46.91900 28.90500
C  40.25200 44.78400 29.87500
C  41.28600 45.49600 30.69200
O  42.46900 45.58300 30.40400
O  40.72800 45.99900 31.88200
C  41.74100 46.37300 32.86100
H  42.87300 38.43900 30.07600
H  42.42000 38.23500 23.61900
H  41.40800 44.58900 23.40700
H  42.01700 42.70100 31.71600
H  41.65600 39.83700 31.73700
H  44.50600 40.39900 31.61800
H  43.47300 39.95000 32.95500
H  43.65200 41.70100 32.47000
H  39.77500 40.76200 32.28600
H  39.18600 41.97200 31.10900
H  38.81200 43.26700 32.82500
H  40.49500 43.48900 33.06800
H  43.54500 36.59400 29.42800
H  44.77300 35.87700 28.26900
H  43.03700 35.36700 28.47700
H  44.06900 33.97800 24.69500
H  43.33500 34.38700 26.25100
H  45.00300 34.69700 26.06600
H  41.03900 40.12300 22.02600
H  42.64700 42.72100 21.93600
H  43.96000 40.05600 22.36400
H  43.37600 40.92200 20.81100
H  42.99100 39.27900 21.02400
H  39.77100 43.24500 21.99100
H  40.07600 41.88700 20.93900
H  40.43100 44.71100 20.46400
H  40.93000 43.50500 19.31900
H  42.04100 44.12600 20.58500
H  39.50900 46.24900 24.31600
H  40.83600 47.03700 24.99600
H  39.28200 47.02300 25.96600
H  39.32400 44.50400 30.37500
H  41.76800 45.59900 33.62700
H  41.28500 47.18800 33.42400
H  42.75600 46.56200 32.51000

