158

Mg 36.36700 1.67000 29.53500
C  34.19200 2.58800 31.91400
C  38.91600 1.65100 31.90700
C  38.60200 1.11300 27.07600
C  33.86600 2.00500 27.13500
N  36.52000 2.12100 31.67100
C  35.48400 2.45300 32.48200
C  35.83300 2.35400 33.93700
C  37.42400 2.33000 33.86900
C  37.65300 1.94100 32.41600
C  38.06500 3.68900 34.28000
C  35.20800 1.07500 34.56400
C  34.75900 1.20700 35.98200
H  35.10900 2.50300 36.74500
N  38.45800 1.40400 29.52900
C  39.32700 1.48900 30.61700
C  40.68300 1.17400 30.14200
C  40.66000 1.01000 28.74100
C  39.20400 1.17900 28.37300
C  41.86300 0.95900 31.16600
C  41.80800 0.72800 27.78800
O  41.64400 0.74000 26.57800
C  43.23900 0.53300 28.26500
N  36.33400 1.81900 27.39300
C  37.34100 1.31100 26.65900
C  36.98900 1.22200 25.18200
C  35.45700 1.46700 25.18100
C  35.17800 1.80700 26.60600
C  37.77400 2.13100 24.23500
C  34.67400 0.30100 24.48300
C  33.80000 -0.68600 25.34700
N  34.41600 2.14800 29.47800
C  33.51900 2.25900 28.45300
C  32.22600 2.65700 28.96000
C  32.43000 2.74300 30.32800
C  33.78900 2.48800 30.50500
C  31.01900 2.81400 28.23900
C  31.75400 2.92500 31.60100
O  30.58600 3.23100 31.89700
C  32.88200 2.88700 32.63700
C  32.95700 4.22100 33.41500
O  33.33700 5.24700 32.87600
O  32.33500 4.10700 34.65700
C  32.12200 5.30700 35.38600
H  39.67800 1.60600 32.68800
H  39.32700 0.92300 26.28100
H  33.06000 2.11100 26.40700
H  35.49100 3.31200 34.32900
H  37.80500 1.48200 34.43700
H  37.33300 4.35100 34.74200
H  38.51500 4.12600 33.38800
H  38.89600 3.65800 34.98500
H  35.93400 0.28000 34.39400
H  34.31100 0.77800 34.02100
H  35.12700 0.36900 36.57500
H  33.66900 1.24400 35.99300
H  42.38400 0.07800 30.79300
H  41.58900 0.72800 32.19600
H  42.48200 1.85600 31.17700
H  43.83200 0.51900 27.35100
H  43.22100 -0.51400 28.56900
H  43.55700 1.30200 28.96800
H  37.30900 0.20300 24.96600
H  35.20700 2.42500 24.72700
H  38.22800 2.86700 24.89900
H  37.08200 2.56600 23.51500
H  38.50100 1.55100 23.66700
H  35.52300 -0.26400 24.09900
H  34.08100 0.73200 23.67700
H  32.75600 -0.49000 25.10100
H  33.89800 -0.76500 26.42900
H  34.06900 -1.73200 25.19900
H  30.97900 3.68400 27.58400
H  30.20900 2.84700 28.96800
H  30.88300 1.99700 27.53000
H  32.56600 2.11500 33.33900
H  31.64200 5.08900 36.34000
H  31.43400 5.94700 34.83300
H  33.05100 5.86600 35.49600
Mg -8.72600 41.05600 42.26500
C  -7.52400 37.73600 41.33500
C  -5.90500 42.28900 40.79900
C  -10.09300 44.04800 42.55000
C  -11.59400 39.51500 43.34700
N  -7.00800 40.06700 41.11800
C  -6.67100 38.72100 40.94900
C  -5.28500 38.61800 40.27400
C  -4.76000 40.09500 40.30900
C  -5.96500 40.89100 40.86000
C  -3.44900 40.33900 41.16800
C  -5.44700 38.00500 38.86300
C  -4.48900 36.94800 38.25900
H  -3.64400 37.44500 37.05600
N  -8.07600 43.00000 41.74900
C  -6.86300 43.30400 41.13400
C  -6.86000 44.73700 40.89100
C  -8.01300 45.28200 41.53100
C  -8.84100 44.13100 41.92000
C  -5.67900 45.41300 40.22000
C  -8.34100 46.79200 41.67000
O  -7.59200 47.67200 41.22300
C  -9.56000 47.26000 42.43700
N  -10.55500 41.62900 42.78600
C  -10.81700 42.94500 42.97800
C  -12.25200 43.16300 43.53800
C  -12.71900 41.75900 43.84200
C  -11.51900 40.86800 43.40900
C  -12.33200 44.14900 44.68500
C  -14.06600 41.39800 43.19200
C  -14.92600 40.44100 44.01300
N  -9.47700 39.04800 42.42200
C  -10.64100 38.58700 42.93800
C  -10.75800 37.12900 42.84400
C  -9.50000 36.78400 42.13500
C  -8.80300 37.98100 41.91700
C  -11.90400 36.30900 43.38200
C  -8.75800 35.67500 41.59400
O  -9.09900 34.50500 41.71500
C  -7.46900 36.21600 41.09000
C  -6.27800 35.50100 41.65200
O  -5.74200 35.87800 42.69900
O  -5.89500 34.41800 40.92700
C  -4.69500 33.62300 41.26800
H  -5.01800 42.81500 40.43800
H  -10.50300 45.03200 42.79100
H  -12.50400 39.01700 43.68900
H  -4.62700 37.93900 40.81700
H  -4.40400 40.41300 39.32900
H  -2.80300 41.16400 40.86700
H  -2.79100 39.47400 41.08200
H  -3.47500 40.31900 42.25800
H  -5.30000 38.82900 38.16500
H  -6.48600 37.70900 38.71400
H  -5.05500 36.03700 38.06400
H  -3.77400 36.85900 39.07600
H  -6.10100 46.31000 39.76700
H  -5.11800 44.73100 39.58100
H  -4.95000 45.75900 40.95300
H  -10.46200 46.99400 41.88500
H  -9.54800 48.34700 42.52000
H  -9.52300 46.95800 43.48300
H  -12.82200 43.53700 42.68800
H  -12.91200 41.70900 44.91300
H  -11.40600 44.60500 45.03400
H  -12.88700 43.75300 45.53600
H  -13.09200 44.88100 44.41100
H  -13.92700 40.77500 42.30900
H  -14.68300 42.26800 42.96700
H  -15.88200 40.90900 44.24900
H  -14.44400 40.25400 44.97300
H  -15.12600 39.46700 43.56700
H  -12.75200 36.64100 42.78300
H  -12.14300 36.60200 44.40500
H  -11.74600 35.23400 43.46600
H  -7.49300 35.91700 40.04200
H  -4.94700 32.65900 41.71100
H  -4.01200 34.24000 41.85100
H  -4.02300 33.38700 40.44200

