158

Mg 1.36100 8.68500 26.97000
C  1.87700 10.73900 29.74700
C  1.49400 5.94400 29.18500
C  1.22800 6.54400 24.32100
C  1.90700 11.38900 24.84200
N  1.55900 8.38800 29.16900
C  1.69300 9.41800 30.14200
C  1.53600 8.89100 31.56500
C  1.87600 7.35800 31.35900
C  1.61100 7.15400 29.85800
C  3.23900 6.85300 31.73800
C  0.07200 9.16400 32.05400
C  -0.23600 9.06500 33.53700
H  0.84700 8.68700 34.57300
N  1.43200 6.57200 26.73500
C  1.40500 5.62900 27.81500
C  1.14200 4.29700 27.25900
C  0.90400 4.46800 25.86400
C  1.22000 5.90100 25.55100
C  1.14400 3.11800 28.28000
C  0.32200 3.48500 24.83500
O  -0.09800 3.83700 23.72500
C  0.15800 2.13200 25.30100
N  1.69800 8.99800 24.75700
C  1.48500 7.88600 23.97000
C  1.38200 8.49700 22.50500
C  1.27400 10.07000 22.68700
C  1.70600 10.18000 24.14900
C  2.64100 8.11100 21.79200
C  -0.13200 10.69600 22.43100
C  -0.20500 11.99500 21.61800
N  1.77400 10.69200 27.18200
C  1.97000 11.65800 26.20300
C  2.20800 12.95800 26.90500
C  2.22700 12.63700 28.28500
C  1.94100 11.20900 28.36700
C  2.32600 14.29700 26.17600
C  2.24700 13.19300 29.64500
O  2.44200 14.32600 30.09600
C  1.92000 11.96100 30.62200
C  2.91600 11.94600 31.71000
O  4.12200 11.82600 31.56200
O  2.30500 12.23500 32.88000
C  3.20000 12.60600 33.96600
H  1.36900 5.15700 29.93100
H  1.28000 5.90500 23.43700
H  1.93500 12.23500 24.15200
H  2.34800 9.18500 32.23000
H  1.18400 6.71800 31.90600
H  3.89300 6.46800 30.95400
H  3.10100 6.07000 32.48400
H  3.82200 7.68900 32.12400
H  -0.52200 8.42700 31.51300
H  -0.19900 10.19300 31.81800
H  -1.01100 8.29900 33.55700
H  -0.69400 10.03300 33.74000
H  2.11100 3.33300 28.73500
H  1.14300 2.14400 27.79000
H  0.39200 3.26600 29.05600
H  -0.54300 2.27900 26.12300
H  1.14500 1.69100 25.44200
H  -0.24100 1.48800 24.51700
H  0.48800 8.14300 21.99000
H  1.96300 10.60000 22.03000
H  3.24400 8.97600 21.51300
H  2.42500 7.47700 20.93200
H  3.15400 7.53200 22.55900
H  -0.54400 10.89400 23.42000
H  -0.72900 9.91900 21.95300
H  0.74200 12.15900 21.10300
H  -0.63600 12.79600 22.21900
H  -0.89400 11.86500 20.78500
H  2.32000 15.14200 26.86500
H  1.46400 14.46000 25.53000
H  3.17600 14.25600 25.49600
H  0.98200 12.26700 31.08400
H  3.80200 13.43200 33.58800
H  3.91700 11.83900 34.26300
H  2.61300 13.08200 34.75100
Mg 35.06700 48.33000 25.01400
C  35.69400 46.69200 27.97600
C  33.69800 51.01000 26.89400
C  34.08200 49.79000 22.12100
C  35.96800 45.53300 23.27300
N  34.58600 48.73200 27.20500
C  35.04600 47.92600 28.24300
C  34.79700 48.61300 29.71500
C  33.97600 49.90400 29.23600
C  33.99600 49.87800 27.65600
C  32.49400 50.15600 29.76800
C  36.11500 49.03200 30.38300
C  36.05800 48.85400 31.82700
H  34.75800 49.03000 32.58700
N  34.16600 50.19900 24.48800
C  33.71200 51.14200 25.42400
C  33.44600 52.33000 24.68400
C  33.42200 52.02200 23.29100
C  33.89500 50.60100 23.25300
C  33.25200 53.66400 25.25400
C  32.99600 52.85700 22.09800
O  33.16800 52.50400 20.97500
C  32.39000 54.27400 22.27300
N  35.10100 47.77700 22.93300
C  34.66200 48.55400 21.94400
C  34.77300 47.80900 20.55600
C  35.40500 46.43400 20.95800
C  35.57100 46.57500 22.47800
C  33.39600 47.70900 19.71500
C  36.81800 46.23500 20.31100
C  37.95600 47.23700 20.65300
N  35.59100 46.44200 25.47500
C  36.08300 45.43600 24.64900
C  36.53900 44.34800 25.46200
C  36.41100 44.80300 26.84200
C  35.91500 46.11700 26.74100
C  36.90300 43.02800 25.03000
C  36.56500 44.42200 28.32400
O  37.04800 43.43700 28.83700
C  36.09700 45.68300 29.07100
C  35.01000 45.31700 29.94800
O  33.90000 44.96100 29.49900
O  35.39600 45.35700 31.27900
C  34.25000 45.12400 32.17500
H  33.31400 51.89900 27.39800
H  33.73800 50.24600 21.19100
H  36.46100 44.74900 22.69300
H  34.15800 48.05200 30.39700
H  34.54100 50.76800 29.58900
H  31.84100 50.07400 28.89900
H  32.38600 51.13100 30.24400
H  32.19400 49.44800 30.54100
H  36.27000 50.09800 30.21600
H  36.94600 48.48500 29.93700
H  36.76800 49.46500 32.38400
H  36.34800 47.81300 31.97000
H  32.21200 53.97500 25.16500
H  33.85500 54.38500 24.70300
H  33.61300 53.68300 26.28200
H  31.87100 54.55000 21.35600
H  33.24500 54.91100 22.50200
H  31.59600 54.27900 23.02000
H  35.51300 48.40700 20.02400
H  34.84100 45.56900 20.60800
H  33.67500 47.67300 18.66200
H  32.75900 48.57400 19.90000
H  32.83200 46.85300 20.08500
H  36.67200 46.28200 19.23200
H  37.20800 45.25600 20.59100
H  38.00300 48.10900 19.99900
H  38.92300 46.74400 20.75100
H  37.79600 47.62200 21.66000
H  37.95100 43.11700 24.74200
H  36.33300 42.57500 24.21900
H  36.84000 42.37100 25.89700
H  36.92600 45.97500 29.71600
H  33.49900 45.91000 32.08500
H  34.63700 45.21500 33.19000
H  33.86300 44.11400 32.04400

