158

Mg 2.15500 -1.69500 44.06600
C  5.45800 -0.78000 43.51000
C  1.23200 1.14800 42.30600
C  -1.09600 -2.63900 44.34900
C  3.17100 -4.79900 45.29700
N  3.21900 -0.03700 42.92700
C  4.54200 0.10100 42.90400
C  4.95900 1.30900 41.95800
C  3.61900 2.00100 41.68700
C  2.63800 1.05100 42.39500
C  3.51800 3.48500 42.27600
C  5.75200 0.86700 40.70600
C  7.15500 1.41500 40.48600
H  7.32800 2.15700 39.05700
N  0.31700 -0.90100 43.38000
C  0.20800 0.30100 42.79200
C  -1.18300 0.60500 42.56800
C  -1.94200 -0.44400 43.12900
C  -0.91100 -1.37700 43.72100
C  -1.62500 1.71400 41.72500
C  -3.41600 -0.55000 43.25100
O  -4.06100 0.34500 42.71800
C  -4.08200 -1.58000 44.10900
N  1.20100 -3.53700 44.66400
C  -0.15500 -3.62400 44.70000
C  -0.60000 -4.91400 45.33400
C  0.73600 -5.68100 45.58200
C  1.80100 -4.64700 45.11400
C  -1.54800 -4.82100 46.57700
C  0.96800 -7.00700 44.83900
C  1.85500 -8.00200 45.60200
N  3.96300 -2.64100 44.40200
C  4.17500 -3.87900 44.89700
C  5.62700 -4.03200 44.99700
C  6.19100 -2.85800 44.47800
C  5.11700 -2.02500 44.11600
C  6.41100 -5.34000 45.42600
C  7.46700 -2.09200 44.23600
O  8.62400 -2.28800 44.47500
C  6.94900 -0.82900 43.53800
C  7.49700 0.29900 44.27800
O  7.16300 0.68400 45.44800
O  8.46000 0.82500 43.41100
C  9.06700 2.10000 43.79100
H  0.94000 2.00900 41.70000
H  -2.13000 -2.99000 44.31700
H  3.44300 -5.75100 45.75700
H  5.65200 1.95200 42.50100
H  3.33100 2.08600 40.63900
H  4.52800 3.86700 42.41800
H  2.83100 3.59600 43.11600
H  3.08200 4.19000 41.56900
H  5.15000 1.05600 39.81700
H  5.87700 -0.21300 40.78700
H  7.84300 0.57100 40.52600
H  7.39800 2.18400 41.22000
H  -1.76300 2.55500 42.40500
H  -2.61500 1.52800 41.30900
H  -0.86000 1.86400 40.96400
H  -5.15000 -1.41700 44.25200
H  -3.59700 -1.61300 45.08500
H  -3.90200 -2.50700 43.56500
H  -1.18800 -5.58300 44.70500
H  0.82500 -5.96100 46.63100
H  -1.39100 -5.56000 47.36300
H  -2.62500 -4.76700 46.42200
H  -1.44400 -3.81100 46.97400
H  1.33100 -6.69000 43.86200
H  0.01400 -7.48600 44.62000
H  2.89500 -8.04200 45.27900
H  1.45300 -8.99900 45.42100
H  1.82600 -7.89300 46.68600
H  6.59000 -5.88800 44.50100
H  5.88100 -5.99200 46.12100
H  7.37900 -5.08600 45.85800
H  7.38400 -0.84900 42.53900
H  9.73700 2.03100 44.64800
H  8.21300 2.71100 44.08200
H  9.56500 2.56600 42.94100
Mg -3.28200 35.01400 26.95300
C  -4.33600 32.86500 29.26500
C  -1.74000 36.85800 29.57600
C  -2.33700 37.45400 24.73800
C  -4.88400 33.38000 24.40600
N  -3.09600 34.85200 29.13600
C  -3.53800 33.82800 29.91200
C  -3.08300 33.93600 31.34100
C  -2.37500 35.29400 31.46500
C  -2.32200 35.66100 29.90400
C  -3.11900 36.33600 32.37700
C  -2.27500 32.64900 31.81400
C  -2.81700 31.88400 33.05800
H  -2.15900 31.92800 34.44100
N  -2.22700 36.87100 27.15000
C  -1.62800 37.43500 28.30200
C  -0.93900 38.69800 27.97700
C  -1.08800 38.88500 26.59200
C  -1.92900 37.72500 26.10000
C  -0.28900 39.61600 29.05000
C  -0.63400 40.03400 25.73000
O  -0.89000 40.07400 24.51700
C  0.15600 41.19700 26.34200
N  -3.78600 35.46900 24.92100
C  -3.16100 36.48500 24.20000
C  -3.70900 36.50800 22.75700
C  -4.29700 35.07300 22.58300
C  -4.33600 34.56600 24.05200
C  -4.66300 37.66900 22.57300
C  -3.59000 34.22000 21.54300
C  -2.24900 33.60200 21.83100
N  -4.51700 33.43100 26.85400
C  -5.05400 32.85600 25.73700
C  -5.68900 31.64700 26.19700
C  -5.56500 31.61200 27.56900
C  -4.81600 32.75100 27.97900
C  -6.26300 30.58700 25.28800
C  -5.80500 30.84100 28.82000
O  -6.30100 29.75200 29.11700
C  -5.04700 31.67100 29.89800
C  -5.99500 32.00900 30.95700
O  -6.70000 33.01800 30.86500
O  -5.94300 31.11700 32.03800
C  -7.00300 31.33000 33.00800
H  -1.05800 37.28000 30.31800
H  -1.98400 38.12400 23.95100
H  -5.39700 32.76700 23.66200
H  -3.97400 34.09800 31.94600
H  -1.32600 35.21800 31.75200
H  -3.84200 36.84200 31.73800
H  -2.40000 37.11800 32.62500
H  -3.63600 35.96800 33.26300
H  -1.28500 32.83000 32.23400
H  -2.17400 31.95000 30.98300
H  -3.08500 30.86000 32.80000
H  -3.82200 32.23000 33.30100
H  0.74800 39.79600 28.76300
H  -0.21000 39.15600 30.03500
H  -0.92300 40.50100 29.10600
H  0.41400 41.92000 25.56800
H  0.96700 40.62300 26.79200
H  -0.46900 41.66600 27.10100
H  -2.90300 36.65000 22.03700
H  -5.34900 35.13100 22.30500
H  -4.13900 38.36200 21.91600
H  -4.88300 38.29800 23.43500
H  -5.62200 37.43300 22.11300
H  -3.37900 34.73200 20.60400
H  -4.31300 33.45500 21.26100
H  -2.36000 32.54300 21.60200
H  -1.77700 33.79000 22.79600
H  -1.56500 33.87900 21.02900
H  -5.95500 30.65500 24.24400
H  -7.32800 30.81200 25.22800
H  -6.07900 29.54200 25.53700
H  -4.34900 30.98500 30.37800
H  -7.95300 31.17500 32.49600
H  -7.14600 32.36300 33.32600
H  -6.85600 30.72500 33.90200

