158

Mg 7.51400 3.07800 27.96200
C  8.98300 1.77100 30.93300
C  5.50800 4.99000 29.96500
C  5.75500 4.04800 25.20800
C  9.21700 0.67100 26.07600
N  7.38600 3.41000 30.27700
C  8.18400 2.85500 31.28000
C  7.61100 3.32000 32.67500
C  6.41800 4.25200 32.29500
C  6.37700 4.16600 30.75000
C  5.08800 3.81600 32.80700
C  8.65600 3.97100 33.61700
C  9.17600 3.22700 34.76500
H  9.87200 3.98000 35.90300
N  5.87100 4.34700 27.63400
C  5.22900 5.06000 28.59000
C  4.21000 5.85000 27.99700
C  4.39200 5.75600 26.53500
C  5.38600 4.74000 26.39300
C  3.26600 6.74300 28.79200
C  3.76800 6.51900 25.37900
O  4.12400 6.36900 24.25500
C  2.61800 7.54100 25.57700
N  7.40900 2.47300 25.97600
C  6.58800 2.99500 25.00400
C  6.83500 2.29400 23.67200
C  8.21600 1.56700 23.88600
C  8.23500 1.49800 25.42100
C  5.69000 1.30800 23.12800
C  9.47400 2.30900 23.35500
C  9.84700 1.70800 21.90800
N  8.86300 1.61900 28.32700
C  9.45700 0.71000 27.47400
C  10.22500 -0.27300 28.26700
C  10.13800 0.15500 29.59900
C  9.19000 1.27000 29.59200
C  10.81900 -1.52000 27.88200
C  10.56300 -0.09100 30.97300
O  11.32200 -0.90500 31.41000
C  9.86800 0.94100 31.88000
C  9.14800 0.23300 32.94600
O  7.99800 -0.20900 32.80400
O  9.86800 0.05600 34.05200
C  9.24100 -0.41500 35.32100
H  4.88400 5.64900 30.57200
H  5.22500 4.37500 24.31000
H  9.68400 -0.00300 25.35400
H  7.35900 2.38500 33.17600
H  6.58100 5.28800 32.59200
H  5.34200 3.07800 33.56900
H  4.30600 3.37800 32.18700
H  4.68900 4.63800 33.40100
H  8.22300 4.93000 33.90100
H  9.55700 4.11300 33.02100
H  9.87500 2.57200 34.24600
H  8.44700 2.51900 35.16000
H  3.22400 6.57400 29.86800
H  2.28200 6.66800 28.32800
H  3.60700 7.77800 28.81400
H  2.27900 8.04600 24.67300
H  3.18600 8.27100 26.15200
H  1.73600 7.19500 26.11600
H  6.92900 3.17200 23.03400
H  8.09800 0.56100 23.48500
H  5.26200 1.68500 22.19800
H  4.88200 1.29300 23.85900
H  6.03600 0.29200 22.94000
H  10.25600 2.23200 24.11000
H  9.17700 3.33900 23.15900
H  9.91300 2.43800 21.10100
H  9.26700 0.85900 21.54500
H  10.84300 1.29900 22.07400
H  10.32400 -1.93500 27.00500
H  10.64800 -2.16300 28.74500
H  11.86400 -1.46700 27.57900
H  10.69500 1.51500 32.29900
H  9.17000 0.48000 35.93900
H  9.70000 -1.23000 35.88100
H  8.18200 -0.62800 35.17600
Mg -1.95100 34.27800 26.27500
C  -4.09800 33.04600 28.91000
C  -0.61600 36.45300 28.36300
C  -0.36200 35.35400 23.57300
C  -4.06400 32.26500 24.14600
N  -2.29400 34.66900 28.41100
C  -3.13000 34.03100 29.32800
C  -2.77700 34.51100 30.69400
C  -1.71900 35.71000 30.49800
C  -1.52500 35.64400 28.98400
C  -2.12400 37.03300 31.05200
C  -2.22600 33.41900 31.71700
C  -3.07000 33.36300 32.90300
H  -3.06000 32.04900 33.77800
N  -0.73900 35.83900 25.97700
C  -0.21700 36.64500 26.94900
C  0.78600 37.44600 26.39400
C  0.85600 37.12700 24.97900
C  -0.15100 36.08300 24.76800
C  1.57200 38.50100 27.22700
C  1.77200 37.63700 23.85600
O  1.77900 37.33300 22.64700
C  2.83900 38.62300 24.28900
N  -2.28900 33.93000 24.18100
C  -1.37800 34.51300 23.30300
C  -1.38600 33.79500 21.94500
C  -2.53300 32.72700 22.09100
C  -2.94100 32.94000 23.59800
C  -1.48700 34.73400 20.70500
C  -2.02000 31.33600 21.75400
C  -2.96300 30.47000 20.99500
N  -3.62800 32.85100 26.46500
C  -4.34900 32.14600 25.48500
C  -5.43200 31.30700 26.15800
C  -5.33100 31.62200 27.50600
C  -4.27000 32.53000 27.62700
C  -6.34500 30.32900 25.51300
C  -5.83900 31.23100 28.81300
O  -6.71100 30.34100 29.08800
C  -5.09000 32.18700 29.77700
C  -6.18300 33.02600 30.37900
O  -6.90300 33.85600 29.86000
O  -6.25000 32.77800 31.77200
C  -7.31200 33.47500 32.58000
H  -0.05300 36.98200 29.13400
H  0.36200 35.62900 22.80400
H  -4.69800 31.53900 23.63400
H  -3.69300 34.95900 31.07900
H  -0.74800 35.59100 30.97900
H  -2.51000 37.70000 30.28200
H  -1.35000 37.49900 31.66200
H  -3.05200 36.97900 31.62100
H  -1.21600 33.74300 31.97000
H  -2.16800 32.47900 31.16700
H  -4.08600 33.61800 32.60200
H  -2.85500 34.13900 33.63800
H  1.44100 38.55900 28.30800
H  1.43000 39.50200 26.81900
H  2.62900 38.30900 27.04200
H  3.54700 38.08200 24.91700
H  2.40400 39.40400 24.91200
H  3.37800 39.07300 23.45600
H  -0.37300 33.39400 21.92300
H  -3.35000 32.97900 21.41400
H  -1.58500 35.77100 21.02700
H  -2.27000 34.61800 19.95600
H  -0.70800 34.68600 19.94300
H  -1.57500 30.97300 22.68100
H  -1.17600 31.52600 21.09100
H  -3.80600 31.03400 20.59700
H  -3.27300 29.60200 21.57600
H  -2.39900 30.02100 20.17700
H  -5.83200 29.39600 25.28000
H  -6.74800 30.82100 24.62800
H  -7.13800 30.03600 26.20200
H  -4.47600 31.64000 30.49200
H  -8.11000 32.73700 32.65500
H  -7.72300 34.41800 32.22000
H  -6.89000 33.67300 33.56500

