158

Mg 0.34500 8.62200 26.55800
C  1.06100 10.68200 29.48400
C  0.82700 5.89000 28.55700
C  0.14500 6.74900 23.80200
C  0.86500 11.44800 24.64400
N  0.85700 8.33100 28.86100
C  0.99200 9.29300 29.81800
C  1.11000 8.56700 31.18600
C  1.25900 7.02800 30.88000
C  0.97900 7.05500 29.35000
C  2.62200 6.39500 31.27400
C  -0.17600 9.02900 31.94100
C  -0.09400 8.94400 33.49500
H  1.23100 8.41800 34.14800
N  0.34400 6.66700 26.26800
C  0.50300 5.68300 27.21500
C  0.19900 4.37700 26.60700
C  0.09300 4.56300 25.16800
C  0.13700 6.08200 25.03800
C  0.19600 3.08200 27.38200
C  0.09400 3.55000 24.01600
O  0.19000 3.87100 22.84700
C  0.07400 2.10900 24.20800
N  0.48100 9.01000 24.53100
C  0.37300 8.08200 23.57600
C  0.53400 8.67500 22.17700
C  0.33800 10.17100 22.50900
C  0.62100 10.21400 23.96900
C  1.94300 8.24700 21.56200
C  -1.16600 10.72300 22.26900
C  -1.44300 11.98700 21.62500
N  0.92000 10.61800 26.90600
C  1.08000 11.70100 26.02100
C  1.38100 12.87600 26.72900
C  1.38400 12.51200 28.09600
C  1.01400 11.15500 28.20600
C  1.63500 14.22700 26.15500
C  1.60400 13.05700 29.35500
O  2.02500 14.18500 29.60600
C  1.30900 11.88300 30.40600
C  2.43800 11.72100 31.31300
O  3.67200 11.64000 31.06100
O  1.92200 11.77500 32.55700
C  2.88900 12.31600 33.51400
H  0.95700 5.01300 29.19400
H  0.14000 6.13400 22.89900
H  1.05400 12.36200 24.07800
H  1.99600 9.01400 31.63500
H  0.53600 6.35600 31.34400
H  2.53500 5.55800 31.96700
H  3.20900 7.18800 31.73600
H  3.14400 6.01400 30.39600
H  -1.01500 8.37500 31.70400
H  -0.53900 9.99500 31.58900
H  -0.85500 8.23800 33.82700
H  -0.26500 9.95000 33.88000
H  -0.08400 3.38300 28.39200
H  1.17300 2.60500 27.30500
H  -0.49900 2.42800 26.85700
H  -0.76800 1.65700 24.73100
H  0.98800 1.82700 24.73200
H  0.08000 1.64000 23.22400
H  -0.25300 8.17700 21.61100
H  1.03900 10.77100 21.92900
H  1.82500 7.44100 20.83700
H  2.76200 8.09600 22.26500
H  2.37900 9.02000 20.93000
H  -1.58800 10.79400 23.27100
H  -1.71500 9.93000 21.76000
H  -0.99900 12.12500 20.64000
H  -1.17200 12.74700 22.35800
H  -2.46500 11.99100 21.24500
H  0.71700 14.80400 26.26800
H  1.82900 14.18800 25.08300
H  2.42500 14.81700 26.61900
H  0.41600 12.23800 30.92000
H  3.14200 11.46500 34.14700
H  2.42300 12.99000 34.23300
H  3.79600 12.73100 33.07700
Mg 46.00900 4.75600 48.21000
C  43.73600 7.20200 47.45100
C  43.37200 2.47300 47.69400
C  48.17000 2.20800 48.12000
C  48.62500 7.06800 47.47100
N  43.71400 4.87800 47.82100
C  43.04800 5.96200 47.40200
C  41.60700 5.67800 46.92300
C  41.45400 4.19100 47.37800
C  42.89500 3.82700 47.72100
C  40.43200 4.03200 48.52200
C  41.68600 5.88400 45.37400
C  40.78100 7.03500 44.78800
H  41.33600 7.92600 43.65300
N  45.81100 2.66700 48.04800
C  44.64800 1.93400 47.84900
C  45.03200 0.54800 47.67400
C  46.38500 0.34300 47.89600
C  46.83800 1.72700 48.11300
C  44.01400 -0.56800 47.31900
C  47.21800 -0.93600 47.71000
O  46.61100 -2.01400 47.52800
C  48.65500 -0.97400 47.73700
N  48.07400 4.60800 47.98200
C  48.77600 3.44300 48.13300
C  50.31300 3.65300 47.96100
C  50.45600 5.22600 47.85400
C  48.98800 5.67800 47.76200
C  50.97900 3.01700 49.21900
C  51.35100 5.80000 46.79500
C  52.56300 6.58500 47.31700
N  46.23100 6.71800 47.77700
C  47.31500 7.51400 47.50700
C  46.92900 8.89500 47.50100
C  45.53600 8.83800 47.43600
C  45.12300 7.48100 47.63100
C  47.89000 10.08400 47.56800
C  44.37300 9.67200 47.34800
O  44.29500 10.90600 47.15900
C  43.13600 8.63900 47.31500
C  42.10000 8.97700 48.33500
O  41.94800 8.32200 49.35300
O  41.15100 9.87000 47.82400
C  40.12400 10.16800 48.76800
H  42.53900 1.77800 47.56900
H  48.96400 1.46200 48.18300
H  49.45300 7.78000 47.47100
H  40.86300 6.38000 47.29800
H  41.10200 3.47500 46.63400
H  40.98400 3.70400 49.40300
H  39.61000 3.34700 48.31300
H  39.85900 4.94700 48.67400
H  41.34800 5.01400 44.81000
H  42.64800 6.20500 44.97600
H  40.58900 7.70200 45.62900
H  39.76800 6.68100 44.59900
H  44.41400 -1.03500 46.41900
H  43.05200 -0.10600 47.09600
H  44.06700 -1.12700 48.25400
H  48.97300 -0.57200 48.69900
H  49.06400 -0.30300 46.98200
H  49.13400 -1.95200 47.69300
H  50.55800 3.16300 47.01900
H  50.89700 5.66100 48.75100
H  51.38300 2.11900 48.75200
H  50.20700 2.65600 49.89900
H  51.78700 3.65100 49.58400
H  50.91100 6.49500 46.08000
H  51.88900 4.98900 46.30400
H  52.36500 7.11700 48.24700
H  52.86000 7.31100 46.56100
H  53.40600 5.93200 47.54400
H  48.69400 9.91500 46.85100
H  48.32700 10.17300 48.56200
H  47.31800 10.98200 47.33500
H  42.61400 8.86000 46.38300
H  39.48500 10.91400 48.29400
H  40.37800 10.47200 49.78300
H  39.45100 9.31800 48.87800

