158

Mg 24.64600 -6.48500 46.47200
C  26.93300 -4.22800 45.20000
C  22.41600 -5.37500 44.16800
C  22.70600 -9.14800 47.29100
C  27.38100 -8.19700 48.08900
N  24.80600 -5.08900 44.82600
C  25.72100 -4.17400 44.55900
C  25.35000 -3.21500 43.40600
C  23.82600 -3.37200 43.33100
C  23.66300 -4.75100 44.14400
C  22.91400 -2.28500 43.88300
C  26.06400 -3.65600 42.12400
C  26.79200 -2.68600 41.24200
H  26.32700 -2.62500 39.81400
N  22.65300 -7.05500 45.92100
C  21.91600 -6.44800 44.93100
C  20.67800 -7.20200 44.81000
C  20.74000 -8.26600 45.70100
C  22.05300 -8.17600 46.37200
C  19.53700 -6.92800 43.78700
C  19.73100 -9.33100 45.77400
O  18.71900 -9.25700 45.11900
C  19.85600 -10.43900 46.78900
N  25.07900 -8.50400 47.39900
C  24.04600 -9.33000 47.67800
C  24.49500 -10.57700 48.42400
C  25.99300 -10.26900 48.71800
C  26.14900 -8.87500 48.09400
C  23.66100 -11.03900 49.72500
C  27.04500 -11.33200 48.13000
C  27.52000 -12.41600 49.15100
N  26.74200 -6.28000 46.62900
C  27.68000 -6.98500 47.42100
C  28.92000 -6.20700 47.43900
C  28.68300 -5.08800 46.59400
C  27.35400 -5.23100 46.07100
C  30.13700 -6.83000 48.13400
C  29.29000 -4.01200 45.94100
O  30.46100 -3.54300 46.00400
C  28.23100 -3.36500 44.97900
C  28.06700 -1.92500 45.23200
O  28.42700 -0.97500 44.47700
O  27.36300 -1.75100 46.31200
C  27.19200 -0.39200 46.82200
H  21.72900 -4.84000 43.51000
H  22.22800 -10.09600 47.54600
H  28.13900 -8.64300 48.73700
H  25.73900 -2.21800 43.61500
H  23.40900 -3.69700 42.37800
H  23.59100 -1.57500 44.35800
H  22.27200 -2.62800 44.69400
H  22.27400 -2.00600 43.04600
H  25.42100 -4.18700 41.42200
H  26.78800 -4.39400 42.47000
H  27.85100 -2.84700 41.43900
H  26.40900 -1.74000 41.62600
H  19.73000 -6.13300 43.06600
H  18.55500 -6.63800 44.16000
H  19.28700 -7.80600 43.19100
H  20.15500 -10.07000 47.77100
H  20.73600 -10.89100 46.33100
H  19.16600 -11.28300 46.80400
H  24.45700 -11.46400 47.79100
H  26.12600 -10.18700 49.79700
H  23.38200 -10.11800 50.23700
H  24.23800 -11.61500 50.44800
H  22.89800 -11.69600 49.30800
H  27.89300 -10.78700 47.71500
H  26.67700 -11.88300 47.26400
H  27.12800 -12.48200 50.16500
H  28.61000 -12.38500 49.16500
H  27.28200 -13.36500 48.67100
H  30.89500 -6.04600 48.14400
H  30.42500 -7.70500 47.55100
H  29.93000 -6.98900 49.19200
H  28.50200 -3.36500 43.92300
H  27.51600 0.40200 46.15000
H  27.59700 -0.27500 47.82800
H  26.12500 -0.17000 46.84400
Mg 53.06100 24.67800 45.43400
C  50.47400 26.71000 44.36500
C  51.45500 22.01300 43.83900
C  55.80200 22.76100 45.80400
C  54.81300 27.43600 46.52800
N  51.31100 24.39500 44.21900
C  50.41000 25.36700 43.91500
C  49.37600 24.94900 42.90200
C  49.41800 23.35600 43.12300
C  50.83300 23.22900 43.78900
C  48.33100 22.94300 44.07100
C  49.79200 25.48100 41.51900
C  48.68900 25.96400 40.57000
H  48.33300 24.98500 39.45200
N  53.59500 22.65800 44.95800
C  52.75800 21.73100 44.34400
C  53.42100 20.45800 44.28500
C  54.66000 20.63400 44.90300
C  54.74300 22.01700 45.31300
C  52.82300 19.17000 43.79300
C  55.69100 19.53200 45.08000
O  55.50700 18.37100 44.68300
C  57.03000 19.75200 45.79200
N  55.12300 25.01200 45.91500
C  56.01500 24.07000 46.09900
C  57.35400 24.75100 46.60200
C  57.04100 26.28600 46.65900
C  55.56300 26.20800 46.39100
C  57.95200 24.22700 47.92700
C  57.79600 26.97400 45.52700
C  59.28100 27.28700 45.73200
N  52.72600 26.70300 45.65300
C  53.43900 27.70900 46.13300
C  52.63200 28.91200 46.16200
C  51.42100 28.50300 45.60100
C  51.60000 27.22400 45.10900
C  53.04500 30.18700 46.78800
C  50.02100 28.92800 45.28300
O  49.35500 29.88200 45.74300
C  49.34900 27.72800 44.34400
C  49.04800 28.21200 43.02100
O  49.78000 28.74900 42.20000
O  47.65500 28.23800 42.91600
C  47.11500 29.04000 41.79100
H  50.83200 21.17800 43.51300
H  56.70000 22.15400 45.93600
H  55.36500 28.30200 46.90200
H  48.48000 25.48800 43.21000
H  49.43200 22.90500 42.13100
H  48.79600 22.94900 45.05600
H  47.98100 21.96500 43.74000
H  47.43600 23.56500 44.08600
H  50.24700 24.60900 41.04900
H  50.53600 26.26900 41.63400
H  48.87600 26.91200 40.06600
H  47.74100 26.01400 41.10600
H  51.74600 19.25900 43.65400
H  52.94300 18.30500 44.44600
H  53.51200 18.87100 43.00200
H  57.78700 20.25500 45.19200
H  57.50700 18.79200 45.99200
H  56.77000 20.32700 46.68100
H  58.09300 24.54400 45.82900
H  57.14000 26.65000 47.68200
H  57.91400 24.91000 48.77500
H  58.95100 23.82100 47.76500
H  57.36300 23.44400 48.40500
H  57.34800 27.93900 45.28900
H  57.48500 26.41800 44.64300
H  59.62200 27.20200 46.76400
H  59.44300 28.26600 45.28100
H  59.86800 26.64100 45.07900
H  53.42200 30.17600 47.81100
H  52.28700 30.95900 46.91800
H  53.87300 30.62400 46.23000
H  48.47300 27.36100 44.87800
H  47.72500 29.66500 41.13900
H  46.20100 29.58100 42.03700
H  46.76600 28.28800 41.08400

