158

Mg 1.66700 -1.49500 43.80400
C  5.06200 -0.79100 43.17000
C  0.70400 1.04600 41.83600
C  -1.36200 -2.95500 43.63500
C  2.84500 -4.59800 45.48600
N  2.80200 -0.05500 42.69700
C  4.15600 0.06300 42.57200
C  4.49500 1.28400 41.73600
C  3.09100 1.94400 41.36900
C  2.11200 0.92800 41.98700
C  3.02700 3.33000 42.05400
C  5.36700 1.11500 40.46500
C  6.38100 2.25900 40.01400
H  6.09200 3.09800 38.68400
N  -0.11500 -0.91400 43.06200
C  -0.36700 0.21400 42.30700
C  -1.73000 0.41900 42.17400
C  -2.33300 -0.71500 42.75300
C  -1.25000 -1.62000 43.18100
C  -2.23100 1.79000 41.68500
C  -3.80900 -0.86600 42.83200
O  -4.64500 -0.08700 42.28700
C  -4.48900 -1.95800 43.61200
N  0.84500 -3.54000 44.52800
C  -0.42500 -3.80500 44.24000
C  -0.81100 -5.13600 44.84300
C  0.52700 -5.75000 45.52000
C  1.51900 -4.63900 45.08500
C  -2.05600 -5.15900 45.72700
C  1.05400 -7.17200 45.18400
C  1.26400 -8.03800 46.47400
N  3.49800 -2.51000 44.28400
C  3.72800 -3.66000 44.93900
C  5.20500 -3.77300 45.05700
C  5.77000 -2.69700 44.44100
C  4.64300 -1.98600 43.96100
C  5.92600 -4.88600 45.72900
C  6.97300 -1.89500 44.16700
O  8.13100 -2.09800 44.46500
C  6.60300 -0.70400 43.24400
C  6.92700 0.53400 43.99600
O  6.47700 0.91500 45.10200
O  7.75500 1.31900 43.12000
C  8.24600 2.63500 43.66300
H  0.31400 1.86600 41.23000
H  -2.38700 -3.33200 43.63400
H  3.16000 -5.50600 46.00600
H  5.17400 1.84400 42.37900
H  2.89000 2.09800 40.30900
H  3.99300 3.58700 42.49000
H  2.22100 3.39500 42.78500
H  2.71500 4.00000 41.25300
H  4.75100 0.90000 39.59200
H  5.93200 0.19100 40.58600
H  7.34700 1.78500 39.84100
H  6.35300 2.93100 40.87200
H  -3.24800 1.71200 41.30200
H  -1.64800 2.06700 40.80700
H  -2.15200 2.51700 42.49400
H  -3.88800 -2.17100 44.49600
H  -4.44200 -2.81500 42.94000
H  -5.50700 -1.77100 43.95300
H  -0.90200 -5.73300 43.93500
H  0.54100 -5.62400 46.60300
H  -2.63600 -4.23800 45.66800
H  -1.80700 -5.43500 46.75100
H  -2.74900 -5.83800 45.22900
H  1.91300 -7.28400 44.52200
H  0.25600 -7.56200 44.55300
H  2.18400 -8.59100 46.28300
H  0.38300 -8.67400 46.56800
H  1.42000 -7.46700 47.38900
H  5.55300 -5.03800 46.74200
H  7.00600 -4.73900 45.72100
H  5.71900 -5.82400 45.21500
H  7.11700 -0.64400 42.28500
H  9.33200 2.66400 43.75900
H  7.91800 2.89300 44.67000
H  7.91900 3.51800 43.11500
Mg 47.74700 35.04200 27.12800
C  46.15100 33.26800 29.81600
C  48.08600 37.68500 29.19900
C  48.80200 36.76800 24.52600
C  47.42200 32.11900 25.18600
N  47.37900 35.28800 29.31000
C  46.78300 34.44700 30.21900
C  46.97100 35.00500 31.64700
C  47.28500 36.51300 31.30200
C  47.63800 36.49700 29.81700
C  46.15900 37.47500 31.71400
C  48.18100 34.24300 32.30600
C  48.66300 34.75000 33.71700
H  47.83700 35.70500 34.50700
N  48.35500 36.93300 26.90000
C  48.43500 37.87000 27.85000
C  48.86400 39.10600 27.29500
C  49.12100 38.89500 25.86200
C  48.83700 37.42600 25.71600
C  49.10500 40.30200 28.07300
C  49.70000 39.86800 24.80000
O  50.06600 39.47400 23.68800
C  49.98600 41.31200 25.13900
N  48.17800 34.48700 25.16500
C  48.45700 35.45000 24.24800
C  48.51100 34.82800 22.81700
C  48.48100 33.33000 23.17100
C  47.96700 33.32700 24.62100
C  47.47400 35.28500 21.80200
C  49.72100 32.46100 22.86800
C  49.83400 32.08400 21.38900
N  46.87700 33.17000 27.36300
C  46.82100 32.06500 26.46300
C  46.14300 30.94000 27.12300
C  45.81100 31.47000 28.34600
C  46.28800 32.78400 28.51300
C  45.86700 29.56600 26.63400
C  44.99300 31.12000 29.51900
O  44.31900 30.08800 29.68800
C  45.16200 32.31900 30.52400
C  45.42000 31.81100 31.92900
O  46.37000 31.23500 32.36100
O  44.36600 32.36000 32.67400
C  44.43000 32.18900 34.09900
H  48.26500 38.51300 29.88800
H  48.99900 37.44200 23.68900
H  47.45200 31.28200 24.48400
H  46.05300 34.81200 32.20200
H  48.19500 36.78300 31.83700
H  45.56200 36.82200 32.35200
H  45.53600 37.91000 30.93300
H  46.65200 38.18500 32.37700
H  49.07400 34.27100 31.68100
H  47.91600 33.19400 32.43600
H  49.62700 35.25800 33.72400
H  48.75500 33.87000 34.35300
H  49.70400 41.06900 27.58400
H  49.52000 39.95400 29.02000
H  48.12000 40.70500 28.30900
H  50.33600 41.92100 24.30600
H  50.77100 41.40700 25.89000
H  49.06800 41.65300 25.61800
H  49.51000 35.04100 22.43800
H  47.70800 32.92700 22.51600
H  47.67200 36.35600 21.74200
H  46.45900 35.07200 22.13600
H  47.78100 34.75300 20.90200
H  49.70500 31.59000 23.52400
H  50.64500 33.00700 23.05900
H  49.05200 32.63700 20.86900
H  49.63700 31.01700 21.29300
H  50.84000 32.30800 21.03300
H  45.86900 28.81600 27.42600
H  46.70700 29.27800 26.00200
H  44.98100 29.55200 25.99900
H  44.27500 32.93600 30.66800
H  43.85200 33.02700 34.48900
H  45.46100 32.28800 34.44000
H  44.05900 31.21500 34.41700

