158

Mg 16.44800 51.93900 25.49300
C  18.07700 50.78000 28.48300
C  13.77500 52.69300 27.47400
C  14.85800 52.62300 22.85100
C  19.27300 50.63300 23.72100
N  16.12100 52.08700 27.73500
C  16.97600 51.62300 28.70200
C  16.39100 51.95600 30.06100
C  14.90400 52.37900 29.80500
C  14.90400 52.38300 28.27600
C  13.74700 51.50500 30.45700
C  17.28900 53.00000 30.82200
C  17.67800 52.63200 32.27000
H  16.82000 51.68000 33.18500
N  14.55900 52.55500 25.18100
C  13.57300 52.81700 26.09700
C  12.33900 53.18500 25.47100
C  12.63700 53.27500 24.03300
C  14.04300 52.83800 23.96400
C  11.06900 53.53100 26.33200
C  11.66300 53.49400 22.84000
O  12.03300 53.37100 21.71100
C  10.37200 54.12800 23.13800
N  16.98600 51.55800 23.58000
C  16.09200 52.06200 22.65400
C  16.69000 51.87000 21.23900
C  18.18000 51.46700 21.59600
C  18.16100 51.18900 23.08500
C  15.96100 50.81600 20.37800
C  19.25400 52.44900 20.96000
C  19.67200 52.25400 19.50400
N  18.34200 50.85200 25.95000
C  19.32300 50.36800 25.10800
C  20.43200 49.74000 25.85800
C  19.92000 49.82000 27.21000
C  18.69500 50.55100 27.23100
C  21.67300 49.20900 25.32700
C  20.23200 49.55100 28.58800
O  21.20900 48.93600 29.07300
C  19.03200 50.16000 29.50500
C  18.54200 49.12600 30.45000
O  17.89600 48.07200 30.08900
O  19.06400 49.31200 31.70900
C  18.82000 48.15300 32.61800
H  12.91200 52.97000 28.08400
H  14.42200 53.05000 21.94500
H  20.15400 50.43800 23.10700
H  16.44500 51.05400 30.67100
H  14.78600 53.38400 30.21000
H  13.15400 51.13900 29.61800
H  13.18500 52.15000 31.13300
H  14.12500 50.70600 31.09400
H  16.84400 53.99400 30.87000
H  18.21000 53.10100 30.24900
H  17.71000 53.60400 32.76400
H  18.73100 52.35500 32.33100
H  11.09500 54.50900 26.81300
H  10.90200 52.74300 27.06700
H  10.19000 53.59400 25.69100
H  9.66700 53.45200 23.62300
H  9.75400 54.56300 22.35200
H  10.46400 54.97700 23.81500
H  16.71700 52.79000 20.65500
H  18.45400 50.48100 21.22000
H  15.04400 50.51700 20.88500
H  16.59700 49.99100 20.05500
H  15.68700 51.29500 19.43800
H  20.18500 52.45500 21.52700
H  18.79700 53.43800 20.95600
H  18.88600 51.67900 19.01400
H  20.57600 51.69800 19.25300
H  19.69200 53.22900 19.01800
H  21.56000 48.12800 25.23700
H  22.43700 49.47700 26.05700
H  21.84700 49.69900 24.36900
H  19.51100 50.96600 30.06100
H  19.61400 47.42600 32.45200
H  17.79700 47.79300 32.51400
H  19.03300 48.50300 33.62800
Mg -2.09700 34.73900 27.40400
C  -3.61400 33.01800 30.18400
C  -0.35600 36.63300 29.44600
C  -1.24500 36.67100 24.75200
C  -3.98600 32.67700 25.23900
N  -2.10400 34.85300 29.60900
C  -2.72000 34.05600 30.58300
C  -2.15700 34.38200 31.94700
C  -1.38600 35.74500 31.63800
C  -1.21700 35.76300 30.12500
C  -1.98600 36.95200 32.29800
C  -1.33800 33.18100 32.48800
C  -1.95100 32.43800 33.64300
H  -1.25000 32.41000 34.96100
N  -0.90400 36.36500 27.10200
C  -0.19500 37.00200 28.12900
C  0.64200 38.07100 27.64100
C  0.32200 38.05500 26.22500
C  -0.59900 36.99700 25.93500
C  1.48400 39.01700 28.56700
C  0.89500 38.92700 25.17600
O  0.47100 38.86200 24.03600
C  1.98300 39.79300 25.49300
N  -2.66200 34.73100 25.37100
C  -2.25500 35.68900 24.52500
C  -2.69200 35.45100 23.00200
C  -3.46900 34.10300 23.17000
C  -3.34500 33.73800 24.63500
C  -3.49200 36.63600 22.30800
C  -2.84700 33.06200 22.19500
C  -1.60300 32.25600 22.70000
N  -3.48500 33.14400 27.64600
C  -4.01900 32.35100 26.66400
C  -4.83100 31.31100 27.30500
C  -4.73100 31.56800 28.69500
C  -3.86200 32.62400 28.83900
C  -5.63300 30.26500 26.65500
C  -5.16500 31.10000 30.01400
O  -5.87500 30.22100 30.41400
C  -4.42300 31.98600 31.02200
C  -5.54400 32.58700 31.84700
O  -6.35800 33.44300 31.43400
O  -5.63200 32.03800 33.09700
C  -6.85000 32.15700 33.84700
H  0.27800 37.17000 30.15400
H  -1.02100 37.22000 23.83500
H  -4.49800 32.05800 24.50000
H  -3.05600 34.59400 32.52700
H  -0.32900 35.70100 31.90000
H  -2.95500 37.13600 31.83600
H  -1.38800 37.82100 32.02000
H  -1.97300 36.87200 33.38500
H  -0.39300 33.65600 32.75300
H  -1.18000 32.52100 31.63500
H  -1.98900 31.43400 33.22000
H  -2.92400 32.90500 33.79900
H  1.23800 38.91100 29.62300
H  1.31100 40.05100 28.26900
H  2.51900 38.74700 28.35300
H  2.15200 40.46000 24.64700
H  2.88300 39.30300 25.86500
H  1.68600 40.53400 26.23600
H  -1.81900 35.30100 22.36600
H  -4.52600 34.30900 22.99700
H  -4.56000 36.45100 22.18900
H  -3.03500 36.87100 21.34700
H  -3.39700 37.44100 23.03700
H  -2.43300 33.43800 21.26000
H  -3.68900 32.39500 22.00500
H  -0.69800 32.37200 22.10200
H  -2.02700 31.25400 22.76700
H  -1.31900 32.53700 23.71400
H  -5.72000 30.43500 25.58200
H  -6.66900 30.36000 26.98000
H  -5.51500 29.19200 26.80900
H  -3.87700 31.27800 31.64700
H  -7.76200 32.34700 33.28100
H  -6.80300 32.89400 34.64800
H  -7.06000 31.15000 34.20900

