158

Mg -2.51800 17.06000 26.80500
C  -2.60500 15.04300 29.53800
C  -3.28000 19.77300 28.84200
C  -2.59800 19.02600 24.03600
C  -2.35800 14.23500 24.73600
N  -3.02900 17.46300 28.92200
C  -2.78500 16.45600 29.89200
C  -3.00200 17.08400 31.28100
C  -3.28200 18.53900 30.96300
C  -3.30000 18.61800 29.51900
C  -4.48200 19.27100 31.73200
C  -1.85700 16.88000 32.31100
C  -2.32400 16.29800 33.63900
H  -1.20000 16.20700 34.66000
N  -2.75900 19.04600 26.53000
C  -3.10500 19.93400 27.46500
C  -3.28500 21.24400 26.82000
C  -3.07900 21.15200 25.47800
C  -2.75800 19.68700 25.28400
C  -3.58300 22.45900 27.55000
C  -3.24100 22.20400 24.40000
O  -3.10800 21.98800 23.20100
C  -3.40400 23.67000 24.79400
N  -2.51200 16.70800 24.75000
C  -2.48200 17.68300 23.74700
C  -2.62200 17.14500 22.36900
C  -2.29900 15.56100 22.54300
C  -2.36200 15.47500 24.09500
C  -4.02700 17.39100 21.64500
C  -0.86300 15.07100 22.24900
C  0.39500 15.90200 22.58400
N  -2.53800 15.02700 27.03400
C  -2.53700 14.02100 26.11200
C  -2.45800 12.74100 26.80300
C  -2.47100 13.03400 28.14200
C  -2.56000 14.43800 28.23900
C  -2.33600 11.36100 26.15500
C  -2.33100 12.51300 29.49100
O  -2.32800 11.35400 29.89700
C  -2.38700 13.73100 30.38300
C  -1.04300 13.77500 31.13600
O  -0.01800 14.16900 30.67400
O  -1.19600 13.24200 32.39600
C  0.13000 13.18600 33.15800
H  -3.39000 20.64700 29.48700
H  -2.60000 19.60600 23.11100
H  -2.19700 13.36000 24.10300
H  -3.90500 16.64300 31.70500
H  -2.40800 19.07900 31.32900
H  -4.17100 20.06700 32.40900
H  -5.03000 18.51100 32.28900
H  -5.20300 19.72600 31.05300
H  -1.22700 17.74800 32.50700
H  -1.17000 16.11600 31.94700
H  -2.41100 15.25900 33.32200
H  -3.31100 16.66400 33.92100
H  -4.56300 22.86600 27.30500
H  -2.72600 23.13200 27.49900
H  -3.65200 22.39500 28.63600
H  -3.43200 24.30000 23.90400
H  -2.55700 23.99800 25.39600
H  -4.33200 23.82400 25.34500
H  -1.79700 17.43500 21.71800
H  -3.10700 14.92100 22.18600
H  -4.63000 16.48400 21.62400
H  -4.01600 17.84200 20.65200
H  -4.51200 18.16200 22.24400
H  -0.89000 15.04700 21.16000
H  -0.62200 14.06600 22.59700
H  0.50900 16.35200 21.59800
H  1.32900 15.34300 22.64500
H  0.28500 16.71900 23.29800
H  -3.33900 11.26700 25.74000
H  -2.15500 10.58100 26.89600
H  -1.59800 11.30600 25.35500
H  -3.22200 13.66400 31.08000
H  -0.17500 12.98100 34.18400
H  0.77500 14.06300 33.10800
H  0.75800 12.32800 32.91900
Mg -12.74000 16.28700 42.85000
C  -9.52400 14.97200 42.14300
C  -11.69700 19.18000 41.59900
C  -16.06200 17.18000 42.81500
C  -13.72300 13.06900 43.94500
N  -10.86400 16.96800 42.10500
C  -9.62200 16.34900 41.98200
C  -8.56400 17.35300 41.62700
C  -9.26800 18.64900 41.76600
C  -10.69200 18.22800 41.78500
C  -8.96900 19.40400 43.03900
C  -8.11200 17.02500 40.21700
C  -6.65700 17.40100 39.82400
H  -6.04000 16.42300 38.83600
N  -13.75000 17.95500 42.26700
C  -13.11700 19.08900 41.78600
C  -14.07500 20.11200 41.44800
C  -15.36300 19.52500 41.71700
C  -15.11700 18.15600 42.29400
C  -13.67200 21.44500 40.84000
C  -16.70600 20.22900 41.52400
O  -16.77700 21.38600 41.16800
C  -18.03900 19.54300 41.73200
N  -14.68900 15.22200 43.38800
C  -15.88000 15.84100 43.26400
C  -16.91900 14.93500 43.80600
C  -16.05400 13.76100 44.40800
C  -14.73100 13.94200 43.86600
C  -17.98000 15.60400 44.78300
C  -16.67900 12.34500 43.99200
C  -17.20700 11.43600 45.18900
N  -11.82800 14.37700 43.11000
C  -12.33400 13.17800 43.50900
C  -11.28100 12.16200 43.45000
C  -10.18100 12.78700 42.92800
C  -10.53800 14.12900 42.69300
C  -11.51900 10.69900 43.67100
C  -8.79200 12.62500 42.54200
O  -8.06200 11.63400 42.55800
C  -8.33700 14.04800 42.01400
C  -7.27200 14.51600 42.89400
O  -7.42800 14.72900 44.07400
O  -6.06800 14.63100 42.15600
C  -4.94600 15.21100 42.82700
H  -11.43600 20.23200 41.47100
H  -17.08400 17.56200 42.85600
H  -13.90400 12.01500 44.16700
H  -7.63100 17.27000 42.18500
H  -9.08500 19.29500 40.90700
H  -9.79000 19.30000 43.74800
H  -8.93600 20.47100 42.82000
H  -8.02100 19.08200 43.46800
H  -8.79300 17.52200 39.52500
H  -8.27900 15.96400 40.03400
H  -6.05500 17.54200 40.72200
H  -6.45000 18.39700 39.43200
H  -13.30800 21.24900 39.83200
H  -12.86400 21.81000 41.47500
H  -14.49100 22.16000 40.92000
H  -18.18500 19.37500 42.79900
H  -17.90900 18.56500 41.26700
H  -18.85200 20.13100 41.30600
H  -17.54700 14.64900 42.96300
H  -16.02300 13.76300 45.49700
H  -17.53200 16.55400 45.07400
H  -18.20900 14.99100 45.65400
H  -18.89400 15.73700 44.20300
H  -15.98800 11.77400 43.37200
H  -17.50200 12.48100 43.29000
H  -17.01900 10.38300 44.98400
H  -18.28700 11.54300 45.09600
H  -16.87900 11.53900 46.22400
H  -12.50700 10.37100 43.34900
H  -11.36400 10.33000 44.68500
H  -10.74700 10.20300 43.08300
H  -7.86600 13.85300 41.05100
H  -5.21700 16.15900 43.29300
H  -4.18300 15.35000 42.06200
H  -4.56400 14.58400 43.63200

