158

Mg 47.77800 16.80800 27.61500
C  45.60400 16.86700 30.51900
C  49.96600 18.71300 29.16000
C  49.41700 16.81700 24.82000
C  44.91400 15.28800 25.95700
N  47.66200 17.81000 29.55800
C  46.82400 17.53200 30.64600
C  47.49400 18.05000 31.96300
C  48.78000 18.84300 31.44400
C  48.83700 18.46100 29.94500
C  48.77200 20.36300 31.64400
C  47.91500 16.87000 32.85800
C  47.90100 17.18000 34.42300
H  47.60700 18.61500 35.05500
N  49.42800 17.68700 27.10600
C  50.29400 18.38400 27.87500
C  51.44900 18.86200 27.18500
C  51.32400 18.30000 25.87700
C  50.05700 17.52500 25.89000
C  52.52200 19.80900 27.74700
C  52.23400 18.49800 24.69200
O  51.96000 17.97400 23.60900
C  53.46200 19.32700 24.71500
N  47.28200 15.98200 25.65000
C  48.24000 16.06800 24.70100
C  47.62000 15.61200 23.27400
C  46.14200 15.22600 23.60000
C  46.06800 15.55300 25.15500
C  47.85500 16.60300 22.10500
C  45.74500 13.69100 23.23900
C  45.98800 13.20400 21.84600
N  45.70100 16.28800 28.06600
C  44.72700 15.60700 27.32900
C  43.52800 15.26100 28.16000
C  43.83000 15.76800 29.42500
C  45.13800 16.37800 29.32700
C  42.26200 14.47600 27.72500
C  43.31300 15.95800 30.76500
O  42.22300 15.80000 31.24100
C  44.49800 16.60100 31.54600
C  44.01500 17.76600 32.33600
O  43.77300 18.87500 31.92100
O  43.67700 17.32600 33.57300
C  43.04700 18.21800 34.57100
H  50.65800 19.30800 29.76000
H  49.90700 16.92000 23.85000
H  44.06100 14.78200 25.50000
H  46.83500 18.75000 32.47700
H  49.72700 18.55300 31.89900
H  49.70900 20.62500 32.13500
H  47.92500 20.71400 32.23300
H  48.58900 20.91100 30.72000
H  48.93600 16.55600 32.64200
H  47.30100 16.00200 32.61700
H  48.89100 16.84300 34.72700
H  47.20400 16.52400 34.94400
H  52.47100 19.82200 28.83600
H  52.21900 20.77800 27.35200
H  53.54700 19.48100 27.57300
H  53.20900 20.33600 25.04100
H  53.83100 19.47900 23.70100
H  54.18100 18.93400 25.43400
H  48.19800 14.74800 22.94500
H  45.40900 15.86300 23.10600
H  48.18400 17.55600 22.52100
H  46.92800 16.71100 21.54300
H  48.59400 16.23100 21.39500
H  44.67500 13.63800 23.44200
H  46.26600 13.07100 23.96900
H  46.56200 13.95800 21.30600
H  45.02700 13.17500 21.33400
H  46.58200 12.29100 21.81000
H  41.55200 15.19200 27.31000
H  41.83700 14.00300 28.61000
H  42.47000 13.71400 26.97400
H  44.90600 15.88400 32.25900
H  42.27300 17.81400 35.22300
H  42.60600 19.04800 34.01900
H  43.93500 18.62200 35.05700
Mg 9.98600 48.36400 25.18300
C  8.10400 48.61600 28.08900
C  12.68300 49.77100 27.23400
C  12.02700 48.16500 22.71700
C  7.29700 47.27900 23.47400
N  10.32200 49.19600 27.43600
C  9.32700 49.10400 28.44600
C  9.91800 49.39100 29.80600
C  11.28600 50.11700 29.40100
C  11.49700 49.58000 27.98300
C  11.30800 51.66800 29.43000
C  10.18400 48.19300 30.71400
C  9.45300 48.25100 32.08000
H  9.72900 47.16900 33.25800
N  12.05000 48.93400 25.01300
C  12.97600 49.45000 25.93600
C  14.28200 49.43600 25.35900
C  14.16700 49.01700 23.95600
C  12.68700 48.74600 23.84600
C  15.62400 49.82700 26.03900
C  15.11900 48.90400 22.77300
O  14.72300 48.78400 21.61800
C  16.55000 48.87100 23.13600
N  9.67300 47.93300 23.29200
C  10.68200 47.90300 22.44400
C  10.19400 47.09600 21.16800
C  8.70300 46.69300 21.44100
C  8.55500 47.36700 22.85700
C  10.33900 47.88600 19.83100
C  8.41800 45.18600 21.45100
C  8.65200 44.34000 22.67000
N  8.05500 48.05100 25.57400
C  7.07200 47.67800 24.77700
C  5.77900 47.70400 25.52100
C  6.16400 47.97800 26.78700
C  7.55500 48.25500 26.80300
C  4.37300 47.23300 25.11800
C  5.66000 48.10200 28.12000
O  4.48300 47.95200 28.50400
C  6.85200 48.35400 29.01500
C  6.93600 47.12000 29.84000
O  7.67300 46.13800 29.69400
O  5.99000 47.19900 30.91300
C  5.93500 46.14500 31.89200
H  13.42500 50.27600 27.85500
H  12.75500 48.03200 21.91400
H  6.44000 46.89800 22.91400
H  9.25600 50.15100 30.21900
H  12.09200 49.70000 30.00500
H  12.29400 52.00900 29.74700
H  10.58500 51.95800 30.19300
H  11.00500 52.28300 28.58300
H  11.22200 48.03700 31.00700
H  9.79200 47.31200 30.20600
H  8.38800 48.18800 31.85800
H  9.54800 49.21500 32.58100
H  15.44700 50.14400 27.06700
H  16.11100 50.62200 25.47400
H  16.30400 48.97700 26.00700
H  16.50400 48.04300 23.84400
H  16.83800 49.76800 23.68300
H  17.19600 48.84500 22.25800
H  10.78400 46.18100 21.11100
H  8.01200 47.15100 20.73300
H  11.03700 48.70400 20.00900
H  9.37900 48.21100 19.42900
H  10.76800 47.24400 19.06300
H  8.92700 44.71600 20.61000
H  7.33800 45.13900 21.31300
H  9.36200 44.90300 23.27500
H  9.15400 43.42200 22.36200
H  7.72500 44.12100 23.20000
H  4.23700 46.38500 25.78800
H  4.33100 47.13300 24.03300
H  3.53800 47.87600 25.39500
H  6.66700 49.26500 29.58400
H  5.96000 46.68900 32.83600
H  6.73400 45.40300 31.89200
H  4.99900 45.59100 31.82700

