158

Mg 26.11300 -0.09700 29.40100
C  27.71200 -0.46900 32.38400
C  23.10900 0.38200 31.16800
C  24.29800 -0.46100 26.54500
C  28.94000 -0.87400 27.72500
N  25.43300 -0.18700 31.55100
C  26.36000 -0.20100 32.58400
C  25.66900 0.09600 33.89000
C  24.12800 0.09600 33.44400
C  24.22300 0.16600 31.93800
C  23.30400 -1.13500 33.89100
C  26.15400 1.38900 34.51100
C  26.87400 1.30700 35.91000
H  26.26500 2.11700 37.08300
N  23.96300 -0.01300 28.91600
C  22.98200 0.13100 29.79200
C  21.69600 0.26500 29.08700
C  21.98700 0.04000 27.74800
C  23.47000 -0.11300 27.67500
C  20.43300 0.45600 29.88600
C  21.01500 -0.23500 26.55200
O  21.42400 -0.40300 25.41800
C  19.54400 -0.11700 26.82900
N  26.60900 -0.45200 27.37300
C  25.71100 -0.53100 26.39000
C  26.26400 -0.81700 25.04000
C  27.77800 -0.79900 25.34400
C  27.82900 -0.64700 26.90300
C  25.79900 -2.02900 24.20500
C  28.72200 0.28500 24.72700
C  29.03500 0.17800 23.20400
N  27.99800 -0.60200 29.87000
C  29.10200 -0.80000 29.12300
C  30.21500 -0.93100 29.91400
C  29.78900 -0.81400 31.22900
C  28.37700 -0.59800 31.11000
C  31.66300 -0.93400 29.40300
C  30.20800 -0.67300 32.63100
O  31.28600 -0.71500 33.10600
C  28.86100 -0.45700 33.44900
C  28.74900 -1.54200 34.42400
O  28.01300 -2.54200 34.22100
O  29.39900 -1.27500 35.60600
C  29.01100 -2.11600 36.72000
H  22.24500 0.70700 31.75200
H  23.75600 -0.60700 25.60900
H  29.79700 -1.14300 27.10400
H  25.93100 -0.76000 34.51300
H  23.62400 1.03000 33.69300
H  22.73800 -1.54900 33.05700
H  22.60100 -0.87300 34.68200
H  23.99500 -1.83000 34.37000
H  25.28400 2.02000 34.69700
H  26.85000 1.85500 33.81400
H  27.90600 1.63000 35.77600
H  26.97200 0.25100 36.16200
H  20.08700 1.46700 30.09700
H  20.43900 -0.20100 30.75500
H  19.58000 0.05900 29.33600
H  19.13200 -0.94700 27.40300
H  18.94900 -0.09000 25.91600
H  19.26700 0.77000 27.39800
H  26.03000 0.13700 24.56700
H  28.24600 -1.74000 25.05500
H  24.94200 -2.55800 24.62400
H  26.50400 -2.81200 23.92700
H  25.37600 -1.62800 23.28400
H  29.64400 0.15900 25.29600
H  28.20300 1.20600 24.99300
H  28.66900 1.05300 22.66600
H  28.57700 -0.72400 22.79700
H  30.09500 0.07900 22.96900
H  32.25300 -0.24200 30.00500
H  31.67800 -0.64200 28.35300
H  32.08500 -1.93300 29.51500
H  28.97700 0.47800 33.99700
H  29.80500 -2.22800 37.45900
H  28.78500 -3.13200 36.39600
H  28.23200 -1.52900 37.20500
Mg 30.29300 59.18800 38.58000
C  27.45200 57.31900 38.06200
C  32.21500 56.50500 37.86200
C  32.95000 61.25100 38.39000
C  28.25600 62.03900 39.11400
N  29.85600 57.17000 38.01500
C  28.62900 56.59200 37.93200
C  28.79100 55.12200 37.51300
C  30.28100 54.82100 37.96200
C  30.85000 56.27500 37.97100
C  30.31300 54.17900 39.38900
C  28.56500 54.89700 35.97300
C  29.18300 55.86900 34.94600
H  28.19900 56.77100 34.15400
N  32.20900 58.95500 38.05800
C  32.91300 57.73700 37.95400
C  34.29400 57.89900 37.68600
C  34.47500 59.36700 37.67800
C  33.18600 59.96500 37.99200
C  35.29800 56.75500 37.42100
C  35.86400 60.02000 37.22600
O  36.80900 59.23700 36.99900
C  36.03700 61.53400 36.99400
N  30.53700 61.42400 38.75000
C  31.79300 61.90900 38.73600
C  31.69100 63.43700 38.96200
C  30.19300 63.65700 39.48100
C  29.61500 62.28900 39.22600
C  32.85400 64.02200 39.95000
C  29.45000 64.90800 38.92800
C  28.64900 65.78200 39.82100
N  28.23300 59.62600 38.69700
C  27.53000 60.78600 38.91100
C  26.05700 60.57400 38.79400
C  25.98900 59.19700 38.52300
C  27.32200 58.68800 38.38000
C  24.96100 61.63800 38.99200
C  25.08300 58.08300 38.30500
O  23.88000 58.05600 38.24000
C  26.03300 56.80800 37.97200
C  25.60300 55.58700 38.79600
O  25.48100 55.53800 40.00700
O  25.18200 54.62000 37.97800
C  24.17600 53.64900 38.55300
H  32.87900 55.63900 37.88600
H  33.77100 61.96600 38.46900
H  27.66000 62.93200 39.31200
H  28.09600 54.44300 38.00600
H  30.83900 54.22800 37.23700
H  29.32400 54.10200 39.84100
H  30.74800 54.90900 40.07100
H  30.75600 53.18300 39.38400
H  27.47800 54.94400 35.90300
H  28.96700 53.92000 35.70300
H  29.64600 55.24300 34.18300
H  29.96500 56.52000 35.33700
H  35.53800 56.61800 36.36600
H  34.87500 55.82500 37.80100
H  36.21000 56.76300 38.01800
H  37.06000 61.80400 36.72900
H  35.83600 61.94100 37.98400
H  35.29600 61.69700 36.21200
H  31.75700 63.88500 37.97100
H  30.30500 63.78400 40.55800
H  33.60700 64.36600 39.24100
H  33.31200 63.19300 40.48900
H  32.40900 64.73900 40.64100
H  28.85700 64.64600 38.05200
H  30.16400 65.50400 38.35900
H  29.04600 66.79500 39.75500
H  28.58500 65.36100 40.82400
H  27.58100 65.74200 39.60600
H  25.33800 62.57600 39.40000
H  24.18400 61.30700 39.68000
H  24.43900 62.00800 38.10900
H  25.85700 56.56000 36.92500
H  24.63100 52.97700 39.28100
H  23.89400 53.06600 37.67600
H  23.36300 54.14800 39.08100

