158

Mg 1.90900 -2.91200 44.70000
C  5.13000 -1.76300 43.93000
C  0.75400 -0.54100 42.38200
C  -1.28600 -4.19900 44.96000
C  3.15500 -5.53100 46.44800
N  2.91400 -1.36300 43.23200
C  4.21300 -1.13100 43.15100
C  4.48600 0.01100 42.15000
C  3.05400 0.62900 42.04800
C  2.17500 -0.53100 42.52800
C  2.72300 1.83600 42.93700
C  5.19900 -0.54300 40.90700
C  6.53100 0.12400 40.56600
H  6.64200 1.07600 39.34100
N  -0.04300 -2.38700 43.83800
C  -0.25800 -1.35200 42.91400
C  -1.70800 -1.21400 42.70200
C  -2.30400 -2.26300 43.47300
C  -1.21300 -2.99700 44.21600
C  -2.32700 -0.11700 41.87200
C  -3.85700 -2.49600 43.56700
O  -4.65000 -1.78700 42.99800
C  -4.38700 -3.64900 44.21400
N  1.09100 -4.68300 45.43600
C  -0.31300 -4.95400 45.52800
C  -0.53400 -6.31000 46.23500
C  0.92300 -6.67300 46.77500
C  1.79100 -5.55200 46.14900
C  -1.76800 -6.32500 47.21600
C  1.37600 -8.13800 46.38300
C  2.04600 -9.00300 47.44000
N  3.76300 -3.54100 45.14200
C  4.12300 -4.60800 45.94300
C  5.61800 -4.63600 46.04900
C  6.04100 -3.50600 45.28500
C  4.89000 -2.79400 44.80000
C  6.47500 -5.71600 46.61400
C  7.18400 -2.71400 44.88100
O  8.38100 -2.85300 45.13400
C  6.62600 -1.55400 43.96700
C  6.92700 -0.28800 44.57200
O  6.26400 0.24200 45.46500
O  8.00700 0.26400 43.93000
C  8.33400 1.66400 44.30700
H  0.38400 0.38100 41.92700
H  -2.21700 -4.75800 45.07300
H  3.52300 -6.39400 47.00500
H  5.14800 0.70100 42.67300
H  2.85900 0.79300 40.98800
H  3.64800 2.38500 43.10700
H  2.19300 1.46000 43.81200
H  2.11600 2.51700 42.33900
H  4.48100 -0.43400 40.09500
H  5.53800 -1.56500 41.07400
H  7.23200 -0.68000 40.33900
H  6.83500 0.66800 41.46100
H  -1.68900 0.76500 41.92400
H  -3.31500 0.22700 42.18100
H  -2.43000 -0.56800 40.88500
H  -4.25500 -3.63100 45.29500
H  -3.83000 -4.51400 43.85300
H  -5.43300 -3.79800 43.94400
H  -0.72100 -7.00900 45.42000
H  0.98000 -6.40300 47.82900
H  -1.44300 -6.30000 48.25600
H  -2.42000 -7.16900 46.99300
H  -2.41800 -5.49200 46.94600
H  2.20000 -8.02700 45.67800
H  0.58800 -8.69600 45.87700
H  1.77700 -10.05900 47.44100
H  1.83400 -8.63600 48.44500
H  3.12400 -8.88900 47.33100
H  6.34400 -5.65300 47.69400
H  7.50300 -5.58800 46.27400
H  6.26100 -6.70500 46.21000
H  6.96700 -1.65000 42.93600
H  7.51000 2.37700 44.26600
H  9.15800 2.13300 43.76900
H  8.72300 1.71000 45.32400
Mg 43.40100 3.83800 47.53200
C  41.48400 6.74400 47.22400
C  40.42000 1.97600 47.55800
C  45.27700 1.17100 47.27400
C  46.14600 5.90300 46.86700
N  41.17800 4.31400 47.44900
C  40.65000 5.57800 47.35300
C  39.11200 5.54300 47.30200
C  38.79500 4.08300 47.88600
C  40.17000 3.36100 47.57600
C  38.46100 4.01900 49.46700
C  38.57700 5.74500 45.90700
C  37.47400 6.80400 45.85400
H  36.85100 6.83000 44.46400
N  42.87900 1.80800 47.43900
C  41.60200 1.24600 47.45200
C  41.82200 -0.17800 47.42100
C  43.20900 -0.46100 47.15400
C  43.86800 0.85300 47.27200
C  40.64300 -1.18700 47.70400
C  43.87900 -1.76200 46.85300
O  43.31800 -2.86100 46.82400
C  45.36400 -1.92900 46.66500
N  45.38000 3.55600 47.10600
C  45.99800 2.35300 47.26400
C  47.59300 2.51400 47.32200
C  47.78900 3.92100 46.76900
C  46.31700 4.49700 47.00100
C  48.17500 2.23000 48.73600
C  48.18200 4.06300 45.26200
C  49.62200 4.67800 44.98500
N  43.82600 5.92000 47.27500
C  44.99300 6.59900 47.01200
C  44.76800 8.02400 47.06000
C  43.32700 8.11900 47.06100
C  42.86900 6.86000 47.19600
C  45.78700 9.16500 47.03700
C  42.16700 9.08700 47.09400
O  42.13900 10.33700 46.99000
C  40.90900 8.14600 47.14400
C  40.02600 8.47800 48.26800
O  40.17200 8.15500 49.44700
O  38.97700 9.15100 47.84300
C  38.02200 9.60500 48.81800
H  39.47900 1.43300 47.66700
H  45.86400 0.25000 47.26400
H  47.14000 6.34500 46.76600
H  38.77900 6.35700 47.94600
H  37.96800 3.62200 47.34500
H  38.22900 5.03300 49.79300
H  39.26300 3.57000 50.05400
H  37.57500 3.42900 49.70500
H  38.12700 4.81400 45.56200
H  39.28000 5.97600 45.10700
H  38.01800 7.72000 46.08300
H  36.70500 6.65000 46.61100
H  40.07000 -1.34200 46.78900
H  39.99200 -0.73600 48.45300
H  40.95000 -2.18500 48.01400
H  45.93900 -1.87000 47.58900
H  45.79400 -1.32600 45.86400
H  45.50400 -2.94000 46.28200
H  48.15900 1.80300 46.71900
H  48.33600 4.55800 47.46500
H  47.41000 1.66400 49.26700
H  48.37300 3.12800 49.32100
H  49.05600 1.60000 48.61900
H  47.46500 4.76000 44.82900
H  48.09200 3.09700 44.76400
H  50.07800 4.06300 44.21000
H  50.24400 4.62700 45.87900
H  49.51700 5.67700 44.56200
H  46.23000 9.17800 46.04100
H  46.52500 8.83900 47.77000
H  45.30100 10.10400 47.30100
H  40.27000 8.21600 46.26400
H  37.52800 8.81900 49.38900
H  37.25400 10.12600 48.24500
H  38.44600 10.28000 49.56200

