158

Mg -1.66800 17.28500 26.13400
C  -2.38000 15.21200 28.92800
C  -2.23900 19.99100 28.15000
C  -1.35600 19.25600 23.31900
C  -1.90100 14.42300 24.03400
N  -2.33200 17.57200 28.27400
C  -2.42400 16.59500 29.27900
C  -2.67300 17.27300 30.63700
C  -2.89400 18.81900 30.29700
C  -2.38500 18.76200 28.81100
C  -4.33300 19.38000 30.42800
C  -1.53800 17.07900 31.61900
C  -1.66400 17.93700 32.88200
H  -2.01400 17.11000 34.19000
N  -1.77100 19.32400 25.78700
C  -1.94200 20.31100 26.76300
C  -1.88500 21.63600 26.19900
C  -1.62300 21.39300 24.81500
C  -1.55200 19.95800 24.57900
C  -2.02100 22.90300 27.05000
C  -1.46300 22.47900 23.67200
O  -1.28300 22.21500 22.51000
C  -1.66800 23.84400 24.04200
N  -1.51400 16.81000 23.97300
C  -1.35100 17.83800 23.04300
C  -1.16800 17.24700 21.58300
C  -1.05700 15.69600 21.90600
C  -1.42400 15.60100 23.39700
C  -2.27800 17.59300 20.62400
C  0.33200 14.93100 21.66800
C  1.58600 15.73000 21.99000
N  -2.11000 15.25900 26.37000
C  -2.17000 14.18500 25.45400
C  -2.46800 12.93000 26.05900
C  -2.45900 13.28800 27.43100
C  -2.24000 14.69800 27.54900
C  -2.62500 11.61800 25.45200
C  -2.58000 12.75500 28.81500
O  -2.75100 11.61400 29.23000
C  -2.48900 14.05000 29.83000
C  -1.33000 13.87200 30.63400
O  -0.17300 14.14300 30.22600
O  -1.65100 13.24600 31.83200
C  -0.51800 13.28400 32.80700
H  -2.37400 20.84000 28.82400
H  -1.36600 19.79000 22.36700
H  -1.92400 13.56600 23.35800
H  -3.54800 16.80900 31.09300
H  -2.13600 19.36300 30.86100
H  -4.97700 18.67700 30.95700
H  -4.79600 19.65600 29.48000
H  -4.34200 20.27500 31.05000
H  -0.65000 17.33700 31.04200
H  -1.45900 16.05800 31.99100
H  -2.35900 18.76100 32.71900
H  -0.69400 18.39300 33.08200
H  -1.22900 23.61700 26.82500
H  -2.04800 22.78400 28.13300
H  -2.92300 23.41900 26.72000
H  -2.63600 24.00500 24.51600
H  -1.64900 24.48100 23.15700
H  -0.84000 24.15400 24.67900
H  -0.19400 17.55800 21.20300
H  -1.89400 15.16000 21.45900
H  -2.53500 18.64600 20.74300
H  -3.07300 16.86900 20.80200
H  -1.84300 17.53200 19.62600
H  0.40300 14.58200 20.63700
H  0.35600 14.03800 22.29300
H  2.10200 15.87200 21.04000
H  2.22800 15.17000 22.67000
H  1.40900 16.69800 22.45900
H  -3.48100 11.05400 25.82400
H  -1.70100 11.05100 25.55900
H  -2.79000 11.70000 24.37800
H  -3.45500 13.95500 30.32600
H  -1.05100 13.73400 33.64400
H  0.31900 13.93600 32.55500
H  -0.11700 12.31700 33.11000
Mg 40.76300 7.95300 30.08100
C  42.77000 9.29500 32.65700
C  38.41200 7.22200 32.43700
C  39.18300 6.25300 27.75500
C  43.42900 8.46500 27.91000
N  40.78300 8.05200 32.36700
C  41.55300 8.85200 33.11200
C  40.98100 9.15900 34.53700
C  39.64800 8.25500 34.53500
C  39.57000 7.71300 33.04200
C  39.53600 7.09200 35.57800
C  40.73900 10.68800 34.83100
C  39.99200 10.87400 36.15100
H  40.48200 11.91100 37.14100
N  38.98000 6.88100 30.11300
C  38.10400 6.75200 31.12400
C  36.88400 6.12600 30.63700
C  37.04700 5.99300 29.20600
C  38.40000 6.40600 28.94300
C  35.74400 5.79600 31.56500
C  36.09500 5.48000 28.14400
O  36.32700 5.55100 26.94000
C  34.77100 4.88100 28.58200
N  41.25800 7.36000 28.15800
C  40.40300 6.68800 27.36000
C  40.93800 6.46900 25.93700
C  42.21900 7.34200 25.94300
C  42.34100 7.74000 27.44900
C  41.17700 5.03100 25.40300
C  42.07800 8.51000 24.93200
C  41.28700 9.76500 25.40100
N  42.61800 8.88100 30.18000
C  43.62500 9.08900 29.22000
C  44.81100 9.63800 29.79900
C  44.49300 9.85400 31.10500
C  43.17000 9.34000 31.30800
C  46.14200 9.82700 29.16500
C  44.94300 10.46000 32.32300
O  45.95900 11.07900 32.62900
C  43.78300 10.15400 33.33000
C  44.36600 9.50200 34.61400
O  44.94200 8.41100 34.69500
O  44.15400 10.29800 35.65100
C  44.58000 9.76200 36.97900
H  37.56200 7.29700 33.11800
H  38.61500 5.85700 26.91100
H  44.25000 8.38100 27.19500
H  41.73700 8.80500 35.23700
H  38.79900 8.88100 34.80600
H  39.70600 6.18600 34.99600
H  38.54500 7.12300 36.03100
H  40.36200 7.24000 36.27300
H  40.26000 11.23400 34.01800
H  41.67300 11.11200 35.20000
H  39.77900 9.92200 36.63700
H  39.02800 11.34900 35.97000
H  36.10400 5.82500 32.59300
H  35.51500 4.75600 31.33100
H  34.92400 6.49400 31.39400
H  34.21100 4.55200 27.70600
H  34.14800 5.63400 29.06400
H  34.88000 3.99300 29.20400
H  40.26400 6.95300 25.23000
H  43.10400 6.71900 25.81400
H  40.63800 4.29200 25.99700
H  42.23300 4.83200 25.22400
H  40.82000 4.94700 24.37600
H  41.60300 8.12000 24.03100
H  43.12600 8.63600 24.66100
H  41.81700 10.68600 25.15900
H  41.15900 9.75600 26.48400
H  40.26100 9.81000 25.03700
H  46.27000 10.78300 28.65700
H  46.26300 9.09200 28.36800
H  46.91600 9.75500 29.92900
H  43.31900 11.11200 33.56300
H  43.94500 8.90400 37.19800
H  44.32400 10.50300 37.73700
H  45.63600 9.53400 37.12300

