158

Mg 1.56500 -1.78000 43.43600
C  4.75100 -0.55900 42.91700
C  0.28500 1.04700 41.69100
C  -1.51900 -3.27200 43.36000
C  2.97700 -4.83300 44.48700
N  2.44900 0.08400 42.55800
C  3.78100 0.32100 42.41200
C  4.02600 1.65800 41.64100
C  2.57700 2.26300 41.51000
C  1.68000 1.01000 41.85400
C  2.25700 3.46900 42.49300
C  4.80800 1.52800 40.36200
C  5.89300 2.61000 40.11000
H  5.67100 3.51000 38.88200
N  -0.30000 -1.21500 42.65900
C  -0.61000 -0.01300 41.99300
C  -2.00400 -0.02700 41.62600
C  -2.54800 -1.22300 42.10800
C  -1.45000 -1.99800 42.71000
C  -2.78400 0.99700 40.84900
C  -4.05200 -1.50000 41.92400
O  -4.88600 -0.79600 41.37400
C  -4.66100 -2.81300 42.41300
N  0.87800 -3.79400 43.81500
C  -0.47400 -4.05600 43.88500
C  -0.80800 -5.34600 44.62600
C  0.63500 -5.94000 44.86400
C  1.55400 -4.82700 44.31500
C  -1.61200 -5.20900 45.94700
C  0.83300 -7.40000 44.27100
C  0.61100 -8.52100 45.34000
N  3.46600 -2.56300 43.79700
C  3.93200 -3.76700 44.27200
C  5.33500 -3.71700 44.45900
C  5.72900 -2.49400 43.94000
C  4.52900 -1.85000 43.54600
C  6.24500 -4.79600 44.99400
C  6.84900 -1.65000 43.56600
O  8.01800 -1.85000 43.65900
C  6.25100 -0.39600 42.89100
C  6.63300 0.78800 43.70700
O  6.20800 1.01100 44.84100
O  7.61000 1.52600 43.05300
C  8.22800 2.62800 43.70600
H  -0.10800 1.94600 41.21200
H  -2.56800 -3.50500 43.55200
H  3.43600 -5.69600 44.97300
H  4.64700 2.28600 42.28000
H  2.34200 2.67600 40.52900
H  3.20700 3.63500 43.00200
H  1.51100 3.17800 43.23200
H  1.95000 4.33600 41.90600
H  4.06500 1.80400 39.61400
H  5.08500 0.47700 40.27600
H  6.77200 2.00300 39.89200
H  5.99600 3.26300 40.97700
H  -3.17800 0.36900 40.05000
H  -2.18500 1.81900 40.45800
H  -3.63300 1.36900 41.42300
H  -4.12300 -3.66300 41.99300
H  -5.55100 -2.94900 41.79800
H  -4.75600 -2.85700 43.49800
H  -1.38500 -5.90800 43.89100
H  0.79600 -5.95000 45.94200
H  -0.88300 -4.89000 46.69200
H  -2.00600 -6.14400 46.34400
H  -2.38500 -4.44700 45.84100
H  1.78600 -7.70900 43.84300
H  0.02100 -7.56100 43.56200
H  -0.30600 -8.29200 45.88300
H  1.50300 -8.50200 45.96600
H  0.64400 -9.50100 44.86300
H  5.96700 -5.81200 44.71300
H  6.24300 -4.53800 46.05300
H  7.29500 -4.63300 44.74800
H  6.70500 -0.33300 41.90200
H  8.60400 2.00900 44.52000
H  7.45900 3.29900 44.08800
H  8.98900 3.21900 43.19800
Mg -2.40400 34.22200 27.74500
C  -4.20300 32.37600 30.02300
C  -0.86100 35.84500 30.38500
C  -0.90500 36.12300 25.45800
C  -4.29400 32.74800 25.14500
N  -2.61700 34.21500 29.94200
C  -3.34500 33.32300 30.63800
C  -2.96900 33.24700 32.10200
C  -2.01700 34.47500 32.20800
C  -1.84900 34.92700 30.72800
C  -2.49000 35.63900 33.06600
C  -2.36200 31.89100 32.68800
C  -3.08400 31.13900 33.91800
H  -2.32100 31.18300 35.27600
N  -1.09200 35.73200 27.87500
C  -0.53600 36.28500 29.06300
C  0.36600 37.36700 28.70800
C  0.37600 37.40200 27.30400
C  -0.56300 36.40500 26.79900
C  1.13300 38.13900 29.80400
C  1.27900 38.26000 26.43000
O  1.26200 38.12500 25.23600
C  2.23000 39.08400 27.04500
N  -2.74500 34.44100 25.67300
C  -1.98000 35.35200 24.95200
C  -2.28400 35.31500 23.45000
C  -3.30500 34.14100 23.33600
C  -3.45800 33.75600 24.80300
C  -2.88200 36.67600 22.96200
C  -2.90000 32.96200 22.37900
C  -1.98400 31.86300 22.84600
N  -3.92300 32.85000 27.61900
C  -4.52700 32.26600 26.48800
C  -5.39100 31.14000 26.94300
C  -5.34100 31.16100 28.35700
C  -4.45200 32.31900 28.66600
C  -6.22300 30.19800 26.04900
C  -5.66900 30.55300 29.62400
O  -6.33600 29.53200 29.92300
C  -5.04500 31.34400 30.72000
C  -6.09200 31.83800 31.66300
O  -6.81600 32.75600 31.49200
O  -6.19000 30.98800 32.79000
C  -7.21600 31.36300 33.72400
H  -0.41400 36.37800 31.22700
H  -0.53600 36.74700 24.64100
H  -4.78000 32.18200 24.34700
H  -3.94500 33.47300 32.53300
H  -1.05000 34.11100 32.55700
H  -1.74100 36.30300 33.49800
H  -3.02200 35.18700 33.90200
H  -3.15500 36.26100 32.46700
H  -1.36300 32.16800 33.02400
H  -2.25500 31.09900 31.94700
H  -3.17500 30.11100 33.56900
H  -4.04300 31.61500 34.12400
H  2.16100 37.78600 29.72800
H  0.80800 38.05500 30.84100
H  0.99300 39.16800 29.47200
H  2.74000 38.57600 27.86400
H  1.86400 40.01500 27.47900
H  3.04000 39.14200 26.31800
H  -1.38800 35.14400 22.85400
H  -4.26400 34.50500 22.96700
H  -2.59600 37.49800 23.61800
H  -3.97100 36.64400 23.01100
H  -2.51400 36.90500 21.96200
H  -2.39100 33.47300 21.56200
H  -3.77600 32.53000 21.89600
H  -1.14400 31.60700 22.19900
H  -2.53000 30.92100 22.88100
H  -1.53100 32.05900 23.81700
H  -5.74700 30.00500 25.08700
H  -7.22700 30.52000 25.77300
H  -6.31200 29.24100 26.56300
H  -4.44800 30.71700 31.38200
H  -8.01500 31.88300 33.19700
H  -6.79800 31.91600 34.56600
H  -7.68500 30.50900 34.21300

