158

Mg 7.55400 2.95000 27.66800
C  9.15200 1.94000 30.68900
C  5.46500 4.78700 29.82100
C  6.48400 4.48000 24.95300
C  9.68700 0.88400 25.83900
N  7.46200 3.37600 29.99100
C  8.20600 2.82800 30.96200
C  8.01300 3.51100 32.30000
C  6.63400 4.31300 32.05000
C  6.44900 4.07800 30.53200
C  5.47100 3.74400 33.00100
C  9.16100 4.46500 32.67200
C  9.10000 5.05500 34.07200
H  9.93900 4.49700 35.29900
N  6.03500 4.32800 27.35200
C  5.27900 4.91300 28.37600
C  4.30000 5.91600 27.70900
C  4.61800 5.84100 26.33100
C  5.70900 4.89700 26.11900
C  3.31300 6.76600 28.53900
C  4.00000 6.68000 25.26000
O  4.31800 6.57700 24.05800
C  3.07100 7.84200 25.57600
N  7.89500 2.60800 25.71600
C  7.38500 3.43500 24.77400
C  7.95100 3.06800 23.33300
C  9.05200 1.99000 23.65000
C  8.89600 1.82400 25.12300
C  6.79500 2.57000 22.42500
C  10.48200 2.24800 23.11700
C  10.94200 1.59300 21.83700
N  8.96100 1.50000 28.12300
C  9.75800 0.77100 27.24500
C  10.64700 -0.10300 28.03100
C  10.47000 0.44800 29.39900
C  9.48300 1.39200 29.35400
C  11.64300 -1.09800 27.46700
C  10.95700 0.33100 30.77700
O  11.84300 -0.47000 31.17200
C  10.09000 1.23600 31.64600
C  9.25300 0.36800 32.61100
O  8.22600 -0.23400 32.37100
O  9.83200 0.37200 33.83100
C  9.18200 -0.19600 35.01400
H  4.92000 5.43600 30.51000
H  6.16600 5.02700 24.06300
H  10.34700 0.24500 25.24900
H  7.96100 2.79100 33.11700
H  6.84700 5.32400 32.39600
H  4.53700 3.76500 32.43900
H  5.36500 4.46600 33.81100
H  5.70100 2.75000 33.38300
H  9.19300 5.29000 31.96100
H  10.05100 3.83900 32.61600
H  8.11100 4.88600 34.49600
H  9.25500 6.12400 33.92300
H  3.16200 6.32400 29.52400
H  2.34700 6.60200 28.06100
H  3.53900 7.83200 28.54800
H  2.57500 8.15800 24.65900
H  3.68400 8.59400 26.07400
H  2.27000 7.50000 26.23100
H  8.38800 3.97600 22.91800
H  8.72700 1.03400 23.24000
H  5.81000 2.54900 22.89100
H  6.94000 1.61600 21.91800
H  6.69700 3.30100 21.62100
H  11.20100 1.98700 23.89300
H  10.62800 3.30700 22.90300
H  10.18100 0.98700 21.34500
H  11.75700 0.90000 22.04500
H  11.27600 2.41600 21.20500
H  11.51900 -2.02900 28.02000
H  12.62200 -0.65200 27.63800
H  11.50100 -1.39200 26.42700
H  10.66900 2.00000 32.16300
H  9.78500 0.30600 35.77100
H  9.20600 -1.27400 35.17000
H  8.15800 0.17300 35.06300
Mg 54.21400 24.79600 45.46000
C  51.52700 26.96900 44.66700
C  52.03900 22.10800 44.63400
C  56.76100 22.83000 45.54900
C  56.07300 27.49300 46.18100
N  52.08300 24.70600 44.61800
C  51.17700 25.64300 44.45000
C  49.86200 25.10200 43.84600
C  49.94300 23.60100 44.37100
C  51.43800 23.46500 44.56100
C  49.05800 23.36400 45.68400
C  49.72200 25.11800 42.33600
C  48.33700 25.03300 41.73400
H  48.13900 24.31500 40.38700
N  54.40800 22.73500 45.08200
C  53.41300 21.83300 44.85000
C  53.95100 20.53700 44.89500
C  55.36500 20.62600 45.12000
C  55.63600 22.08700 45.30800
C  53.09600 19.27400 44.75900
C  56.27400 19.46700 45.08300
O  55.77800 18.32100 45.05600
C  57.70900 19.62600 45.12000
N  56.15200 25.13200 45.77400
C  57.04900 24.14700 45.75700
C  58.47900 24.65500 46.00300
C  58.28100 26.19600 46.31100
C  56.73500 26.32900 46.10900
C  59.26900 23.98300 47.09400
C  59.06400 27.17200 45.37800
C  59.66100 28.38600 46.15100
N  53.90000 26.81800 45.47000
C  54.77500 27.80800 45.83600
C  54.05200 29.11000 45.83000
C  52.81900 28.75400 45.34600
C  52.76800 27.39200 45.09000
C  54.47900 30.43200 46.39900
C  51.60500 29.43200 45.09900
O  51.32300 30.58900 45.11800
C  50.67800 28.23700 44.61000
C  50.16100 28.57000 43.26700
O  50.82000 28.77700 42.22900
O  48.78600 28.71000 43.26800
C  48.22800 28.93500 41.93100
H  51.23400 21.37100 44.62300
H  57.65000 22.20100 45.63400
H  56.65200 28.38400 46.43000
H  48.93500 25.56900 44.17800
H  49.50200 22.91500 43.64800
H  49.72100 23.16000 46.52400
H  48.32900 22.56000 45.58300
H  48.60000 24.29200 46.02800
H  50.30200 24.23500 42.06600
H  50.36000 25.88900 41.90500
H  48.18500 26.09000 41.51400
H  47.65500 24.64700 42.49200
H  53.27300 18.51500 45.52200
H  53.20200 18.90500 43.73900
H  52.11000 19.54000 45.13900
H  58.06300 18.65900 44.76200
H  58.04200 19.87200 46.12800
H  58.00700 20.34900 44.36100
H  59.12900 24.50500 45.14200
H  58.61400 26.34000 47.33900
H  59.52100 24.60600 47.95300
H  60.06600 23.35700 46.69200
H  58.65900 23.18800 47.52200
H  58.49800 27.50600 44.50900
H  59.91200 26.63700 44.95100
H  60.71900 28.29400 46.39600
H  59.09400 28.62800 47.04900
H  59.54800 29.29000 45.55200
H  54.25100 30.40000 47.46400
H  54.01200 31.32100 45.97300
H  55.56000 30.47900 46.27200
H  49.86100 28.12600 45.32400
H  47.38800 28.24100 41.88600
H  48.81400 28.86900 41.01500
H  47.88400 29.97000 41.94100

