158

Mg 45.96400 44.37300 43.33800
C  42.54300 43.52000 42.92600
C  46.75200 41.04200 42.51800
C  49.19100 45.24800 43.16100
C  44.96700 47.78700 43.23700
N  44.75000 42.47600 42.87900
C  43.40500 42.40400 42.72900
C  42.95600 41.01000 42.35600
C  44.31300 40.19600 42.52400
C  45.39500 41.34400 42.66800
C  44.35400 39.18700 43.75000
C  42.42200 40.85400 40.92400
C  42.97800 41.91500 39.86300
H  42.60100 41.69200 38.33000
N  47.75800 43.19100 42.96800
C  47.87300 41.85200 42.68600
C  49.23300 41.50100 42.63600
C  50.02800 42.72700 42.76700
C  49.03400 43.80900 42.95700
C  49.70500 40.06900 42.25500
C  51.52300 42.80500 42.65000
O  52.14400 41.76400 42.41700
C  52.29600 44.02100 42.59700
N  46.94300 46.27900 42.98200
C  48.26000 46.29900 43.28400
C  48.71000 47.76100 43.24400
C  47.45500 48.55300 43.49900
C  46.35000 47.49200 43.22400
C  49.88700 48.07100 44.21500
C  47.32700 49.91200 42.70400
C  47.77100 51.19600 43.38400
N  44.19600 45.44400 43.30000
C  43.98400 46.77100 43.17200
C  42.54800 47.04100 43.07900
C  41.96700 45.78900 43.07200
C  43.01000 44.77800 43.10600
C  41.87000 48.35500 42.96000
C  40.69000 45.09800 43.04100
O  39.54200 45.53400 42.99200
C  41.00200 43.61900 42.93600
C  40.53600 42.90900 44.13700
O  39.84300 41.90800 44.23900
O  40.89500 43.58200 45.26100
C  40.46100 43.07800 46.61700
H  46.92400 39.96600 42.44200
H  50.21600 45.62600 43.16400
H  44.56200 48.80100 43.24600
H  42.25500 40.59900 43.08200
H  44.60300 39.66200 41.61900
H  44.92700 38.29100 43.51000
H  43.31900 38.91300 43.95800
H  44.75000 39.66100 44.64700
H  41.34400 41.01300 40.88600
H  42.69900 39.92500 40.42500
H  44.04600 42.10600 39.96500
H  42.59500 42.87100 40.21900
H  50.41300 39.98800 41.43100
H  48.89600 39.37700 42.01800
H  50.25700 39.74300 43.13700
H  51.84500 44.76800 41.94400
H  53.31200 43.76700 42.29500
H  52.37800 44.31100 43.64500
H  49.07100 47.90700 42.22600
H  47.30000 48.67800 44.57100
H  50.79100 48.03600 43.60700
H  49.95300 47.27800 44.96100
H  49.80500 49.03000 44.72700
H  46.27900 50.09600 42.47000
H  47.94500 49.85900 41.80800
H  46.91200 51.85300 43.24800
H  48.69000 51.64700 43.00800
H  47.98100 50.96800 44.42900
H  42.18800 49.20200 43.56900
H  40.81600 48.28400 43.22900
H  41.76700 48.75900 41.95300
H  40.47200 43.17700 42.09100
H  41.10300 42.25400 46.93000
H  39.40800 42.79600 46.59700
H  40.62300 43.87800 47.33900
Mg 47.03600 34.57700 27.90400
C  45.23800 32.59800 30.34600
C  47.15300 37.08500 30.33500
C  48.05900 36.75000 25.50300
C  46.18000 32.19600 25.49700
N  46.36800 34.75900 30.10200
C  45.74800 33.80300 30.89300
C  45.86200 34.34500 32.37200
C  45.95600 35.88900 32.20900
C  46.51300 35.93000 30.81000
C  44.54600 36.63100 32.41400
C  47.16000 33.75200 33.04700
C  47.08000 33.46500 34.58900
H  46.01800 34.28900 35.39600
N  47.54300 36.59700 27.93200
C  47.60200 37.40200 29.00500
C  48.21800 38.61100 28.63500
C  48.64200 38.48700 27.28900
C  48.10000 37.21100 26.83600
C  48.43400 39.76900 29.58900
C  49.37400 39.51600 26.29700
O  49.76200 39.30000 25.17200
C  49.71800 40.86100 26.77000
N  47.04100 34.49300 25.71400
C  47.48800 35.52500 25.00000
C  47.40800 35.09500 23.49400
C  47.19500 33.56100 23.55900
C  46.69500 33.39300 24.99400
C  46.33700 35.81700 22.62700
C  48.55000 32.78600 23.39900
C  48.48700 31.66200 22.33900
N  46.14300 32.71600 27.94200
C  45.84400 31.89600 26.85200
C  45.24100 30.60300 27.38100
C  44.97300 30.91200 28.72700
C  45.48600 32.23700 29.03400
C  44.83600 29.30800 26.60100
C  44.38000 30.39200 29.87100
O  43.98800 29.22400 30.11300
C  44.45500 31.41300 30.95900
C  44.74500 30.95100 32.34500
O  45.88800 30.63100 32.65300
O  43.62400 31.10900 33.12500
C  43.86900 30.79800 34.56200
H  47.29000 37.84100 31.11100
H  48.41100 37.44800 24.74100
H  46.10900 31.44200 24.71000
H  44.90100 34.07900 32.81200
H  46.72000 36.23200 32.90600
H  44.56700 37.32300 33.25500
H  43.77700 35.86500 32.51800
H  44.41400 37.21700 31.50500
H  47.96400 34.47500 32.90200
H  47.29700 32.80400 32.52700
H  48.05200 33.64600 35.04600
H  46.92700 32.40300 34.77700
H  48.37400 39.40800 30.61500
H  47.53300 40.36800 29.45400
H  49.28200 40.45200 29.53000
H  50.56100 40.77700 27.45600
H  48.90500 41.32400 27.32900
H  50.03000 41.62800 26.06100
H  48.39200 35.34300 23.09700
H  46.42700 33.20000 22.87500
H  45.69200 36.35700 23.32000
H  45.79800 35.09700 22.01200
H  46.84100 36.53300 21.97700
H  48.86300 32.29000 24.31800
H  49.36000 33.47500 23.15900
H  49.39100 31.54900 21.73900
H  47.56200 31.64400 21.76300
H  48.45200 30.81700 23.02600
H  45.61100 29.10400 25.86200
H  43.94600 29.34500 25.97300
H  44.75700 28.52700 27.35800
H  43.42100 31.75500 30.99300
H  43.01700 30.32600 35.05300
H  44.10700 31.76300 35.00800
H  44.69500 30.08900 34.62000

