158

Mg 25.45100 1.82600 29.44500
C  27.56500 1.90200 32.29400
C  22.74800 1.79400 31.66700
C  23.52500 1.86000 26.86300
C  28.23500 1.06800 27.50700
N  25.19800 1.94200 31.70600
C  26.19500 2.11900 32.65700
C  25.58600 2.49000 34.03100
C  24.03800 2.28700 33.80400
C  23.97900 2.01200 32.27500
C  23.36400 1.08700 34.61600
C  26.06000 3.79900 34.66300
C  26.48500 3.66500 36.20800
H  25.74000 4.61600 37.21700
N  23.41500 1.84800 29.28500
C  22.46800 1.79800 30.27000
C  21.13400 1.72200 29.69100
C  21.33900 1.79700 28.28100
C  22.79200 1.84100 28.08800
C  19.86900 1.60800 30.41300
C  20.27400 1.81900 27.19000
O  20.59700 1.86700 26.02900
C  18.77300 1.85600 27.50900
N  25.84600 1.42100 27.47600
C  24.82500 1.53800 26.53500
C  25.44800 1.59200 25.12600
C  26.98800 1.33400 25.31800
C  27.03300 1.29700 26.84300
C  24.70200 0.54400 24.16400
C  27.80800 2.53300 24.72000
C  29.18700 2.20600 24.21200
N  27.43700 1.50200 29.79200
C  28.48900 1.17900 28.90200
C  29.70000 1.12300 29.57600
C  29.39700 1.39900 30.88500
C  28.02400 1.57800 31.01000
C  31.07800 0.64500 29.04400
C  30.02000 1.54600 32.18300
O  31.19600 1.47500 32.51800
C  28.89700 2.01200 33.17300
C  28.88000 1.09900 34.34700
O  28.18300 0.15100 34.57400
O  29.69600 1.75500 35.23100
C  29.93000 1.16200 36.60500
H  21.94000 1.96400 32.38200
H  22.81300 2.07800 26.06500
H  29.16000 0.85500 26.96700
H  26.00000 1.73900 34.70400
H  23.57200 3.22700 34.09600
H  22.39300 0.84500 34.18400
H  23.25300 1.51000 35.61500
H  24.00300 0.20500 34.57300
H  25.18300 4.44400 34.71000
H  26.87700 4.19500 34.06100
H  27.56300 3.77200 36.09200
H  26.23700 2.65500 36.53700
H  19.06000 2.27800 30.12200
H  20.10500 1.93200 31.42600
H  19.55100 0.57400 30.27600
H  18.28200 1.67600 26.55300
H  18.49900 2.83400 27.90700
H  18.63600 0.98500 28.14900
H  25.40100 2.61600 24.75600
H  27.34500 0.37000 24.95400
H  23.95200 0.99100 23.51200
H  24.16200 -0.19800 24.75300
H  25.49700 0.11000 23.55700
H  27.80000 3.20500 25.57800
H  27.34600 3.01400 23.85800
H  29.81900 3.00900 24.59200
H  29.20600 2.10800 23.12700
H  29.61900 1.25400 24.52300
H  30.99900 -0.14600 28.29900
H  31.59500 0.17300 29.87900
H  31.64500 1.49400 28.66000
H  29.05900 3.03800 33.50300
H  29.01000 1.00600 37.16700
H  30.67200 1.76000 37.13400
H  30.30200 0.13800 36.59800
Mg 46.90700 16.79400 28.37600
C  44.88000 16.25400 31.16600
C  49.06200 18.50800 30.29700
C  48.58000 17.59200 25.58400
C  44.54600 15.08900 26.43900
N  46.94800 17.34800 30.46100
C  46.09600 16.90200 31.45100
C  46.52900 17.43100 32.81200
C  47.83900 18.13400 32.43300
C  47.97500 17.96400 30.99000
C  48.05800 19.57700 32.90100
C  46.71200 16.25200 33.85700
C  46.24800 16.63900 35.25600
H  46.09300 18.14600 35.67900
N  48.56000 17.93100 27.91100
C  49.36500 18.47200 28.91800
C  50.50900 19.14200 28.27000
C  50.40500 18.90900 26.88700
C  49.13000 18.13800 26.71300
C  51.57700 19.92700 29.05800
C  51.19400 19.41100 25.68700
O  50.85200 19.39400 24.49400
C  52.47600 20.17900 25.99500
N  46.49500 16.55500 26.31100
C  47.39600 16.91000 25.36600
C  46.97100 16.30000 23.93700
C  45.50700 15.70300 24.31300
C  45.57700 15.67400 25.81600
C  46.82900 17.38600 22.84700
C  45.31800 14.23700 23.66500
C  46.14800 13.01200 24.23200
N  45.13900 15.76900 28.69700
C  44.23400 15.20800 27.78300
C  43.09400 14.78200 28.56200
C  43.32400 15.10200 29.88600
C  44.52900 15.79600 29.89900
C  41.89400 14.10600 27.97800
C  42.74300 15.13800 31.18800
O  41.62100 14.90900 31.53000
C  43.77200 15.88300 32.11900
C  43.07400 17.03000 32.76000
O  42.91900 18.13800 32.31200
O  42.46400 16.61700 33.91700
C  41.66100 17.64400 34.67400
H  49.83200 18.95800 30.92700
H  49.16100 17.76900 24.67600
H  43.78900 14.57900 25.84000
H  45.73500 18.13800 33.05700
H  48.75300 17.69400 32.83200
H  48.00000 20.22400 32.02600
H  48.98200 19.74100 33.45600
H  47.19200 19.82600 33.51500
H  47.78500 16.08700 33.94500
H  46.38600 15.24800 33.58500
H  46.89400 16.25000 36.04300
H  45.23600 16.25700 35.39000
H  51.61100 20.99800 28.85600
H  52.52300 19.49400 28.73200
H  51.54100 19.84800 30.14500
H  52.23700 21.17900 26.35800
H  52.94500 20.38300 25.03300
H  53.12500 19.52600 26.57800
H  47.67500 15.49500 23.72700
H  44.63200 16.32200 24.11700
H  47.57100 18.16600 23.01600
H  45.84400 17.82900 22.69700
H  47.14300 17.06500 21.85400
H  45.68800 14.33300 22.64500
H  44.27100 13.96600 23.52800
H  46.85300 13.34000 24.99600
H  46.73400 12.70200 23.36700
H  45.50700 12.19300 24.55900
H  41.94200 14.42100 26.93500
H  41.01500 14.55900 28.43600
H  41.86900 13.02300 28.09900
H  44.14700 15.15000 32.83300
H  40.77100 17.90300 34.10100
H  42.19200 18.58600 34.80900
H  41.42700 17.23000 35.65500

