158

Mg 54.59300 24.96900 45.44400
C  52.03200 26.84600 43.88700
C  53.37800 22.14900 43.91300
C  57.73500 23.53400 45.60900
C  55.99500 28.05600 46.38000
N  53.01900 24.59200 43.95100
C  52.04000 25.49300 43.50800
C  51.02900 24.71900 42.62500
C  51.21500 23.29300 43.09800
C  52.64300 23.33100 43.66400
C  50.13700 22.75000 44.17600
C  51.41700 24.94800 41.12500
C  50.32100 25.07600 40.01500
H  50.79800 25.80700 38.79500
N  55.34400 23.03900 45.15500
C  54.67600 21.99100 44.52800
C  55.38300 20.81500 44.59000
C  56.74600 21.21200 44.91900
C  56.65900 22.62700 45.27400
C  54.90500 19.51100 44.13700
C  57.97900 20.23300 44.68200
O  57.74800 19.03400 44.34000
C  59.43400 20.69800 44.89000
N  56.64100 25.74600 45.68200
C  57.74000 24.93500 45.73300
C  58.99000 25.79300 46.18200
C  58.34600 27.15600 46.69000
C  56.91500 27.03100 46.14300
C  59.89200 25.13400 47.34100
C  59.21800 28.35000 46.23900
C  59.41100 29.46900 47.32800
N  54.11400 27.00700 45.27500
C  54.71300 28.10800 45.86100
C  53.84900 29.24000 45.75000
C  52.73700 28.77500 45.06800
C  53.07900 27.49700 44.67200
C  54.14000 30.60200 46.27200
C  51.40300 29.18100 44.57800
O  50.77000 30.19300 44.79100
C  50.97100 27.92000 43.76300
C  50.57000 28.39200 42.42400
O  51.37500 28.65800 41.57200
O  49.18800 28.29600 42.23600
C  48.74500 28.46400 40.88900
H  52.88000 21.25100 43.54100
H  58.73900 23.10500 45.61800
H  56.37000 28.99000 46.80400
H  49.99900 25.04800 42.77000
H  51.19800 22.54200 42.30800
H  49.46500 22.02100 43.72300
H  49.44300 23.57700 44.32700
H  50.54800 22.36200 45.10800
H  51.93400 24.03800 40.82100
H  52.18100 25.72500 41.14200
H  49.37200 25.53200 40.29900
H  49.96200 24.11600 39.64200
H  55.11100 19.20600 43.11100
H  53.83000 19.34400 44.21400
H  55.41900 18.73500 44.70500
H  59.64100 20.97100 45.92500
H  59.47700 21.63400 44.33400
H  60.13700 20.09200 44.31900
H  59.61400 25.95600 45.30300
H  58.27400 27.18400 47.77700
H  59.16400 24.56500 47.91900
H  60.33800 25.92200 47.94800
H  60.72600 24.57000 46.92300
H  58.66600 28.79300 45.41100
H  60.23500 28.03300 46.00600
H  58.84100 30.39100 47.20700
H  60.44100 29.79300 47.18300
H  59.13800 29.12200 48.32400
H  54.39600 31.23500 45.42200
H  54.96700 30.72100 46.97200
H  53.21700 31.03100 46.66100
H  50.01900 27.67100 44.23300
H  47.76500 27.98900 40.86200
H  49.38200 27.84600 40.25500
H  48.72500 29.50900 40.58100
Mg -3.58800 35.59400 26.74200
C  -4.87500 33.45900 29.31700
C  -2.40900 37.58700 29.30100
C  -2.50100 37.61700 24.38900
C  -5.39600 33.83400 24.42600
N  -3.50000 35.33300 29.09400
C  -4.09900 34.39700 29.89600
C  -3.78100 34.65900 31.37000
C  -3.10700 36.08500 31.37700
C  -2.96200 36.40600 29.83400
C  -3.82900 37.23400 32.16300
C  -3.04900 33.48500 32.11600
C  -3.61400 32.86100 33.40600
H  -2.63700 32.64000 34.62200
N  -2.44000 37.23200 26.84500
C  -2.08500 37.95500 27.94200
C  -1.24300 39.10800 27.55200
C  -1.07800 39.06200 26.11500
C  -1.94500 37.91200 25.72400
C  -0.64300 40.13500 28.59000
C  -0.34500 39.87300 25.15200
O  -0.24900 39.68700 23.97600
C  0.15500 41.12200 25.70900
N  -3.94300 35.73300 24.68900
C  -3.38100 36.65000 23.91800
C  -3.62200 36.33300 22.42600
C  -4.66000 35.18900 22.46000
C  -4.71100 34.93500 23.97300
C  -4.11200 37.59900 21.68500
C  -4.37300 33.92100 21.56700
C  -3.42900 32.78500 22.14400
N  -4.90200 34.00800 26.77100
C  -5.52100 33.31000 25.73300
C  -6.14000 32.04600 26.24200
C  -5.92300 32.09700 27.65600
C  -5.20100 33.31800 27.93300
C  -6.76800 31.02400 25.39500
C  -6.20300 31.37300 28.92700
O  -6.76300 30.29900 29.12300
C  -5.53200 32.24300 30.05700
C  -6.70200 32.69500 30.91000
O  -7.54800 33.45400 30.51600
O  -6.61900 32.21000 32.23600
C  -7.74300 32.43700 33.11700
H  -2.06400 38.31600 30.03700
H  -2.16600 38.42200 23.73100
H  -6.00400 33.34600 23.66200
H  -4.78200 34.64600 31.80200
H  -2.07800 36.01800 31.73100
H  -3.34200 37.38200 33.12700
H  -4.83200 36.89200 32.41800
H  -3.96400 38.19100 31.65900
H  -2.07600 33.86700 32.42300
H  -2.98100 32.62300 31.45300
H  -3.78000 31.82900 33.09800
H  -4.56900 33.36200 33.56500
H  -0.76500 39.98000 29.66200
H  -0.87400 41.17300 28.34900
H  0.44300 40.07400 28.52300
H  -0.63300 41.75600 26.11500
H  0.78600 41.59200 24.95500
H  0.94700 40.93200 26.43400
H  -2.65900 36.20400 21.93200
H  -5.67100 35.49900 22.19500
H  -4.94800 37.35800 21.02900
H  -3.46300 38.17500 21.02500
H  -4.31500 38.35000 22.44900
H  -3.99500 34.27100 20.60600
H  -5.35400 33.54000 21.28300
H  -2.93400 33.19700 23.02500
H  -2.71100 32.66500 21.33200
H  -4.04600 31.89700 22.27900
H  -5.90600 30.70700 24.80900
H  -7.52900 31.44600 24.73800
H  -6.90400 30.10400 25.96400
H  -4.89800 31.63600 30.70300
H  -8.09100 31.45500 33.43800
H  -8.54500 32.94300 32.58100
H  -7.34700 33.05900 33.92000

