158

Mg 17.08400 -1.76400 27.82300
C  15.88000 0.20800 30.47500
C  19.14000 -3.39800 29.91400
C  18.56600 -3.16400 25.09000
C  15.28300 0.38000 25.57100
N  17.63400 -1.48000 29.90400
C  16.90100 -0.66200 30.83200
C  17.30300 -1.01200 32.20900
C  18.50700 -2.04400 32.00000
C  18.48000 -2.28700 30.50800
C  19.89900 -1.55900 32.55400
C  16.17400 -1.60700 33.10500
C  15.91700 -0.87300 34.45100
H  17.14400 -0.18400 35.14900
N  18.48000 -3.22500 27.53700
C  19.22600 -3.78700 28.53900
C  20.00100 -4.87700 27.96300
C  19.82000 -4.90100 26.57500
C  18.96300 -3.68200 26.34800
C  20.91700 -5.68900 28.73100
C  20.40600 -5.81500 25.47700
O  20.28200 -5.57300 24.23300
C  21.26800 -6.96000 25.84100
N  17.11900 -1.25500 25.67100
C  17.74900 -2.07600 24.78800
C  17.40600 -1.67900 23.33900
C  16.31800 -0.59800 23.55000
C  16.20600 -0.50000 25.03900
C  18.67900 -1.23100 22.58700
C  14.99200 -0.95000 22.78100
C  13.92700 -1.90000 23.50700
N  15.80700 -0.12900 27.94500
C  15.01800 0.60400 26.95300
C  14.19100 1.53400 27.71400
C  14.47400 1.38800 29.01300
C  15.46500 0.38200 29.13400
C  13.21100 2.41200 27.04800
C  13.98800 1.88400 30.25600
O  13.17900 2.73100 30.54200
C  14.87600 1.12600 31.32700
C  15.59200 2.14800 32.17400
O  16.75700 2.37200 31.99500
O  14.80300 2.60700 33.18000
C  15.32600 3.50000 34.17600
H  19.47500 -4.12400 30.65800
H  18.96700 -3.70000 24.22700
H  14.80300 0.95400 24.77500
H  17.66700 -0.11200 32.70400
H  18.22500 -2.96400 32.51300
H  19.93300 -0.52400 32.21400
H  20.76000 -2.00100 32.05100
H  19.98400 -1.69600 33.63200
H  16.33000 -2.64900 33.38400
H  15.30600 -1.57400 32.44700
H  15.55200 -1.65300 35.12000
H  15.18300 -0.07800 34.31800
H  21.06500 -5.33300 29.75100
H  21.91400 -5.70600 28.29200
H  20.60800 -6.73300 28.78300
H  21.49700 -7.47200 24.90700
H  20.68600 -7.58200 26.52100
H  22.18400 -6.53900 26.25500
H  16.91300 -2.51400 22.84000
H  16.54900 0.30600 22.98600
H  19.28500 -0.61400 23.25100
H  18.37200 -0.61700 21.74100
H  19.34800 -2.06000 22.35600
H  15.21700 -1.37100 21.80000
H  14.52300 -0.04100 22.40500
H  13.09200 -1.35500 23.94800
H  14.37400 -2.60900 24.20400
H  13.59300 -2.38800 22.59100
H  12.70000 1.91900 26.22100
H  13.83700 3.22500 26.68000
H  12.51900 2.76300 27.81400
H  14.22600 0.48000 31.91800
H  16.35800 3.23800 34.40800
H  14.70200 3.33400 35.05500
H  15.34200 4.52100 33.79500
Mg 36.31600 49.74200 24.92000
C  36.65100 48.05500 28.01800
C  35.00200 52.30200 26.75000
C  35.56700 51.18000 22.02400
C  37.32600 46.87300 23.34300
N  35.78700 50.11900 27.13900
C  36.14000 49.32700 28.19900
C  35.83900 49.96200 29.55200
C  35.02700 51.22900 29.11000
C  35.25700 51.24800 27.58100
C  33.56200 51.18500 29.46800
C  37.04300 50.27600 30.49800
C  36.83800 50.03200 32.00800
H  35.43800 50.24400 32.58300
N  35.57800 51.52500 24.42900
C  35.07200 52.43600 25.34000
C  34.74400 53.64600 24.65600
C  34.94300 53.37800 23.21900
C  35.33300 51.96700 23.17900
C  33.99100 54.85000 25.28500
C  34.60700 54.23500 22.02800
O  34.68100 53.89400 20.84300
C  34.34900 55.71800 22.19500
N  36.29700 49.11700 22.97300
C  35.98900 49.91500 21.91800
C  36.21200 49.22800 20.52700
C  37.10800 47.97700 21.00000
C  36.99200 48.02100 22.54700
C  34.87800 48.89600 19.90400
C  38.49900 48.03600 20.33000
C  39.81500 48.01800 21.21900
N  36.94400 47.82800 25.50700
C  37.30600 46.76100 24.73500
C  37.68500 45.60700 25.52600
C  37.43600 46.08200 26.83900
C  36.92300 47.44300 26.78000
C  38.15100 44.35300 25.08900
C  37.31000 45.66100 28.22400
O  37.64700 44.59100 28.69200
C  36.89300 46.94000 28.93900
C  35.73300 46.56800 29.85400
O  34.55800 46.43100 29.54400
O  36.24900 46.18500 31.08300
C  35.23900 45.45700 31.97100
H  34.55900 53.17100 27.24200
H  35.35300 51.71500 21.09600
H  37.62700 45.91200 22.92100
H  35.20800 49.25200 30.08800
H  35.46600 52.16900 29.44400
H  33.16100 50.22800 29.80000
H  32.94100 51.61300 28.68000
H  33.35900 51.82600 30.32600
H  37.32900 51.31900 30.36000
H  37.83200 49.62500 30.12300
H  37.51600 50.75100 32.46700
H  37.22800 49.04900 32.27100
H  34.43200 55.80100 24.98500
H  33.94200 54.92600 26.37100
H  32.95900 54.68300 24.97900
H  34.33000 56.17500 21.20500
H  35.05500 56.29900 22.78900
H  33.37100 55.77800 22.67200
H  36.75300 49.92900 19.89100
H  36.55800 47.07100 20.74400
H  34.86500 49.21800 18.86300
H  34.08900 49.46300 20.39800
H  34.63700 47.83600 19.82500
H  38.47800 48.84300 19.59700
H  38.52700 47.09800 19.77500
H  40.37900 47.18600 20.79800
H  39.59400 47.91700 22.28200
H  40.37200 48.94700 21.10300
H  37.31200 43.74200 24.75500
H  38.64500 43.75100 25.85200
H  38.84500 44.63000 24.29600
H  37.69000 47.31300 29.58200
H  34.78700 44.59900 31.47200
H  34.48000 46.15000 32.33500
H  35.77100 45.18100 32.88100

