158

Mg -0.21900 6.95100 26.66400
C  1.13200 9.66100 28.67900
C  0.06800 4.98100 29.50000
C  -2.01100 4.66200 25.13800
C  0.31500 8.87100 23.89800
N  0.41100 7.34100 28.82500
C  0.87000 8.48500 29.39600
C  0.97400 8.28500 30.90200
C  1.15300 6.82300 31.03700
C  0.60600 6.31200 29.66100
C  2.57700 6.32300 31.45500
C  -0.30900 8.84700 31.62000
C  -0.21100 9.25100 33.12400
H  0.94600 8.81300 33.93700
N  -0.80700 5.11900 27.19900
C  -0.62000 4.48000 28.33200
C  -1.27800 3.23400 28.35800
C  -1.97700 3.10000 27.17000
C  -1.60300 4.28000 26.44600
C  -1.25800 2.32500 29.54300
C  -2.92900 2.08800 26.70400
O  -3.42700 2.11400 25.57700
C  -3.17000 0.84200 27.46400
N  -0.57200 6.62900 24.76300
C  -1.44800 5.67900 24.28500
C  -1.77800 5.74500 22.74300
C  -1.19600 7.18200 22.46700
C  -0.29700 7.57100 23.75300
C  -1.09700 4.60000 21.90000
C  -2.35100 8.13500 22.16900
C  -2.25700 8.96400 20.81500
N  0.44100 8.90400 26.31100
C  0.60700 9.52400 25.11000
C  1.14100 10.85700 25.29600
C  1.30800 10.99800 26.73900
C  0.95500 9.75500 27.28300
C  1.60700 11.81100 24.18800
C  1.68600 11.90900 27.80400
O  2.07700 13.13000 27.74100
C  1.41500 11.09800 29.13600
C  2.67100 11.13800 29.90100
O  3.73000 10.62200 29.54500
O  2.59000 11.88300 31.04800
C  3.80800 11.88200 31.91500
H  0.24500 4.39400 30.40400
H  -2.53500 3.88500 24.57800
H  0.44300 9.53800 23.04300
H  1.84500 8.82100 31.27900
H  0.48700 6.51500 31.84300
H  2.74600 5.99300 32.48000
H  3.28000 7.13900 31.28900
H  2.95700 5.53900 30.80000
H  -1.20300 8.25600 31.42200
H  -0.38500 9.78900 31.07800
H  -1.03600 8.77300 33.65300
H  -0.32800 10.32600 33.25700
H  -2.25500 2.15700 29.95000
H  -0.52300 2.55700 30.31400
H  -0.98800 1.34600 29.14900
H  -3.72900 0.16000 26.82300
H  -3.81100 1.00400 28.33100
H  -2.23500 0.34400 27.71900
H  -2.84800 5.53700 22.73200
H  -0.54100 7.16500 21.59600
H  -0.34000 4.11700 22.51900
H  -0.66300 5.01200 20.99000
H  -1.89200 3.88200 21.69800
H  -2.47400 8.95200 22.88000
H  -3.28800 7.58000 22.12200
H  -2.53200 9.99700 21.02600
H  -3.09500 8.59600 20.22300
H  -1.27300 9.05900 20.35500
H  0.84800 11.58300 23.43900
H  2.59600 11.63300 23.76600
H  1.57500 12.89100 24.33600
H  0.56300 11.44500 29.72100
H  3.87500 12.90600 32.28100
H  4.76200 11.92000 31.39000
H  3.82800 11.12200 32.69700
Mg 42.30400 40.81800 27.74600
C  41.14000 43.31500 29.98600
C  43.05600 38.80300 30.26300
C  43.90900 38.78400 25.50500
C  41.78600 43.25600 25.23500
N  42.18100 41.09600 29.85900
C  41.52900 42.13100 30.53800
C  41.46700 41.74200 32.04900
C  42.30100 40.39600 32.12400
C  42.49700 40.02200 30.69500
C  43.70100 40.49100 32.82700
C  40.02800 41.70000 32.64600
C  39.83100 42.50400 33.96300
H  39.33400 41.65900 35.11600
N  43.25600 39.05300 27.89300
C  43.37400 38.33300 28.99600
C  44.00600 37.09700 28.74400
C  44.28900 37.06900 27.35300
C  43.82000 38.31200 26.85300
C  43.96000 35.93500 29.73700
C  44.94500 35.91000 26.51200
O  45.16500 36.01400 25.31500
C  45.36500 34.63600 27.16100
N  42.86500 40.98900 25.68000
C  43.42900 39.95200 24.95900
C  43.22100 40.25100 23.48600
C  42.54700 41.72000 23.40700
C  42.39000 42.01600 24.90600
C  44.42500 39.98800 22.55400
C  41.23500 41.78400 22.56200
C  41.38000 42.63300 21.22900
N  41.69800 42.89600 27.59700
C  41.56700 43.75600 26.53100
C  41.00300 45.01000 26.87700
C  40.77300 44.85000 28.22300
C  41.24800 43.57000 28.60900
C  40.62700 46.16500 25.92200
C  40.23100 45.50000 29.33900
O  39.74000 46.63300 29.49600
C  40.42100 44.52600 30.54600
C  41.28100 45.28700 31.57800
O  42.51100 45.57600 31.45100
O  40.57100 45.44100 32.75200
C  41.36900 46.01800 33.87600
H  43.20700 38.17000 31.14000
H  44.18200 37.97000 24.83000
H  41.65400 43.85900 24.33500
H  42.01000 42.58800 32.47000
H  41.67000 39.64200 32.59400
H  44.01000 39.48800 33.12300
H  43.64000 41.03900 33.76800
H  44.45900 40.89000 32.15300
H  39.78400 40.68400 32.95800
H  39.31100 42.06000 31.90900
H  39.08400 43.28500 33.82000
H  40.78400 42.98100 34.19000
H  44.97800 35.57800 29.89300
H  43.33400 35.18700 29.25100
H  43.46500 36.14900 30.68500
H  46.06400 34.92400 27.94600
H  46.01500 34.25200 26.37500
H  44.51000 33.98700 27.35000
H  42.43900 39.51000 23.31700
H  43.20900 42.50000 23.03300
H  45.31500 40.11400 23.17100
H  44.54700 40.63700 21.68700
H  44.41600 39.00600 22.08000
H  40.46200 42.15300 23.23700
H  40.90900 40.78100 22.28900
H  40.99400 43.63400 21.41800
H  40.75900 42.11200 20.50100
H  42.41800 42.60900 20.89700
H  40.51000 47.09400 26.47900
H  39.73200 45.85600 25.38300
H  41.39000 46.21500 25.14500
H  39.43600 44.38600 30.99100
H  41.80100 45.13700 34.35100
H  40.66800 46.38200 34.62700
H  42.16600 46.70800 33.60000

