158

Mg 41.13500 8.69000 29.86700
C  43.00600 9.73600 32.45200
C  39.06000 7.15300 31.96100
C  39.43800 7.50500 27.09200
C  43.77300 9.75000 27.67100
N  40.95800 8.62000 32.00600
C  41.92000 9.01800 32.87700
C  41.41700 8.80800 34.30500
C  40.21500 7.81800 34.10300
C  40.02700 7.86000 32.61200
C  40.48000 6.35400 34.64000
C  40.94300 10.19100 34.85500
C  40.58200 10.04100 36.33200
H  41.31500 11.03300 37.36700
N  39.33300 7.67100 29.62500
C  38.61900 6.98900 30.60900
C  37.43000 6.34000 29.99500
C  37.40900 6.70100 28.61200
C  38.80500 7.33700 28.38400
C  36.37200 5.54300 30.86300
C  36.23500 6.63300 27.51700
O  36.43300 7.00300 26.35600
C  34.87400 6.09800 27.92800
N  41.65200 8.54800 27.63100
C  40.70100 8.06100 26.73700
C  41.18600 8.26600 25.32500
C  42.52300 9.14700 25.48700
C  42.64700 9.18900 27.05100
C  41.50500 6.94700 24.50200
C  42.43000 10.62800 24.89800
C  41.64700 11.61700 25.79400
N  43.01600 9.59000 29.94800
C  43.96400 10.01400 29.02700
C  44.95800 10.77900 29.67700
C  44.64900 10.66500 31.00300
C  43.50600 9.92300 31.16000
C  46.05900 11.50000 28.96100
C  45.08600 11.06000 32.24100
O  45.96600 11.86300 32.48300
C  44.06800 10.46100 33.36300
C  44.71000 9.47400 34.28400
O  45.23600 8.42100 33.95900
O  44.60200 9.95500 35.60100
C  45.20400 9.24900 36.68200
H  38.38400 6.62000 32.63300
H  38.84700 7.17900 26.23300
H  44.38700 10.32500 26.97500
H  42.21900 8.43800 34.94300
H  39.33700 8.32000 34.51000
H  39.68700 6.16400 35.36400
H  41.48500 6.29800 35.05800
H  40.49600 5.63800 33.81800
H  40.04200 10.50900 34.33000
H  41.69600 10.97500 34.77700
H  40.80700 9.07000 36.77300
H  39.51000 10.09400 36.52300
H  36.47800 5.50800 31.94700
H  36.42100 4.50300 30.54100
H  35.39200 5.96900 30.64800
H  34.19600 6.00100 27.08000
H  34.51900 6.75500 28.72200
H  35.01800 5.15500 28.45500
H  40.44900 8.91100 24.84600
H  43.37200 8.60900 25.06400
H  41.42400 6.09100 25.17300
H  42.53400 7.00100 24.14700
H  40.67500 6.85900 23.80200
H  41.87200 10.68000 23.96300
H  43.45100 10.99400 24.78800
H  41.18800 11.22200 26.70000
H  40.83200 12.02900 25.19900
H  42.28100 12.48200 25.98700
H  45.71500 12.21100 28.20900
H  46.76200 10.77500 28.55100
H  46.44200 12.16400 29.73600
H  43.77600 11.37600 33.87800
H  44.63900 9.34000 37.60900
H  46.22400 9.60900 36.82300
H  45.22400 8.18400 36.45300
Mg 16.94300 51.98900 25.64200
C  18.87500 50.66400 28.28400
C  14.64700 53.00100 27.88000
C  15.29800 53.38200 23.07300
C  19.53200 50.84300 23.43200
N  16.74300 51.67400 27.92200
C  17.68300 51.24800 28.77400
C  17.22800 51.42300 30.29600
C  15.82300 52.15100 29.99000
C  15.76600 52.33800 28.56300
C  14.57100 51.28300 30.44300
C  18.24000 52.37800 31.07200
C  18.49400 52.16900 32.59600
H  17.43900 51.34700 33.30200
N  15.18300 53.00500 25.49600
C  14.38000 53.37900 26.56300
C  13.37200 54.33400 26.01100
C  13.42900 54.19100 24.55000
C  14.69400 53.50800 24.32000
C  12.37000 55.11000 26.90000
C  12.48900 54.73100 23.46000
O  12.64400 54.56900 22.23100
C  11.34900 55.56900 23.87400
N  17.31800 52.03100 23.49400
C  16.53800 52.80400 22.71700
C  17.19800 53.00200 21.28600
C  18.51100 52.13300 21.47000
C  18.48200 51.64400 22.90500
C  16.29600 52.48900 20.17700
C  19.72300 53.05800 21.31900
C  20.73100 52.49200 20.35400
N  18.62400 50.66000 25.72800
C  19.57300 50.33400 24.74700
C  20.71600 49.71300 25.38300
C  20.40200 49.83600 26.78200
C  19.16400 50.44900 26.93400
C  22.00900 49.38200 24.73900
C  21.02200 49.52400 28.02000
O  22.09200 48.97000 28.19000
C  20.03400 50.04800 29.10400
C  19.67400 48.95300 30.09200
O  18.98400 47.99300 29.88800
O  20.35600 49.19800 31.20200
C  20.17000 48.30800 32.37800
H  14.02400 53.65600 28.49200
H  14.72400 53.63400 22.17900
H  20.27800 50.47800 22.72200
H  17.25600 50.48300 30.84700
H  15.77900 53.11400 30.49900
H  14.35300 50.61700 29.60800
H  13.68600 51.84900 30.73500
H  14.83300 50.62800 31.27400
H  17.85500 53.38900 30.94000
H  19.22100 52.31900 30.60000
H  18.45200 53.10800 33.14900
H  19.42000 51.60300 32.68500
H  12.69100 55.00900 27.93700
H  11.31600 54.84800 26.80500
H  12.49700 56.17000 26.68100
H  10.79100 55.81700 22.97100
H  11.81200 56.45000 24.31700
H  10.71500 54.89400 24.44900
H  17.43600 54.05800 21.15200
H  18.54700 51.30300 20.76400
H  15.77100 51.56900 20.43400
H  16.78500 52.33500 19.21600
H  15.62800 53.30800 19.91000
H  20.18200 53.35700 22.26100
H  19.46500 54.07600 21.02500
H  20.20200 51.70000 19.82500
H  21.59000 52.12200 20.91300
H  21.01700 53.19700 19.57300
H  22.65600 48.89000 25.46500
H  22.47600 50.29700 24.37400
H  21.79900 48.63300 23.97500
H  20.53800 50.85500 29.63500
H  21.00100 47.61500 32.50200
H  19.20000 47.81600 32.29800
H  20.12800 49.00400 33.21600

