158

Mg 45.13100 3.70800 47.27800
C  43.15000 6.79500 46.89900
C  42.22100 2.06000 46.92400
C  47.02700 1.04900 47.10900
C  48.01300 5.86700 47.07800
N  42.92600 4.34700 46.69600
C  42.38200 5.61100 46.85500
C  40.82600 5.51100 46.92000
C  40.55900 3.97700 47.02300
C  42.00700 3.40100 46.86100
C  39.87400 3.46100 48.37500
C  40.06800 6.30000 45.80600
C  40.81900 6.57600 44.42800
H  40.07000 6.05400 43.16900
N  44.69400 1.77700 47.08100
C  43.44900 1.23700 46.96300
C  43.57000 -0.15500 46.78700
C  44.93000 -0.49000 46.92500
C  45.62200 0.75700 47.07200
C  42.40200 -1.03600 46.46700
C  45.48700 -1.93900 46.87000
O  44.68600 -2.89100 46.72400
C  46.90000 -2.27200 46.86600
N  47.16500 3.54800 46.94300
C  47.67900 2.31000 47.07900
C  49.22900 2.38900 47.11100
C  49.60700 3.90300 47.09100
C  48.16800 4.53300 46.90700
C  49.94700 1.58800 48.18200
C  50.45800 4.38400 45.89200
C  51.81800 5.12200 46.37600
N  45.53900 5.84900 47.08400
C  46.77100 6.54200 47.00500
C  46.51700 8.04600 47.05200
C  45.12900 8.07700 47.15400
C  44.54500 6.79500 47.02900
C  47.57800 9.04000 46.81700
C  43.95600 8.98000 47.25600
O  44.00800 10.24600 47.41700
C  42.63600 8.24900 47.05000
C  41.76400 8.47500 48.24200
O  41.78600 7.75000 49.26000
O  40.90100 9.48300 47.95100
C  40.03600 9.96500 49.01300
H  41.32000 1.44600 46.86100
H  47.72200 0.24400 47.35700
H  48.93800 6.42200 47.24500
H  40.57600 6.00600 47.85900
H  39.93500 3.61100 46.20800
H  39.01700 2.83600 48.12600
H  39.57800 4.33900 48.94900
H  40.59100 2.82700 48.89700
H  39.85800 7.22900 46.33600
H  39.14000 5.76700 45.59900
H  41.76000 6.02700 44.47300
H  40.91700 7.66100 44.41200
H  41.61900 -0.43000 46.01200
H  41.98600 -1.52100 47.35000
H  42.62200 -1.87000 45.80000
H  46.91300 -3.35400 46.73400
H  47.48600 -1.89200 47.70200
H  47.39100 -1.79800 46.01600
H  49.56700 1.95600 46.16900
H  49.95000 4.25100 48.06600
H  50.47800 0.73200 47.76600
H  49.14200 1.20700 48.81100
H  50.69100 2.09300 48.79700
H  49.93800 5.12700 45.28700
H  50.77400 3.57000 45.23900
H  52.72000 4.56100 46.13000
H  51.69700 5.46000 47.40500
H  51.92200 6.05700 45.82600
H  48.34200 9.01200 47.59400
H  47.18800 10.05700 46.78300
H  48.04000 8.81200 45.85600
H  42.19500 8.65900 46.14200
H  40.40700 9.57100 49.95900
H  38.99600 9.69600 48.82800
H  40.09200 11.05100 49.09400
Mg -11.15200 38.83200 40.47600
C  -9.59500 35.45000 40.21700
C  -8.33800 40.10900 39.26200
C  -12.91700 41.69000 40.34000
C  -14.09200 37.08900 41.47100
N  -9.26100 37.83200 39.67500
C  -8.81400 36.57200 39.83200
C  -7.36000 36.51700 39.27700
C  -6.87600 38.00800 39.38400
C  -8.26800 38.70400 39.43300
C  -6.01100 38.55100 40.53200
C  -7.34000 36.01700 37.84900
C  -6.05100 35.29400 37.30000
H  -5.36100 36.08200 36.20000
N  -10.68900 40.66200 39.79600
C  -9.42700 41.00500 39.41200
C  -9.38400 42.47700 39.31300
C  -10.65400 42.96400 39.68100
C  -11.55000 41.74300 39.89100
C  -8.19000 43.14400 38.76000
C  -11.02100 44.52500 39.69500
O  -10.14400 45.40500 39.73800
C  -12.47000 44.94400 39.71200
N  -13.31500 39.32700 40.73800
C  -13.77900 40.57100 40.64900
C  -15.30000 40.59200 40.76000
C  -15.53500 39.14900 41.29500
C  -14.29200 38.48500 41.12000
C  -16.13300 41.66200 41.58200
C  -16.75400 38.42400 40.49300
C  -16.43700 37.95600 39.07700
N  -11.77900 36.69200 40.87600
C  -12.96500 36.22300 41.32900
C  -12.82600 34.79700 41.55700
C  -11.53700 34.41200 41.13800
C  -10.96000 35.58600 40.65300
C  -14.01100 33.88400 41.90300
C  -10.58500 33.31300 40.90000
O  -10.61300 32.09000 41.12600
C  -9.35700 33.94700 40.22000
C  -8.02200 33.37700 40.62200
O  -7.13800 33.18700 39.81400
O  -7.91700 33.24400 41.97800
C  -6.63500 32.69900 42.39800
H  -7.48600 40.78300 39.15000
H  -13.40000 42.63700 40.09000
H  -14.88800 36.49400 41.92400
H  -6.76900 35.88400 39.93800
H  -6.39400 38.36400 38.47400
H  -5.57900 37.68400 41.03300
H  -6.58600 39.17000 41.22100
H  -5.30000 39.21500 40.04100
H  -7.54700 36.87200 37.20600
H  -8.14200 35.30600 37.65000
H  -6.28900 34.28300 36.97100
H  -5.29600 35.16000 38.07400
H  -7.84100 42.64300 37.85700
H  -7.45600 43.18500 39.56600
H  -8.43900 44.19300 38.59800
H  -13.10200 44.47100 38.96000
H  -12.41900 46.01400 39.51100
H  -12.83600 44.86800 40.73600
H  -15.68600 40.72600 39.74900
H  -15.68300 39.16600 42.37500
H  -16.87400 42.03300 40.87400
H  -15.53900 42.51800 41.90500
H  -16.84900 41.30700 42.32300
H  -17.62200 39.05500 40.29900
H  -17.13500 37.60700 41.10500
H  -16.29500 36.87600 39.08600
H  -15.52800 38.48900 38.79800
H  -17.13600 38.15500 38.26400
H  -14.27100 33.94800 42.95900
H  -13.80700 32.87600 41.54100
H  -14.79400 34.23300 41.22900
H  -9.41000 33.62200 39.18100
H  -5.82500 33.36600 42.10300
H  -6.41100 31.66300 42.14500
H  -6.74000 32.83700 43.47400

