158

Mg 47.08400 17.28800 28.30400
C  45.11100 17.27100 31.17800
C  49.45700 19.11600 30.09800
C  48.49600 18.25100 25.49200
C  44.41200 16.04100 26.40100
N  47.12400 18.31300 30.50700
C  46.33900 17.90000 31.47100
C  46.93600 18.36500 32.84100
C  48.15600 19.25200 32.37900
C  48.29900 18.92700 30.89700
C  48.15900 20.73000 32.58000
C  47.22600 17.20000 33.82800
C  46.89100 17.28900 35.38000
H  46.50200 18.74800 35.83600
N  48.75500 18.33600 27.84100
C  49.61500 19.00800 28.69200
C  50.73500 19.57200 28.00100
C  50.41700 19.39200 26.61300
C  49.18000 18.58100 26.58200
C  52.00000 20.11300 28.68900
C  51.20200 19.99100 25.40500
O  50.85700 19.82300 24.23600
C  52.33400 20.86500 25.69200
N  46.50200 17.26500 26.23300
C  47.22300 17.71400 25.27000
C  46.67700 17.45500 23.87400
C  45.49400 16.48800 24.14500
C  45.44400 16.59900 25.64000
C  46.13600 18.73500 23.23600
C  45.51200 15.03900 23.59700
C  44.55300 14.73200 22.40900
N  45.20900 16.60200 28.68600
C  44.20200 16.07500 27.81200
C  43.07100 15.63200 28.59000
C  43.45500 16.07400 29.95000
C  44.68800 16.69700 29.90400
C  41.82000 14.99500 28.03600
C  42.92100 16.18000 31.31800
O  41.81300 15.99900 31.74700
C  44.02700 16.83100 32.20900
C  43.39500 17.93700 32.93200
O  43.02000 18.95900 32.38000
O  42.97200 17.51900 34.10700
C  42.33100 18.44600 35.07300
H  50.28200 19.64900 30.57500
H  49.01300 18.42100 24.54500
H  43.45700 15.74400 25.96200
H  46.12500 18.89100 33.34600
H  49.02000 18.84600 32.90400
H  48.06900 21.24900 31.62600
H  49.16100 20.88300 32.98100
H  47.26700 21.08900 33.09300
H  48.30900 17.07400 33.82200
H  46.84700 16.29000 33.36300
H  47.81300 17.07500 35.92100
H  46.11600 16.56300 35.62500
H  52.83600 19.55300 28.27100
H  52.00400 19.97700 29.77100
H  52.00000 21.19800 28.58600
H  52.05400 21.85300 26.05800
H  52.81800 20.91000 24.71600
H  53.18500 20.48300 26.25500
H  47.54100 17.10400 23.30900
H  44.54400 16.96900 23.91100
H  46.83300 19.50300 23.56900
H  45.10800 18.98800 23.49400
H  46.15500 18.67700 22.14700
H  45.18900 14.40800 24.42500
H  46.53400 14.87600 23.25500
H  43.77700 15.46900 22.20200
H  44.00600 13.89100 22.83500
H  45.15300 14.39000 21.56600
H  41.00200 14.76000 28.71600
H  42.08900 13.97200 27.77100
H  41.39400 15.66400 27.28900
H  44.41300 16.09100 32.90900
H  41.26800 18.34200 34.85600
H  42.41600 19.52400 34.93500
H  42.65800 18.26500 36.09700
Mg 42.88200 42.43800 26.33800
C  42.10900 44.65400 28.87000
C  44.17000 40.25500 28.78300
C  44.19300 40.36900 23.94300
C  42.20100 44.85800 23.93800
N  42.97600 42.40500 28.58400
C  42.52800 43.40800 29.39900
C  42.56700 43.02200 30.90600
C  43.51900 41.77500 30.82300
C  43.50900 41.38600 29.32500
C  44.96100 42.04900 31.31400
C  41.15200 42.86900 31.57100
C  41.07400 42.42900 33.07900
H  40.95300 43.47300 34.22300
N  43.83400 40.45900 26.39600
C  44.24000 39.74200 27.48300
C  44.83900 38.54900 27.02800
C  44.71100 38.50300 25.63400
C  44.20100 39.81100 25.26400
C  45.30300 37.44000 28.06100
C  44.98200 37.40700 24.60500
O  44.58500 37.46900 23.42800
C  45.70500 36.17500 25.17000
N  43.34500 42.59200 24.27900
C  43.68700 41.55400 23.46900
C  43.49900 41.92600 21.94000
C  42.73200 43.23800 22.02000
C  42.80400 43.60900 23.53200
C  44.81700 41.89100 21.13200
C  41.27000 43.17900 21.55100
C  40.24000 42.23300 22.19300
N  42.38700 44.39100 26.29500
C  42.09700 45.28300 25.29800
C  41.58600 46.49600 25.94200
C  41.64200 46.34000 27.33800
C  42.09700 45.02200 27.48600
C  41.03900 47.71400 25.24200
C  41.32100 46.91000 28.61300
O  40.96000 48.01400 28.92900
C  41.71300 45.87900 29.68100
C  42.73900 46.49100 30.51500
O  43.90500 46.68700 30.27100
O  42.10700 46.67800 31.72500
C  42.97200 47.21100 32.82500
H  44.61300 39.64800 29.57500
H  44.48000 39.87400 23.01300
H  41.90900 45.49500 23.10000
H  43.05500 43.74900 31.55500
H  43.09000 41.01500 31.47600
H  45.18300 41.33300 32.10500
H  45.03900 43.05600 31.72400
H  45.69400 41.92100 30.51700
H  40.57200 42.07200 31.10500
H  40.54600 43.76500 31.43700
H  41.99600 41.92200 33.36600
H  40.31300 41.65700 33.19100
H  44.65100 36.57200 27.96300
H  45.31100 37.73000 29.11200
H  46.31300 37.19700 27.73000
H  46.55200 36.42400 25.81000
H  46.14300 35.55100 24.39200
H  44.90400 35.61000 25.64800
H  42.95400 41.08700 21.51000
H  43.24200 44.04100 21.48800
H  44.50100 41.90300 20.08900
H  45.40600 41.03600 21.46300
H  45.41000 42.78100 21.34300
H  41.18300 43.11500 20.46600
H  40.87200 44.19300 21.57900
H  40.69200 41.45900 22.81300
H  39.68000 41.65900 21.45600
H  39.53000 42.82300 22.77300
H  40.38000 48.23200 25.93900
H  40.49200 47.33200 24.37900
H  41.79300 48.38100 24.82400
H  40.78400 45.90900 30.25000
H  43.72500 47.92800 32.49700
H  43.34800 46.31000 33.31000
H  42.31100 47.71900 33.52700

