158

Mg 24.26500 -5.35500 45.46000
C  26.57600 -3.19100 43.85900
C  21.79500 -4.10200 43.53200
C  22.41900 -8.06500 46.31300
C  27.12100 -6.74500 47.23400
N  24.20600 -3.94200 43.77600
C  25.27800 -3.19600 43.32100
C  24.84300 -2.32300 42.18200
C  23.28400 -2.23900 42.43600
C  23.00700 -3.44100 43.37400
C  22.71900 -0.86500 42.96000
C  25.48500 -2.86600 40.82200
C  26.07100 -1.77900 39.88600
H  26.17100 -2.08800 38.33100
N  22.25900 -5.97400 45.06000
C  21.41200 -5.31100 44.22700
C  20.12100 -5.97300 44.29000
C  20.20800 -7.11300 45.14900
C  21.64200 -7.15300 45.52500
C  18.94900 -5.54600 43.46300
C  19.17600 -8.22100 45.43900
O  18.04800 -8.14700 44.93500
C  19.35500 -9.45100 46.27200
N  24.74900 -7.13600 46.58800
C  23.76800 -8.09100 46.72200
C  24.40800 -9.35500 47.34800
C  25.75300 -8.79500 47.86900
C  25.88800 -7.45300 47.22400
C  23.59700 -10.20300 48.40000
C  26.95100 -9.73800 47.72100
C  27.86200 -9.80600 48.98400
N  26.32000 -4.94200 45.75000
C  27.32300 -5.62600 46.47800
C  28.59900 -4.87800 46.21600
C  28.31000 -3.94300 45.17400
C  26.95300 -4.05700 44.93000
C  29.83100 -4.99800 46.93100
C  28.94000 -2.99800 44.26400
O  30.09000 -2.79400 44.06800
C  27.78600 -2.44800 43.40500
C  27.71300 -1.03400 43.66600
O  28.02500 -0.19300 42.88000
O  27.07900 -0.80600 44.85900
C  26.73100 0.58400 45.17900
H  20.99400 -3.68500 42.91800
H  21.76600 -8.88500 46.61900
H  28.02600 -7.19500 47.64800
H  25.30800 -1.36200 42.40200
H  22.89500 -2.30400 41.42000
H  23.42600 -0.03500 42.95800
H  22.40300 -0.90300 44.00300
H  21.83500 -0.56100 42.39900
H  24.74600 -3.41000 40.23300
H  26.29800 -3.55200 41.05700
H  27.10900 -1.61300 40.17600
H  25.53000 -0.84700 40.04500
H  18.91200 -6.29400 42.67100
H  19.15000 -4.61500 42.93300
H  18.08800 -5.44600 44.12400
H  20.07200 -10.16900 45.87300
H  18.37600 -9.92400 46.35400
H  19.61800 -9.19100 47.29800
H  24.59800 -9.99400 46.48600
H  25.54000 -8.54800 48.90900
H  23.23500 -11.03600 47.79800
H  22.74300 -9.68700 48.83700
H  24.14400 -10.74800 49.16900
H  27.60400 -9.38900 46.92000
H  26.53900 -10.72500 47.51100
H  27.55400 -9.12700 49.77900
H  28.88800 -9.54100 48.73300
H  27.83700 -10.76000 49.51100
H  30.17800 -5.99300 46.65200
H  29.61500 -4.96700 47.99800
H  30.51300 -4.21600 46.59500
H  28.09000 -2.53800 42.36200
H  27.44400 1.01300 45.88300
H  25.77000 0.64100 45.69000
H  26.65200 1.32100 44.38000
Mg 30.22400 59.10400 40.40600
C  27.48000 56.73800 39.58300
C  32.34800 56.67700 39.41200
C  32.44900 61.54500 40.23800
C  27.69600 61.35300 41.09200
N  29.90100 56.96000 39.53500
C  28.78300 56.20200 39.36800
C  29.15500 54.81300 38.73700
C  30.66500 54.71100 39.17700
C  31.03800 56.21500 39.39700
C  31.10900 53.69300 40.27700
C  29.01800 54.71800 37.23800
C  28.18000 53.49800 36.77100
H  27.54400 53.61600 35.36500
N  32.26000 59.12500 39.89900
C  32.96700 57.99100 39.51500
C  34.38500 58.35300 39.45200
C  34.49300 59.78100 39.67600
C  33.10200 60.24600 39.98000
C  35.39900 57.38400 39.12700
C  35.73500 60.68200 39.50700
O  36.86800 60.20000 39.31100
C  35.65300 62.19300 39.60800
N  30.10000 61.15400 40.50700
C  31.17900 61.99300 40.50800
C  30.81600 63.43600 40.73100
C  29.29400 63.40400 40.96800
C  28.94400 61.90500 40.85300
C  31.57100 63.95000 42.02700
C  28.45700 64.24900 39.98000
C  27.56100 65.29200 40.63100
N  28.00300 59.10900 40.45200
C  27.19300 60.07300 40.80700
C  25.77600 59.62300 40.77400
C  25.87000 58.40300 40.16800
C  27.25800 58.08300 40.07400
C  24.45800 60.35400 41.04400
C  25.12700 57.32000 39.60100
O  23.94000 57.23100 39.37100
C  26.11400 56.14300 39.30300
C  25.77500 55.07300 40.18400
O  25.70600 55.21000 41.40100
O  25.62500 53.97200 39.53100
C  25.46500 52.71300 40.30000
H  33.07700 55.89200 39.19900
H  33.12600 62.39900 40.30600
H  26.93700 62.06500 41.42300
H  28.58400 54.06000 39.28100
H  31.28700 54.35600 38.35500
H  31.83600 52.96600 39.91400
H  30.29400 53.17000 40.77800
H  31.75800 54.31900 40.89100
H  29.96600 54.78800 36.70500
H  28.54600 55.65100 36.93100
H  27.32600 53.38600 37.43900
H  28.75900 52.59200 36.94900
H  36.31600 57.49500 39.70500
H  35.55200 57.47500 38.05100
H  35.11100 56.35400 39.33600
H  34.80700 62.56800 39.03200
H  36.57300 62.70400 39.32300
H  35.42300 62.29500 40.66900
H  31.02300 63.97300 39.80600
H  29.02800 63.62900 42.00100
H  30.91900 64.39500 42.77800
H  32.27600 64.70400 41.67800
H  32.21600 63.14400 42.37700
H  27.78200 63.67900 39.34100
H  29.20300 64.79000 39.39800
H  28.02700 66.26400 40.46700
H  27.44100 65.13500 41.70300
H  26.56000 65.37100 40.20800
H  23.85400 60.54000 40.15600
H  24.51600 61.24900 41.66300
H  23.87900 59.69800 41.69500
H  26.00100 55.64500 38.34000
H  26.38500 52.37700 40.77800
H  25.17900 51.95800 39.56800
H  24.66300 52.86200 41.02300

