158

Mg 23.64300 -4.95500 45.27400
C  25.84000 -2.56500 44.01500
C  21.20300 -3.84700 43.13000
C  21.97300 -7.92000 45.76600
C  26.21700 -6.18400 47.22200
N  23.57800 -3.37000 43.78500
C  24.60100 -2.60400 43.37200
C  24.08200 -1.64200 42.24000
C  22.48200 -1.75700 42.28200
C  22.36000 -3.04100 43.12400
C  21.66900 -0.54700 42.89700
C  24.64600 -2.05900 40.79300
C  25.18700 -0.87600 39.96100
H  25.48600 -1.14900 38.49900
N  21.77100 -5.73300 44.62700
C  20.94900 -5.12100 43.76800
C  19.70600 -5.85700 43.63300
C  19.84200 -6.96900 44.46200
C  21.26300 -6.96700 45.00300
C  18.52300 -5.30800 42.85100
C  18.79900 -8.05900 44.72100
O  17.72500 -8.00500 44.16500
C  19.06200 -9.22800 45.64000
N  24.11300 -6.80700 46.28900
C  23.17600 -7.76000 46.47700
C  23.73300 -8.93600 47.36800
C  25.11800 -8.48200 47.75300
C  25.18300 -7.11800 47.06500
C  22.81000 -9.55900 48.42300
C  26.29500 -9.43900 47.31400
C  27.34600 -9.58700 48.38000
N  25.58500 -4.35600 45.70800
C  26.51800 -4.97300 46.47700
C  27.74400 -4.22300 46.47500
C  27.54100 -3.22600 45.45600
C  26.23100 -3.40500 44.99100
C  29.01000 -4.64200 47.10300
C  28.06700 -2.11000 44.66300
O  29.14200 -1.54400 44.70200
C  26.99400 -1.63600 43.61300
C  26.85700 -0.21000 43.96900
O  26.45200 0.24900 45.01500
O  27.23700 0.58500 42.86500
C  27.23700 2.00300 43.16500
H  20.37300 -3.44200 42.54800
H  21.54100 -8.92200 45.78700
H  27.10700 -6.49600 47.77300
H  24.32400 -0.59800 42.43700
H  22.12800 -1.98600 41.27600
H  20.77200 -0.44000 42.28700
H  22.12300 0.44400 42.88400
H  21.50500 -0.81500 43.94000
H  23.93700 -2.77700 40.38100
H  25.49600 -2.70500 41.01200
H  26.16800 -0.75500 40.42100
H  24.66900 0.04800 40.21600
H  18.36600 -4.25300 43.07700
H  17.56000 -5.74600 43.11200
H  18.63600 -5.33700 41.76700
H  19.76000 -9.94100 45.20200
H  18.13700 -9.75400 45.87900
H  19.50100 -8.93300 46.59300
H  23.81900 -9.77900 46.68200
H  25.19100 -8.36100 48.83400
H  23.37100 -9.45100 49.35100
H  22.60000 -10.61500 48.25200
H  21.86800 -9.01100 48.43900
H  26.75400 -8.86900 46.50700
H  25.96900 -10.44200 47.03800
H  27.57200 -10.63700 48.56400
H  27.12900 -9.02900 49.29100
H  28.27800 -9.33200 47.87600
H  29.24700 -5.55000 46.54800
H  28.93000 -4.93400 48.15100
H  29.76100 -3.86100 46.98800
H  27.35100 -1.73100 42.58700
H  28.07500 2.20400 43.83200
H  26.32700 2.39900 43.61500
H  27.37000 2.63800 42.28900
Mg 44.25300 5.06400 48.88400
C  42.41900 8.05700 48.09600
C  41.52500 3.19000 47.83900
C  46.19600 2.42500 48.68500
C  47.15300 7.13200 49.04200
N  42.29200 5.56400 47.94600
C  41.70800 6.83200 47.76900
C  40.27900 6.65300 47.32700
C  39.99500 5.11800 47.47900
C  41.37700 4.57900 47.71700
C  39.04900 4.90400 48.68900
C  40.02700 7.07200 45.82500
C  38.56500 7.37600 45.47900
H  38.14300 7.09100 44.03200
N  43.86900 3.04500 48.59000
C  42.67800 2.41800 48.19000
C  42.85100 0.99400 48.23700
C  44.23400 0.73900 48.43600
C  44.84200 2.07900 48.67500
C  41.79900 0.06800 47.67900
C  44.95200 -0.62000 48.48000
O  44.42000 -1.73000 48.31600
C  46.38000 -0.65600 48.83500
N  46.37300 4.81900 48.88200
C  46.90000 3.60200 48.87300
C  48.41100 3.63400 48.92700
C  48.72500 5.16200 49.08400
C  47.31600 5.75500 49.03900
C  48.91900 2.62500 50.05600
C  49.77700 5.63100 48.06500
C  51.32400 5.28900 48.35800
N  44.72300 7.14800 48.83600
C  45.94400 7.83000 48.91700
C  45.69500 9.29100 48.94400
C  44.29400 9.38400 48.66200
C  43.79500 8.06800 48.51900
C  46.69500 10.38500 49.03600
C  43.20900 10.35400 48.32300
O  43.33300 11.54800 48.38500
C  42.01300 9.51800 47.82200
C  40.81900 9.76000 48.67800
O  40.76700 9.62600 49.88700
O  39.77100 10.15700 47.79300
C  38.47900 10.39100 48.44000
H  40.56000 2.73000 47.61000
H  46.94300 1.65500 48.48300
H  48.05200 7.69300 49.30400
H  39.67300 7.31500 47.94600
H  39.49900 4.70100 46.60200
H  38.31400 5.70400 48.78300
H  39.62200 4.94600 49.61500
H  38.68600 3.87700 48.69900
H  40.38000 6.31100 45.12800
H  40.62000 7.97600 45.69400
H  38.34700 8.41200 45.73800
H  37.99400 6.74600 46.16200
H  41.72900 -0.72700 48.42200
H  42.04500 -0.46000 46.75800
H  40.87600 0.59400 47.43700
H  46.65800 -1.68000 49.08600
H  46.55000 -0.10900 49.76300
H  47.00800 -0.24900 48.04300
H  48.68000 3.20900 47.96000
H  49.05900 5.19500 50.12100
H  49.64800 3.18400 50.64300
H  49.33900 1.78200 49.50800
H  48.13400 2.28100 50.73000
H  49.71800 6.71400 47.95700
H  49.50300 5.27900 47.07000
H  51.76800 5.02100 47.39900
H  51.47200 4.62300 49.20800
H  51.73100 6.26600 48.61900
H  47.31000 10.21600 48.15200
H  47.37800 10.27100 49.87800
H  46.31100 11.40500 49.00300
H  41.85500 9.55800 46.74400
H  37.89300 11.04100 47.79000
H  38.48900 10.78900 49.45400
H  37.98200 9.42500 48.53100

