158

Mg 42.38600 41.52000 26.08100
C  41.49500 43.79200 28.66000
C  43.17000 39.24500 28.57100
C  43.61900 39.48200 23.75700
C  41.61800 43.95500 23.76400
N  42.48200 41.54500 28.32800
C  41.95600 42.54100 29.15500
C  41.96800 42.15300 30.66600
C  42.56100 40.73500 30.60700
C  42.77900 40.47200 29.13200
C  43.78700 40.55800 31.56400
C  40.54300 42.33700 31.42100
C  40.47900 41.57400 32.77000
H  39.68800 42.21200 33.97300
N  43.15400 39.56300 26.11100
C  43.27300 38.74800 27.23900
C  43.65400 37.42100 26.83300
C  43.75700 37.46900 25.36100
C  43.54800 38.88500 24.97700
C  43.97100 36.25400 27.87400
C  44.16900 36.31400 24.40200
O  44.69800 36.61300 23.33600
C  44.03700 34.88900 24.92300
N  42.85100 41.76400 24.15400
C  43.28900 40.76400 23.32000
C  43.18600 41.05300 21.79400
C  42.24700 42.32300 21.84700
C  42.27100 42.76100 23.32700
C  44.58500 41.27300 21.16200
C  40.79600 42.02500 21.31700
C  40.12400 40.69300 21.73300
N  41.81700 43.53600 26.10800
C  41.56500 44.35700 25.09400
C  41.09200 45.61600 25.58300
C  41.08800 45.45600 26.96800
C  41.45800 44.13500 27.26500
C  40.69900 46.86600 24.86500
C  40.78600 46.04500 28.22100
O  40.44400 47.16900 28.41400
C  41.00500 45.04900 29.37600
C  42.14600 45.60600 30.28100
O  43.31300 45.70700 29.97000
O  41.68700 45.74300 31.50900
C  42.62200 46.00100 32.62900
H  43.24200 38.54900 29.41000
H  43.89500 38.70000 23.04700
H  41.12100 44.56800 23.00900
H  42.59000 42.85000 31.22700
H  41.78400 40.02700 30.89700
H  44.69900 40.41700 30.98500
H  43.68900 39.64800 32.15700
H  43.99000 41.33100 32.30500
H  39.70300 42.10000 30.76800
H  40.43900 43.41500 31.54200
H  41.46900 41.44000 33.20500
H  40.05300 40.60100 32.52400
H  45.01600 36.01500 27.67700
H  43.40100 35.32600 27.83300
H  43.92200 36.55300 28.92100
H  44.85000 34.74000 25.63300
H  44.04500 34.24800 24.04200
H  43.08800 34.71600 25.43000
H  42.70500 40.34300 21.12200
H  42.73700 43.00100 21.14700
H  44.80500 42.31500 20.92800
H  44.67600 40.70500 20.23600
H  45.28900 40.89900 21.90500
H  40.92900 42.08900 20.23700
H  40.04400 42.77700 21.55700
H  39.93000 40.07000 20.86000
H  39.14800 40.94300 22.14800
H  40.65000 39.99900 22.38900
H  39.89100 47.25700 25.48300
H  40.45400 46.73000 23.81200
H  41.60600 47.45600 24.99100
H  40.04000 44.82400 29.83100
H  42.08900 46.56000 33.39800
H  43.40400 46.65700 32.24700
H  43.00900 45.04600 32.98600
Mg -6.16400 24.37500 26.28400
C  -4.29300 25.91800 28.86700
C  -7.51800 22.32000 28.44900
C  -7.69500 22.94900 23.61700
C  -4.21200 26.48900 23.90500
N  -5.86400 24.12900 28.35700
C  -5.06900 24.83300 29.29000
C  -5.37900 24.50000 30.72300
C  -6.13900 23.20700 30.55000
C  -6.52800 23.16700 28.97200
C  -5.29200 21.92800 31.01200
C  -6.09600 25.60300 31.58700
C  -5.87900 25.65800 33.12300
H  -7.12800 25.17500 33.85400
N  -7.50500 22.94900 26.14500
C  -7.98200 22.25300 27.14600
C  -9.11400 21.45400 26.73300
C  -9.16100 21.57100 25.31600
C  -8.11400 22.52200 24.91100
C  -10.07100 20.67600 27.70100
C  -10.08400 20.88300 24.33400
O  -10.00100 21.03600 23.12900
C  -11.15500 19.85000 24.87700
N  -6.00400 24.71800 24.17000
C  -6.77000 23.90300 23.27500
C  -6.43000 24.16800 21.73700
C  -5.43900 25.40000 21.85700
C  -5.11800 25.53200 23.39000
C  -5.95600 22.89300 20.98700
C  -6.01000 26.67900 21.39400
C  -5.04700 27.65900 20.69600
N  -4.55900 25.82400 26.31900
C  -3.96100 26.62200 25.32000
C  -3.09100 27.60500 25.98000
C  -3.19700 27.32400 27.38700
C  -4.08400 26.29300 27.54600
C  -2.40100 28.72100 25.29400
C  -2.72500 27.74200 28.66800
O  -1.95600 28.66500 29.01800
C  -3.49100 26.86200 29.67000
C  -2.52900 26.27700 30.63100
O  -1.84400 25.24900 30.46100
O  -2.48100 27.04900 31.71900
C  -1.58400 26.60100 32.80600
H  -7.87100 21.48800 29.06200
H  -8.11000 22.36100 22.79600
H  -3.83000 27.21300 23.18200
H  -4.43700 24.27900 31.22300
H  -7.02600 23.09700 31.17400
H  -5.39300 21.03200 30.40000
H  -5.43000 21.58000 32.03600
H  -4.23300 22.17800 30.94600
H  -7.14500 25.33200 31.46600
H  -6.06100 26.61300 31.17900
H  -5.69600 26.71000 33.34000
H  -4.96500 25.10700 33.34600
H  -11.08000 21.02600 27.48600
H  -9.84600 20.83400 28.75600
H  -9.88500 19.64700 27.39300
H  -10.54700 18.98700 25.14800
H  -11.90300 19.64800 24.11000
H  -11.79400 20.31800 25.62600
H  -7.32100 24.44100 21.17100
H  -4.52700 25.20800 21.29300
H  -6.80500 22.54900 20.39600
H  -5.79000 22.11700 21.73300
H  -5.16900 23.06100 20.25200
H  -6.38400 27.12700 22.31500
H  -6.78300 26.45800 20.65900
H  -4.02700 27.29500 20.57600
H  -5.01900 28.57700 21.28300
H  -5.47500 27.80300 19.70400
H  -1.55700 28.47500 24.64900
H  -2.00100 29.34000 26.09600
H  -3.18400 29.30200 24.80700
H  -4.13200 27.47900 30.29900
H  -0.61200 26.48100 32.32600
H  -1.81700 25.58800 33.13300
H  -1.52600 27.28700 33.65100

