158

Mg 27.04200 51.64300 26.03200
C  24.70400 52.76100 28.68000
C  29.14900 50.65800 28.52800
C  29.03500 50.85300 23.67300
C  24.58600 53.00600 23.74500
N  26.91400 51.76700 28.39900
C  25.82500 52.02300 29.19000
C  26.14200 51.56300 30.59900
C  27.70000 51.30000 30.56000
C  27.94600 51.21600 29.05900
C  28.63300 52.32500 31.13200
C  25.23400 50.31600 31.11100
C  24.67400 50.48000 32.49300
H  25.24900 51.38200 33.59600
N  28.86000 50.84200 26.10500
C  29.59500 50.51900 27.21200
C  30.91500 49.90900 26.75700
C  30.87400 49.93300 25.30000
C  29.59400 50.57100 24.94700
C  31.94700 49.38100 27.74300
C  31.91700 49.55500 24.26800
O  31.69200 49.70900 23.06900
C  33.18400 48.92900 24.75800
N  26.79300 51.83100 24.01800
C  27.80300 51.34700 23.24300
C  27.46200 51.48000 21.79000
C  25.98300 52.09000 21.82600
C  25.78400 52.35000 23.29400
C  28.48200 52.44200 21.10200
C  24.81000 51.28200 21.22100
C  24.37400 50.07800 22.02500
N  25.11000 52.72800 26.09000
C  24.28600 53.13600 25.07900
C  23.07700 53.75600 25.69700
C  23.25300 53.67200 27.07600
C  24.46600 52.97600 27.27700
C  21.96000 54.39500 24.88200
C  22.73500 54.00700 28.38500
O  21.77400 54.69900 28.74500
C  23.56300 53.21900 29.48300
C  23.89500 54.23700 30.53200
O  24.82400 55.04400 30.60100
O  22.92500 54.27400 31.45500
C  23.24400 55.06500 32.65300
H  29.86700 50.23100 29.23200
H  29.59800 50.58500 22.77700
H  23.84800 53.38400 23.03400
H  25.97800 52.44800 31.21400
H  27.90300 50.32100 30.99500
H  29.06000 52.81400 30.25700
H  29.46700 51.94300 31.72200
H  28.10500 53.00800 31.79800
H  25.86100 49.44200 30.93200
H  24.42300 50.23300 30.38700
H  24.50600 49.51700 32.97400
H  23.73800 51.00500 32.29700
H  32.50000 50.24100 28.11900
H  32.60600 48.56900 27.43400
H  31.50400 48.91800 28.62500
H  33.68200 48.52400 23.87800
H  33.04000 48.12200 25.47600
H  33.84600 49.68000 25.18900
H  27.44500 50.47200 21.37500
H  26.08300 53.09000 21.40600
H  29.17100 52.80900 21.86300
H  27.98100 53.30800 20.66900
H  29.03400 51.86400 20.36100
H  25.11700 50.98400 20.21900
H  23.93600 51.92500 21.11500
H  25.02800 49.25400 21.74000
H  23.32400 49.95700 21.76000
H  24.40800 50.10400 23.11500
H  22.20700 54.64100 23.84900
H  21.62000 55.36600 25.24400
H  21.11200 53.72100 24.75700
H  22.97300 52.40500 29.90400
H  22.42400 54.96100 33.36300
H  23.34200 56.09800 32.31900
H  24.12500 54.70800 33.18600
Mg -4.58400 25.30900 26.06900
C  -3.49400 26.54200 29.12100
C  -6.78300 23.25200 27.71600
C  -5.54800 24.23600 23.01100
C  -2.23600 27.34200 24.46900
N  -5.02300 24.85400 28.27100
C  -4.46900 25.53800 29.30900
C  -5.14700 25.08800 30.67100
C  -6.13300 23.95900 30.14900
C  -5.90800 23.90600 28.65100
C  -6.14600 22.63400 30.95800
C  -5.88600 26.23600 31.38900
C  -5.50100 26.35500 32.86000
H  -4.97700 25.18900 33.69900
N  -5.94400 23.91200 25.50800
C  -6.78800 23.26800 26.29800
C  -7.80600 22.62800 25.48700
C  -7.42500 22.82600 24.09600
C  -6.25400 23.68500 24.18200
C  -9.12200 21.96500 26.06700
C  -8.13700 22.30300 22.85900
O  -7.71800 22.55600 21.73100
C  -9.45100 21.65300 23.01900
N  -3.90400 25.68600 24.06100
C  -4.52500 25.14700 22.91900
C  -3.85800 25.44700 21.56100
C  -2.76600 26.51000 22.09400
C  -2.98800 26.57100 23.66800
C  -3.31300 24.16500 20.72000
C  -2.78000 27.86300 21.27100
C  -1.46000 28.43500 20.63700
N  -3.12800 26.68500 26.65900
C  -2.27000 27.37400 25.88600
C  -1.48700 28.21100 26.72200
C  -1.87000 27.92400 28.03600
C  -2.87000 26.95100 27.96300
C  -0.54200 29.29300 26.24600
C  -1.73500 28.29500 29.40200
O  -1.09500 29.18500 29.93500
C  -2.71500 27.31600 30.17700
C  -1.68800 26.58400 31.03200
O  -1.07500 25.67200 30.54900
O  -1.61200 27.10300 32.29800
C  -0.67400 26.33800 33.19700
H  -7.49400 22.58800 28.21100
H  -5.74400 23.79600 22.03100
H  -1.41200 27.86900 23.98200
H  -4.29000 24.72000 31.23500
H  -7.11800 24.33100 30.43100
H  -5.28400 22.52500 31.61600
H  -6.16000 21.76100 30.30500
H  -7.00800 22.39700 31.58000
H  -6.97600 26.21600 31.37000
H  -5.64300 27.17100 30.88600
H  -6.33300 26.75100 33.44100
H  -4.71400 27.10500 32.77700
H  -9.02200 20.88000 26.05000
H  -10.05600 22.28800 25.60600
H  -9.21800 22.25700 27.11300
H  -9.65100 21.29300 22.01000
H  -10.29000 22.28100 23.31800
H  -9.28600 20.78000 23.65100
H  -4.58800 26.03600 21.00700
H  -1.79200 26.04100 21.95500
H  -4.05200 23.65800 20.09800
H  -2.92700 23.35900 21.34400
H  -2.43100 24.50800 20.18000
H  -3.18100 28.58800 21.97900
H  -3.53400 27.91700 20.48500
H  -1.14700 29.34500 21.14900
H  -1.75000 28.67900 19.61500
H  -0.68900 27.66400 20.62500
H  -1.16400 30.18800 26.28100
H  -0.15900 29.14000 25.23700
H  0.27400 29.31300 26.96900
H  -3.26800 27.99600 30.82600
H  -0.58900 25.29000 32.90800
H  -1.07800 26.41200 34.20700
H  0.29700 26.81900 33.08000

