158

Mg 2.38500 -1.41200 43.81700
C  5.85900 -0.82800 43.27000
C  1.75500 1.06900 41.64000
C  -0.79200 -2.50500 43.74000
C  3.35300 -4.44300 45.52600
N  3.73700 -0.14000 42.52000
C  5.09800 0.02400 42.53500
C  5.53900 1.04300 41.52300
C  4.13500 1.63500 41.08000
C  3.07500 0.86900 41.87400
C  4.01200 3.12600 41.26600
C  6.34200 0.43400 40.36400
C  7.71700 1.17300 40.22900
H  8.16200 1.64000 38.80900
N  0.67700 -0.73800 42.89800
C  0.61000 0.40500 42.07500
C  -0.78600 0.67800 41.80300
C  -1.58400 -0.37500 42.39200
C  -0.57800 -1.29400 43.05000
C  -1.24100 1.82900 41.06400
C  -3.08300 -0.48200 42.35100
O  -3.81800 0.30300 41.78700
C  -3.86300 -1.64500 43.07700
N  1.48600 -3.28100 44.39900
C  0.12700 -3.35200 44.35500
C  -0.34800 -4.59600 45.15300
C  0.90300 -5.40100 45.48800
C  2.00500 -4.31100 45.17000
C  -1.26900 -4.09300 46.38000
C  1.06100 -6.69800 44.70800
C  0.95000 -8.01200 45.46300
N  4.21100 -2.42400 44.35500
C  4.39200 -3.56300 45.06900
C  5.81500 -3.77600 45.36000
C  6.41900 -2.63800 44.66200
C  5.40500 -1.90000 44.05200
C  6.46500 -4.93600 46.09300
C  7.63500 -1.97200 44.49500
O  8.72000 -2.20400 44.98000
C  7.41200 -0.77200 43.52200
C  7.97900 0.40200 44.15100
O  7.63400 0.86700 45.24800
O  8.90100 0.91900 43.33500
C  9.37600 2.27300 43.62700
H  1.47400 1.87700 40.96200
H  -1.84500 -2.78200 43.82000
H  3.62600 -5.37100 46.03100
H  6.14100 1.65000 42.20000
H  4.08300 1.50100 39.99900
H  4.98500 3.61000 41.34900
H  3.56400 3.35600 42.23200
H  3.47300 3.61100 40.45200
H  5.73900 0.42600 39.45600
H  6.69600 -0.57400 40.57800
H  8.54600 0.53000 40.52400
H  7.81400 2.06500 40.84800
H  -2.03800 2.34600 41.59900
H  -1.70300 1.48400 40.13900
H  -0.49500 2.60200 40.88100
H  -4.87000 -1.23300 43.13400
H  -3.51200 -1.63700 44.10900
H  -3.77900 -2.63900 42.63800
H  -1.01000 -5.17100 44.50600
H  1.00900 -5.50100 46.56800
H  -1.73400 -3.14500 46.10800
H  -0.65500 -3.92900 47.26600
H  -2.06300 -4.81700 46.55800
H  1.95600 -6.68200 44.08600
H  0.24000 -6.69500 43.99200
H  1.74900 -8.67700 45.13500
H  -0.02800 -8.43400 45.23200
H  0.92000 -7.79400 46.53000
H  6.36400 -4.68800 47.15000
H  7.46800 -5.04800 45.67900
H  5.93400 -5.88100 45.97900
H  7.93800 -1.05600 42.61100
H  10.19500 2.19400 44.34100
H  8.58400 2.88100 44.06400
H  9.65700 2.77400 42.70100
Mg 9.34200 48.79800 25.98900
C  7.27100 49.16300 28.85900
C  11.99000 49.85100 27.79800
C  11.06100 48.68100 23.11800
C  6.37000 48.32700 24.12100
N  9.54500 49.33900 28.11000
C  8.58600 49.33400 29.14700
C  9.31200 49.63700 30.42200
C  10.67000 50.31400 29.94000
C  10.78200 49.81600 28.48200
C  10.61300 51.84600 30.12700
C  9.60300 48.37600 31.28000
C  9.87400 48.55400 32.71800
H  9.94400 47.33600 33.61400
N  11.26500 49.14600 25.55700
C  12.26800 49.48200 26.50400
C  13.47800 49.38100 25.78400
C  13.25700 49.15900 24.40200
C  11.81100 48.96000 24.28400
C  14.83400 49.61500 26.50200
C  14.23700 49.11900 23.28100
O  13.92600 48.90900 22.09700
C  15.67200 49.44700 23.58800
N  8.80300 48.61000 23.95200
C  9.69900 48.54200 22.95900
C  9.02700 48.30000 21.53200
C  7.55500 48.44200 21.83900
C  7.57100 48.47500 23.42600
C  9.55100 49.20900 20.38800
C  6.64500 47.35400 21.27600
C  5.66700 47.77500 20.16300
N  7.28000 48.56700 26.34700
C  6.20100 48.35800 25.49000
C  4.97400 48.31500 26.20900
C  5.37500 48.66600 27.56600
C  6.77600 48.86500 27.56800
C  3.65800 48.16700 25.56600
C  4.85300 48.93500 28.87400
O  3.71800 49.09500 29.36100
C  6.11300 49.13600 29.79300
C  6.18000 47.94800 30.74800
O  6.08700 46.76400 30.41600
O  6.46000 48.46300 31.98500
C  6.53600 47.43500 33.02500
H  12.84700 50.27600 28.32500
H  11.68800 48.60300 22.22800
H  5.43600 48.24000 23.56200
H  8.60600 50.24700 30.98700
H  11.49100 49.92800 30.54500
H  9.57700 52.18100 30.08000
H  11.04500 52.34200 29.25700
H  11.06500 52.03500 31.10100
H  10.59700 48.06500 30.95700
H  8.96000 47.53300 31.02600
H  9.04900 49.10600 33.16800
H  10.76400 49.17900 32.80000
H  14.55500 49.82500 27.53500
H  15.38600 50.49500 26.17200
H  15.43800 48.70800 26.50700
H  16.11000 48.85700 24.39200
H  15.66700 50.47800 23.94300
H  16.28100 49.52800 22.68800
H  9.12300 47.26300 21.20900
H  7.07200 49.39100 21.60500
H  8.69300 49.71900 19.95200
H  10.08200 48.55200 19.69900
H  10.30100 49.89200 20.78800
H  5.97000 46.92100 22.01400
H  7.21300 46.52400 20.85400
H  4.67900 47.65200 20.60800
H  5.73000 47.02100 19.37900
H  5.78400 48.78900 19.78000
H  3.57600 47.24600 24.98900
H  3.47500 49.01600 24.90800
H  2.89000 48.22000 26.33700
H  5.92600 50.02200 30.40000
H  5.72400 46.71800 32.90300
H  6.46900 47.85000 34.03100
H  7.47900 46.89200 32.97200

