158

Mg 44.12000 3.75500 48.11300
C  42.02400 6.47500 47.43300
C  41.29700 1.73500 47.63300
C  46.16700 1.13900 47.90400
C  46.83300 5.86700 47.67300
N  41.87600 4.06900 47.78600
C  41.27400 5.26600 47.53900
C  39.77300 5.11300 47.26800
C  39.48600 3.58500 47.41600
C  40.99400 3.07100 47.61200
C  38.66700 3.13600 48.63500
C  39.01100 5.85600 46.02700
C  39.58600 5.65200 44.61100
H  39.65600 6.83000 43.61600
N  43.81000 1.73200 47.83700
C  42.54600 1.09100 47.77800
C  42.74900 -0.33200 47.64700
C  44.18700 -0.53100 47.78000
C  44.83100 0.81500 47.83000
C  41.59400 -1.31100 47.60500
C  44.86000 -1.86100 47.82300
O  44.28100 -2.93800 47.92100
C  46.28800 -1.95600 47.80400
N  46.15200 3.58200 47.91500
C  46.81300 2.38700 47.87800
C  48.36100 2.50400 47.75800
C  48.56300 4.02100 47.64300
C  47.13600 4.53200 47.84000
C  49.21700 1.80600 48.92100
C  49.17700 4.41300 46.31100
C  50.54200 5.15700 46.39100
N  44.40300 5.79100 47.78600
C  45.59700 6.49300 47.64300
C  45.30100 7.87300 47.34100
C  43.91800 7.92600 47.31500
C  43.42000 6.59200 47.46000
C  46.29900 8.98000 47.09700
C  42.73000 8.86700 47.18200
O  42.60700 10.12600 47.12200
C  41.41100 7.96500 47.29600
C  40.58000 8.27000 48.48300
O  40.61300 7.54100 49.53200
O  39.68000 9.21000 48.19000
C  38.49900 9.35600 49.15100
H  40.42300 1.10900 47.43800
H  46.86600 0.33300 47.67100
H  47.75000 6.45700 47.62200
H  39.34300 5.63400 48.12400
H  39.09900 3.28800 46.44100
H  39.20100 2.34200 49.15800
H  37.71900 2.65500 48.39400
H  38.39400 3.89600 49.36600
H  38.72900 6.87000 46.31100
H  38.00900 5.42500 46.03700
H  39.12800 4.76200 44.17900
H  40.62300 5.34000 44.73500
H  41.52400 -1.70400 46.59100
H  40.63200 -0.86200 47.85400
H  41.67400 -2.21800 48.20400
H  46.75300 -1.35300 48.58400
H  46.61100 -1.44300 46.89800
H  46.41400 -3.03800 47.82100
H  48.71100 1.99700 46.85900
H  49.16800 4.42800 48.45300
H  48.44800 1.37400 49.56200
H  49.91400 2.43500 49.47500
H  49.78900 0.97800 48.50300
H  48.51300 5.16700 45.88900
H  49.27300 3.49900 45.72500
H  50.93400 5.08000 47.40500
H  50.43900 6.18900 46.05500
H  51.18900 4.63200 45.68900
H  46.70900 9.16000 48.09000
H  45.80200 9.90500 46.80500
H  47.07500 8.67100 46.39600
H  40.79400 7.97800 46.39700
H  38.29100 10.42600 49.19200
H  38.68000 9.04300 50.18000
H  37.71500 8.82100 48.61700
Mg -11.31300 38.60500 42.24600
C  -9.61400 35.70800 41.56200
C  -8.93000 40.49200 40.96100
C  -13.36000 41.30900 42.89000
C  -14.30000 36.51500 43.03300
N  -9.61500 38.09700 41.29400
C  -9.00600 36.85200 41.18500
C  -7.65700 36.94200 40.44000
C  -7.37700 38.46800 40.46500
C  -8.74300 39.07000 40.94800
C  -6.27800 38.96700 41.47400
C  -7.65000 36.34000 39.00700
C  -6.35800 35.59100 38.52500
H  -5.58100 36.16800 37.28800
N  -11.16500 40.64500 41.95200
C  -10.04600 41.18900 41.41200
C  -10.24800 42.64400 41.47100
C  -11.48600 42.92400 42.09500
C  -12.10700 41.60400 42.39300
C  -9.25600 43.55100 40.77900
C  -12.11000 44.34700 42.37500
O  -11.64700 45.33200 41.77000
C  -13.31100 44.55300 43.40800
N  -13.55700 38.82600 42.60300
C  -14.03000 40.08100 42.96700
C  -15.49400 39.99300 43.46500
C  -15.83100 38.50300 43.46200
C  -14.50000 37.85700 42.98900
C  -15.79900 40.72300 44.76800
C  -17.10400 38.14100 42.71800
C  -17.84300 36.88900 43.35500
N  -11.82200 36.50100 42.36200
C  -13.04500 35.88600 42.58800
C  -12.78000 34.40800 42.51400
C  -11.42400 34.28100 42.15600
C  -10.92100 35.61600 42.06500
C  -13.85300 33.39300 42.81500
C  -10.32300 33.37400 41.82200
O  -10.21500 32.16400 41.70200
C  -9.08000 34.34700 41.70000
C  -8.26100 34.12400 42.89700
O  -8.08200 34.93800 43.81000
O  -7.61300 32.89500 42.73900
C  -6.62000 32.53800 43.77100
H  -8.14000 41.08900 40.50000
H  -14.04800 42.14600 43.02900
H  -15.10800 35.81300 43.25300
H  -6.93700 36.39100 41.04500
H  -7.26000 38.94600 39.49200
H  -5.56000 39.62700 40.98800
H  -5.71400 38.12200 41.87000
H  -6.72700 39.57500 42.25900
H  -7.89000 37.09600 38.25900
H  -8.58200 35.80300 38.83100
H  -6.60200 34.54600 38.33300
H  -5.65100 35.74600 39.34000
H  -9.50900 43.55200 39.71900
H  -8.23400 43.19500 40.90900
H  -9.32400 44.57700 41.14000
H  -13.21100 45.47200 43.98500
H  -13.30800 43.74800 44.14200
H  -14.28600 44.68300 42.93900
H  -16.14700 40.37100 42.67800
H  -15.74600 38.24000 44.51600
H  -16.83100 40.65000 45.11100
H  -15.56100 41.78100 44.66400
H  -15.01000 40.46600 45.47400
H  -16.85700 37.86700 41.69200
H  -17.92200 38.85800 42.78200
H  -18.21400 36.15100 42.64500
H  -18.70000 37.18400 43.96000
H  -17.18200 36.42600 44.08800
H  -14.89000 33.72200 42.75900
H  -13.69600 33.01300 43.82500
H  -13.64100 32.52200 42.19400
H  -8.52900 34.07100 40.80100
H  -5.87200 31.93600 43.25600
H  -7.12400 32.03600 44.59800
H  -6.02600 33.34900 44.19300

