158

Mg 16.36200 -1.52300 28.19300
C  15.18000 0.22500 30.84300
C  18.54300 -3.16300 30.51200
C  17.88500 -3.10600 25.54700
C  14.18800 -0.02100 25.98700
N  16.82000 -1.42900 30.40900
C  16.17000 -0.67500 31.29000
C  16.61700 -0.96000 32.73900
C  17.85300 -1.87800 32.52200
C  17.76200 -2.14700 31.01000
C  19.22500 -1.41300 32.97100
C  15.37800 -1.32200 33.75900
C  15.43100 -0.73900 35.14800
H  16.67300 0.06300 35.62200
N  17.97400 -2.94600 28.05600
C  18.64500 -3.56300 29.13100
C  19.40600 -4.70100 28.56800
C  19.36600 -4.61300 27.16600
C  18.41400 -3.52200 26.84900
C  19.98700 -5.80400 29.51400
C  20.18100 -5.41200 26.12400
O  20.09400 -5.23300 24.87300
C  21.15700 -6.46900 26.62500
N  16.21200 -1.54700 26.08500
C  16.99000 -2.11400 25.18300
C  16.63600 -1.73200 23.76300
C  15.15500 -1.17600 23.98800
C  15.15500 -0.92900 25.43600
C  17.58600 -0.65500 23.04000
C  13.91900 -2.16200 23.68600
C  13.05700 -1.97500 22.47100
N  15.03300 -0.07400 28.26500
C  14.16600 0.43200 27.33600
C  13.37300 1.44600 27.88500
C  13.72300 1.39000 29.32400
C  14.76000 0.45600 29.48600
C  12.30600 2.36000 27.25400
C  13.47800 1.98400 30.62200
O  12.69200 2.89000 30.94400
C  14.42200 1.22800 31.60900
C  15.20000 2.22900 32.37300
O  16.40400 2.37500 32.34500
O  14.40600 2.99700 33.20000
C  15.12700 4.00300 34.10500
H  19.18500 -3.70800 31.20700
H  18.21600 -3.68400 24.68100
H  13.37400 0.26700 25.31800
H  17.05100 0.00200 33.01300
H  17.72600 -2.75100 33.16200
H  19.31600 -1.81500 33.98000
H  19.33900 -0.33100 32.90500
H  20.00800 -1.77200 32.30400
H  15.34500 -2.40900 33.82300
H  14.42800 -1.03700 33.30600
H  15.31700 -1.57400 35.83900
H  14.56300 -0.11100 35.35300
H  20.06400 -5.39400 30.52100
H  21.06300 -5.95400 29.42700
H  19.40100 -6.72300 29.53300
H  21.51700 -7.12800 25.83500
H  20.71200 -7.12300 27.37500
H  21.87000 -5.88600 27.20800
H  16.50600 -2.62400 23.14900
H  14.99800 -0.19700 23.53400
H  17.84800 -1.19700 22.13100
H  18.49300 -0.34600 23.55900
H  17.03100 0.26400 22.85200
H  13.32500 -2.17000 24.60000
H  14.46600 -3.09300 23.53900
H  12.56100 -1.00500 22.51000
H  12.18300 -2.61800 22.57900
H  13.64000 -2.16000 21.56900
H  11.33300 2.31500 27.74300
H  12.36500 2.09900 26.19700
H  12.62800 3.39900 27.33200
H  13.80300 0.65400 32.29700
H  14.52600 4.90600 34.21400
H  16.08000 4.34000 33.69800
H  15.32200 3.45500 35.02700
Mg 40.48200 9.47900 29.55200
C  42.32400 11.06500 32.12000
C  38.12700 8.41400 31.71000
C  39.06300 7.93200 26.90300
C  43.34800 10.16100 27.53700
N  40.33100 9.64300 31.61500
C  41.14500 10.41200 32.53900
C  40.41600 10.49200 33.81800
C  39.35000 9.38200 33.72200
C  39.27400 9.09200 32.24900
C  39.39400 8.07800 34.56100
C  39.88800 11.92900 34.12000
C  39.44400 12.10700 35.60000
H  40.39600 12.89000 36.53600
N  38.65200 8.52700 29.24900
C  37.83400 8.11800 30.34200
C  36.70300 7.45700 29.76100
C  36.94900 7.40200 28.38200
C  38.21900 7.93700 28.07500
C  35.59300 6.90700 30.66400
C  36.11800 6.71300 27.31100
O  36.51300 6.71100 26.14900
C  34.74800 6.10900 27.71500
N  41.19400 9.07600 27.53200
C  40.36900 8.46200 26.60500
C  40.93400 8.39000 25.17700
C  42.29600 9.24700 25.42800
C  42.29600 9.59100 26.92700
C  41.11600 6.99200 24.64500
C  42.56700 10.46900 24.42500
C  42.00700 11.92000 24.66000
N  42.54200 10.43800 29.70300
C  43.52000 10.60300 28.85600
C  44.51200 11.47000 29.31100
C  44.13900 11.63900 30.69500
C  42.91000 10.93900 30.83800
C  45.60300 12.07100 28.57100
C  44.48700 12.28400 31.94800
O  45.38000 13.06900 32.13500
C  43.28300 11.88800 32.96400
C  43.94300 11.05200 34.05700
O  44.78200 10.18300 33.82300
O  43.64100 11.59400 35.31900
C  44.04000 10.73000 36.46200
H  37.41600 8.10000 32.47700
H  38.64300 7.56600 25.96400
H  44.15800 10.47000 26.87300
H  41.06600 10.21400 34.64800
H  38.42900 9.86900 34.04100
H  40.26800 7.51200 34.24000
H  38.52800 7.44900 34.35700
H  39.36400 8.34600 35.61700
H  38.99200 12.12700 33.53100
H  40.63000 12.68900 33.87600
H  39.32900 11.13500 36.08100
H  38.45000 12.55400 35.60300
H  34.58000 7.03200 30.28100
H  35.54700 7.25700 31.69500
H  35.82100 5.84200 30.62200
H  34.09900 6.94100 27.99100
H  34.85400 5.36300 28.50200
H  34.37400 5.67300 26.78900
H  40.23500 8.99000 24.59500
H  43.15100 8.61200 25.19900
H  42.06800 6.83700 24.13500
H  40.30100 6.78000 23.95300
H  41.06000 6.23200 25.42400
H  42.29000 10.13400 23.42600
H  43.65600 10.42900 24.38500
H  41.12900 11.80800 25.29600
H  41.61400 12.36200 23.74500
H  42.77900 12.57000 25.07100
H  45.35500 12.40700 27.56500
H  46.31700 11.26100 28.42100
H  46.02700 12.97100 29.01700
H  42.78400 12.76900 33.36800
H  44.01200 9.70900 36.08300
H  43.25200 10.77000 37.21400
H  45.06200 10.93300 36.78000

