158

Mg -10.36400 39.14300 41.27400
C  -8.82700 36.03400 40.64300
C  -7.91700 40.66800 39.30400
C  -12.29600 41.91800 41.02500
C  -13.15800 37.25000 42.44700
N  -8.62900 38.43400 40.06000
C  -8.21400 37.12200 39.94400
C  -6.98300 37.05700 39.07900
C  -6.46600 38.57900 39.00500
C  -7.69000 39.30500 39.55200
C  -5.14500 38.83500 39.75500
C  -7.20700 36.42300 37.65800
C  -6.22200 35.41300 37.04400
H  -5.56200 35.73400 35.67900
N  -10.04400 41.03700 40.43600
C  -8.99300 41.51300 39.70200
C  -9.18700 42.88200 39.30100
C  -10.40000 43.33500 39.88100
C  -10.96500 42.09100 40.48800
C  -8.18100 43.68400 38.57500
C  -10.94300 44.72900 39.84800
O  -10.45200 45.57400 39.17600
C  -12.15100 45.07100 40.60100
N  -12.40300 39.52300 41.68500
C  -12.90300 40.79200 41.63200
C  -14.43300 40.79900 41.95300
C  -14.67600 39.34200 42.44300
C  -13.35800 38.57200 42.05700
C  -14.88400 41.90400 43.00400
C  -16.01300 38.72700 41.74300
C  -17.08500 37.99200 42.55500
N  -10.83700 37.10900 41.76400
C  -12.02700 36.53700 42.29100
C  -11.71600 35.11900 42.50200
C  -10.53500 34.90900 41.81200
C  -10.05800 36.09800 41.35900
C  -12.65700 34.24800 43.17900
C  -9.60000 33.87200 41.54100
O  -9.53600 32.70100 41.82900
C  -8.41900 34.55100 40.64000
C  -7.13300 34.18000 41.16200
O  -6.63600 33.08200 40.91100
O  -6.65800 35.16400 41.98500
C  -5.46900 34.71400 42.74000
H  -7.01500 41.09600 38.86200
H  -12.95100 42.78600 40.92600
H  -14.01000 36.67100 42.81100
H  -6.25900 36.51000 39.68300
H  -6.29900 38.78200 37.94700
H  -4.31200 38.23800 39.38400
H  -5.31200 38.63900 40.81400
H  -4.83600 39.86400 39.56900
H  -7.09000 37.18400 36.88700
H  -8.25500 36.12700 37.60300
H  -6.80900 34.49400 37.02300
H  -5.35900 35.34200 37.70500
H  -7.68900 44.27600 39.34700
H  -8.81100 44.28300 37.91800
H  -7.50100 43.10200 37.95300
H  -11.99500 44.70700 41.61600
H  -13.06400 44.68500 40.14700
H  -12.16800 46.15700 40.68800
H  -14.88500 40.92900 40.97000
H  -14.77800 39.19400 43.51800
H  -15.53600 42.61000 42.49000
H  -14.00900 42.41400 43.40700
H  -15.37400 41.45000 43.86500
H  -15.66300 38.17500 40.87000
H  -16.50000 39.53200 41.19300
H  -18.03700 38.49600 42.38900
H  -16.82700 37.83400 43.60300
H  -17.08500 36.99400 42.11700
H  -12.53600 33.22800 42.81400
H  -13.65300 34.60700 42.91800
H  -12.50200 34.32600 44.25500
H  -8.44100 34.14300 39.62900
H  -5.05800 35.51600 43.35300
H  -4.69100 34.56400 41.99200
H  -5.62600 33.82200 43.34600
Mg -1.20700 34.87000 27.47300
C  -2.89400 33.09800 29.95900
C  -0.05400 37.07500 29.81300
C  -0.12200 36.88100 24.97300
C  -2.52200 32.67300 25.06300
N  -1.57500 35.08900 29.71200
C  -2.17800 34.19500 30.52200
C  -2.06600 34.67000 32.00500
C  -1.30800 36.01300 31.82600
C  -0.87900 36.06000 30.38700
C  -2.12800 37.29400 32.31300
C  -1.32200 33.61900 32.91600
C  -1.92700 33.44700 34.31600
H  -0.97600 33.43300 35.46100
N  -0.07500 36.57800 27.43100
C  0.29500 37.32900 28.50200
C  1.10800 38.43300 28.04300
C  1.01400 38.51500 26.65100
C  0.30600 37.27100 26.28200
C  1.85300 39.36500 29.02400
C  1.70200 39.44300 25.62900
O  1.40300 39.44300 24.44400
C  2.96800 40.23700 25.98100
N  -1.27300 34.76400 25.35900
C  -0.82900 35.78000 24.49500
C  -1.34300 35.62600 23.10900
C  -1.77700 34.13900 23.16000
C  -1.89200 33.85000 24.60100
C  -2.56300 36.57400 22.87400
C  -0.98000 33.12900 22.31800
C  0.31700 32.55800 22.82800
N  -2.45900 33.27100 27.42600
C  -2.82400 32.40100 26.40700
C  -3.71900 31.41000 26.92200
C  -3.70400 31.51300 28.31900
C  -3.02000 32.74700 28.60100
C  -4.38500 30.35700 25.98800
C  -4.09300 30.94400 29.62200
O  -4.73100 29.89300 29.85100
C  -3.66800 31.95700 30.76900
C  -4.82400 32.41300 31.51000
O  -5.76600 33.09200 31.08500
O  -4.67800 31.99700 32.81100
C  -5.81500 32.42300 33.66200
H  0.30100 37.73100 30.61100
H  0.14700 37.59200 24.19000
H  -2.77900 31.98100 24.25900
H  -3.09800 34.77600 32.34000
H  -0.33600 36.04800 32.31800
H  -1.40900 37.99800 32.73200
H  -2.83400 37.05900 33.10900
H  -2.72400 37.72200 31.50700
H  -0.40300 34.14500 33.17400
H  -1.26900 32.68300 32.36000
H  -2.39200 32.46100 34.30400
H  -2.81500 34.07600 34.37500
H  2.93200 39.21700 29.07900
H  1.54400 39.08500 30.03100
H  1.58500 40.37100 28.70100
H  2.71500 40.90300 26.80500
H  3.32000 40.92300 25.21100
H  3.86500 39.71300 26.31300
H  -0.59800 35.85300 22.34700
H  -2.80800 34.01600 22.82600
H  -2.50000 37.42000 23.55900
H  -3.55300 36.11900 22.87900
H  -2.59600 37.03700 21.88800
H  -0.77300 33.55100 21.33400
H  -1.66300 32.29800 22.14300
H  0.76700 33.18700 23.59600
H  0.94000 32.47100 21.93800
H  0.06700 31.56300 23.19600
H  -4.50400 29.43600 26.55900
H  -3.76900 30.04300 25.14500
H  -5.32500 30.65800 25.52500
H  -2.93400 31.41500 31.36500
H  -6.58400 33.08200 33.26000
H  -5.37800 32.73200 34.61200
H  -6.33900 31.54300 34.03600

