158

Mg 31.22500 59.66200 38.88400
C  28.34000 57.72000 37.80000
C  33.19300 57.04800 37.95400
C  33.82300 61.78700 39.08100
C  29.02700 62.28000 39.64900
N  30.81400 57.72100 37.90200
C  29.61400 57.08000 37.74500
C  29.81600 55.76200 37.03300
C  31.29000 55.41300 37.40800
C  31.82100 56.85900 37.79500
C  31.51800 54.32900 38.48600
C  29.45600 55.61000 35.53600
C  28.33900 54.67100 35.08100
H  27.24000 55.27800 34.14500
N  33.29400 59.46400 38.67900
C  33.85500 58.27300 38.37700
C  35.33400 58.46800 38.42900
C  35.53300 59.81200 38.75800
C  34.22400 60.44800 38.84600
C  36.36400 57.42000 38.19300
C  36.87500 60.49400 38.98300
O  37.93300 59.88700 39.00300
C  36.96300 61.98100 39.34300
N  31.36700 61.82700 39.17700
C  32.59100 62.42100 39.29000
C  32.43800 63.89000 39.59200
C  30.90700 64.05300 39.95500
C  30.38400 62.68200 39.55500
C  33.36800 64.46900 40.71600
C  30.30900 65.18200 39.15900
C  29.37500 66.24200 39.84900
N  29.12200 59.98600 38.75400
C  28.37600 61.07500 39.18100
C  26.96300 60.77600 39.06700
C  26.94200 59.44200 38.55800
C  28.26600 59.05900 38.31600
C  25.80100 61.62300 39.59000
C  26.05800 58.29700 38.22000
O  24.87300 58.14500 38.26200
C  26.89900 57.15100 37.65300
C  26.55400 55.88000 38.40200
O  27.19300 55.47700 39.33700
O  25.58000 55.15300 37.78800
C  25.25700 53.84700 38.26900
H  33.81200 56.23100 37.57700
H  34.61000 62.54400 39.09200
H  28.37300 63.04200 40.07800
H  29.13000 55.13400 37.60200
H  31.78200 55.09700 36.48800
H  30.66800 53.64600 38.48700
H  31.55000 54.82100 39.45800
H  32.42100 53.74500 38.30800
H  30.32200 55.36600 34.92100
H  29.08700 56.60200 35.27700
H  27.81900 54.25400 35.94300
H  28.78200 53.84000 34.53100
H  35.98200 56.59800 37.58700
H  36.56100 56.98900 39.17500
H  37.36300 57.71600 37.87200
H  38.01300 62.27200 39.37300
H  36.46200 62.18000 40.29000
H  36.49600 62.51800 38.51800
H  32.63800 64.48400 38.70100
H  30.72500 64.17400 41.02300
H  34.17600 63.86400 41.12800
H  32.83400 64.84800 41.58700
H  33.85400 65.32500 40.24700
H  29.76000 64.87600 38.26800
H  31.12500 65.86000 38.90800
H  29.77300 67.25100 39.74100
H  29.27800 65.98400 40.90400
H  28.39600 66.22900 39.37100
H  26.02200 61.86700 40.62900
H  24.86700 61.06800 39.50600
H  25.80600 62.58200 39.07100
H  26.77300 57.00300 36.58000
H  25.90800 53.04300 37.92800
H  24.27200 53.53100 37.92300
H  25.16800 53.79900 39.35500
Mg 16.32000 51.51900 25.62900
C  18.09200 50.12900 28.44200
C  13.92800 52.43500 27.91400
C  14.28100 51.87200 23.06600
C  18.83800 50.35600 23.55100
N  16.16900 51.33200 27.98000
C  17.03300 50.85700 28.90900
C  16.58800 51.16000 30.31800
C  15.12300 51.65600 30.11300
C  15.07800 51.86900 28.59100
C  13.96300 50.73300 30.54600
C  17.55600 52.10100 31.05800
C  18.16800 51.61900 32.41500
H  17.30100 50.81500 33.37900
N  14.42600 52.12200 25.45500
C  13.58000 52.59800 26.51200
C  12.32600 52.99700 25.97600
C  12.34300 52.63700 24.57900
C  13.71600 52.21600 24.30100
C  11.20800 53.58900 26.87600
C  11.19600 52.75900 23.58400
O  11.31100 52.41000 22.42100
C  9.90100 53.44000 23.97000
N  16.64000 51.21900 23.58800
C  15.61600 51.47000 22.71300
C  16.12200 51.28900 21.25300
C  17.65300 51.11500 21.43800
C  17.72200 50.86300 22.97900
C  15.45000 50.15400 20.42400
C  18.61200 52.21100 21.03600
C  18.34900 53.67400 21.59800
N  18.14000 50.46700 25.94800
C  19.04300 50.07000 24.94200
C  20.16900 49.41500 25.58400
C  19.78900 49.43100 26.98400
C  18.54400 50.04500 27.08700
C  21.44800 48.96200 25.02200
C  20.29700 49.02900 28.29600
O  21.37700 48.56800 28.66600
C  19.16300 49.49500 29.29100
C  18.67200 48.28400 30.16800
O  17.62700 47.68200 30.03300
O  19.51100 48.11000 31.27500
C  19.09100 47.00800 32.19500
H  13.21500 52.62500 28.71800
H  13.70200 52.20400 22.20100
H  19.69900 49.93500 23.02700
H  16.47600 50.31200 30.99200
H  15.03800 52.56900 30.70100
H  14.31500 49.85300 31.08400
H  13.23000 50.32400 29.85100
H  13.36000 51.21000 31.31800
H  17.10700 53.08200 31.21200
H  18.42300 52.27500 30.42100
H  18.40300 52.43700 33.09700
H  18.99800 50.97200 32.13300
H  10.47800 52.78800 26.99400
H  10.76200 54.42900 26.34300
H  11.74600 54.02100 27.71900
H  9.09000 53.14100 23.30600
H  10.19700 54.48900 23.93700
H  9.71300 53.00800 24.95300
H  16.00400 52.20400 20.67400
H  18.00500 50.22300 20.92000
H  14.37800 49.96400 20.47600
H  15.83400 49.16300 20.66800
H  15.66000 50.27300 19.36100
H  18.55600 52.32600 19.95400
H  19.65000 51.90700 21.17700
H  18.36100 54.44900 20.83200
H  19.14300 53.91700 22.30400
H  17.34300 53.66500 22.01800
H  21.85700 49.60700 24.24300
H  21.29800 47.97200 24.59200
H  22.24600 48.88300 25.76100
H  19.67700 50.27100 29.85900
H  18.50100 46.19800 31.76600
H  18.43500 47.30700 33.01200
H  20.00100 46.53400 32.56400

