158

Mg 44.19500 3.23600 47.64600
C  42.06700 5.83000 46.71500
C  41.58200 1.07000 47.44800
C  46.35000 0.58500 47.86200
C  46.90900 5.43700 47.44000
N  42.01400 3.49000 47.19300
C  41.38300 4.61900 46.77000
C  39.94000 4.30500 46.52700
C  39.79100 2.87000 47.21200
C  41.25400 2.41300 47.23100
C  39.14200 2.78500 48.65700
C  39.65800 4.30900 44.93600
C  38.45300 5.12700 44.47000
H  38.64900 6.22300 43.41500
N  43.90200 1.07300 47.73600
C  42.80800 0.45700 47.58200
C  42.98700 -0.99500 47.68400
C  44.39200 -1.17100 47.73100
C  44.97900 0.23400 47.80100
C  41.87400 -2.01000 47.52800
C  45.10500 -2.56300 47.68100
O  44.49000 -3.59800 47.73300
C  46.53100 -2.65300 47.57500
N  46.32400 3.06800 47.61300
C  46.98200 1.90400 47.85700
C  48.51500 2.02900 48.11300
C  48.64800 3.58700 47.99100
C  47.23300 4.09800 47.65500
C  48.88100 1.34700 49.52000
C  49.68000 4.05500 46.92600
C  50.73400 5.08900 47.21900
N  44.46900 5.15600 47.27000
C  45.64200 5.85000 47.12500
C  45.32900 7.23700 46.81600
C  43.94100 7.33300 46.79600
C  43.42100 6.06500 47.00600
C  46.39800 8.32400 46.76100
C  42.81000 8.20600 46.59400
O  42.74400 9.43100 46.51300
C  41.50100 7.20500 46.49700
C  40.66700 7.61900 47.65800
O  40.42300 6.82700 48.54300
O  40.11400 8.84500 47.55900
C  38.93500 8.95700 48.40400
H  40.77100 0.34200 47.38200
H  47.01500 -0.27200 47.98600
H  47.75700 6.12500 47.46700
H  39.26900 4.98700 47.05000
H  39.26700 2.20300 46.52700
H  39.06100 3.76200 49.13500
H  39.72500 2.15900 49.33200
H  38.16500 2.33200 48.48900
H  39.27700 3.31000 44.72400
H  40.52400 4.47800 44.29500
H  37.96500 5.65200 45.29200
H  37.65200 4.54600 44.01200
H  42.17000 -2.96700 47.09800
H  41.23200 -1.57800 46.76100
H  41.35100 -2.17500 48.47000
H  46.84600 -2.06400 46.71400
H  46.72800 -3.70000 47.34400
H  46.91700 -2.32000 48.53800
H  49.08100 1.54200 47.31900
H  48.92000 4.06600 48.93200
H  49.32600 2.14900 50.11000
H  49.47700 0.43700 49.44300
H  47.97300 1.10100 50.07000
H  49.20900 4.32700 45.98100
H  50.21300 3.14100 46.66600
H  51.73900 4.66600 47.21500
H  50.61900 5.61200 48.16800
H  50.78600 5.78600 46.38200
H  46.97100 8.24800 47.68500
H  45.97800 9.31600 46.93100
H  46.97100 8.22500 45.83900
H  40.99800 7.04300 45.54400
H  38.10500 8.38900 47.98500
H  38.57800 9.98700 48.42700
H  39.17000 8.78400 49.45400
Mg -10.10100 40.63600 42.89700
C  -9.43800 37.28300 41.87500
C  -7.12900 41.60800 41.51600
C  -11.16800 43.93200 42.95300
C  -13.36300 39.56100 43.69000
N  -8.52700 39.54400 41.77800
C  -8.47200 38.19500 41.45400
C  -7.12000 37.80300 40.76000
C  -6.36200 39.26000 40.89800
C  -7.36900 40.18400 41.45900
C  -5.02300 39.08500 41.67700
C  -7.31000 37.40400 39.22800
C  -6.65700 36.06000 38.94900
H  -5.73500 36.08200 37.72000
N  -9.30400 42.54300 42.33600
C  -7.99000 42.68700 41.82100
C  -7.74200 44.12700 41.66500
C  -8.92100 44.85300 42.07400
C  -9.87400 43.79000 42.46900
C  -6.41300 44.71500 41.14100
C  -9.11500 46.33500 42.03400
O  -8.20200 47.11600 41.70900
C  -10.43600 47.02900 42.51000
N  -11.99400 41.57000 43.25300
C  -12.09900 42.95500 43.29300
C  -13.60700 43.31400 43.71100
C  -14.16600 41.99300 44.24100
C  -13.14000 40.98000 43.68300
C  -13.76300 44.55500 44.62000
C  -15.63500 41.76300 43.61700
C  -15.74500 41.32900 42.13200
N  -11.22600 38.78800 42.94700
C  -12.49800 38.54100 43.27600
C  -12.72600 37.10300 43.40600
C  -11.50700 36.57300 42.85600
C  -10.66900 37.68100 42.52300
C  -13.96500 36.51000 43.77900
C  -10.89400 35.29800 42.43500
O  -11.22300 34.12200 42.48700
C  -9.59000 35.82300 41.75300
C  -8.56800 35.03400 42.44400
O  -8.03400 35.25400 43.49100
O  -8.23500 33.95600 41.65300
C  -7.26000 33.05600 42.28200
H  -6.09000 41.82200 41.25500
H  -11.66500 44.90100 42.86800
H  -14.29600 39.27800 44.18200
H  -6.55400 37.04200 41.29600
H  -6.06400 39.58300 39.90000
H  -4.73700 38.05800 41.90300
H  -5.07000 39.58900 42.64200
H  -4.18400 39.59800 41.20700
H  -6.98600 38.07500 38.43200
H  -8.38800 37.25200 39.18300
H  -7.43300 35.35600 38.65000
H  -6.02900 35.77900 39.79400
H  -6.44800 45.49500 40.38100
H  -5.97300 43.81900 40.70400
H  -5.63900 44.85200 41.89600
H  -10.31400 48.09000 42.29100
H  -10.72700 46.79600 43.53400
H  -11.18700 46.58700 41.85400
H  -14.13800 43.52200 42.78200
H  -14.30600 41.97300 45.32200
H  -12.76200 44.91600 44.85400
H  -14.28500 44.36700 45.55900
H  -14.32800 45.33900 44.11600
H  -16.10700 42.73900 43.50100
H  -16.19000 41.22400 44.38500
H  -14.74200 41.28300 41.70700
H  -16.29000 42.05500 41.53000
H  -16.17700 40.33000 42.19200
H  -13.81400 35.55100 44.27500
H  -14.75200 36.40600 43.03200
H  -14.51800 37.14400 44.47200
H  -9.62900 35.61500 40.68400
H  -7.59500 32.61100 43.21900
H  -6.36200 33.61700 42.54000
H  -6.94500 32.32800 41.53400

