158

Mg 26.01800 0.95600 28.55400
C  27.80100 0.35700 31.52000
C  23.16500 1.26700 30.40800
C  24.28900 0.81400 25.78300
C  28.91400 0.20500 26.67800
N  25.57900 0.77500 30.83400
C  26.45000 0.68300 31.83900
C  25.83200 0.88400 33.22600
C  24.34000 1.24300 32.81000
C  24.30700 1.07200 31.23100
C  23.27100 0.35500 33.46300
C  26.52700 1.97400 34.10000
C  27.09100 1.50300 35.51300
H  26.76900 2.38400 36.73100
N  24.01500 0.96200 28.14500
C  23.00500 1.21600 29.01200
C  21.72400 1.31500 28.31400
C  22.03000 1.15300 26.92100
C  23.50800 0.98600 26.91500
C  20.39300 1.45100 28.96500
C  21.16700 1.06700 25.68000
O  21.59100 0.93800 24.54300
C  19.62800 0.99400 25.98400
N  26.54100 0.59000 26.50200
C  25.62200 0.61800 25.55500
C  26.16500 0.57000 24.14500
C  27.73500 0.70500 24.41500
C  27.77500 0.41900 25.96300
C  25.62500 -0.58400 23.27900
C  28.25100 2.16200 24.03000
C  28.15000 3.42100 24.91000
N  27.98500 0.55200 28.94200
C  29.03300 0.22200 28.07100
C  30.16800 -0.07900 28.90600
C  29.81100 0.00600 30.20100
C  28.42300 0.35500 30.21400
C  31.61100 -0.51100 28.35800
C  30.23500 -0.15200 31.59000
O  31.28200 -0.53000 32.08300
C  28.94300 0.16800 32.42500
C  28.69700 -0.95700 33.30500
O  27.90900 -1.88900 33.05100
O  29.32700 -0.74400 34.43700
C  29.02000 -1.66300 35.52000
H  22.25900 1.53900 30.95300
H  23.81900 0.84200 24.79800
H  29.82700 -0.01500 26.12200
H  25.79800 -0.09900 33.69500
H  24.19700 2.31600 32.93900
H  23.53100 -0.70100 33.38800
H  22.31900 0.52300 32.96000
H  23.11000 0.62400 34.50700
H  25.78100 2.73000 34.34500
H  27.30100 2.47100 33.51500
H  28.17300 1.63300 35.46700
H  26.75300 0.48800 35.72400
H  20.47000 1.65200 30.03400
H  19.84300 0.52800 28.78000
H  19.73000 2.21700 28.56200
H  19.37300 0.33200 26.81100
H  19.23700 0.37800 25.17400
H  19.27200 2.00600 26.17500
H  25.80100 1.51200 23.73600
H  28.27400 -0.05300 23.84700
H  24.92100 -1.17200 23.87000
H  26.48700 -1.14000 22.91000
H  25.25900 -0.00700 22.43000
H  27.95900 2.53300 23.04700
H  29.32700 2.09600 23.87200
H  28.06900 3.21300 25.97700
H  27.28700 4.02200 24.62400
H  29.02100 4.07600 24.90900
H  32.07700 0.30400 27.80400
H  31.54700 -1.30600 27.61500
H  32.23800 -0.85300 29.18100
H  29.28700 1.04300 32.97800
H  27.94200 -1.60700 35.66800
H  29.60100 -1.41900 36.41000
H  29.09600 -2.72300 35.27400
Mg 40.88300 9.10900 29.94600
C  42.40400 10.30100 32.78100
C  38.17900 8.19000 31.94400
C  39.34500 7.87600 27.22500
C  43.61500 9.99000 28.12800
N  40.43500 9.06500 32.13600
C  41.07900 9.83200 33.05800
C  40.27800 9.89900 34.39300
C  39.03400 8.97100 34.12500
C  39.22100 8.65800 32.69700
C  38.83500 7.73900 35.12400
C  40.04300 11.32700 34.86900
C  39.80700 11.46400 36.40200
H  40.94700 12.04000 37.29100
N  39.02100 8.07300 29.66500
C  38.05600 7.84500 30.52700
C  36.91400 7.09500 29.88700
C  37.22200 7.00700 28.48000
C  38.56600 7.68400 28.36400
C  35.71500 6.45500 30.60600
C  36.38700 6.51100 27.34900
O  36.79000 6.49800 26.19300
C  35.02900 6.13000 27.71000
N  41.48400 8.94500 28.01900
C  40.64600 8.37000 27.06900
C  41.41200 8.25500 25.70500
C  42.60700 9.27000 25.91800
C  42.52400 9.47000 27.43800
C  41.78600 6.79500 25.33700
C  42.50400 10.65700 25.17100
C  41.14000 11.49300 25.30200
N  42.66900 9.98900 30.36600
C  43.70500 10.29900 29.48600
C  44.72600 10.94200 30.20100
C  44.26300 10.94700 31.55300
C  43.02600 10.33100 31.55900
C  45.91600 11.51500 29.58000
C  44.52900 11.48400 32.93200
O  45.39900 12.17700 33.37500
C  43.33800 10.95300 33.78500
C  43.68700 10.00600 34.78400
O  43.64200 8.77500 34.68200
O  44.02800 10.65000 35.91300
C  44.51200 9.76700 37.03200
H  37.18500 8.06500 32.37700
H  38.97000 7.51500 26.26500
H  44.55900 10.21300 27.62500
H  40.74800 9.32300 35.19100
H  38.12400 9.53900 34.31500
H  39.20500 7.97400 36.12300
H  39.42800 6.88700 34.79200
H  37.76500 7.55000 35.20900
H  39.08100 11.55100 34.40700
H  40.66300 12.11600 34.44400
H  39.56400 10.46300 36.75900
H  38.87500 12.01800 36.51900
H  34.78100 6.97800 30.39700
H  35.84100 6.51100 31.68700
H  35.63500 5.39200 30.37900
H  34.45800 5.73600 26.86900
H  34.59500 7.05100 28.10100
H  35.19700 5.26800 28.35500
H  40.85000 8.59600 24.83500
H  43.53600 8.70900 25.81900
H  41.21800 6.07300 25.92300
H  42.82900 6.75800 25.65000
H  41.54800 6.45500 24.32900
H  42.52500 10.49200 24.09400
H  43.33200 11.30700 25.45400
H  40.61700 11.77300 24.38800
H  41.19100 12.47400 25.77300
H  40.36700 11.01100 25.90000
H  45.85400 12.60300 29.61200
H  46.19700 11.00600 28.65800
H  46.71500 11.16600 30.23500
H  42.92800 11.84200 34.26400
H  44.91300 8.80000 36.73000
H  43.63000 9.61500 37.65400
H  45.26700 10.31500 37.59700

