158

Mg 24.38200 -5.43200 45.50400
C  26.56200 -3.33900 43.96800
C  21.86700 -4.29300 43.37300
C  22.34500 -7.97800 46.50700
C  27.00900 -7.00800 47.16700
N  24.30200 -4.15300 43.70300
C  25.27700 -3.25600 43.40800
C  24.87400 -2.32600 42.27500
C  23.29800 -2.40600 42.28600
C  23.13700 -3.74600 43.14000
C  22.52700 -1.23400 42.95800
C  25.45500 -2.74400 40.85300
C  26.00200 -1.48100 40.17100
H  25.83500 -1.45300 38.66200
N  22.33100 -6.08700 44.98700
C  21.43500 -5.38100 44.15200
C  20.23900 -6.09700 44.23000
C  20.32500 -7.15900 45.14200
C  21.70200 -7.14300 45.56900
C  19.15700 -5.67500 43.19000
C  19.22300 -8.08600 45.53600
O  18.06700 -7.83900 45.10100
C  19.33500 -9.17300 46.58300
N  24.65000 -7.23500 46.66400
C  23.67000 -8.10400 46.90400
C  24.11600 -9.24900 47.76100
C  25.63800 -8.88700 48.05900
C  25.81000 -7.69300 47.20800
C  23.34100 -9.67400 49.02200
C  26.59500 -10.04500 47.75300
C  27.56400 -10.49000 48.81400
N  26.34600 -5.27200 45.62300
C  27.32700 -5.87500 46.41200
C  28.62300 -5.16500 46.23800
C  28.30100 -4.08700 45.32800
C  26.94900 -4.26100 44.98900
C  29.99200 -5.52600 46.91700
C  28.82400 -2.93200 44.68600
O  29.98000 -2.48200 44.82600
C  27.70100 -2.42300 43.65300
C  27.57000 -0.96500 43.91400
O  27.05200 -0.44200 44.91100
O  28.26400 -0.18800 42.96400
C  28.46800 1.28600 43.21300
H  21.03900 -3.89800 42.78000
H  21.84600 -8.91100 46.78000
H  27.93900 -7.17600 47.71500
H  25.08000 -1.33100 42.67100
H  22.70400 -2.51000 41.37800
H  23.17500 -0.52600 43.47500
H  21.84700 -1.69200 43.67600
H  21.96000 -0.68600 42.20600
H  24.66800 -3.30500 40.34900
H  26.23700 -3.47800 41.04800
H  27.07900 -1.57300 40.31000
H  25.64300 -0.54600 40.60000
H  19.54900 -5.72500 42.17400
H  18.74200 -4.71300 43.48800
H  18.42100 -6.47900 43.21600
H  19.87300 -9.97100 46.07000
H  18.39600 -9.49300 47.03300
H  19.99100 -8.85700 47.39500
H  24.16100 -10.13100 47.12100
H  25.75800 -8.63900 49.11400
H  22.39000 -9.14100 49.02500
H  23.80700 -9.33500 49.94700
H  23.09600 -10.73400 49.07700
H  27.30600 -9.74800 46.98100
H  25.97900 -10.82200 47.30000
H  27.42900 -11.57000 48.87600
H  27.25800 -10.11300 49.79000
H  28.56500 -10.13000 48.57800
H  30.39700 -6.52200 46.74100
H  29.82900 -5.31600 47.97400
H  30.55400 -4.80600 46.32200
H  28.14900 -2.67400 42.69100
H  28.21800 1.86600 42.32400
H  29.50800 1.43000 43.50600
H  27.88400 1.72500 44.02200
Mg 47.24000 25.24100 28.18500
C  48.11900 27.53800 30.64800
C  46.19300 23.05200 30.55900
C  46.41700 23.08200 25.74200
C  48.50000 27.39700 25.73300
N  47.24200 25.27400 30.37000
C  47.53300 26.34700 31.17400
C  47.39400 26.03400 32.69800
C  46.84600 24.55600 32.57600
C  46.81900 24.26100 31.06300
C  47.65000 23.58400 33.40300
C  46.54500 27.16700 33.41600
C  45.83700 26.62600 34.69500
H  45.42300 27.63300 35.84000
N  46.43800 23.34900 28.13000
C  46.08100 22.57900 29.21400
C  45.63700 21.26100 28.82300
C  45.55600 21.27900 27.42300
C  46.16000 22.57200 27.00900
C  45.34000 20.09300 29.74700
C  45.04400 20.19400 26.50000
O  45.05100 20.36700 25.28600
C  44.54400 18.90100 27.03000
N  47.36900 25.21600 25.97900
C  47.02700 24.27600 25.27000
C  47.22400 24.43700 23.75500
C  47.69700 25.94300 23.67100
C  47.89900 26.24300 25.22600
C  48.15600 23.39800 23.06100
C  46.80100 26.94400 22.95000
C  47.32100 27.37800 21.51800
N  48.17000 27.04700 28.16600
C  48.56400 27.85300 27.13200
C  49.08900 29.09900 27.62200
C  48.97300 29.07400 28.97900
C  48.36900 27.76600 29.28200
C  49.73100 30.20300 26.91300
C  49.19300 29.74000 30.23900
O  49.65300 30.85000 30.49200
C  48.53100 28.88200 31.30000
C  49.49600 28.71800 32.37400
O  50.31700 27.83300 32.62900
O  49.11800 29.60200 33.37900
C  49.74700 29.48500 34.66700
H  45.69400 22.50600 31.36200
H  46.20100 22.36400 24.94800
H  48.84000 28.09900 24.96900
H  48.44500 26.14100 32.96400
H  45.82500 24.47600 32.95000
H  47.84400 22.71300 32.77700
H  47.08500 23.20500 34.25500
H  48.63700 23.97900 33.64600
H  45.91700 27.73300 32.72800
H  47.21900 27.91200 33.83700
H  46.49800 25.85900 35.09800
H  44.90900 26.15300 34.37300
H  46.04900 19.31800 29.45300
H  44.30400 19.76200 29.81700
H  45.63900 20.37300 30.75700
H  45.44700 18.61600 27.57000
H  44.29600 18.27600 26.17300
H  43.74200 19.05200 27.75300
H  46.27500 24.47200 23.22000
H  48.72400 25.90100 23.30600
H  49.03400 23.89700 22.65100
H  47.63300 23.06100 22.16500
H  48.45500 22.54700 23.67300
H  46.79200 27.77800 23.65100
H  45.77700 26.56900 22.92900
H  46.36900 27.37300 20.98800
H  48.01100 26.61300 21.16100
H  47.75000 28.37800 21.57800
H  49.36300 31.09200 27.42500
H  49.54600 30.29600 25.84300
H  50.80700 30.06800 27.02200
H  47.60300 29.36400 31.60700
H  49.25800 28.78500 35.34400
H  49.90500 30.43600 35.17600
H  50.81100 29.28700 34.53600

