158

Mg 40.34100 8.61000 29.29800
C  42.11100 10.04100 31.92200
C  38.11500 7.21700 31.59000
C  38.46400 7.49900 26.82100
C  42.73700 9.71800 27.15700
N  40.06600 8.80800 31.50300
C  40.92500 9.44400 32.37900
C  40.33900 9.35900 33.78900
C  39.05000 8.47400 33.66100
C  39.05000 8.16300 32.11300
C  38.89700 7.24600 34.59600
C  40.30200 10.76400 34.55600
C  39.30200 10.83500 35.71100
H  39.77300 11.77900 36.79400
N  38.58600 7.53200 29.20300
C  37.77600 7.02000 30.25500
C  36.74500 6.14400 29.72800
C  36.67100 6.47300 28.32000
C  37.99200 7.17700 28.08100
C  35.76800 5.41200 30.55800
C  35.59600 6.26700 27.26700
O  35.68100 6.57000 26.09300
C  34.20000 5.84200 27.67000
N  40.67000 8.45900 27.22200
C  39.66200 8.11100 26.42600
C  40.07900 8.11500 24.93900
C  41.30900 9.09500 25.09200
C  41.66200 9.04000 26.53800
C  40.43400 6.75900 24.39100
C  41.00600 10.53500 24.56900
C  42.00900 10.86300 23.36300
N  42.17700 9.47700 29.51400
C  43.00600 9.89700 28.50800
C  44.19400 10.47200 29.15200
C  43.83300 10.60900 30.48600
C  42.60800 9.95400 30.58900
C  45.47300 10.91700 28.46600
C  44.30400 11.05200 31.82700
O  45.38000 11.52100 32.11900
C  43.17100 10.69800 32.88200
C  43.75000 9.75900 33.89400
O  44.11000 8.60400 33.79200
O  43.89200 10.42900 35.10000
C  44.09300 9.61900 36.29500
H  37.38800 6.84100 32.31200
H  37.85500 7.20600 25.96300
H  43.35300 10.29200 26.46100
H  41.12700 8.86400 34.35600
H  38.26200 9.21700 33.78600
H  39.08700 6.37900 33.96400
H  37.89500 7.21800 35.02500
H  39.62800 7.33600 35.40000
H  40.31100 11.68200 33.96800
H  41.27000 10.87400 35.04400
H  38.87800 9.92600 36.13800
H  38.41600 11.33100 35.31600
H  34.98400 6.12100 30.82300
H  36.16300 5.05600 31.51000
H  35.26300 4.57600 30.07500
H  33.88300 6.40000 28.55100
H  34.21000 4.81800 28.04400
H  33.47800 5.71900 26.86300
H  39.26500 8.60700 24.40800
H  42.28000 8.72600 24.76100
H  40.48000 6.01000 25.18200
H  41.35000 6.76900 23.80100
H  39.60300 6.46200 23.75000
H  41.07400 11.33300 25.30800
H  40.06300 10.49300 24.02300
H  41.62300 11.66400 22.73300
H  42.30200 10.08900 22.65200
H  42.87300 11.38200 23.77600
H  45.17100 11.55200 27.63300
H  46.04100 10.02900 28.19000
H  46.09400 11.52200 29.12700
H  42.92800 11.62000 33.41000
H  43.71500 10.15400 37.16700
H  45.14300 9.54600 36.57600
H  43.61900 8.64800 36.14900
Mg -11.42800 38.76700 42.30500
C  -9.70600 35.99600 41.21000
C  -8.85000 40.78600 40.95800
C  -13.33800 41.42400 42.72200
C  -14.17400 36.68800 42.94300
N  -9.52200 38.38500 41.01600
C  -8.96200 37.17100 40.81900
C  -7.48600 37.26000 40.39100
C  -7.29400 38.83700 40.40300
C  -8.65700 39.36700 40.84700
C  -6.15500 39.43300 41.27400
C  -7.18500 36.67400 38.99600
C  -6.16500 35.50800 39.02000
H  -5.05700 35.69300 38.00100
N  -11.03100 40.84500 42.10800
C  -9.95300 41.46400 41.52600
C  -10.16400 42.87500 41.37600
C  -11.47100 43.13700 41.91100
C  -12.03500 41.77900 42.29700
C  -9.20500 43.83200 40.72700
C  -12.22500 44.49300 42.01400
O  -11.74200 45.51600 41.57400
C  -13.58200 44.59800 42.61100
N  -13.46900 39.01800 42.69500
C  -14.00700 40.23400 42.91100
C  -15.44500 40.20300 43.47800
C  -15.58700 38.67100 43.67500
C  -14.32100 38.05200 43.04600
C  -15.52100 41.04700 44.82800
C  -16.94500 38.10900 43.17600
C  -17.66000 37.15400 44.11800
N  -11.87600 36.78000 42.13900
C  -12.99500 36.01300 42.54500
C  -12.69700 34.58200 42.44100
C  -11.47600 34.54200 41.85400
C  -10.93500 35.86900 41.83100
C  -13.71700 33.44300 42.81600
C  -10.44900 33.64400 41.39200
O  -10.51400 32.41200 41.28400
C  -9.23500 34.53500 41.11200
C  -8.19400 34.29000 42.14000
O  -7.79000 35.10500 42.93900
O  -7.44000 33.15400 41.84800
C  -6.10100 33.03800 42.36000
H  -8.00500 41.44700 40.75600
H  -14.09100 42.19400 42.90200
H  -14.97000 36.10000 43.40300
H  -6.82100 36.93300 41.19000
H  -7.05500 39.23900 39.41900
H  -5.40900 39.98600 40.70300
H  -5.64000 38.58300 41.72200
H  -6.55500 40.05500 42.07500
H  -6.73100 37.46600 38.39900
H  -8.12300 36.33100 38.55900
H  -6.63200 34.53000 38.90500
H  -5.70100 35.44400 40.00400
H  -9.62500 44.08500 39.75400
H  -8.24200 43.45300 40.38400
H  -9.17500 44.74700 41.31900
H  -14.28000 44.17700 41.88800
H  -13.82600 45.65800 42.67200
H  -13.59000 44.13100 43.59600
H  -16.19700 40.60300 42.79800
H  -15.33300 38.56600 44.73000
H  -15.96400 42.02900 44.65900
H  -14.51400 41.22400 45.20700
H  -16.13000 40.61700 45.62300
H  -16.83900 37.63300 42.20100
H  -17.58200 38.93800 42.86900
H  -18.54400 37.72600 44.39800
H  -17.07100 36.86900 44.99000
H  -17.87600 36.26400 43.52600
H  -14.07400 33.73800 43.80200
H  -13.06200 32.57600 42.90500
H  -14.53100 33.26200 42.11300
H  -8.83100 34.21200 40.15300
H  -5.59900 34.00300 42.29800
H  -5.62200 32.36900 41.64500
H  -6.13300 32.59500 43.35500

