158

Mg 8.36200 3.06400 27.29200
C  9.67100 1.52400 30.19100
C  6.61400 5.10600 29.18200
C  7.43100 4.52900 24.45500
C  10.17000 0.62300 25.44200
N  8.11000 3.23900 29.43400
C  8.79700 2.55600 30.45100
C  8.41300 3.13700 31.81100
C  7.27600 4.19500 31.41300
C  7.31200 4.19300 29.93700
C  5.92700 3.97600 32.03800
C  9.63900 3.87000 32.49100
C  10.27300 3.26600 33.82900
H  10.39100 4.33600 34.89500
N  7.09200 4.61200 26.84700
C  6.50500 5.38600 27.73200
C  5.73900 6.41800 27.07600
C  5.92400 6.23500 25.68300
C  6.79900 5.06700 25.59600
C  4.94500 7.54800 27.74600
C  5.44100 7.08300 24.55300
O  5.78600 6.84100 23.40900
C  4.58600 8.34300 24.72900
N  8.73300 2.61400 25.23900
C  8.26700 3.40400 24.22800
C  8.78600 2.92100 22.86000
C  9.39100 1.51500 23.15700
C  9.38500 1.53600 24.71100
C  7.79400 3.04100 21.66600
C  10.78500 1.18200 22.35700
C  10.87800 -0.03200 21.40300
N  9.58400 1.32300 27.65700
C  10.16500 0.47100 26.82100
C  10.96600 -0.46000 27.55500
C  10.86500 -0.13700 28.90600
C  9.89300 0.96100 28.91800
C  11.94000 -1.51000 26.95400
C  11.27900 -0.35800 30.26900
O  12.12600 -1.14300 30.66000
C  10.53000 0.70500 31.15400
C  9.69500 -0.02200 32.11100
O  8.52700 -0.30800 31.95500
O  10.42800 -0.21300 33.26400
C  9.52100 -0.69800 34.31800
H  6.20000 5.92200 29.77700
H  7.43500 5.18200 23.58000
H  10.71600 -0.10800 24.84200
H  8.01400 2.31800 32.41000
H  7.61400 5.20100 31.65900
H  5.69400 2.91300 32.09100
H  5.16300 4.46400 31.43200
H  6.00900 4.32100 33.06900
H  9.52500 4.95000 32.57800
H  10.46100 3.69900 31.79600
H  11.27500 2.91500 33.57900
H  9.67400 2.47400 34.27800
H  5.03200 7.47400 28.83000
H  3.92100 7.29500 27.47200
H  5.13300 8.57500 27.43100
H  4.15000 8.53600 23.74800
H  5.25400 9.14900 25.03200
H  3.76800 8.26500 25.44500
H  9.64700 3.55800 22.65800
H  8.61800 0.80600 22.86100
H  6.82400 3.31000 22.08400
H  7.70800 2.10100 21.12100
H  8.23700 3.79800 21.01800
H  11.64700 1.19600 23.02400
H  11.00600 1.97700 21.64500
H  10.76700 0.19900 20.34400
H  10.08000 -0.74700 21.60400
H  11.79300 -0.62100 21.46700
H  12.81000 -0.97500 26.57300
H  11.38800 -2.04900 26.18400
H  12.08400 -2.23600 27.75500
H  11.13600 1.33100 31.80900
H  8.98300 0.13100 34.77800
H  10.20400 -1.19100 35.00900
H  8.80300 -1.50200 34.15600
Mg 40.47800 9.23400 29.31600
C  42.25800 10.65000 31.83200
C  38.05600 8.13800 31.56000
C  38.66200 8.04300 26.70100
C  43.06500 10.28400 27.01300
N  40.21800 9.44200 31.44600
C  41.10300 10.02000 32.28500
C  40.54100 10.03100 33.69200
C  39.43200 9.01700 33.52900
C  39.16400 8.86100 32.06400
C  39.48600 7.66300 34.34900
C  40.06200 11.41900 34.25800
C  40.75400 11.79100 35.61100
H  39.94500 12.27200 36.81200
N  38.66000 8.11100 29.17100
C  37.79800 7.85300 30.19300
C  36.57500 7.24000 29.62000
C  36.76200 7.18900 28.21800
C  38.08200 7.79900 27.95500
C  35.45400 6.68400 30.47200
C  35.95500 6.45400 27.24300
O  36.16700 6.45000 26.02600
C  34.79500 5.62100 27.62900
N  40.88200 9.21200 27.20300
C  39.94100 8.64900 26.35100
C  40.35100 8.81600 24.86500
C  41.77000 9.45700 24.95500
C  41.93200 9.68200 26.49200
C  40.14500 7.59300 23.96800
C  41.91200 10.70400 23.97700
C  41.45200 12.10100 24.57500
N  42.25000 10.15700 29.37100
C  43.23500 10.51700 28.41100
C  44.30900 11.23800 29.00100
C  44.02500 11.33000 30.38800
C  42.73800 10.67400 30.52700
C  45.55100 11.63000 28.24900
C  44.45600 11.77100 31.61900
O  45.51600 12.32500 31.99500
C  43.33100 11.34200 32.70800
C  43.95500 10.42700 33.60700
O  44.16300 9.21700 33.45800
O  44.13000 11.06700 34.78000
C  44.78100 10.28900 35.86600
H  37.22900 7.91300 32.23700
H  38.11700 7.68900 25.82300
H  43.76400 10.75300 26.31800
H  41.25500 9.56400 34.37100
H  38.54500 9.57900 33.82000
H  40.33700 7.67900 35.03000
H  39.68900 6.80600 33.70700
H  38.63400 7.52200 35.01500
H  38.99500 11.41800 34.47800
H  40.28200 12.10300 33.43800
H  41.40700 12.65200 35.46700
H  41.33800 10.90700 35.86700
H  35.29200 5.62000 30.30000
H  34.56200 7.18900 30.10200
H  35.78300 6.94500 31.47800
H  35.05700 4.76500 28.25100
H  34.35200 5.11600 26.77000
H  34.03500 6.17900 28.17600
H  39.64000 9.58200 24.55200
H  42.53200 8.72400 24.69000
H  39.10200 7.51900 23.66100
H  40.48600 6.72400 24.53100
H  40.66100 7.66500 23.01100
H  41.23300 10.47000 23.15800
H  42.96400 10.70000 23.69400
H  41.10000 11.92900 25.59200
H  40.59300 12.54400 24.07000
H  42.31500 12.76600 24.59800
H  46.08700 12.07000 29.09000
H  45.45800 12.42800 27.51300
H  46.04700 10.73900 27.86300
H  42.86500 12.22600 33.14400
H  45.13700 9.30500 35.56100
H  44.06400 10.01000 36.63900
H  45.49600 10.96000 36.34200

