158

Mg 34.95200 2.86400 30.11000
C  32.89200 3.89000 32.47000
C  37.49100 2.72500 32.24500
C  36.88500 2.04900 27.44600
C  32.36000 3.51100 27.64700
N  35.21000 3.34400 32.12200
C  34.18300 3.62800 32.96500
C  34.65800 3.71300 34.41200
C  36.19500 3.48100 34.32200
C  36.36400 3.23800 32.80800
C  37.10100 4.70700 34.70100
C  33.89600 2.79400 35.47400
C  33.22000 3.67200 36.64400
H  33.97700 4.78900 37.14700
N  36.91000 2.41900 29.92300
C  37.82300 2.33100 30.93300
C  39.14700 2.07800 30.33500
C  38.85500 1.80700 28.95500
C  37.46300 2.09400 28.71900
C  40.39700 2.00300 31.12800
C  39.94700 1.37200 27.93200
O  39.69000 1.19600 26.74400
C  41.39800 1.08500 28.37200
N  34.69900 2.88800 27.77700
C  35.58000 2.32600 26.95700
C  35.13100 2.27300 25.49300
C  33.66700 2.69700 25.62700
C  33.53400 3.07800 27.11800
C  36.08300 3.13000 24.64400
C  32.48600 1.83400 25.13500
C  32.35900 0.47900 25.86300
N  33.04300 3.58600 30.01800
C  32.07000 3.76600 29.02600
C  30.81300 3.95400 29.63900
C  31.03200 4.08900 30.97400
C  32.45800 3.83100 31.15400
C  29.55300 4.04700 28.87300
C  30.40300 4.40400 32.26900
O  29.24400 4.58600 32.54400
C  31.59700 4.36500 33.23800
C  31.63700 5.70200 33.85500
O  32.29800 6.61700 33.47400
O  30.79700 5.87300 34.93400
C  30.94700 7.07500 35.80700
H  38.28500 2.72400 32.99500
H  37.51300 1.77100 26.59800
H  31.56900 3.68900 26.91500
H  34.46500 4.74200 34.71900
H  36.48600 2.58200 34.86500
H  37.53700 4.46900 35.67100
H  36.48200 5.58400 34.88800
H  37.81300 4.81400 33.88300
H  34.54100 2.11300 36.03000
H  33.06700 2.23500 35.04200
H  32.99700 2.95000 37.42900
H  32.28700 4.01500 36.19700
H  41.23900 2.34600 30.52600
H  40.60200 0.95300 31.33500
H  40.36200 2.58900 32.04700
H  42.00700 1.95100 28.63300
H  41.88000 0.74500 27.45600
H  41.40800 0.28400 29.11100
H  35.19300 1.24300 25.14100
H  33.50300 3.57000 24.99600
H  37.01200 3.51500 25.06600
H  35.53100 3.98400 24.25100
H  36.37500 2.42700 23.86400
H  32.63500 1.61700 24.07700
H  31.54800 2.39000 25.15300
H  31.32500 0.14000 25.79600
H  32.69800 0.46300 26.89900
H  32.91300 -0.24000 25.25900
H  29.60900 4.85800 28.14700
H  28.68600 4.21600 29.51100
H  29.51700 3.06100 28.40900
H  31.40600 3.62300 34.01300
H  30.79800 6.74700 36.83600
H  30.27000 7.89100 35.55300
H  31.94700 7.50700 35.81100
Mg 49.58700 46.69600 42.25100
C  46.33200 46.65600 40.97900
C  50.13500 43.60100 40.97900
C  52.79000 47.15100 43.02300
C  48.78800 49.94900 43.53300
N  48.35400 45.33300 41.20200
C  47.13300 45.52700 40.68200
C  46.67500 44.34100 39.76700
C  47.76800 43.30600 39.99000
C  48.81500 44.10800 40.77400
C  47.39400 41.76700 40.36300
C  46.45700 44.76800 38.27400
C  45.04200 44.70300 37.71500
H  44.87300 43.96000 36.36400
N  51.26200 45.47400 42.01700
C  51.28000 44.22200 41.51400
C  52.59700 43.67100 41.67400
C  53.40200 44.59400 42.35100
C  52.51600 45.80300 42.46400
C  52.97700 42.20100 41.35500
C  54.79000 44.35400 42.75100
O  55.31200 43.26600 42.58700
C  55.63100 45.42100 43.32000
N  50.59200 48.34100 43.05400
C  51.98100 48.28300 43.31500
C  52.52500 49.61700 43.92900
C  51.18900 50.44800 44.01800
C  50.10300 49.43300 43.57600
C  53.26100 49.34200 45.24700
C  51.15500 51.76100 43.14000
C  51.22200 53.06700 43.97900
N  47.95100 48.17800 42.25300
C  47.76900 49.41000 42.78900
C  46.50300 49.97300 42.41300
C  45.91600 48.92100 41.68800
C  46.79700 47.82500 41.63000
C  45.84000 51.25700 42.86100
C  44.71200 48.46400 41.09400
O  43.59900 48.91300 41.11300
C  45.01600 47.05700 40.46200
C  43.96700 46.10500 40.85100
O  43.66300 45.70400 41.94800
O  43.20100 45.99800 39.70900
C  41.88500 45.47700 39.87400
H  50.28400 42.66400 40.43900
H  53.84000 47.29100 43.29000
H  48.56500 50.90100 44.01800
H  45.77500 43.93200 40.22600
H  48.27500 43.20600 39.03000
H  47.99100 41.21000 39.64000
H  46.30900 41.67100 40.33400
H  47.86900 41.53000 41.31500
H  47.04600 44.20100 37.55200
H  46.77800 45.79500 38.10200
H  44.65500 45.72200 37.70300
H  44.48900 44.13500 38.46300
H  53.49400 42.19600 40.39500
H  52.00800 41.75500 41.13100
H  53.38300 41.63600 42.19300
H  56.61600 45.12900 43.68400
H  55.08300 45.79000 44.18700
H  55.52100 46.28800 42.67000
H  53.17700 50.10200 43.20200
H  51.05700 50.78000 45.04800
H  52.83300 49.96800 46.03000
H  54.32700 49.53700 45.12400
H  53.27700 48.32100 45.62800
H  50.24800 51.79400 42.53600
H  51.99200 51.70500 42.44500
H  51.88600 52.93700 44.83400
H  50.19700 53.25400 44.29900
H  51.58200 53.95700 43.46300
H  44.79400 51.29700 42.55700
H  46.36300 52.18100 42.61500
H  45.78600 51.31300 43.94900
H  45.05800 47.13200 39.37600
H  41.88600 44.47300 39.45000
H  41.13300 45.98100 39.26700
H  41.53100 45.52400 40.90400

