158

Mg 47.69400 23.92200 28.11500
C  48.69400 25.99700 30.60100
C  46.74600 21.53000 30.42000
C  47.04800 21.84400 25.54300
C  49.12100 26.14700 25.74300
N  47.65700 23.79900 30.30500
C  48.05500 24.84500 31.10900
C  47.61900 24.51300 32.54100
C  47.28100 23.01900 32.47100
C  47.27600 22.71300 30.96100
C  48.10600 22.00600 33.25700
C  46.67600 25.52800 33.22000
C  47.32600 26.03300 34.47300
H  46.72800 27.29600 35.17600
N  46.98300 21.92000 28.00500
C  46.68900 21.11600 29.06700
C  46.22100 19.87300 28.53100
C  45.94500 20.04800 27.14400
C  46.61400 21.30700 26.82200
C  45.96700 18.72800 29.43400
C  45.30900 19.07600 26.17100
O  45.23700 19.39200 24.96700
C  44.59700 17.74200 26.47200
N  48.02300 24.01100 26.00500
C  47.58000 23.05700 25.14100
C  47.86200 23.34800 23.65200
C  48.29100 24.82900 23.67300
C  48.53300 25.00000 25.21700
C  48.99700 22.42600 23.02100
C  47.35600 25.86400 23.08900
C  47.98900 26.88200 22.06000
N  48.61200 25.66600 28.10200
C  49.13200 26.42400 27.09400
C  49.70000 27.63500 27.64100
C  49.51900 27.49700 29.02200
C  48.85600 26.29600 29.25000
C  50.42700 28.83700 26.94000
C  49.80200 28.18300 30.30100
O  50.44400 29.23200 30.56300
C  49.11800 27.33900 31.39600
C  50.13300 27.14300 32.44800
O  50.92100 26.17300 32.47800
O  50.13400 28.13300 33.36400
C  50.92400 27.97400 34.65600
H  46.34100 20.92400 31.23300
H  46.84300 21.20700 24.68100
H  49.46900 26.87200 25.00400
H  48.56900 24.60600 33.06600
H  46.32900 22.90600 32.99000
H  47.52900 21.62800 34.10000
H  49.12600 22.35300 33.42200
H  48.11800 21.15400 32.57800
H  45.75700 25.03900 33.54200
H  46.33000 26.20800 32.44200
H  48.37700 26.32400 34.47600
H  47.36600 25.30400 35.28200
H  44.88800 18.66400 29.57600
H  46.40200 18.83700 30.42800
H  46.38500 17.80800 29.02600
H  45.05500 17.33700 27.37500
H  44.59600 16.89500 25.78600
H  43.60100 17.92300 26.87700
H  46.94600 23.24800 23.06900
H  49.29300 24.95600 23.26400
H  49.67200 22.05800 23.79300
H  49.74700 22.94100 22.42100
H  48.67300 21.47600 22.59700
H  46.97400 26.46200 23.91700
H  46.37800 25.49600 22.77900
H  47.47900 26.72800 21.10900
H  49.07700 26.82000 22.08500
H  47.67800 27.89200 22.32500
H  51.43200 28.79800 27.36100
H  50.00400 29.82600 27.12000
H  50.63600 28.80200 25.87100
H  48.27300 27.91000 31.78100
H  51.65900 28.77700 34.70900
H  51.43600 27.02500 34.81600
H  50.27000 28.13600 35.51300
Mg -5.97700 25.19400 26.01900
C  -4.63000 26.51100 29.16400
C  -7.65500 22.83800 27.97100
C  -6.48700 23.60000 23.38400
C  -3.81300 27.48700 24.50100
N  -6.10600 24.73600 28.30300
C  -5.47600 25.38400 29.34700
C  -5.92500 24.83100 30.79300
C  -6.64400 23.44300 30.29300
C  -6.88000 23.65400 28.76000
C  -5.86500 22.18000 30.64600
C  -6.74500 25.96000 31.47600
C  -6.65100 26.15500 32.99400
H  -6.07800 24.98400 33.77600
N  -7.15300 23.56300 25.64300
C  -7.80700 22.70800 26.54400
C  -8.51800 21.76600 25.85000
C  -8.23800 21.90300 24.43500
C  -7.26500 23.02800 24.43200
C  -9.44000 20.78000 26.57700
C  -8.75000 21.14100 23.27900
O  -8.30300 21.43300 22.14000
C  -9.86900 20.16300 23.42200
N  -5.33200 25.57700 24.24500
C  -5.63300 24.71100 23.25000
C  -4.91700 25.03600 21.89100
C  -4.22500 26.40200 22.33800
C  -4.51000 26.55700 23.81100
C  -3.92900 23.92700 21.47000
C  -4.74600 27.54000 21.41700
C  -3.73400 28.56000 20.93400
N  -4.66500 26.81900 26.67900
C  -3.95300 27.68700 25.88600
C  -3.24700 28.64500 26.71200
C  -3.42400 28.22300 27.99500
C  -4.30200 27.08000 27.92200
C  -2.42300 29.75900 26.09200
C  -3.09200 28.48200 29.35900
O  -2.44000 29.33400 29.89400
C  -3.93300 27.41300 30.17100
C  -2.99300 26.65500 31.07400
O  -2.19300 25.82400 30.70800
O  -3.16700 26.94100 32.37200
C  -2.34200 26.39500 33.38300
H  -8.14800 22.14200 28.65300
H  -6.56100 23.03500 22.45300
H  -3.27500 28.23300 23.91300
H  -4.99900 24.58100 31.31000
H  -7.58200 23.35000 30.84000
H  -4.88800 22.38500 31.08300
H  -5.74000 21.60400 29.72800
H  -6.47000 21.55800 31.30500
H  -7.80600 25.78100 31.30300
H  -6.45100 26.95600 31.14600
H  -7.67200 26.30200 33.34500
H  -5.98400 26.98600 33.22100
H  -10.50400 20.86600 26.35600
H  -9.38900 20.73900 27.66500
H  -9.03900 19.79800 26.32700
H  -9.59800 19.36900 24.11700
H  -9.99900 19.68300 22.45200
H  -10.77200 20.66300 23.77000
H  -5.72000 25.17500 21.16700
H  -3.15600 26.33900 22.13200
H  -4.09500 23.74500 20.40800
H  -4.10100 22.99500 22.00900
H  -2.91600 24.30300 21.61700
H  -5.41400 28.17100 22.00400
H  -5.22100 27.24400 20.48200
H  -4.15800 29.56300 20.98600
H  -3.41300 28.23300 19.94500
H  -2.95300 28.53700 21.69300
H  -2.99200 30.33200 25.36000
H  -1.56400 29.31900 25.58500
H  -2.09200 30.39000 26.91800
H  -4.59200 28.02400 30.78900
H  -1.96900 25.41700 33.07900
H  -2.78700 26.11100 34.33700
H  -1.50000 27.04900 33.60900

