158

Mg 41.88400 41.38100 26.75700
C  41.34300 43.87100 28.94300
C  42.75500 39.31900 29.33500
C  42.31100 38.82400 24.53600
C  41.46100 43.53500 24.00700
N  42.18100 41.63400 28.91700
C  41.74500 42.69100 29.62500
C  41.69200 42.38300 31.22100
C  42.13500 40.89000 31.23900
C  42.46700 40.63100 29.70500
C  43.30500 40.60600 32.27500
C  40.29200 42.69400 31.74900
C  40.04300 42.14000 33.13700
H  40.39300 43.06100 34.33400
N  42.50400 39.37500 26.92000
C  42.87500 38.72200 28.05100
C  43.08000 37.30200 27.85900
C  42.95600 37.11500 26.50400
C  42.58900 38.41500 25.89900
C  43.50000 36.29800 28.96500
C  43.04100 35.85300 25.74500
O  42.68500 35.74200 24.57500
C  43.29300 34.57100 26.47400
N  42.02600 41.23400 24.51900
C  42.13400 40.02800 23.91600
C  41.88500 40.16800 22.38200
C  41.41100 41.60400 22.28300
C  41.62400 42.19200 23.68400
C  43.14500 39.81000 21.53400
C  39.97800 41.78100 21.72900
C  38.93800 40.97600 22.51700
N  41.57400 43.28400 26.49000
C  41.46800 44.08200 25.33700
C  41.20700 45.43000 25.70300
C  41.20300 45.39900 27.16900
C  41.42500 44.08800 27.57000
C  40.96300 46.55600 24.78600
C  40.91200 46.19000 28.34600
O  40.58000 47.36600 28.50600
C  41.12400 45.20900 29.48200
C  42.23500 45.72600 30.25800
O  43.45300 45.68400 29.96800
O  41.76900 46.34400 31.39500
C  42.75700 46.65300 32.40200
H  42.89800 38.60700 30.15100
H  42.37700 37.95400 23.88000
H  41.41900 44.25200 23.18400
H  42.33400 43.12300 31.69900
H  41.35000 40.18600 31.51600
H  43.09400 39.74200 32.90400
H  43.48400 41.33900 33.06200
H  44.12500 40.28000 31.63500
H  39.56100 42.44400 30.98000
H  40.22600 43.77600 31.86000
H  40.67400 41.26800 33.31300
H  39.01800 41.82200 33.33100
H  42.67800 35.61500 29.17700
H  43.77200 36.69800 29.94200
H  44.38300 35.73400 28.66500
H  42.43100 34.47200 27.13300
H  44.25700 34.47600 26.97300
H  43.35100 33.73300 25.78000
H  41.15000 39.39100 22.17400
H  42.10600 42.05600 21.57600
H  43.02200 39.16800 20.66200
H  43.79400 39.22900 22.18800
H  43.84500 40.58500 21.22000
H  39.94200 41.38500 20.71400
H  39.61900 42.80700 21.64900
H  38.50200 40.19700 21.89100
H  38.18200 41.62400 22.96100
H  39.37000 40.31500 23.26800
H  41.95500 46.86900 24.46100
H  40.44200 47.33300 25.34500
H  40.32100 46.10600 24.02800
H  40.22200 45.10400 30.08600
H  42.71900 45.69900 32.92900
H  42.31300 47.44100 33.01200
H  43.83400 46.74800 32.26700
Mg 26.31800 51.73600 25.72300
C  23.89000 52.49500 28.21100
C  28.51900 51.19000 28.31200
C  28.80300 51.63400 23.48800
C  24.12600 52.52300 23.30400
N  26.27200 52.14000 28.00600
C  25.14000 52.21700 28.77900
C  25.43300 52.09600 30.27700
C  26.97700 51.82600 30.33200
C  27.32700 51.74800 28.78500
C  27.90300 52.59300 31.32600
C  24.46500 51.17600 31.07100
C  24.99900 50.33300 32.31900
H  24.20200 50.23000 33.57000
N  28.28300 51.39600 25.85800
C  29.01200 51.18600 27.02600
C  30.37300 50.91300 26.64500
C  30.54600 50.99000 25.22700
C  29.19000 51.39200 24.79400
C  31.41900 50.47600 27.60800
C  31.77200 50.89000 24.33800
O  31.77700 50.92700 23.12600
C  33.20400 50.77800 24.95900
N  26.41900 52.00400 23.69700
C  27.54700 51.86500 22.94800
C  27.29200 52.05600 21.48000
C  25.72400 52.18300 21.40500
C  25.41200 52.25300 22.88600
C  28.15000 53.20700 20.87400
C  25.03500 51.19000 20.51000
C  23.70500 51.67900 19.85500
N  24.47500 52.47000 25.72700
C  23.62000 52.69800 24.64600
C  22.35300 53.12000 25.05900
C  22.41200 53.04900 26.45000
C  23.73100 52.65400 26.82200
C  21.13200 53.51000 24.24000
C  21.60300 53.18600 27.65200
O  20.45200 53.57100 27.80200
C  22.56000 52.82500 28.85600
C  22.66400 53.96300 29.73800
O  23.30800 54.96000 29.48000
O  21.90500 53.80400 30.84700
C  21.99400 54.89700 31.85600
H  29.20200 50.99300 29.14100
H  29.43800 51.44600 22.62000
H  23.37300 52.68400 22.53000
H  25.22400 53.06900 30.72200
H  27.10600 50.78500 30.62600
H  28.57400 53.24000 30.76000
H  28.50400 51.85100 31.85000
H  27.38000 53.19300 32.07100
H  24.20100 50.37800 30.37700
H  23.49000 51.59200 31.32600
H  25.78800 51.03500 32.59200
H  25.49500 49.37200 32.18600
H  31.77200 49.47700 27.35400
H  31.09100 50.46500 28.64800
H  32.34200 51.05600 27.60700
H  33.98500 50.94000 24.21600
H  33.26100 49.78100 25.39500
H  33.27700 51.56800 25.70600
H  27.58300 51.11900 21.00500
H  25.52000 53.19500 21.05400
H  27.47200 54.02000 20.61000
H  28.75400 52.82500 20.05100
H  28.84200 53.75000 21.51700
H  24.58500 50.45300 21.17400
H  25.65200 50.74400 19.73000
H  23.56700 51.35600 18.82300
H  23.65900 52.76800 19.81300
H  22.77900 51.53900 20.41200
H  20.20600 53.06200 24.60000
H  21.11800 53.17600 23.20200
H  20.86900 54.56500 24.16800
H  22.17200 52.01400 29.47400
H  21.78800 54.41700 32.81300
H  21.24900 55.64800 31.59200
H  22.96900 55.38500 31.83900

