158

Mg 44.39600 4.89800 46.77700
C  42.43600 7.65700 47.02700
C  41.50400 3.07800 46.09300
C  46.22500 2.09000 45.97700
C  47.23800 6.84600 46.54300
N  42.21700 5.38600 46.72500
C  41.71100 6.59200 46.79000
C  40.16400 6.60600 46.64400
C  39.87800 5.07700 46.25500
C  41.27400 4.43300 46.43800
C  38.72100 4.54400 47.17500
C  39.59000 7.56600 45.50400
C  40.37300 7.82500 44.17000
H  39.81000 7.14800 42.89600
N  43.95900 2.82500 46.30900
C  42.69000 2.30600 46.02500
C  42.74600 0.91000 45.63400
C  44.12700 0.56400 45.56800
C  44.87100 1.84500 45.99800
C  41.54100 0.05500 45.42200
C  44.67700 -0.82400 45.29400
O  43.88300 -1.69700 45.08500
C  46.10200 -1.23100 45.22500
N  46.44900 4.49000 46.33400
C  46.96000 3.28300 46.10800
C  48.49600 3.35500 46.10800
C  48.79500 4.82700 46.49700
C  47.43900 5.44200 46.51300
C  49.09700 2.27800 47.04400
C  49.78200 5.60900 45.48000
C  51.28800 5.16300 45.53700
N  44.87600 6.90500 46.84200
C  46.03800 7.56000 46.73700
C  45.85400 8.97400 46.90300
C  44.44100 9.11200 47.05800
C  43.91000 7.79700 47.03000
C  46.81300 10.03600 46.91200
C  43.31000 10.02000 47.30000
O  43.28700 11.23000 47.67800
C  42.01000 9.12400 47.25000
C  41.18500 9.24800 48.42600
O  41.11600 8.43800 49.37900
O  40.38000 10.35400 48.32300
C  39.47800 10.72600 49.42700
H  40.56200 2.61600 45.79100
H  46.83900 1.21500 45.75700
H  48.08500 7.51900 46.69100
H  39.69000 6.86300 47.59100
H  39.55000 5.04900 45.21600
H  38.12900 5.42200 47.43700
H  39.14800 4.10200 48.07500
H  38.21200 3.83100 46.52700
H  39.49700 8.58500 45.87800
H  38.59200 7.20800 45.25300
H  41.37600 7.42600 44.31900
H  40.35200 8.91400 44.15000
H  41.53400 -0.01000 44.33400
H  40.55400 0.40100 45.72800
H  41.67900 -0.94400 45.83600
H  46.25900 -2.27000 44.93400
H  46.51200 -1.14300 46.23100
H  46.62400 -0.57200 44.53100
H  48.80000 3.02900 45.11300
H  49.15300 4.86800 47.52600
H  50.17900 2.27700 46.91200
H  48.74300 1.30100 46.71600
H  48.75400 2.27800 48.07900
H  49.70900 6.67300 45.70600
H  49.43300 5.44800 44.46000
H  51.79000 5.08000 44.57300
H  51.49800 4.27600 46.13500
H  51.84300 5.93200 46.07500
H  46.82600 10.57100 47.86100
H  46.49900 10.78700 46.18700
H  47.87200 9.91100 46.68600
H  41.43300 9.56900 46.43900
H  40.17200 11.15100 50.15100
H  38.90800 9.84100 49.70900
H  38.90400 11.61200 49.15400
Mg 47.87200 24.84700 29.60700
C  49.05700 27.13000 31.89000
C  46.56800 22.99600 32.02200
C  47.08300 22.39200 27.25500
C  49.57700 26.62600 27.06600
N  47.92200 25.05400 31.76600
C  48.36600 26.08200 32.48700
C  47.94500 26.00000 34.02400
C  47.46600 24.42800 34.00900
C  47.28100 24.11200 32.51200
C  48.47500 23.49800 34.73600
C  46.79000 26.91200 34.48500
C  47.02900 27.97600 35.56400
H  45.94800 28.04200 36.69600
N  46.91000 22.96400 29.66900
C  46.43000 22.35700 30.79200
C  45.79400 21.16500 30.54200
C  45.97400 20.94300 29.15800
C  46.72100 22.13600 28.59500
C  45.09300 20.24600 31.58400
C  45.61500 19.78500 28.29900
O  45.77900 19.80500 27.06400
C  44.77000 18.70900 28.81200
N  48.34400 24.53600 27.46100
C  47.89300 23.41800 26.77100
C  48.47200 23.51000 25.27000
C  49.04300 24.95600 25.20700
C  49.01600 25.40400 26.72700
C  49.36300 22.37700 24.61600
C  48.27000 25.88700 24.21900
C  48.72000 26.06100 22.71200
N  48.96000 26.56700 29.42100
C  49.56100 27.18600 28.35500
C  50.09700 28.37600 28.74700
C  49.95600 28.44200 30.08800
C  49.25200 27.27600 30.45500
C  50.70100 29.46700 27.99000
C  50.14900 29.22800 31.30000
O  50.59600 30.34600 31.53300
C  49.63500 28.42000 32.53800
C  50.79000 28.08200 33.42000
O  51.53600 27.17700 33.25200
O  50.86700 29.01400 34.49300
C  51.85800 28.84900 35.59600
H  46.10400 22.55500 32.90700
H  46.91200 21.66800 26.45500
H  50.01800 27.18600 26.23900
H  48.83000 26.19200 34.63000
H  46.48600 24.27300 34.46100
H  48.30700 22.42900 34.60100
H  48.36800 23.78900 35.78100
H  49.46200 23.71800 34.32900
H  46.10300 26.14500 34.84200
H  46.26500 27.36500 33.64400
H  47.04100 28.91700 35.01400
H  48.07000 27.92400 35.88300
H  45.72900 19.37300 31.72400
H  44.12800 19.83800 31.28200
H  44.96500 20.63300 32.59500
H  44.60300 17.88900 28.11300
H  43.89500 19.24500 29.17800
H  45.26500 18.32000 29.70200
H  47.58600 23.49700 24.63500
H  50.07500 24.79900 24.89300
H  50.30600 22.74800 24.21300
H  48.76000 22.02800 23.77700
H  49.48200 21.55500 25.32200
H  48.28300 26.90900 24.59600
H  47.21400 25.61600 24.19800
H  49.59100 25.44000 22.50200
H  49.05200 27.08700 22.54900
H  47.93500 25.80300 22.00200
H  51.08300 29.05800 27.05400
H  51.47700 29.93100 28.59800
H  49.89200 30.12800 27.67700
H  48.88900 28.95300 33.12700
H  51.60200 29.62800 36.31400
H  52.88700 29.03500 35.28900
H  51.83800 27.88500 36.10400

