158

Mg 1.57200 -1.25100 44.18200
C  5.10300 -0.60200 43.56800
C  0.86600 1.64000 42.48000
C  -1.59000 -2.12700 44.27200
C  2.64500 -4.42900 45.40100
N  2.82600 0.22200 43.04800
C  4.20600 0.35000 42.99700
C  4.64200 1.58700 42.13800
C  3.34600 2.36500 42.03000
C  2.28900 1.37300 42.53400
C  3.23600 3.76200 42.80700
C  5.34900 1.20200 40.78300
C  6.77600 1.81900 40.48500
H  6.72300 2.66600 39.24800
N  -0.11500 -0.34400 43.53100
C  -0.22300 0.81800 42.78600
C  -1.65200 1.06500 42.54000
C  -2.33500 -0.02300 43.11100
C  -1.34900 -0.91600 43.64300
C  -2.22000 2.28800 41.76100
C  -3.84800 -0.22100 43.11400
O  -4.46000 0.77400 42.72000
C  -4.58900 -1.30300 43.84700
N  0.68700 -3.05200 44.69500
C  -0.66300 -3.03000 44.83300
C  -1.19600 -4.38800 45.34100
C  0.17600 -5.12300 45.75500
C  1.26700 -4.16400 45.21400
C  -2.35400 -4.32700 46.32400
C  0.43800 -6.49000 45.21600
C  -0.75500 -7.49200 45.03000
N  3.44600 -2.28300 44.51700
C  3.70200 -3.58600 45.06700
C  5.14700 -3.81500 45.11600
C  5.71800 -2.64700 44.56000
C  4.67100 -1.75400 44.20100
C  5.87300 -5.09600 45.47800
C  6.95600 -2.06200 44.11200
O  8.05900 -2.53600 44.08900
C  6.62300 -0.67600 43.46400
C  7.25500 0.34400 44.27700
O  7.00600 0.68400 45.39800
O  8.38100 0.81200 43.66700
C  9.21800 1.84300 44.26800
H  0.50700 2.60400 42.11400
H  -2.58800 -2.57100 44.29600
H  2.90500 -5.32400 45.97100
H  5.24200 2.25400 42.75700
H  3.17000 2.76700 41.03300
H  3.92700 3.56400 43.62600
H  2.37900 4.02600 43.42600
H  3.52100 4.63100 42.21400
H  4.68900 1.57400 39.99900
H  5.44300 0.11900 40.71000
H  7.45500 0.97000 40.41200
H  7.02000 2.43000 41.35400
H  -2.88900 1.90300 40.99200
H  -1.45800 2.97200 41.38700
H  -2.86000 2.81600 42.46800
H  -5.65200 -1.06200 43.85200
H  -4.13900 -1.32800 44.84000
H  -4.42600 -2.26200 43.35500
H  -1.49000 -4.85900 44.40300
H  0.29100 -5.13300 46.83900
H  -1.99600 -4.51200 47.33600
H  -3.09800 -5.08300 46.07100
H  -2.79000 -3.32900 46.29600
H  1.17300 -7.04500 45.79900
H  0.84600 -6.32100 44.22000
H  -1.57600 -7.31600 45.72600
H  -0.46000 -8.53900 45.09100
H  -1.09800 -7.47900 43.99600
H  5.97700 -5.86800 44.71600
H  5.33400 -5.42900 46.36500
H  6.82900 -4.80700 45.91600
H  6.94200 -0.67800 42.42200
H  9.89800 2.39600 43.62000
H  9.82700 1.36400 45.03500
H  8.68300 2.68400 44.70900
Mg 47.31700 25.05500 28.25300
C  47.81800 27.54600 30.66000
C  46.52600 22.81000 30.64800
C  46.95900 22.76600 25.87500
C  48.64600 27.44100 25.88800
N  47.30900 25.13000 30.34300
C  47.51800 26.28100 31.16400
C  47.24700 25.92900 32.61500
C  46.84400 24.46000 32.61100
C  46.92300 24.03800 31.10800
C  47.66600 23.53600 33.58200
C  46.29800 26.92900 33.37300
C  45.71700 26.42200 34.73300
H  46.68800 26.03400 35.84700
N  46.76800 23.08100 28.25300
C  46.45200 22.27000 29.31700
C  46.18500 20.90700 28.90700
C  46.31800 20.96100 27.43300
C  46.70300 22.27300 27.13100
C  46.05900 19.76200 29.88200
C  46.13800 19.75500 26.53100
O  46.39300 19.72800 25.35900
C  45.74100 18.43700 27.06400
N  47.97800 25.03500 26.26500
C  47.61000 23.98800 25.44900
C  47.75100 24.34300 23.97100
C  47.80900 25.88400 23.95900
C  48.19600 26.15400 25.43200
C  48.88400 23.53600 23.21400
C  46.57300 26.61900 23.52500
C  45.35000 26.55700 24.47800
N  48.19200 26.99800 28.22500
C  48.68400 27.80300 27.22400
C  49.00200 29.09900 27.73200
C  48.67700 29.08200 29.11800
C  48.25600 27.72500 29.32100
C  49.53000 30.29600 26.86800
C  48.73100 29.83600 30.39000
O  48.98100 31.00600 30.55700
C  48.21200 28.83000 31.39300
C  49.30600 28.66900 32.41400
O  50.49800 28.33700 32.24400
O  48.95600 29.24700 33.65300
C  49.82000 29.01200 34.87200
H  46.27500 22.16000 31.48900
H  46.87900 21.98900 25.11100
H  48.67900 28.19100 25.09500
H  48.25100 25.96200 33.04000
H  45.78200 24.38600 32.84400
H  48.51300 24.05200 34.03400
H  48.17800 22.74300 33.03700
H  47.11800 22.91500 34.29100
H  45.48400 27.28700 32.74200
H  46.83300 27.74400 33.86100
H  45.08200 25.54700 34.59300
H  44.97500 27.18900 34.95300
H  46.63100 18.88400 29.58200
H  45.04400 19.37600 29.79800
H  46.05300 19.94000 30.95700
H  45.21100 17.89200 26.28300
H  45.10300 18.47600 27.94600
H  46.73300 18.02200 27.24200
H  46.82000 24.06100 23.47800
H  48.60800 26.32800 23.36400
H  49.36900 22.85000 23.90800
H  49.61600 24.24800 22.83300
H  48.45600 22.87500 22.46000
H  46.38600 26.01500 22.63800
H  46.88200 27.59700 23.15600
H  44.36900 26.46200 24.01200
H  45.34700 27.37900 25.19300
H  45.59600 25.63800 25.01100
H  50.08300 30.90900 27.58000
H  48.64500 30.74000 26.41100
H  50.19800 29.88400 26.11200
H  47.36300 29.22000 31.95400
H  50.62000 29.75000 34.91900
H  50.32900 28.04900 34.91300
H  49.25200 29.14100 35.79300

