158

Mg 40.99000 9.64800 30.31500
C  42.72400 11.16500 32.88700
C  38.70600 8.42900 32.82500
C  39.12400 8.15300 27.92500
C  43.42200 10.48400 28.01800
N  40.86900 9.75400 32.59400
C  41.73300 10.43500 33.42300
C  41.27800 10.40200 34.91200
C  40.03400 9.41600 34.85900
C  39.81900 9.16600 33.33100
C  40.10600 8.12600 35.66700
C  41.07500 11.79200 35.54400
C  40.05300 12.07400 36.71300
H  40.49800 12.95500 37.91700
N  39.14900 8.47700 30.40700
C  38.45300 8.06300 31.50000
C  37.32800 7.23200 31.04500
C  37.42000 7.21300 29.57700
C  38.55900 8.05800 29.25600
C  36.39200 6.50100 31.99700
C  36.54800 6.56400 28.59100
O  36.77100 6.49600 27.40900
C  35.24900 5.97900 29.13500
N  41.22300 9.33200 28.31800
C  40.29300 8.64100 27.47300
C  40.66400 8.87300 25.97600
C  41.96500 9.68300 26.05000
C  42.24100 9.83500 27.57300
C  40.81800 7.51400 25.18300
C  41.99600 11.05600 25.31600
C  41.14900 12.20400 26.03900
N  42.65500 10.72300 30.32800
C  43.60400 10.92800 29.35600
C  44.67600 11.61300 29.89200
C  44.35300 11.81600 31.29500
C  43.10000 11.22300 31.49600
C  45.76900 12.16000 29.07100
C  44.81500 12.39600 32.60300
O  45.86600 12.94900 32.89600
C  43.76400 11.91900 33.70200
C  44.58200 11.37600 34.90300
O  44.75500 10.20500 35.06200
O  45.03500 12.31000 35.78600
C  45.80700 11.78700 36.97000
H  37.95100 8.23100 33.58900
H  38.67400 7.64600 27.06900
H  44.19100 10.78000 27.30100
H  41.97200 9.78500 35.48400
H  39.17400 10.04300 35.09400
H  39.10700 7.82200 35.97900
H  40.75300 8.31100 36.52400
H  40.56100 7.41900 34.97200
H  40.72000 12.40300 34.71300
H  42.02900 12.16200 35.92000
H  39.69000 11.07600 36.95900
H  39.23600 12.63600 36.26000
H  36.47600 6.95000 32.98700
H  36.61000 5.44800 32.17400
H  35.31800 6.52800 31.81500
H  34.56000 6.70200 29.57200
H  35.68300 5.29000 29.86000
H  34.81600 5.42300 28.30400
H  39.79900 9.40900 25.58700
H  42.84800 9.26400 25.56900
H  40.00700 7.50600 24.45500
H  40.62000 6.69400 25.87500
H  41.78300 7.40200 24.68900
H  41.74600 10.90500 24.26600
H  43.05000 11.32900 25.26300
H  40.66600 11.88100 26.96100
H  40.34800 12.62700 25.43100
H  41.74700 12.99100 26.49700
H  46.38700 12.84700 29.64900
H  45.39900 12.74700 28.23100
H  46.37700 11.33500 28.69900
H  43.16600 12.78100 33.99700
H  45.08800 11.31300 37.63800
H  46.32500 12.56600 37.52800
H  46.48500 10.97900 36.69600
Mg -11.80800 37.81200 41.79000
C  -9.52600 35.36600 40.98000
C  -10.03700 39.84400 39.64600
C  -14.44000 39.91300 41.55000
C  -14.01100 35.40200 43.12300
N  -10.04700 37.58200 40.35000
C  -9.21600 36.48600 40.23900
C  -7.94000 36.77100 39.46400
C  -8.15000 38.26000 39.08900
C  -9.49700 38.60700 39.72500
C  -6.94600 39.14300 39.41700
C  -7.72800 35.88300 38.21900
C  -6.24100 35.29500 37.93700
H  -5.22700 36.17800 37.12800
N  -12.03500 39.72100 40.96800
C  -11.13600 40.40800 40.26400
C  -11.53600 41.76400 40.11200
C  -12.91300 41.82400 40.62900
C  -13.16800 40.43100 41.05100
C  -10.64400 42.85000 39.49500
C  -13.72000 43.09500 40.78800
O  -13.35500 44.13600 40.27100
C  -14.93200 43.08300 41.66900
N  -13.95300 37.67000 42.21000
C  -14.80200 38.71800 41.99500
C  -16.16500 38.46400 42.58500
C  -16.01000 36.93700 43.06800
C  -14.55900 36.59900 42.78600
C  -16.59700 39.41400 43.66500
C  -16.95600 35.87900 42.44900
C  -18.19200 35.43700 43.17500
N  -11.79300 35.77800 42.02800
C  -12.64600 34.95700 42.85300
C  -12.00600 33.64200 43.00200
C  -10.74200 33.79900 42.34200
C  -10.68400 35.08800 41.70800
C  -12.50100 32.42000 43.79800
C  -9.48700 33.12200 42.02900
O  -9.15500 32.00100 42.33400
C  -8.56400 34.09500 41.15800
C  -7.29500 34.23100 41.93900
O  -6.50800 33.27800 42.07700
O  -7.13900 35.55200 42.35600
C  -5.99700 35.85200 43.23800
H  -9.52600 40.51500 38.95300
H  -15.21100 40.68500 41.51400
H  -14.69800 34.77100 43.69100
H  -7.09700 36.63500 40.14200
H  -8.33300 38.42600 38.02700
H  -7.19900 39.89700 40.16300
H  -6.62900 39.63500 38.49800
H  -6.07900 38.60800 39.80200
H  -7.92000 36.56700 37.39200
H  -8.41100 35.05000 38.04900
H  -6.37700 34.30400 37.50500
H  -5.84100 35.19300 38.94600
H  -10.82800 43.77800 40.03600
H  -10.87400 43.03300 38.44600
H  -9.59600 42.66600 39.72900
H  -15.22600 44.06900 42.03000
H  -14.75900 42.48200 42.56200
H  -15.71500 42.73200 40.99700
H  -16.85800 38.44100 41.74400
H  -16.16500 36.85100 44.14300
H  -17.38700 40.09500 43.34900
H  -15.72200 39.91400 44.08100
H  -17.07100 38.84700 44.46700
H  -16.44800 34.99000 42.07400
H  -17.21300 36.25100 41.45700
H  -18.43700 36.18200 43.93200
H  -17.90700 34.54700 43.73600
H  -19.00900 35.16000 42.50900
H  -12.96100 31.69000 43.13200
H  -13.20500 32.79400 44.54200
H  -11.69200 31.86300 44.27000
H  -8.29600 33.77400 40.15100
H  -6.41800 36.47300 44.02900
H  -5.28700 36.35300 42.58000
H  -5.54400 34.97700 43.70400

