158

Mg 0.98700 8.06600 26.80800
C  1.46700 9.89600 29.83800
C  0.30700 5.31900 28.64100
C  0.42700 6.64900 23.95000
C  1.82500 11.17900 25.05600
N  0.91800 7.67100 28.98000
C  0.99800 8.51400 30.01300
C  0.59100 7.85800 31.32300
C  0.86700 6.35600 30.98700
C  0.75700 6.40900 29.43300
C  2.23600 5.82200 31.42600
C  -0.84600 8.11700 31.77600
C  -1.20500 8.49100 33.31800
H  -0.03500 8.48200 34.28600
N  0.47400 6.24900 26.39700
C  0.11600 5.25500 27.23800
C  -0.46500 4.14000 26.52200
C  -0.43500 4.50100 25.21000
C  0.12300 5.84200 25.15300
C  -0.92600 2.79200 27.05000
C  -0.89600 3.70100 23.95000
O  -0.70600 4.19800 22.89600
C  -1.61400 2.36800 24.04400
N  1.25200 8.79300 24.77800
C  0.95500 7.95900 23.78800
C  1.44400 8.50300 22.43200
C  1.45100 10.02300 22.78400
C  1.57700 10.00500 24.31300
C  2.90300 7.83700 22.09000
C  0.14600 10.69200 22.45400
C  0.20100 12.23100 22.10900
N  1.75500 10.06600 27.23000
C  2.06200 11.12500 26.47700
C  2.47700 12.29300 27.28200
C  2.17400 11.84300 28.62200
C  1.82800 10.50600 28.52400
C  2.86900 13.69000 26.68600
C  2.21500 12.27200 29.96400
O  2.53400 13.36000 30.35500
C  1.61300 11.01400 30.83200
C  2.63600 10.81300 31.92800
O  3.68400 10.20400 31.85000
O  2.17400 11.41900 33.07300
C  3.19600 11.52800 34.12600
H  0.20500 4.42600 29.26100
H  0.48600 6.17300 22.96900
H  1.96300 12.12800 24.53300
H  1.20000 8.28000 32.12200
H  0.04100 5.78300 31.40900
H  2.96900 6.58100 31.70000
H  2.57500 5.35400 30.50200
H  2.19600 5.14100 32.27600
H  -1.43300 7.22300 31.56200
H  -1.22500 8.82000 31.03400
H  -2.05400 7.85400 33.56600
H  -1.49800 9.52900 33.16200
H  -1.86600 2.42000 26.64100
H  -0.98100 2.74800 28.13700
H  -0.23900 1.98100 26.80500
H  -1.09100 1.74100 24.76500
H  -1.73400 1.87100 23.08100
H  -2.53300 2.66800 24.54800
H  0.81100 8.19700 21.59800
H  2.28200 10.44700 22.21900
H  3.51600 8.12700 22.94300
H  3.27200 8.46800 21.28100
H  2.66700 6.80200 21.84200
H  -0.50200 10.54400 23.31800
H  -0.25000 10.23500 21.54700
H  1.16500 12.60200 21.76200
H  0.01500 12.83300 22.99800
H  -0.49100 12.53000 21.32100
H  2.11000 14.05300 25.99300
H  3.77800 13.63200 26.08700
H  3.09700 14.39100 27.48900
H  0.62300 11.19200 31.25000
H  3.45600 12.58700 34.14800
H  4.13100 11.03700 33.85800
H  2.84000 11.09500 35.06100
Mg 50.55200 45.13700 42.99000
C  47.54500 46.36800 41.69700
C  49.99800 42.18500 41.29300
C  53.74100 44.41000 43.27900
C  51.31000 48.48700 43.85100
N  48.86500 44.40700 41.59300
C  47.74600 45.04500 41.25000
C  46.83300 44.08900 40.42900
C  47.59700 42.71900 40.41100
C  48.91100 43.12900 41.08800
C  46.93600 41.61700 41.33200
C  46.51500 44.69700 39.07300
C  44.97300 44.62400 38.71100
H  44.49100 43.42000 37.77600
N  51.63700 43.35900 42.67000
C  51.24900 42.26200 41.98800
C  52.31500 41.30400 41.97700
C  53.40900 41.92100 42.62100
C  52.95900 43.28900 42.92000
C  52.18100 39.84700 41.48000
C  54.80700 41.26000 42.91500
O  55.12300 40.23800 42.34800
C  55.89000 41.97400 43.79800
N  52.24900 46.27300 43.38400
C  53.46400 45.73100 43.52300
C  54.55400 46.70700 43.84300
C  53.75500 48.01300 44.01800
C  52.33700 47.60000 43.72800
C  55.47100 46.56400 45.07600
C  54.33300 49.17400 43.19600
C  54.80900 50.37600 43.97500
N  49.58100 47.03400 42.98300
C  50.02200 48.24300 43.41000
C  48.88200 49.21100 43.37900
C  47.81300 48.50000 42.66700
C  48.40100 47.20700 42.42400
C  48.82600 50.48800 44.14500
C  46.41100 48.47300 42.27600
O  45.54600 49.36100 42.35800
C  46.25200 47.14300 41.49900
C  44.93700 46.59900 41.98900
O  44.86600 45.82800 42.97800
O  43.88800 46.92700 41.24400
C  42.50300 46.44000 41.65200
H  49.70200 41.20600 40.91200
H  54.78200 44.09400 43.18400
H  51.55000 49.51500 44.13100
H  45.94800 43.94600 41.04900
H  47.69800 42.28600 39.41600
H  45.85600 41.72100 41.44200
H  47.36400 41.60400 42.33400
H  47.28700 40.73600 40.79500
H  46.95000 44.10400 38.26800
H  46.98800 45.67100 38.95300
H  44.66500 45.48000 38.11000
H  44.40200 44.61700 39.64000
H  52.81000 39.55300 40.63900
H  51.16400 39.77500 41.09500
H  52.29200 39.04900 42.21400
H  55.45900 42.43000 44.68900
H  56.42100 42.64700 43.12500
H  56.59000 41.22500 44.16800
H  55.24700 46.61100 43.00700
H  53.83700 48.24900 45.07900
H  55.97900 47.49100 45.34000
H  56.07700 45.66600 44.95600
H  54.87400 46.29400 45.94700
H  53.51300 49.55000 42.58400
H  55.09000 48.71300 42.56100
H  54.21300 51.26700 43.77700
H  55.86200 50.57300 43.77500
H  54.68500 50.26800 45.05300
H  48.00800 50.42700 44.86300
H  48.67200 51.33900 43.48200
H  49.77300 50.70400 44.63900
H  46.08400 47.59500 40.52100
H  41.87500 47.24200 41.26300
H  42.40300 46.29300 42.72700
H  42.12800 45.58000 41.09800

