158

Mg 35.47800 1.82000 29.32400
C  33.40200 3.02500 31.93600
C  38.18400 1.68100 31.53600
C  37.61400 1.21700 26.78900
C  32.94200 2.42900 27.14400
N  35.71200 2.27400 31.45400
C  34.71800 2.65600 32.32500
C  35.25700 2.51800 33.75700
C  36.80800 2.51600 33.61400
C  36.98000 2.13100 32.06800
C  37.50900 3.78900 34.06400
C  34.61200 1.33700 34.58600
C  33.83300 1.75900 35.82200
H  34.35000 2.94700 36.62800
N  37.62100 1.35600 29.18600
C  38.53800 1.27700 30.23900
C  39.87700 0.92300 29.72900
C  39.68300 0.72700 28.32900
C  38.28500 1.13400 28.02500
C  41.10900 0.63100 30.64000
C  40.61900 0.23000 27.23200
O  40.32700 -0.21200 26.07800
C  42.14400 0.17900 27.56500
N  35.27100 1.68700 27.23900
C  36.32400 1.48200 26.33500
C  35.76500 1.42500 24.90100
C  34.18500 1.56900 25.13500
C  34.12600 1.98900 26.60200
C  36.37200 2.51400 24.02500
C  33.34500 0.20800 24.97500
C  32.45600 0.14500 23.64700
N  33.50300 2.60400 29.42900
C  32.63300 2.73600 28.40600
C  31.36500 3.14400 29.05000
C  31.69600 3.47400 30.38500
C  32.97000 3.00000 30.59800
C  30.09800 3.17300 28.20500
C  31.17500 3.86300 31.65300
O  30.10100 4.34900 31.93000
C  32.19300 3.56300 32.75300
C  32.38700 4.83000 33.47100
O  32.96700 5.75900 33.04200
O  31.57800 4.79600 34.58300
C  31.69400 5.96000 35.44800
H  39.04000 1.45700 32.17600
H  38.28500 1.03600 25.94700
H  32.09700 2.52700 26.45900
H  34.91000 3.38600 34.31800
H  37.29400 1.75600 34.22600
H  37.86900 3.82000 35.09200
H  36.81500 4.62600 33.97500
H  38.37600 4.01200 33.44200
H  35.41900 0.68500 34.92000
H  33.95500 0.76700 33.92900
H  33.65700 0.89900 36.46800
H  32.82200 2.02900 35.51800
H  41.58300 -0.28700 30.29400
H  40.70100 0.43600 31.63200
H  41.87400 1.40700 30.64800
H  42.43700 0.96100 28.26600
H  42.82100 0.23100 26.71200
H  42.37100 -0.76700 28.05700
H  35.97400 0.47200 24.41500
H  33.75300 2.35700 24.51800
H  36.44600 2.21000 22.98100
H  37.32500 2.94000 24.33800
H  35.66100 3.32200 23.85500
H  32.69700 -0.07700 25.80500
H  33.96100 -0.69100 24.95700
H  32.89400 -0.56900 22.94900
H  32.35100 1.06700 23.07500
H  31.45200 -0.21900 23.86700
H  30.11100 2.50100 27.34800
H  29.94400 4.17800 27.81000
H  29.29300 2.85000 28.86600
H  31.68300 2.90400 33.45600
H  30.66900 6.16600 35.75500
H  32.14000 6.85700 35.01700
H  32.35000 5.77300 36.29800
Mg 49.38500 44.60100 43.18300
C  46.09600 45.42900 42.30000
C  48.99700 41.53400 41.53300
C  52.74400 44.20200 43.20200
C  49.78000 47.92800 44.11600
N  47.75000 43.65400 41.95900
C  46.51400 44.18300 41.73000
C  45.62300 43.20200 40.98800
C  46.36000 41.87900 41.32400
C  47.80800 42.34600 41.64700
C  45.62300 40.95100 42.45400
C  45.40700 43.50600 39.49200
C  43.95800 43.60200 38.88400
H  43.74800 44.39800 37.61000
N  50.65600 43.08900 42.52800
C  50.31400 41.87800 41.90600
C  51.47100 40.96900 41.74600
C  52.61700 41.76400 42.20200
C  52.03600 43.09000 42.66100
C  51.47900 39.46000 41.28700
C  54.03800 41.30300 42.12600
O  54.45700 40.22600 41.66200
C  55.13800 42.22000 42.69600
N  51.05500 45.96500 43.45500
C  52.32900 45.45200 43.57500
C  53.34700 46.54000 43.94800
C  52.41000 47.75600 44.33600
C  50.96200 47.17100 43.97500
C  54.38900 46.24100 45.06000
C  52.77800 49.17300 43.71200
C  53.02600 50.26500 44.63600
N  48.10900 46.31100 43.28200
C  48.43500 47.57500 43.79900
C  47.23000 48.41500 43.91500
C  46.31500 47.63600 43.27800
C  46.83500 46.35500 42.95200
C  47.07800 49.84800 44.30500
C  44.97500 47.65400 42.69400
O  44.07800 48.47700 42.61900
C  44.77300 46.17100 42.12900
C  43.60700 45.41300 42.62600
O  42.80000 44.89000 41.91000
O  43.34500 45.61000 43.92300
C  42.05400 45.12200 44.43500
H  48.86700 40.49800 41.21300
H  53.81400 44.18900 43.42100
H  50.02900 48.93400 44.46200
H  44.63000 43.09400 41.42300
H  46.26700 41.31100 40.39900
H  44.92600 41.61500 42.96600
H  46.40200 40.73200 43.18400
H  45.34100 39.97300 42.06300
H  45.97700 42.73000 38.98200
H  45.98100 44.37500 39.17000
H  43.17400 43.90100 39.57900
H  43.67700 42.56000 38.73100
H  51.88000 39.35900 40.27800
H  50.47100 39.04500 41.29700
H  52.04100 38.80900 41.95700
H  55.22000 43.10500 42.06600
H  56.13000 41.77300 42.63800
H  54.93400 42.50000 43.73000
H  53.96900 46.81900 43.09800
H  52.48500 47.94700 45.40600
H  54.16800 46.87800 45.91600
H  55.40100 46.37400 44.67800
H  54.13000 45.27300 45.48800
H  51.96600 49.51700 43.07100
H  53.66800 48.98400 43.11100
H  52.52800 50.25300 45.60600
H  52.64500 51.17800 44.17900
H  54.05400 50.55600 44.85400
H  47.93600 50.37400 43.88700
H  47.16800 49.85100 45.39100
H  46.17900 50.34900 43.94700
H  44.63700 46.23600 41.04900
H  41.19600 45.51200 43.88800
H  41.96000 45.50500 45.45100
H  41.96900 44.03700 44.49400

