158

Mg 47.77200 16.45900 28.70800
C  45.45500 15.80300 31.19000
C  49.41500 18.60700 30.81200
C  49.89600 17.15500 26.21800
C  45.73900 14.77400 26.42200
N  47.41300 17.21200 30.71500
C  46.44700 16.73300 31.61400
C  46.65700 17.21000 33.02600
C  47.78900 18.30700 32.83300
C  48.24700 18.05400 31.39100
C  47.27500 19.81100 32.99100
C  47.11900 16.00700 33.98900
C  46.75400 16.08000 35.47900
H  47.90000 16.03700 36.52000
N  49.41700 17.75400 28.54900
C  49.98500 18.54600 29.55200
C  51.15500 19.17900 29.07100
C  51.39800 18.62800 27.76000
C  50.21300 17.78600 27.47100
C  52.04800 20.18700 29.85600
C  52.59700 18.75600 26.83900
O  52.68000 18.20100 25.73000
C  53.76200 19.58200 27.29900
N  47.76000 16.09600 26.54700
C  48.83500 16.37400 25.78100
C  48.68500 15.83700 24.34800
C  47.39500 14.92000 24.44600
C  46.94400 15.19900 25.85900
C  48.49800 17.03400 23.35800
C  47.55100 13.48100 24.02900
C  47.47400 12.33900 25.04300
N  46.00500 15.52900 28.74200
C  45.26800 14.88600 27.73100
C  44.01800 14.35500 28.30500
C  44.04800 14.66900 29.67500
C  45.27100 15.31200 29.87700
C  42.90400 13.63100 27.53100
C  43.27600 14.64600 30.85800
O  42.14600 14.37300 31.11400
C  44.27800 15.32700 31.93200
C  43.51300 16.33000 32.70600
O  43.16400 17.36700 32.25400
O  43.40600 15.91900 34.04400
C  42.50900 16.83300 34.83900
H  49.89700 19.18800 31.60200
H  50.70300 17.15900 25.48200
H  45.09400 14.20000 25.75400
H  45.79100 17.79700 33.33300
H  48.62200 18.29600 33.53500
H  46.19400 19.94500 32.98700
H  47.67100 20.36600 32.14000
H  47.78200 20.13500 33.90000
H  48.20600 15.99900 33.92200
H  46.73600 15.04700 33.64100
H  46.15000 15.20700 35.72700
H  46.13500 16.97600 35.51800
H  51.39000 20.59800 30.62100
H  52.24600 20.97000 29.12500
H  52.88300 19.60300 30.24600
H  53.50600 20.64000 27.34000
H  54.55800 19.38700 26.58100
H  54.05900 19.23800 28.29000
H  49.60500 15.33900 24.04200
H  46.54700 15.30400 23.87900
H  49.06200 16.80600 22.45300
H  48.87100 17.96700 23.78000
H  47.46200 17.05700 23.01900
H  48.49700 13.39700 23.49400
H  46.73400 13.20600 23.36300
H  46.93700 12.64700 25.94000
H  48.45000 11.97300 25.36000
H  46.86900 11.47100 24.77700
H  42.82200 12.62800 27.94800
H  43.17400 13.35200 26.51200
H  41.92700 14.11500 27.55200
H  44.65800 14.61600 32.66600
H  42.50900 16.41600 35.84600
H  41.46300 16.82500 34.53100
H  42.97500 17.81500 34.91200
Mg 35.40000 49.85300 25.43500
C  35.05100 48.14200 28.46900
C  34.30300 52.70400 27.23500
C  35.22500 51.40300 22.49500
C  36.07700 46.78200 23.81500
N  34.84500 50.40200 27.68400
C  34.84700 49.49700 28.71000
C  34.62000 50.18100 30.06300
C  34.33200 51.66800 29.64400
C  34.48700 51.67200 28.12100
C  32.90000 52.21900 30.06000
C  35.80300 50.01200 31.10400
C  35.36700 49.73700 32.54100
H  33.88100 49.88800 33.00000
N  34.89400 51.75000 24.94400
C  34.45800 52.73800 25.81100
C  34.02800 53.87600 24.96700
C  34.40900 53.62600 23.63100
C  34.90900 52.18800 23.63800
C  33.35100 55.13100 25.46600
C  34.37400 54.49100 22.46200
O  34.82700 54.17100 21.36300
C  33.74600 55.80800 22.46500
N  35.76400 49.23500 23.43600
C  35.64600 50.02600 22.35100
C  35.79600 49.28300 21.03000
C  36.24100 47.82500 21.51100
C  36.05500 47.97400 23.02500
C  34.52200 49.23000 20.11400
C  37.68000 47.57300 21.01300
C  38.86200 48.37800 21.61800
N  35.54100 47.90600 25.93400
C  35.83700 46.73200 25.27400
C  35.79000 45.50600 26.09600
C  35.54000 46.00500 27.36000
C  35.38400 47.48100 27.21300
C  36.13300 44.14800 25.68500
C  35.43400 45.61100 28.77500
O  35.57000 44.52800 29.34700
C  35.08400 46.95800 29.53500
C  33.79900 46.72600 30.23900
O  32.67500 46.89900 29.81300
O  34.02500 46.07000 31.47700
C  32.79400 45.56300 32.17000
H  34.17400 53.68000 27.70600
H  35.29300 51.96300 21.56000
H  36.25000 45.78800 23.39700
H  33.64100 49.86800 30.42500
H  35.13800 52.17700 30.17200
H  32.23000 52.44400 29.23100
H  33.04200 53.10600 30.67900
H  32.26000 51.46700 30.52100
H  36.32200 50.96900 31.15800
H  36.50200 49.24000 30.78000
H  36.10200 50.26600 33.14700
H  35.50600 48.68700 32.79700
H  34.00300 55.97000 25.22500
H  33.05600 55.18100 26.51400
H  32.40200 55.27500 24.94900
H  34.26300 56.46900 23.16000
H  32.72500 55.66200 22.81800
H  33.88500 56.23600 21.47300
H  36.56400 49.67000 20.36200
H  35.53400 47.11900 21.07700
H  34.16500 48.20500 20.01700
H  34.63900 49.77900 19.17900
H  33.67100 49.69500 20.61100
H  37.56000 47.55500 19.93000
H  37.79400 46.55100 21.37400
H  39.43400 48.87800 20.83700
H  39.63200 47.72500 22.03000
H  38.64400 49.17000 22.33500
H  36.95500 44.26100 24.97800
H  35.25300 43.62700 25.31000
H  36.49900 43.60500 26.55700
H  35.90000 46.95800 30.25700
H  32.14600 44.98600 31.51100
H  32.26700 46.44100 32.54300
H  33.12700 45.06800 33.08300

