158

Mg 49.11900 46.43700 42.52400
C  45.83000 46.34700 41.48500
C  49.50800 43.12900 41.07500
C  52.37600 46.47500 43.21600
C  48.85500 49.78200 43.34500
N  47.73400 44.81800 41.45200
C  46.45100 45.10800 41.02200
C  45.86600 43.93800 40.19200
C  47.07000 42.88300 40.12600
C  48.20100 43.68200 40.89500
C  46.73600 41.53500 40.81800
C  45.40700 44.43700 38.74700
C  43.92900 44.14200 38.42900
H  43.48600 43.10000 37.34900
N  50.69800 45.00300 42.25000
C  50.63300 43.73500 41.62200
C  51.92600 43.10800 41.66700
C  52.78200 43.99700 42.42100
C  51.97700 45.20200 42.62500
C  52.19300 41.78300 41.04700
C  54.19600 43.78500 42.84400
O  54.77900 42.80500 42.47000
C  54.96400 44.77600 43.74500
N  50.40000 47.89200 43.02800
C  51.75600 47.67600 43.41900
C  52.46000 48.99500 43.77000
C  51.22800 49.98700 43.70800
C  50.02900 49.13800 43.35200
C  53.32600 49.06200 45.08900
C  51.65400 51.35200 42.91700
C  51.19300 52.62400 43.70200
N  47.59600 47.84500 42.46400
C  47.64300 49.17700 42.84000
C  46.32500 49.68000 42.80900
C  45.54400 48.60000 42.29500
C  46.44600 47.51400 42.08200
C  46.00200 51.06000 43.00200
C  44.23400 48.23100 41.89700
O  43.15500 48.89600 41.77800
C  44.27700 46.72300 41.45400
C  43.51700 45.95700 42.46300
O  43.87200 45.75000 43.59600
O  42.26600 45.66800 42.02600
C  41.35500 45.09500 43.04000
H  49.42000 42.15500 40.58800
H  53.45400 46.64200 43.25300
H  48.74900 50.86100 43.47300
H  45.01600 43.56000 40.76100
H  47.50300 42.78400 39.13100
H  45.65100 41.43900 40.85400
H  47.13100 41.58200 41.83300
H  47.17500 40.62100 40.41900
H  45.99600 43.97600 37.95400
H  45.57500 45.51000 38.65500
H  43.49300 45.08500 38.09800
H  43.28100 43.89600 39.27100
H  53.16300 41.35900 41.30700
H  52.16600 42.06400 39.99400
H  51.42200 41.04900 41.28400
H  55.40600 45.59900 43.18200
H  55.71400 44.29100 44.37000
H  54.28900 45.08000 44.54500
H  53.17300 49.15200 42.96000
H  50.87100 50.17600 44.72100
H  54.33600 49.30900 44.76200
H  53.28700 48.12100 45.63800
H  52.96200 49.92500 45.64800
H  51.28900 51.22000 41.89800
H  52.73700 51.30900 42.79500
H  50.50300 52.28600 44.47600
H  50.64000 53.33800 43.09200
H  52.03700 53.14200 44.15600
H  44.91600 51.15500 43.03000
H  46.48900 51.57100 42.17200
H  46.43100 51.49300 43.90600
H  43.91700 46.57100 40.43700
H  40.36700 45.10800 42.58000
H  41.38800 45.66400 43.96900
H  41.67800 44.06900 43.21600
Mg -2.23900 34.35100 26.63200
C  -3.75400 32.53700 29.24700
C  -0.93700 36.54700 28.99800
C  -1.28900 36.38300 24.16800
C  -4.11300 32.49900 24.43100
N  -2.51100 34.55100 28.83500
C  -3.11000 33.70800 29.71000
C  -2.80500 34.20000 31.13800
C  -2.15700 35.58200 30.99100
C  -1.82200 35.57200 29.50200
C  -3.02900 36.81700 31.40900
C  -1.92200 33.22800 32.02300
C  -2.29100 32.86000 33.49600
H  -1.19700 32.94200 34.51900
N  -1.02900 36.15100 26.55400
C  -0.54300 36.83100 27.67500
C  0.35800 37.83800 27.15400
C  0.28900 37.78000 25.71300
C  -0.67900 36.72000 25.38100
C  1.17400 38.71300 28.04800
C  1.06100 38.53000 24.70900
O  0.86800 38.38900 23.50200
C  2.04200 39.56600 25.17000
N  -2.80500 34.56600 24.61800
C  -2.24000 35.45600 23.79000
C  -2.70900 35.34800 22.30900
C  -3.50200 33.99200 22.37000
C  -3.53200 33.67500 23.88000
C  -3.48600 36.64500 21.78400
C  -2.89200 32.84400 21.49900
C  -1.42400 32.54000 21.69800
N  -3.53800 32.81800 26.79200
C  -4.22300 32.09700 25.75300
C  -5.02800 31.02200 26.30000
C  -4.83700 31.08000 27.68000
C  -3.86400 32.17300 27.89500
C  -6.04200 30.17100 25.50800
C  -5.25900 30.53600 28.96000
O  -5.97500 29.57700 29.19800
C  -4.52700 31.45900 30.09500
C  -5.62600 32.02800 30.90200
O  -6.37200 32.92000 30.57100
O  -5.55700 31.43900 32.14600
C  -6.60400 31.80400 33.12500
H  -0.46900 37.14100 29.78600
H  -0.96900 37.00500 23.32900
H  -4.67100 31.81700 23.78600
H  -3.78700 34.23600 31.61000
H  -1.20800 35.66500 31.52200
H  -3.20400 37.52400 30.59800
H  -2.60100 37.31800 32.27700
H  -3.99200 36.61100 31.87800
H  -0.91900 33.65300 32.03500
H  -1.76800 32.33200 31.42200
H  -2.71100 31.85800 33.40900
H  -3.14100 33.44000 33.85300
H  0.79600 39.67000 27.68800
H  2.19700 38.40300 27.83200
H  0.91200 38.59600 29.09900
H  1.51700 40.41800 25.60300
H  2.47800 40.09700 24.32400
H  2.76100 39.09400 25.84000
H  -1.77100 35.16700 21.78300
H  -4.49300 34.25600 22.00200
H  -4.26100 36.28900 21.10500
H  -2.78600 37.15900 21.12500
H  -3.79300 37.20300 22.66800
H  -3.08700 33.13000 20.46600
H  -3.49100 31.96500 21.73800
H  -0.99700 33.14300 20.89600
H  -1.25800 31.46300 21.66000
H  -1.16800 33.07900 22.61000
H  -6.92800 30.08400 26.13700
H  -5.63500 29.21100 25.19000
H  -6.25900 30.84300 24.67700
H  -3.90400 30.81700 30.71800
H  -7.37300 32.44000 32.68700
H  -6.07500 32.34600 33.90900
H  -6.96900 30.84800 33.50000

