158

Mg -1.74800 17.51400 26.96000
C  -2.53300 15.43400 29.84500
C  -2.21800 20.12000 29.06000
C  -1.18900 19.36100 24.36800
C  -2.19700 14.70200 25.00200
N  -2.11300 17.65000 29.30100
C  -2.45000 16.73100 30.26400
C  -2.65700 17.35000 31.63200
C  -2.79400 18.88600 31.21000
C  -2.35900 18.92100 29.74000
C  -4.15800 19.49500 31.63200
C  -1.56000 17.15900 32.70800
C  -2.02700 16.75100 34.15400
H  -1.29900 17.25700 35.40000
N  -1.68300 19.52400 26.75400
C  -1.90400 20.51300 27.71000
C  -1.66100 21.78200 27.18600
C  -1.24800 21.56000 25.81300
C  -1.35900 20.13000 25.57500
C  -1.82600 23.02600 27.99300
C  -0.77300 22.52100 24.75700
O  -0.33300 22.20300 23.61200
C  -0.74200 24.04700 24.98100
N  -1.68200 17.09900 24.98900
C  -1.45000 18.01800 24.06400
C  -1.48200 17.46600 22.60000
C  -1.84900 15.98100 22.83000
C  -1.86600 15.88700 24.39400
C  -2.46000 18.12800 21.71700
C  -0.81800 15.10600 22.15800
C  0.63800 15.25500 22.68800
N  -2.17100 15.46400 27.28300
C  -2.33700 14.45400 26.35700
C  -2.54100 13.20500 27.03800
C  -2.69800 13.58600 28.40800
C  -2.46900 14.94000 28.49600
C  -2.73000 11.86100 26.35100
C  -2.96900 13.01300 29.71800
O  -3.31200 11.89400 30.01600
C  -2.72800 14.19000 30.67600
C  -1.49300 13.84400 31.47600
O  -0.35600 14.03800 31.14000
O  -1.81000 13.22000 32.66400
C  -0.64100 12.57200 33.38000
H  -2.52800 20.99500 29.63600
H  -1.07400 20.00100 23.49100
H  -2.39800 13.77900 24.45400
H  -3.58400 17.00200 32.08700
H  -2.10100 19.59000 31.67100
H  -4.53400 20.12700 30.82700
H  -4.05500 20.20600 32.45200
H  -4.79300 18.66900 31.95300
H  -0.87000 18.00300 32.73200
H  -0.86300 16.39500 32.36400
H  -2.00700 15.66200 34.20800
H  -3.06600 17.08000 34.14500
H  -0.99500 23.27500 28.65300
H  -2.69900 22.98600 28.64500
H  -1.98500 23.96000 27.45400
H  -0.33600 24.16600 25.98600
H  -1.78200 24.26800 24.74200
H  -0.03000 24.61300 24.38200
H  -0.48400 17.46100 22.16300
H  -2.81000 15.61500 22.47100
H  -3.30700 18.31700 22.37700
H  -2.64400 17.57900 20.79400
H  -1.97900 19.06200 21.42600
H  -0.80800 15.26800 21.08100
H  -1.18200 14.08100 22.23600
H  0.65000 16.01300 23.47200
H  1.20400 15.71800 21.87800
H  1.02800 14.35000 23.15400
H  -3.04300 11.10200 27.06800
H  -1.80700 11.49400 25.90100
H  -3.54900 11.93500 25.63500
H  -3.49100 14.27500 31.45000
H  -0.67600 12.78900 34.44800
H  0.38900 12.82900 33.13100
H  -0.74400 11.48900 33.30600
Mg -4.64700 25.28300 25.72100
C  -3.48200 26.77200 28.68100
C  -6.80300 23.46400 27.50800
C  -5.64700 23.89400 22.74600
C  -2.19900 27.13100 23.94100
N  -4.99300 25.02600 27.88400
C  -4.52400 25.91400 28.92200
C  -5.26800 25.57400 30.29900
C  -6.01200 24.21300 29.82400
C  -5.99000 24.26800 28.31000
C  -5.23000 22.94400 30.28700
C  -6.26000 26.70700 30.73100
C  -6.40000 26.98400 32.22300
H  -6.25700 25.86400 33.22300
N  -6.02900 23.80100 25.20100
C  -6.90300 23.28200 26.06900
C  -7.86500 22.45600 25.35500
C  -7.45600 22.46300 23.93500
C  -6.33500 23.37200 23.90100
C  -8.86400 21.60300 26.11400
C  -8.10400 21.77600 22.70500
O  -7.58400 21.89500 21.58200
C  -9.35800 21.09400 22.89400
N  -4.04100 25.49900 23.66600
C  -4.62000 24.77000 22.67000
C  -3.85600 25.03300 21.38500
C  -3.06600 26.34600 21.71200
C  -3.04200 26.32600 23.20500
C  -2.92600 23.86200 20.94000
C  -3.78300 27.58400 21.17900
C  -3.08900 28.14500 19.95500
N  -3.11600 26.71600 26.10900
C  -2.31200 27.44600 25.30400
C  -1.64700 28.44800 26.04400
C  -2.01500 28.15900 27.43800
C  -2.90800 27.08800 27.38300
C  -0.75300 29.57100 25.50700
C  -1.85800 28.65700 28.74900
O  -1.21300 29.58500 29.17900
C  -2.75500 27.72500 29.65500
C  -1.72400 27.12400 30.54300
O  -0.91900 26.25400 30.30300
O  -1.99500 27.56700 31.81300
C  -1.19700 27.00200 32.84200
H  -7.51900 22.86400 28.07300
H  -5.82700 23.31500 21.83700
H  -1.52300 27.64600 23.25500
H  -4.57700 25.44500 31.13200
H  -7.05300 24.06500 30.11100
H  -5.74400 22.45100 31.11300
H  -4.28000 23.24600 30.72700
H  -5.01400 22.23100 29.49100
H  -7.27100 26.48600 30.38700
H  -5.79600 27.58400 30.27800
H  -7.36800 27.44200 32.42900
H  -5.58500 27.68400 32.40600
H  -9.73200 22.17900 26.43400
H  -8.39600 21.18300 27.00400
H  -9.15600 20.81600 25.41700
H  -9.07600 20.18800 23.43200
H  -9.90000 20.82800 21.98600
H  -10.07400 21.67200 23.47700
H  -4.58100 25.07800 20.57200
H  -2.05100 26.20000 21.34100
H  -1.90300 24.23700 20.95200
H  -3.26700 23.48400 19.97600
H  -2.96300 23.07400 21.69300
H  -3.83400 28.39600 21.90500
H  -4.82400 27.36400 20.94300
H  -3.19200 27.45400 19.11800
H  -2.03300 28.20800 20.21900
H  -3.60900 29.07800 19.73800
H  -1.12500 30.54800 25.81600
H  -0.64400 29.46700 24.42700
H  0.17000 29.49500 26.08200
H  -3.57800 28.17400 30.21000
H  -0.13300 27.21900 32.74500
H  -1.47000 25.95000 32.93300
H  -1.57800 27.42800 33.77000

