158

Mg 8.97800 4.05800 27.89300
C  10.33800 2.45200 30.85700
C  7.28500 6.22400 29.92000
C  7.44000 5.11800 25.17300
C  10.70000 1.72100 25.92600
N  8.71600 4.27100 30.18200
C  9.43200 3.59100 31.22000
C  9.14200 4.12300 32.56200
C  8.13600 5.31700 32.23300
C  8.07900 5.34900 30.65900
C  6.67300 5.21000 32.61200
C  10.44000 4.59500 33.23400
C  10.85500 3.95500 34.54200
H  11.36600 4.95400 35.60800
N  7.51000 5.40700 27.65300
C  6.92700 6.24200 28.53900
C  6.16600 7.26600 27.88200
C  6.10900 6.86400 26.49700
C  7.07500 5.71400 26.35300
C  5.47200 8.46200 28.50000
C  5.23600 7.32900 25.33400
O  5.35600 6.95100 24.18900
C  4.16700 8.29800 25.61300
N  9.12900 3.50700 25.87500
C  8.34500 4.08400 24.87300
C  8.63500 3.66600 23.42800
C  9.75000 2.61900 23.74600
C  9.90700 2.62600 25.28500
C  7.43500 3.22400 22.58800
C  11.15100 2.86100 23.10600
C  11.68900 1.79400 22.17500
N  10.27800 2.50000 28.22100
C  10.92000 1.67000 27.29600
C  11.75800 0.71300 27.98700
C  11.57600 0.99100 29.32300
C  10.65700 2.12700 29.46300
C  12.68500 -0.33200 27.34500
C  12.01400 0.65900 30.68800
O  12.84100 -0.12100 31.13200
C  11.24500 1.61500 31.68100
C  10.58900 0.85000 32.75200
O  9.52800 0.22400 32.65400
O  11.31600 0.93200 33.94600
C  10.72700 0.21000 35.02400
H  6.96000 7.02700 30.58500
H  7.05900 5.56300 24.25100
H  11.16400 1.04300 25.20700
H  8.59500 3.33500 33.08100
H  8.54900 6.31300 32.39300
H  6.10000 4.87600 31.74700
H  6.30400 6.17300 32.96500
H  6.51700 4.54800 33.46300
H  10.31300 5.65000 33.47400
H  11.28500 4.39300 32.57500
H  11.69100 3.26900 34.40600
H  10.03000 3.32300 34.87000
H  5.76800 9.43400 28.10700
H  5.63100 8.42700 29.57800
H  4.40700 8.25900 28.38100
H  3.62500 8.50900 24.69100
H  4.48600 9.22100 26.09700
H  3.41100 7.91800 26.30100
H  9.11400 4.57300 23.05900
H  9.29900 1.69000 23.39700
H  6.54800 3.17000 23.22000
H  7.59000 2.20000 22.24800
H  7.25300 3.89400 21.74700
H  11.87700 2.97900 23.91100
H  11.17500 3.83100 22.61000
H  12.04500 2.10200 21.19200
H  10.97000 0.97600 22.13200
H  12.54100 1.33500 22.67600
H  13.47900 -0.50800 28.07100
H  13.06700 0.06800 26.40600
H  12.13300 -1.26200 27.20900
H  11.93500 2.18100 32.30700
H  10.22700 -0.70300 34.70000
H  10.07400 0.77600 35.68800
H  11.53700 -0.22400 35.61100
Mg 16.99200 52.31000 26.43500
C  18.86500 51.02900 29.10900
C  14.72300 53.47000 28.76800
C  15.34700 53.58400 23.86300
C  19.19300 50.69200 24.21400
N  16.70700 52.05500 28.67100
C  17.74700 51.69500 29.53900
C  17.30500 51.94400 31.00800
C  15.79100 52.34700 30.80600
C  15.70600 52.67900 29.32500
C  14.69800 51.32400 31.36700
C  18.17800 53.05900 31.66000
C  18.47300 53.00200 33.11500
H  17.51300 52.08900 33.87000
N  15.21800 53.32100 26.32900
C  14.41200 53.76100 27.38300
C  13.38900 54.63600 26.80400
C  13.53600 54.65900 25.44400
C  14.77600 53.87300 25.15500
C  12.36600 55.36500 27.63300
C  12.67300 55.31000 24.32100
O  12.95900 55.37900 23.09200
C  11.29900 55.87300 24.82600
N  17.12800 52.09100 24.37000
C  16.41800 52.82100 23.51200
C  16.77800 52.60100 22.08200
C  18.21500 51.94200 22.23800
C  18.18900 51.51600 23.72300
C  15.71000 51.69700 21.25000
C  19.41100 52.89300 21.86100
C  19.85100 52.85200 20.39700
N  18.74200 51.14500 26.55700
C  19.49400 50.45400 25.62300
C  20.62900 49.71700 26.26000
C  20.43300 49.96000 27.65900
C  19.24100 50.79100 27.75400
C  21.72300 49.00500 25.48100
C  21.00400 49.86400 28.96600
O  22.13800 49.49200 29.29100
C  19.98300 50.55500 30.02700
C  19.51700 49.45200 30.87100
O  18.58200 48.68700 30.58900
O  20.28600 49.33700 32.02900
C  20.00200 48.27400 32.91700
H  14.06400 53.98100 29.47400
H  14.92600 54.06900 22.97900
H  19.98800 50.18300 23.66600
H  17.32800 50.97200 31.50100
H  15.63000 53.24900 31.39800
H  14.10000 51.67100 32.21000
H  15.19500 50.40600 31.68000
H  14.03100 50.84300 30.65100
H  17.74200 54.04300 31.49200
H  19.13000 53.10300 31.13200
H  18.36900 54.00400 33.52900
H  19.48900 52.62300 33.22100
H  11.33700 55.13700 27.35300
H  12.56700 56.40400 27.37300
H  12.43400 55.12500 28.69400
H  10.84400 56.33200 23.94900
H  11.42900 56.71500 25.50700
H  10.63000 55.04100 25.04400
H  16.76900 53.54900 21.54400
H  18.18000 51.09800 21.54900
H  15.72100 51.71000 20.16000
H  14.66600 51.83200 21.53400
H  16.00400 50.67400 21.48500
H  20.26300 52.64600 22.49400
H  19.06900 53.88000 22.17300
H  20.89400 52.58200 20.55900
H  19.97700 53.83500 19.94200
H  19.36400 52.08100 19.79900
H  22.17800 49.79900 24.88900
H  21.29500 48.15000 24.95700
H  22.47800 48.72500 26.21600
H  20.35600 51.39900 30.60700
H  19.71800 47.32600 32.46000
H  19.14200 48.53400 33.53500
H  20.88300 48.14700 33.54600

