158

Mg 25.94400 -1.29800 29.03400
C  27.95100 -1.26500 31.95700
C  23.20800 -0.58800 31.26100
C  23.93700 -1.28800 26.37300
C  28.57200 -2.43900 27.16100
N  25.61700 -1.07600 31.38600
C  26.61800 -0.95700 32.31700
C  26.06400 -0.47000 33.73100
C  24.55500 -0.38000 33.45700
C  24.43800 -0.79400 31.93500
C  23.69800 -1.05700 34.53000
C  26.58600 0.88500 34.38800
C  27.32500 0.86900 35.68200
H  26.98800 1.81500 36.85600
N  23.89000 -0.98600 28.82400
C  22.98300 -0.69600 29.83200
C  21.75000 -0.45800 29.12800
C  21.93200 -0.51400 27.76800
C  23.32900 -0.99800 27.57300
C  20.39600 -0.33000 29.78900
C  20.93600 -0.15200 26.66200
O  21.32200 -0.07700 25.48900
C  19.54200 0.27100 26.90500
N  26.15700 -1.95100 27.07700
C  25.26000 -1.69300 26.14100
C  25.74600 -2.12200 24.72300
C  27.24400 -2.35500 24.98500
C  27.36400 -2.19100 26.50800
C  25.03200 -3.33500 24.13200
C  28.23800 -1.44100 24.19700
C  28.00500 0.05200 24.27800
N  27.82800 -1.87600 29.44600
C  28.78200 -2.25600 28.53500
C  30.03500 -2.31500 29.22900
C  29.74100 -1.91200 30.59300
C  28.41000 -1.67100 30.67400
C  31.30500 -2.84400 28.60500
C  30.36000 -1.68900 31.88500
O  31.49700 -1.78800 32.36500
C  29.19100 -1.17300 32.76000
C  29.01300 -2.01600 34.06500
O  28.60000 -3.14400 34.14700
O  29.65100 -1.30500 35.03900
C  29.61200 -1.83300 36.44900
H  22.37100 -0.23000 31.86500
H  23.35200 -1.10800 25.46900
H  29.46200 -2.70900 26.58800
H  26.46500 -1.26800 34.35600
H  24.17800 0.62900 33.62400
H  22.79900 -0.46100 34.69000
H  24.16700 -1.32700 35.47700
H  23.22300 -1.98400 34.20700
H  25.85700 1.68500 34.50800
H  27.26800 1.26100 33.62500
H  28.40200 0.83900 35.51400
H  27.03100 -0.10500 36.07100
H  20.44600 -0.42500 30.87300
H  19.79300 -1.18300 29.47700
H  19.83800 0.55800 29.49100
H  19.03800 -0.57300 27.37600
H  19.08400 0.45100 25.93300
H  19.44000 1.16800 27.51600
H  25.68600 -1.31000 23.99800
H  27.47100 -3.40000 24.77400
H  24.61300 -3.04200 23.17000
H  24.28300 -3.68100 24.84500
H  25.77200 -4.12500 24.00500
H  28.29000 -1.77300 23.16000
H  29.20300 -1.63000 24.66500
H  27.06600 0.29600 24.77400
H  28.10800 0.48900 23.28500
H  28.75600 0.55100 24.89100
H  31.39500 -2.64100 27.53700
H  31.36700 -3.92700 28.71500
H  32.16700 -2.43200 29.12900
H  29.32200 -0.12500 33.03000
H  28.64900 -1.75800 36.95500
H  30.39200 -1.54100 37.15200
H  29.76400 -2.91000 36.38100
Mg 6.26500 54.24000 41.04400
C  5.84300 50.83600 41.18300
C  9.65800 53.71100 40.07800
C  6.61900 57.50800 40.59200
C  2.78600 54.66600 41.43100
N  7.54800 52.42700 40.68600
C  7.16500 51.13900 40.80400
C  8.28000 50.14400 40.31500
C  9.46000 51.16200 40.54800
C  8.85500 52.53900 40.33800
C  10.03100 51.00600 41.93100
C  8.22600 49.65600 38.85400
C  7.36700 50.47100 37.88600
H  6.60000 49.63400 36.82200
N  7.85400 55.43400 40.53600
C  9.12800 55.08600 40.09200
C  9.90100 56.21000 39.87200
C  9.06900 57.33200 40.04800
C  7.72600 56.75900 40.34000
C  11.43500 56.09500 39.68900
C  9.56500 58.77400 39.91400
O  10.69800 59.03900 39.63000
C  8.67600 59.86200 40.16400
N  4.88400 55.85900 41.09200
C  5.29000 57.13100 40.87000
C  4.14400 58.12900 41.05300
C  2.97200 57.17900 41.43500
C  3.55300 55.81700 41.33700
C  4.40900 59.36500 41.96300
C  1.64900 57.46000 40.73300
C  0.45900 57.82200 41.62300
N  4.55900 53.04600 41.38600
C  3.23700 53.30200 41.59200
C  2.49900 52.07200 41.82300
C  3.48100 51.06000 41.79500
C  4.70400 51.71000 41.45700
C  1.09300 51.98600 41.98900
C  3.77100 49.67100 41.80200
O  2.97900 48.73100 41.98800
C  5.28000 49.47000 41.50000
C  5.19300 48.57000 40.30700
O  4.82200 48.99200 39.22300
O  5.51000 47.27000 40.54300
C  5.23800 46.34400 39.42300
H  10.73000 53.50900 40.03000
H  6.71400 58.58900 40.47200
H  1.70600 54.80200 41.51900
H  8.20400 49.24200 40.92100
H  10.21400 51.06900 39.76700
H  9.83300 50.02700 42.36700
H  9.72100 51.76500 42.64900
H  11.09000 50.99000 41.67200
H  7.64400 48.74700 39.00800
H  9.24000 49.56100 38.46700
H  8.14400 51.08500 37.43200
H  6.65800 51.17000 38.32900
H  11.93400 55.47700 40.43600
H  11.96600 57.04600 39.73900
H  11.64900 55.66000 38.71200
H  8.22200 59.69100 41.14100
H  8.05000 59.78500 39.27600
H  9.28100 60.76400 40.07500
H  3.92600 58.43900 40.03100
H  2.78900 57.27800 42.50500
H  5.41500 59.60300 42.30800
H  3.72800 59.19900 42.79800
H  3.98900 60.17800 41.37100
H  1.36800 56.54800 40.20600
H  1.66700 58.31300 40.05600
H  -0.54200 57.69800 41.20900
H  0.64500 58.77900 42.11000
H  0.46200 57.05500 42.39700
H  1.03200 51.30800 42.84000
H  0.59400 51.56300 41.11700
H  0.80900 52.99300 42.29600
H  5.80300 48.96100 42.31000
H  4.24600 45.89300 39.41400
H  5.98000 45.56100 39.58100
H  5.32600 46.82300 38.44800

