158

Mg 16.93200 52.81600 26.62300
C  18.75900 51.32200 29.22600
C  14.51700 53.62400 28.89600
C  14.82300 53.73800 24.12100
C  19.27900 51.76100 24.34900
N  16.76900 52.64500 28.84400
C  17.63400 52.04700 29.67300
C  17.07300 51.91300 31.12400
C  15.67700 52.66400 31.00900
C  15.58900 52.96700 29.47200
C  14.43300 51.84200 31.61200
C  17.83700 52.62800 32.22000
C  17.60900 51.69800 33.47800
H  17.21100 52.52400 34.71500
N  15.03000 53.56300 26.53200
C  14.17200 53.87400 27.55300
C  12.89600 54.41900 27.11500
C  13.06800 54.68000 25.71400
C  14.36100 53.94100 25.41300
C  11.91800 54.83700 28.04600
C  12.20300 55.30800 24.71400
O  12.52100 55.44900 23.54400
C  10.93400 55.95500 25.11800
N  17.19000 52.94100 24.55000
C  16.12700 53.19500 23.72100
C  16.49200 53.05600 22.19800
C  18.07800 52.75800 22.35800
C  18.24700 52.50800 23.81400
C  15.87400 51.93400 21.38600
C  19.04500 53.98100 21.96200
C  20.36000 53.76100 21.08000
N  18.73100 51.80600 26.74100
C  19.51700 51.39900 25.66800
C  20.55100 50.58200 26.18700
C  20.35400 50.53700 27.57300
C  19.19400 51.29500 27.87600
C  21.53300 49.86700 25.26400
C  20.72300 49.92200 28.83500
O  21.65200 49.15200 29.05900
C  19.74600 50.50600 29.96400
C  19.09000 49.31000 30.65600
O  18.45600 48.38100 30.11500
O  19.60700 49.18800 31.94200
C  19.15400 48.03200 32.63100
H  13.68200 53.87800 29.55200
H  14.22900 53.99800 23.24200
H  20.00200 51.46000 23.58700
H  16.76800 50.88100 31.29600
H  15.64500 53.62100 31.53000
H  13.89200 52.35500 32.40700
H  14.90400 50.96100 32.04800
H  13.79400 51.65400 30.74900
H  17.52600 53.64800 32.44600
H  18.89100 52.63900 31.94600
H  18.52000 51.22000 33.83900
H  16.92600 50.86600 33.31000
H  12.25400 55.78300 28.47000
H  11.70900 54.11300 28.83400
H  10.95300 54.97400 27.55800
H  11.13000 56.62000 25.95900
H  10.31100 55.20100 25.60000
H  10.40600 56.35400 24.25200
H  16.35100 54.03700 21.74500
H  18.41400 51.90200 21.77200
H  15.10700 51.45400 21.99500
H  16.56200 51.21900 20.93400
H  15.36600 52.27100 20.48300
H  19.29600 54.55500 22.85400
H  18.45900 54.64200 21.32400
H  20.65400 54.63100 20.49200
H  20.16900 52.92600 20.40500
H  21.27500 53.43500 21.57400
H  22.23900 50.62700 24.92900
H  21.16900 49.40500 24.34500
H  21.92100 49.00000 25.79800
H  20.31600 51.12400 30.65700
H  19.74100 48.11600 33.54600
H  19.34500 47.12800 32.05300
H  18.09200 48.12100 32.85800
Mg -11.47300 16.00900 41.95200
C  -7.90400 16.13500 41.79800
C  -11.29500 19.43800 41.30600
C  -14.60900 15.78200 41.16800
C  -11.19100 12.42500 42.14200
N  -9.73700 17.60900 41.58300
C  -8.42400 17.40800 41.61200
C  -7.65100 18.69800 41.52300
C  -8.73700 19.75400 41.74300
C  -10.01600 18.92500 41.62900
C  -8.78000 20.45300 43.19000
C  -6.98600 18.95100 40.08600
C  -5.45400 19.07200 40.04400
H  -4.76700 18.45800 38.77000
N  -12.75100 17.41400 41.26700
C  -12.53400 18.75800 41.14000
C  -13.78400 19.42600 40.71100
C  -14.75900 18.38900 40.70900
C  -14.08000 17.12500 41.06700
C  -13.88800 20.90100 40.31100
C  -16.29300 18.59200 40.58400
O  -16.72800 19.71600 40.28600
C  -17.24300 17.54500 40.88400
N  -12.64500 14.30000 41.53500
C  -13.99000 14.55900 41.38200
C  -14.72700 13.22800 41.38500
C  -13.65300 12.13800 41.46300
C  -12.39100 12.95800 41.67600
C  -15.79200 13.18600 42.51200
C  -13.47800 11.15100 40.24900
C  -13.11700 9.62000 40.41800
N  -9.94400 14.54100 42.09100
C  -10.02700 13.17600 42.25800
C  -8.67100 12.71900 42.54900
C  -7.85400 13.84800 42.38700
C  -8.64100 14.90700 42.04100
C  -8.18700 11.32700 42.88700
C  -6.52300 14.31700 42.43400
O  -5.57900 13.61400 42.66100
C  -6.43600 15.84900 42.12200
C  -5.96300 16.41400 43.46200
O  -6.70900 16.70600 44.41200
O  -4.68300 16.96300 43.34500
C  -4.38400 18.04600 44.36200
H  -11.23000 20.52400 41.21800
H  -15.66800 15.54700 41.04400
H  -11.18200 11.34100 42.26900
H  -6.87600 18.80300 42.28200
H  -8.86700 20.48200 40.94200
H  -9.74200 20.28900 43.67400
H  -8.53800 21.50200 43.01800
H  -7.94600 19.93400 43.66300
H  -7.45200 19.78400 39.56000
H  -7.15200 18.07800 39.45500
H  -4.91400 18.68600 40.90900
H  -5.25900 20.14100 40.12500
H  -14.53800 21.05300 39.44900
H  -13.01700 21.50700 40.06100
H  -14.43600 21.35100 41.13800
H  -18.26500 17.92200 40.87200
H  -16.87200 17.06300 41.78800
H  -17.30000 16.81700 40.07500
H  -15.28900 13.04000 40.47000
H  -13.73500 11.54100 42.37100
H  -15.70100 12.29800 43.13600
H  -16.82900 13.25600 42.18200
H  -15.58200 14.08000 43.09900
H  -12.70200 11.62900 39.65100
H  -14.42500 11.22500 39.71600
H  -12.56100 9.38700 41.32700
H  -12.48200 9.41500 39.55600
H  -13.94700 8.91700 40.35500
H  -8.99900 10.63000 43.09800
H  -7.49400 11.47700 43.71500
H  -7.61900 10.84800 42.09000
H  -5.77200 16.15800 41.31500
H  -3.71200 18.82200 43.99500
H  -3.86300 17.52000 45.16200
H  -5.28300 18.56900 44.68600

