158

Mg -3.22600 16.69500 27.03400
C  -3.63000 14.79700 30.03100
C  -4.23300 19.46000 29.01100
C  -3.49700 18.60900 24.30600
C  -3.50300 13.82400 25.23900
N  -3.62400 17.09700 29.37100
C  -3.66100 16.12300 30.38700
C  -3.73000 16.78000 31.74400
C  -4.11600 18.23000 31.35500
C  -4.04800 18.30000 29.81300
C  -5.41300 18.69300 31.94600
C  -2.39500 16.53900 32.45700
C  -1.89200 17.51900 33.54100
H  -1.40300 16.91300 34.98800
N  -3.41100 18.70100 26.74700
C  -3.76500 19.74100 27.66400
C  -3.66700 21.02300 26.98500
C  -3.32700 20.76200 25.64100
C  -3.46000 19.28300 25.49100
C  -4.03300 22.30600 27.71200
C  -2.93300 21.68500 24.48300
O  -2.73000 21.31500 23.27400
C  -2.59200 23.05900 24.83400
N  -3.65600 16.23200 24.98900
C  -3.64300 17.23500 24.05000
C  -3.73100 16.64800 22.63500
C  -3.63600 15.07400 22.92800
C  -3.59200 15.01200 24.46000
C  -4.96900 17.15100 21.74500
C  -2.46600 14.40400 22.19100
C  -1.05400 14.31700 22.85300
N  -3.44000 14.69500 27.47500
C  -3.43200 13.62800 26.61300
C  -3.48200 12.42100 27.37900
C  -3.51200 12.82600 28.70300
C  -3.53900 14.27900 28.73900
C  -3.52600 10.98300 26.83600
C  -3.55400 12.33200 30.08000
O  -3.56200 11.22700 30.52500
C  -3.58200 13.63800 30.99400
C  -2.29900 13.53800 31.61300
O  -1.20200 13.82600 31.17800
O  -2.49700 13.01200 32.90400
C  -1.49400 13.08700 33.93300
H  -4.54700 20.31900 29.60800
H  -3.52000 19.23300 23.41000
H  -3.58400 12.83700 24.77900
H  -4.50600 16.32200 32.35700
H  -3.40700 18.86800 31.88300
H  -6.18600 18.39300 31.23900
H  -5.32300 19.73400 32.25500
H  -5.36200 18.23300 32.93300
H  -1.68200 16.51200 31.63300
H  -2.48200 15.53300 32.86800
H  -2.60000 18.28600 33.85600
H  -1.07000 18.01300 33.02400
H  -3.09900 22.85800 27.82100
H  -4.54100 22.19800 28.67100
H  -4.65300 22.86500 27.01100
H  -3.33500 23.67300 25.34300
H  -2.40500 23.61300 23.91400
H  -1.68500 22.99700 25.43500
H  -2.81800 17.03100 22.18100
H  -4.51400 14.59800 22.49100
H  -4.63500 17.61800 20.81800
H  -5.59800 17.82600 22.32600
H  -5.62700 16.31200 21.52100
H  -2.36200 14.98000 21.27100
H  -2.79500 13.42900 21.83100
H  -0.38400 14.98000 22.30500
H  -0.78500 13.27200 22.69500
H  -1.02800 14.61100 23.90200
H  -4.52300 10.60100 26.61300
H  -3.11400 10.27500 27.55600
H  -3.00100 11.10500 25.88900
H  -4.35700 13.63100 31.76000
H  -1.70900 13.84000 34.69100
H  -0.52400 13.36500 33.52100
H  -1.50400 12.06400 34.30900
Mg 47.79400 16.80500 28.66500
C  45.93900 16.37500 31.71700
C  50.18200 18.57700 30.48000
C  48.96500 18.06600 25.79000
C  44.91200 15.67600 26.94300
N  48.01200 17.26100 30.91500
C  47.19200 16.99400 31.95800
C  47.81500 17.38700 33.25600
C  48.99500 18.39100 32.80900
C  49.10900 18.04400 31.27900
C  48.91100 19.84300 33.19700
C  48.20700 16.02100 33.97500
C  48.26600 16.02500 35.56200
H  47.94100 17.30300 36.42000
N  49.51100 17.85900 28.21500
C  50.43500 18.36600 29.14000
C  51.60000 18.89100 28.32900
C  51.23700 18.87900 26.92200
C  49.86100 18.24900 26.90600
C  52.88800 19.39500 29.02500
C  52.01100 19.38900 25.71000
O  51.53100 19.45000 24.57100
C  53.42700 19.58700 25.85600
N  46.94500 16.82700 26.64800
C  47.74900 17.33900 25.65500
C  47.09500 17.17100 24.32700
C  45.99600 16.08200 24.64600
C  45.88700 16.22200 26.17400
C  46.45200 18.51300 23.76000
C  46.47400 14.66900 24.29000
C  45.44900 13.90600 23.42600
N  45.89800 16.04800 29.24700
C  44.80300 15.73600 28.38100
C  43.65900 15.39600 29.13400
C  44.06600 15.57200 30.45000
C  45.47300 16.02500 30.49200
C  42.31200 14.83500 28.58900
C  43.60900 15.51600 31.79400
O  42.51700 15.21700 32.30400
C  44.79600 16.01300 32.69200
C  44.18600 17.11300 33.40800
O  44.06200 18.31500 33.06100
O  43.71700 16.55600 34.63200
C  42.92800 17.54300 35.36500
H  51.00500 19.10700 30.96300
H  49.35400 18.47900 24.85700
H  44.06800 15.14700 26.49500
H  47.17500 17.90200 33.97300
H  49.96100 18.10300 33.22300
H  49.74100 19.83600 33.90400
H  47.96400 20.03700 33.70000
H  49.21900 20.56900 32.44500
H  49.25900 15.77300 33.83300
H  47.60000 15.20000 33.59400
H  49.26600 15.69300 35.83800
H  47.71100 15.14600 35.88900
H  52.91000 20.48400 29.06300
H  53.77300 19.05500 28.48700
H  52.95300 18.99000 30.03500
H  53.49100 20.35400 26.62800
H  53.80500 19.90900 24.88600
H  53.91000 18.70100 26.27000
H  47.73900 16.82900 23.51600
H  45.03300 16.27500 24.17400
H  46.63700 19.24800 24.54300
H  45.39500 18.31600 23.58200
H  46.79300 18.81300 22.76900
H  46.59900 14.07300 25.19400
H  47.39500 14.66100 23.70700
H  44.99300 14.64200 22.76300
H  44.65200 13.53600 24.07000
H  45.81400 13.04900 22.86000
H  42.46800 13.78100 28.35700
H  41.92200 15.50400 27.82200
H  41.67700 14.75700 29.47100
H  45.12000 15.18200 33.31900
H  42.38500 17.13600 36.21800
H  42.08600 18.06400 34.90800
H  43.60100 18.36400 35.61000

