158

Mg -11.28300 38.97200 41.17900
C  -9.79100 35.85500 40.59300
C  -8.66800 40.59200 39.66600
C  -13.27900 41.65400 40.76900
C  -14.09400 37.11200 42.31300
N  -9.49900 38.29200 40.25000
C  -9.12000 36.97900 40.13400
C  -7.77300 36.94700 39.42200
C  -7.28300 38.43500 39.33800
C  -8.55300 39.19900 39.79500
C  -6.01000 38.72400 40.09900
C  -8.06000 36.31400 37.98200
C  -7.03400 35.12600 37.63800
H  -6.26100 35.34800 36.30400
N  -10.97400 40.93700 40.38200
C  -9.79200 41.42600 39.86000
C  -9.95100 42.78700 39.55000
C  -11.25000 43.13700 39.98800
C  -11.95000 41.85900 40.37600
C  -8.82800 43.64100 38.88400
C  -11.78700 44.56200 39.90700
O  -10.98800 45.43400 39.55600
C  -13.24700 44.91100 40.34100
N  -13.38600 39.36400 41.42900
C  -13.93900 40.57900 41.27800
C  -15.45500 40.55900 41.57500
C  -15.61800 39.16600 42.37500
C  -14.29500 38.47100 42.01100
C  -16.04400 41.78500 42.28500
C  -16.86400 38.44600 41.79400
C  -17.86300 37.80400 42.77700
N  -11.83200 36.87300 41.58800
C  -12.95800 36.31500 42.06900
C  -12.82400 34.91500 42.21600
C  -11.55000 34.67200 41.61600
C  -11.01000 35.91000 41.21500
C  -13.76700 33.92700 42.78400
C  -10.55100 33.65500 41.33200
O  -10.52200 32.44300 41.61700
C  -9.36800 34.38900 40.50700
C  -8.06000 34.19600 41.19200
O  -7.12500 33.56000 40.73700
O  -8.01200 34.84800 42.40200
C  -6.80700 34.68700 43.17900
H  -7.75700 40.98700 39.21100
H  -13.84600 42.58600 40.70900
H  -14.87600 36.48000 42.74000
H  -7.09400 36.36400 40.04400
H  -7.20500 38.81300 38.31900
H  -5.18800 38.80500 39.38800
H  -5.77900 38.00500 40.88500
H  -6.26200 39.65400 40.61000
H  -7.96900 37.10700 37.24000
H  -9.02700 35.81300 37.93200
H  -7.51600 34.14800 37.64000
H  -6.38900 35.01200 38.50900
H  -9.28900 44.22100 38.08400
H  -7.99700 43.06900 38.47100
H  -8.48700 44.41000 39.57600
H  -13.89200 44.34200 39.67000
H  -13.40900 45.98500 40.25000
H  -13.31000 44.55500 41.36900
H  -15.96500 40.55500 40.61100
H  -15.78500 39.30500 43.44300
H  -15.17900 42.40500 42.52300
H  -16.63000 41.61300 43.18800
H  -16.64600 42.27800 41.52300
H  -16.55700 37.86100 40.92700
H  -17.42900 39.25800 41.33600
H  -18.72900 38.43900 42.58700
H  -17.54000 37.88000 43.81600
H  -18.06300 36.76800 42.50300
H  -13.31000 33.05500 43.25200
H  -14.51500 33.66600 42.03600
H  -14.34900 34.45000 43.54400
H  -9.27600 33.99800 39.49400
H  -5.94500 34.67900 42.51200
H  -6.86200 33.79500 43.80400
H  -6.83300 35.57300 43.81300
Mg 0.30300 42.44400 25.73700
C  2.12300 42.55200 28.86600
C  -2.42000 41.32000 27.50800
C  -1.10700 41.90300 22.85300
C  3.50700 43.13200 24.09400
N  -0.10000 42.12600 27.91300
C  0.72100 42.32600 28.92300
C  0.05900 42.18100 30.21200
C  -1.32400 41.55400 29.72800
C  -1.26900 41.59000 28.28000
C  -1.61300 40.08300 30.14500
C  -0.11700 43.43300 31.05900
C  -0.30400 43.25900 32.58100
H  -0.33400 41.93100 33.37700
N  -1.49600 41.74800 25.22400
C  -2.51300 41.39400 26.06700
C  -3.73500 41.14300 25.40200
C  -3.37300 41.27400 24.00800
C  -1.92700 41.62000 23.94900
C  -5.03400 40.82900 26.12000
C  -4.35100 41.18000 22.90200
O  -4.01700 41.35400 21.69700
C  -5.84400 40.97600 23.22500
N  1.19400 42.47900 23.79100
C  0.26700 42.38600 22.79800
C  0.89300 42.82500 21.43400
C  2.36400 43.12500 21.79600
C  2.37200 42.88900 23.33900
C  0.92400 41.64300 20.35500
C  2.82500 44.56100 21.32700
C  4.11800 44.51300 20.45800
N  2.42500 42.71200 26.29100
C  3.55000 43.02000 25.48100
C  4.63900 43.35300 26.41300
C  4.12400 43.11800 27.71900
C  2.82000 42.71600 27.61700
C  5.99200 43.84200 25.88900
C  4.44400 43.09800 29.13500
O  5.48400 43.32700 29.68600
C  3.11900 42.82700 29.96700
C  3.42800 41.61100 30.87300
O  3.74100 40.53400 30.37100
O  3.33400 41.89800 32.15600
C  4.04600 40.85800 33.05000
H  -3.25600 41.16700 28.19300
H  -1.68500 41.80900 21.93200
H  4.38600 43.46900 23.54100
H  0.62100 41.42600 30.76200
H  -2.15100 42.14900 30.11300
H  -1.11500 39.91600 31.10000
H  -1.23500 39.36300 29.42000
H  -2.66200 39.83000 30.30000
H  -1.06100 43.96000 30.92100
H  0.71200 44.12600 30.91800
H  -1.30100 43.67800 32.71700
H  0.46500 43.91700 32.98500
H  -5.55200 41.77800 26.25700
H  -4.91000 40.57000 27.17100
H  -5.59500 40.02500 25.64400
H  -6.27400 41.66900 23.94900
H  -6.07800 39.93900 23.46800
H  -6.51900 41.31900 22.44200
H  0.32100 43.64100 20.99400
H  3.03400 42.39500 21.34400
H  1.85700 41.57800 19.79500
H  0.07600 41.82300 19.69300
H  0.70400 40.71900 20.88900
H  3.04700 45.08900 22.25400
H  2.04800 45.04600 20.73600
H  5.02000 44.76900 21.01500
H  4.20200 45.00500 19.48900
H  4.33700 43.47500 20.20800
H  6.43300 44.43800 26.68800
H  5.85900 44.45200 24.99600
H  6.55800 42.91600 25.79400
H  2.90800 43.64600 30.65500
H  4.22600 41.32200 34.02000
H  4.97300 40.54800 32.56700
H  3.35400 40.01900 33.12700

