158

Mg 53.48600 24.33000 44.68400
C  50.72700 26.26000 44.16000
C  51.55200 21.58400 43.67800
C  56.26800 22.38500 44.20600
C  55.37300 27.06600 45.23100
N  51.32400 23.91700 44.07900
C  50.44500 24.95400 43.81500
C  49.11600 24.41300 43.19500
C  49.27100 22.95600 43.61700
C  50.79300 22.80300 43.76100
C  48.40100 22.60200 44.80500
C  49.10100 24.62600 41.68500
C  47.66700 24.83500 41.19500
H  47.41500 24.47700 39.74800
N  53.85400 22.28000 44.23800
C  52.92200 21.33400 43.86100
C  53.49500 20.10000 43.74200
C  54.83600 20.16400 43.99100
C  55.05200 21.65300 44.22200
C  52.66300 18.91500 43.36100
C  55.80100 19.13500 43.99900
O  55.52600 17.98800 43.64500
C  57.10800 19.42600 44.43100
N  55.58500 24.61000 44.61700
C  56.54500 23.72400 44.38100
C  57.96400 24.43900 44.34700
C  57.63700 25.91600 44.65700
C  56.14400 25.88600 44.91200
C  58.91100 23.78800 45.43000
C  57.90500 26.84000 43.38200
C  59.00300 27.95000 43.73500
N  53.10500 26.20600 44.89500
C  53.98300 27.22600 45.21900
C  53.21600 28.39600 45.50000
C  51.84300 28.09500 45.12000
C  51.89200 26.72000 44.67800
C  53.70900 29.74100 45.94300
C  50.59900 28.63100 44.85300
O  50.08300 29.71200 45.19100
C  49.81300 27.48300 44.22200
C  49.20200 27.96900 42.90600
O  49.70700 27.97600 41.76000
O  47.93600 28.33500 43.10100
C  47.22900 28.88900 41.91600
H  50.89300 20.74800 43.43300
H  57.10500 21.75700 43.89300
H  55.96500 27.94100 45.50700
H  48.22800 24.90800 43.58700
H  48.91400 22.42300 42.73500
H  47.68300 21.80400 44.61800
H  47.92900 23.48200 45.24300
H  49.10300 22.36200 45.60300
H  49.48300 23.73000 41.19700
H  49.72600 25.45700 41.35700
H  47.38500 25.88100 41.30900
H  47.00100 24.23600 41.81500
H  52.31000 18.85600 42.33100
H  51.84900 18.99400 44.08100
H  53.18500 17.96400 43.47300
H  57.79900 19.70400 43.63500
H  57.48900 18.43500 44.67800
H  57.20200 20.07600 45.30000
H  58.45400 24.30800 43.38200
H  58.09300 26.33100 45.55700
H  59.95100 23.81100 45.10500
H  58.61100 22.80500 45.79400
H  58.86800 24.40200 46.33000
H  56.97600 27.28300 43.02200
H  58.24000 26.25500 42.52600
H  59.81500 27.61500 44.38000
H  58.62100 28.74600 44.37500
H  59.40000 28.37000 42.81100
H  53.20500 30.62700 45.55800
H  54.76100 29.82700 45.66800
H  53.43700 29.89800 46.98700
H  48.94900 27.28300 44.85500
H  46.94200 27.95800 41.42600
H  47.74200 29.47200 41.15100
H  46.39800 29.50600 42.25600
Mg 36.93900 49.14600 24.69600
C  36.70200 47.45400 27.74400
C  35.21000 51.84900 25.97500
C  36.61500 50.36300 21.50600
C  38.03600 46.13000 23.24700
N  35.91000 49.54200 26.61800
C  36.14500 48.78200 27.75200
C  35.56400 49.53000 28.97600
C  35.27000 50.98800 28.42300
C  35.41400 50.80000 26.91100
C  33.94500 51.61600 28.82600
C  36.58100 49.60700 30.18500
C  36.08900 49.08500 31.54500
H  36.02800 50.20100 32.61400
N  36.11400 50.91400 23.86800
C  35.58500 51.91500 24.60300
C  35.23900 53.02500 23.65100
C  35.69000 52.66500 22.34300
C  36.17300 51.29200 22.51100
C  34.60100 54.30800 24.15200
C  35.68400 53.45200 21.07400
O  36.29100 53.03800 20.15500
C  34.88400 54.79400 20.89500
N  37.30600 48.36000 22.68200
C  37.05600 49.05300 21.52500
C  37.19400 48.13400 20.37300
C  38.13500 47.00500 20.99200
C  37.74700 47.14900 22.40700
C  35.91400 47.60400 19.66100
C  39.67300 47.25900 20.56500
C  40.40400 46.06500 20.16600
N  37.35700 47.21900 25.31000
C  37.81600 46.13000 24.59300
C  37.95700 44.97300 25.47600
C  37.56600 45.44000 26.74400
C  37.17100 46.79000 26.58300
C  38.39800 43.58900 25.10700
C  37.34100 45.11800 28.14800
O  37.57100 44.08300 28.78000
C  36.84600 46.43200 28.79700
C  35.51200 46.12400 29.40600
O  34.42500 45.91500 28.89800
O  35.72300 46.01600 30.72500
C  34.68900 45.39200 31.48000
H  34.87600 52.76700 26.46400
H  36.49200 50.66600 20.46400
H  38.53100 45.21800 22.90800
H  34.63800 49.07700 29.33100
H  36.10800 51.66600 28.58200
H  34.14700 52.68400 28.90200
H  33.51600 51.31200 29.78100
H  33.24100 51.36400 28.03300
H  37.03300 50.59200 30.29800
H  37.45500 49.00300 29.94000
H  36.69200 48.25700 31.91800
H  35.02700 48.86200 31.43900
H  33.86000 54.67900 23.44500
H  35.33200 55.07400 24.41100
H  34.06600 53.96400 25.03700
H  35.46700 55.49200 21.49500
H  33.85000 54.61200 21.18800
H  35.04200 55.19700 19.89500
H  37.68400 48.70700 19.58600
H  37.91900 45.95900 20.77600
H  35.81100 46.52300 19.75600
H  36.00400 47.88000 18.61000
H  35.04600 48.04700 20.14900
H  40.23900 47.66600 21.40300
H  39.57500 47.92600 19.70800
H  39.90700 45.19700 20.59900
H  41.46400 46.06700 20.42200
H  40.50300 45.94600 19.08700
H  39.29100 43.56500 24.48200
H  37.66000 43.02000 24.54200
H  38.59600 43.06400 26.04200
H  37.58200 46.72500 29.54500
H  34.55700 44.42600 30.99300
H  33.88000 46.12300 31.48300
H  35.03900 45.15400 32.48500

