158

Mg 16.61700 -1.48700 28.51100
C  15.32500 0.60500 30.79900
C  18.47100 -3.08800 31.00700
C  18.17500 -3.13400 26.10900
C  15.03800 0.56200 25.98200
N  16.91000 -1.23600 30.62600
C  16.25400 -0.33100 31.38800
C  16.49500 -0.47300 32.90500
C  17.67200 -1.53200 32.89400
C  17.67200 -2.00800 31.39700
C  18.98200 -0.93000 33.46700
C  15.18700 -0.87100 33.72100
C  15.07800 -0.30600 35.15700
H  16.32300 0.06000 36.00900
N  18.02600 -3.00100 28.56000
C  18.70900 -3.54100 29.67700
C  19.60500 -4.54400 29.19400
C  19.48500 -4.57400 27.75900
C  18.49200 -3.53800 27.41500
C  20.41700 -5.29100 30.22200
C  20.39400 -5.26800 26.71900
O  20.10000 -5.37500 25.53400
C  21.60400 -6.04000 27.18500
N  16.78900 -1.18100 26.38200
C  17.44900 -2.03500 25.61600
C  17.30000 -1.71300 24.12600
C  16.11900 -0.64200 24.12100
C  15.94800 -0.39700 25.61100
C  18.65000 -1.34100 23.37200
C  14.89300 -1.02000 23.26900
C  13.83800 -1.80500 24.05100
N  15.22600 0.06700 28.36800
C  14.65100 0.79900 27.33700
C  13.67500 1.70300 27.88600
C  13.93900 1.75500 29.22800
C  14.82600 0.71600 29.48400
C  12.95600 2.67200 27.11300
C  13.66500 2.42900 30.53300
O  13.01500 3.44300 30.81500
C  14.52200 1.65100 31.53400
C  15.49300 2.62500 32.20500
O  16.63100 2.98100 31.82300
O  14.94600 3.08700 33.32000
C  15.67200 3.95600 34.24100
H  19.07900 -3.38200 31.86500
H  18.66000 -3.73200 25.33400
H  14.50900 1.18100 25.25500
H  16.63300 0.54000 33.28200
H  17.50200 -2.42600 33.49300
H  19.26500 -1.56700 34.30500
H  18.79000 0.06800 33.86200
H  19.74800 -0.96100 32.69300
H  15.14500 -1.93700 33.94500
H  14.25200 -0.71500 33.18200
H  14.57300 -1.10400 35.70200
H  14.39700 0.54500 35.13600
H  20.13300 -6.33900 30.13100
H  20.19700 -5.00600 31.25100
H  21.45900 -5.01100 30.06500
H  22.12500 -5.53100 27.99500
H  22.29400 -6.22400 26.36100
H  21.27000 -7.01200 27.54800
H  16.91000 -2.64500 23.71600
H  16.57700 0.21100 23.62000
H  19.36600 -1.24800 24.18900
H  18.40700 -0.50900 22.71100
H  18.91700 -2.10200 22.63900
H  15.01200 -1.34700 22.23600
H  14.42900 -0.03600 23.19400
H  13.08200 -1.07800 24.34700
H  14.28900 -2.17900 24.97000
H  13.44400 -2.58500 23.40000
H  12.54200 2.19400 26.22500
H  13.63700 3.40900 26.68800
H  12.11500 3.13800 27.62800
H  13.79500 1.28800 32.26000
H  15.63700 4.97200 33.84900
H  16.71300 3.64600 34.33800
H  15.21200 3.99300 35.22900
Mg 1.51500 41.30200 26.61300
C  3.44500 41.59800 29.59300
C  -0.99500 40.04500 28.56300
C  0.05000 40.56400 23.72100
C  4.51400 42.04500 24.77700
N  1.22400 40.90900 28.84300
C  2.12000 41.23700 29.91000
C  1.41900 41.25100 31.22400
C  0.00100 40.66700 30.89800
C  0.06900 40.44200 29.36900
C  -0.50300 39.42300 31.69500
C  1.36900 42.67700 31.85400
C  0.91900 42.79700 33.34100
H  0.57900 41.46100 34.17000
N  -0.35900 40.56100 26.25700
C  -1.22400 40.01800 27.11600
C  -2.42400 39.58400 26.39700
C  -2.08600 39.77200 25.01200
C  -0.71600 40.28700 24.95300
C  -3.63600 38.96900 27.18700
C  -2.94600 39.36700 23.80600
O  -2.51600 39.46300 22.65700
C  -4.26000 38.76100 23.96500
N  2.14600 41.45300 24.54000
C  1.32700 41.13100 23.49300
C  1.97500 41.52300 22.17100
C  3.38500 42.07600 22.51000
C  3.36700 41.83900 24.00500
C  1.93600 40.47000 20.95700
C  3.68900 43.50900 22.03300
C  4.88200 43.70000 21.17000
N  3.50200 41.81800 27.01600
C  4.57800 42.04800 26.18300
C  5.74600 42.30200 26.91900
C  5.30000 42.06600 28.23100
C  3.94400 41.78100 28.25600
C  7.13900 42.76900 26.41100
C  5.80800 42.02100 29.62600
O  6.97500 42.11400 30.01500
C  4.63000 41.78100 30.51500
C  4.83800 40.59000 31.33800
O  5.15400 39.53800 30.86000
O  4.96200 40.86500 32.67300
C  5.54300 39.76200 33.46600
H  -1.93800 39.83400 29.07100
H  -0.53300 40.56800 22.79800
H  5.41400 42.27500 24.20100
H  1.90900 40.50400 31.84800
H  -0.73700 41.46100 31.00800
H  0.22700 39.21900 32.47800
H  -0.58900 38.53900 31.06300
H  -1.49700 39.75100 31.99800
H  0.67200 43.29800 31.29200
H  2.34300 43.13900 31.68800
H  -0.00200 43.36100 33.48600
H  1.74300 43.29600 33.85000
H  -3.47400 37.96200 27.57200
H  -4.55000 38.88100 26.60000
H  -3.99300 39.52200 28.05600
H  -4.64900 38.65100 22.95300
H  -4.90400 39.44300 24.52200
H  -4.20000 37.76700 24.40800
H  1.25600 42.28800 21.87700
H  4.09200 41.37000 22.07400
H  1.65300 39.55300 21.47500
H  2.87300 40.22400 20.45800
H  1.15600 40.71100 20.23400
H  3.61800 44.16300 22.90300
H  2.83300 43.80100 21.42300
H  4.50500 43.64100 20.14900
H  5.68600 42.97500 21.29500
H  5.35500 44.67700 21.26800
H  7.30900 42.90100 25.34200
H  7.92600 42.10600 26.76800
H  7.41200 43.75100 26.79700
H  4.46300 42.69300 31.08900
H  4.80900 38.95900 33.39700
H  5.82700 40.13500 34.45000
H  6.41300 39.39000 32.92400

