158

Mg 0.41000 7.88200 26.02000
C  0.90700 9.82500 28.99400
C  0.30000 5.10400 27.98900
C  0.14700 6.27100 23.24200
C  0.29700 11.00500 24.26800
N  0.51000 7.53800 28.30300
C  0.76700 8.46400 29.30300
C  0.76400 7.75100 30.65400
C  0.66600 6.24600 30.28500
C  0.48400 6.28200 28.77300
C  1.76500 5.30700 30.85000
C  -0.34400 8.24300 31.68200
C  0.16800 8.65600 33.13500
H  -0.55600 8.09200 34.42500
N  0.42900 6.01800 25.67700
C  0.30400 4.96800 26.57500
C  0.20600 3.69200 25.90200
C  0.11000 4.06700 24.48400
C  0.23700 5.49000 24.40300
C  0.10100 2.39100 26.60600
C  0.08200 3.08500 23.24000
O  0.24600 3.42000 22.09800
C  0.12400 1.60300 23.55200
N  0.50400 8.66600 23.96300
C  0.19500 7.68900 23.01400
C  0.04300 8.30200 21.58800
C  -0.21200 9.82600 21.95900
C  0.18200 9.85800 23.50300
C  1.34200 8.03000 20.78800
C  -1.66800 10.32400 21.75600
C  -1.77200 11.57600 20.87000
N  0.60800 9.94800 26.46600
C  0.58700 11.12300 25.65800
C  0.84000 12.32400 26.42300
C  1.01400 11.82100 27.68100
C  0.83400 10.41300 27.68900
C  0.90500 13.63100 25.85200
C  1.31300 12.19100 29.04500
O  1.56800 13.28000 29.55500
C  1.16000 10.94800 29.86100
C  2.27900 10.76600 30.74400
O  3.35300 10.17900 30.54000
O  1.92600 11.34000 31.97300
C  2.84800 10.97600 33.06800
H  0.16400 4.25200 28.65800
H  -0.08700 5.65000 22.37400
H  0.11100 11.90200 23.67300
H  1.75300 7.84700 31.10100
H  -0.16700 5.71500 30.74500
H  2.34000 5.81300 31.62600
H  2.51600 5.27400 30.06100
H  1.46400 4.30700 31.16300
H  -1.05600 7.42200 31.76300
H  -1.02200 8.96900 31.23400
H  0.04800 9.71900 32.92600
H  1.23200 8.46500 33.27900
H  -0.92500 2.06200 26.43500
H  0.37100 2.44800 27.66000
H  0.71800 1.65400 26.09200
H  0.22600 1.09900 22.59200
H  -0.72800 1.32700 24.17400
H  1.12000 1.45900 23.97300
H  -0.81200 7.85300 21.08300
H  0.50800 10.53500 21.55000
H  1.80800 8.96800 20.48700
H  0.96300 7.43000 19.96100
H  2.07400 7.55700 21.44400
H  -2.26600 10.51500 22.64600
H  -2.29700 9.58300 21.26200
H  -0.89000 11.62900 20.23200
H  -1.78700 12.45300 21.51700
H  -2.63300 11.39600 20.22600
H  0.58200 13.68100 24.81200
H  1.93200 13.98800 25.93700
H  0.17500 14.29300 26.31700
H  0.25700 11.17200 30.42900
H  2.23400 10.82500 33.95500
H  3.67300 11.68600 33.13600
H  3.26800 9.97400 32.98200
Mg -12.88400 38.42000 42.84900
C  -10.98600 35.90200 41.27300
C  -11.09900 40.76000 41.15200
C  -15.18800 40.78100 43.66200
C  -15.15200 35.83900 44.02500
N  -11.22900 38.26400 41.37800
C  -10.53300 37.14300 40.89900
C  -9.22700 37.54900 40.09300
C  -9.37500 39.11600 40.06200
C  -10.65700 39.42100 40.89000
C  -8.05600 39.92100 40.47800
C  -9.06600 36.80000 38.71100
C  -7.98100 35.76300 38.64300
H  -6.77900 36.01000 37.68300
N  -13.02300 40.48100 42.61700
C  -12.23600 41.26900 41.78600
C  -12.70100 42.66600 41.89400
C  -13.86400 42.76500 42.68400
C  -14.04300 41.26900 43.02800
C  -11.88200 43.83900 41.38800
C  -14.66600 43.99900 43.05500
O  -14.29900 45.03600 42.56400
C  -15.81600 43.94500 43.99300
N  -14.91500 38.33400 43.69600
C  -15.59500 39.44900 43.96300
C  -16.90600 39.14600 44.75400
C  -16.85500 37.61000 45.00200
C  -15.59000 37.21700 44.17100
C  -17.15300 40.05800 46.01800
C  -18.25300 36.99700 44.42100
C  -18.81600 35.87100 45.19900
N  -13.02800 36.37700 42.77400
C  -13.96500 35.51500 43.34400
C  -13.50700 34.13300 43.18200
C  -12.40800 34.25400 42.31100
C  -12.13600 35.62100 42.06700
C  -14.10800 32.93300 43.65100
C  -11.35900 33.48000 41.57100
O  -11.27000 32.30500 41.41500
C  -10.37900 34.50900 40.83900
C  -9.03100 34.27000 41.29700
O  -8.39100 33.35100 40.84200
O  -8.65300 35.16700 42.28100
C  -7.40700 34.80300 43.09200
H  -10.50800 41.58300 40.74500
H  -15.99400 41.46600 43.93300
H  -15.86300 35.04100 44.24900
H  -8.39700 37.24100 40.72900
H  -9.63800 39.42900 39.05200
H  -7.41700 39.12200 40.85600
H  -8.23700 40.69500 41.22400
H  -7.69200 40.24400 39.50300
H  -8.75600 37.57500 38.01000
H  -10.02600 36.34500 38.46700
H  -8.32900 34.75700 38.40800
H  -7.54600 35.56900 39.62400
H  -10.88000 43.42800 41.25900
H  -11.91400 44.76500 41.96300
H  -12.20100 44.17100 40.40100
H  -16.59900 43.69300 43.27900
H  -15.90700 44.96000 44.38000
H  -15.69600 43.30400 44.86700
H  -17.66500 39.40600 44.01700
H  -16.71800 37.41500 46.06600
H  -16.26100 40.48000 46.48100
H  -17.61000 39.36600 46.72400
H  -17.80300 40.90200 45.78600
H  -18.21000 36.79000 43.35200
H  -19.06300 37.71600 44.54800
H  -18.32800 35.67800 46.15400
H  -18.73300 34.95000 44.62300
H  -19.87600 35.97600 45.42800
H  -13.70600 32.01500 43.22100
H  -15.14000 32.99300 43.30800
H  -14.16600 32.80600 44.73200
H  -10.41200 34.28500 39.77300
H  -7.31300 35.33900 44.03700
H  -6.49600 35.06900 42.55700
H  -7.17200 33.78700 43.40800

