158

Mg 16.16200 -1.80900 27.30500
C  15.08600 0.21000 29.91700
C  18.31200 -3.36800 29.45800
C  17.53900 -3.23300 24.71600
C  14.19000 0.34900 25.10500
N  16.63300 -1.52000 29.41000
C  16.00500 -0.79400 30.35000
C  16.67300 -0.88700 31.74000
C  17.80600 -1.96600 31.50500
C  17.59600 -2.31600 29.98900
C  19.25800 -1.54200 31.80400
C  15.72500 -1.09800 32.91200
C  16.05700 -0.63000 34.35900
H  17.55100 -0.41200 34.75100
N  17.66300 -3.25900 27.11900
C  18.44400 -3.77800 28.12800
C  19.33800 -4.78200 27.56800
C  19.03600 -4.84100 26.17700
C  18.05800 -3.74200 25.93800
C  20.37800 -5.44000 28.39900
C  19.60700 -5.76700 25.17900
O  19.35800 -5.70600 24.02300
C  20.50100 -6.89300 25.47700
N  15.93700 -1.48600 25.19200
C  16.51500 -2.31000 24.29800
C  16.12700 -2.04200 22.83700
C  15.05000 -0.88000 23.04500
C  15.04100 -0.64300 24.56500
C  17.34600 -1.54900 22.00100
C  13.59700 -1.32700 22.49700
C  13.10500 -0.43100 21.28500
N  14.81000 -0.15300 27.48000
C  14.09100 0.53700 26.51900
C  13.31000 1.54700 27.13200
C  13.64000 1.47000 28.47100
C  14.59100 0.42100 28.61500
C  12.37600 2.38000 26.32300
C  13.47000 1.97900 29.76800
O  12.87500 2.98600 30.25900
C  14.38100 1.18900 30.74400
C  15.21700 2.19900 31.48300
O  16.20400 2.76700 31.02500
O  14.68100 2.38200 32.72700
C  15.26400 3.59600 33.33900
H  18.90000 -3.90800 30.20300
H  17.78400 -3.80000 23.81600
H  13.49800 0.82000 24.40300
H  17.06100 0.10800 31.95700
H  17.60800 -2.82000 32.15300
H  19.72100 -2.24200 32.49900
H  19.38400 -0.49800 32.09100
H  19.90900 -1.67900 30.94000
H  15.69300 -2.18000 33.03700
H  14.71700 -0.78600 32.63900
H  15.61400 -1.35800 35.04000
H  15.67200 0.36300 34.59500
H  21.36700 -5.22400 27.99300
H  20.12500 -6.47800 28.61500
H  20.40500 -5.00200 29.39700
H  20.52800 -7.61200 24.65900
H  20.06000 -7.28800 26.39300
H  21.52900 -6.57300 25.65100
H  15.71800 -2.96900 22.43600
H  15.34300 -0.02600 22.43400
H  17.37000 -0.46200 22.07600
H  17.36200 -1.85700 20.95600
H  18.29100 -1.83900 22.46000
H  12.89200 -1.24100 23.32400
H  13.50900 -2.39400 22.29100
H  12.33900 0.27400 21.60800
H  12.73300 -1.18100 20.58700
H  13.94700 0.02000 20.76000
H  12.13200 3.27800 26.89100
H  11.47400 1.79200 26.15500
H  12.72400 2.85000 25.40300
H  13.66600 0.74800 31.43800
H  15.42100 4.46500 32.70000
H  16.21300 3.34000 33.80900
H  14.60000 3.74400 34.19100
Mg 10.38500 46.85900 25.58100
C  8.49800 47.06600 28.42700
C  13.05600 48.00300 27.19800
C  12.14000 46.71200 22.57400
C  7.37400 45.90600 23.72300
N  10.65400 47.72700 27.54300
C  9.75000 47.69400 28.60800
C  10.35600 48.32600 29.86300
C  11.68700 48.96300 29.22500
C  11.82700 48.12300 27.99900
C  11.54700 50.46600 28.85700
C  10.71900 47.35200 31.13300
C  10.11700 47.82000 32.47500
H  9.88900 46.69300 33.50600
N  12.33500 47.10900 25.02700
C  13.30800 47.58100 25.88700
C  14.58300 47.36000 25.26500
C  14.34300 46.98800 23.87600
C  12.88400 46.93200 23.77300
C  15.86400 47.75100 25.90300
C  15.35800 46.76300 22.74900
O  15.05900 46.49500 21.62400
C  16.84900 46.94900 23.00400
N  9.84200 46.54200 23.50000
C  10.75700 46.50100 22.43500
C  10.08400 46.04600 21.17400
C  8.66200 45.57800 21.62300
C  8.60200 46.11900 23.02900
C  10.16400 47.05400 20.04300
C  8.37300 44.03100 21.45200
C  9.07800 43.12000 22.46800
N  8.31800 46.56700 25.89100
C  7.26300 46.11700 25.11900
C  6.10300 45.98500 26.03100
C  6.62100 46.25700 27.34200
C  7.91100 46.68100 27.21700
C  4.58500 45.68600 25.70300
C  6.16800 46.34300 28.62800
O  5.04800 46.14700 29.11100
C  7.45100 46.71800 29.44900
C  7.73600 45.56000 30.30500
O  8.25700 44.45500 30.02400
O  7.27800 45.76900 31.57700
C  7.41000 44.57400 32.51700
H  14.00500 48.22200 27.69100
H  12.66900 46.66700 21.62000
H  6.62200 45.55100 23.01600
H  9.73600 49.17700 30.14700
H  12.60400 48.76500 29.77900
H  11.51700 50.59500 27.77500
H  12.47200 50.93000 29.19900
H  10.67600 50.98200 29.26000
H  11.80400 47.26300 31.17700
H  10.46900 46.31800 30.89600
H  9.20100 48.36400 32.24500
H  10.83000 48.61000 32.71100
H  16.57900 46.93600 25.78900
H  15.74900 48.03800 26.94800
H  16.19300 48.65800 25.39600
H  17.14500 46.16800 23.70400
H  17.02800 47.95900 23.37300
H  17.45800 46.85200 22.10600
H  10.62900 45.19400 20.76700
H  7.88300 46.08800 21.05600
H  10.79000 46.76300 19.20000
H  10.45400 48.07100 20.30800
H  9.14800 47.11600 19.65300
H  8.60300 43.78500 20.41500
H  7.34000 43.83300 21.73800
H  9.82000 43.78100 22.91500
H  9.51600 42.25500 21.97100
H  8.35600 42.88500 23.25000
H  4.24700 44.81000 26.25900
H  4.53800 45.32700 24.67500
H  3.85700 46.48000 25.86900
H  7.15200 47.50400 30.14300
H  7.42700 44.78400 33.58700
H  8.34100 44.03600 32.34400
H  6.71100 43.77700 32.26200

