158

Mg 1.50700 -2.63800 45.68000
C  4.91900 -1.94100 45.46700
C  0.85800 0.26800 43.98400
C  -1.75400 -3.68300 45.33700
C  2.25300 -5.61700 47.20600
N  2.75700 -1.15300 44.57000
C  4.12600 -1.04800 44.68500
C  4.65500 0.18600 43.92100
C  3.35700 1.01700 43.92900
C  2.23600 0.02800 44.14000
C  3.35200 2.26700 44.89700
C  5.25600 -0.14300 42.59500
C  6.41200 0.81100 42.18400
H  6.40100 1.31700 40.74900
N  -0.16300 -1.79000 44.75500
C  -0.23500 -0.49500 44.22400
C  -1.60700 -0.23100 43.97100
C  -2.47000 -1.32600 44.38900
C  -1.45200 -2.38200 44.87300
C  -2.01100 1.15200 43.37000
C  -3.94100 -1.40100 44.24100
O  -4.50900 -0.32200 43.95900
C  -4.73100 -2.61100 44.58700
N  0.32000 -4.53400 46.10500
C  -0.94200 -4.75000 45.83800
C  -1.39500 -6.06100 46.33100
C  -0.00500 -6.78800 46.73700
C  0.91300 -5.53600 46.76200
C  -2.28800 -5.98700 47.62300
C  0.47700 -7.71900 45.51900
C  1.12000 -9.07600 45.86600
N  3.20800 -3.59100 46.23900
C  3.36400 -4.77500 46.94300
C  4.75000 -4.94600 47.35200
C  5.40300 -3.82700 46.76200
C  4.42600 -3.06800 46.08600
C  5.22600 -6.04200 48.21100
C  6.67000 -3.14800 46.61200
O  7.77900 -3.34700 47.11900
C  6.42700 -1.95200 45.63900
C  6.89600 -0.69200 46.32500
O  6.59800 -0.41200 47.50500
O  7.67900 0.10200 45.56900
C  8.03100 1.49900 45.97100
H  0.63100 1.30800 43.73900
H  -2.81200 -3.94600 45.28000
H  2.48200 -6.55400 47.71800
H  5.39600 0.69000 44.54000
H  3.05800 1.53600 43.01800
H  2.63400 2.17200 45.71200
H  3.07100 3.18400 44.38000
H  4.38300 2.51400 45.14900
H  4.44200 -0.12700 41.87000
H  5.73300 -1.12300 42.59500
H  7.39400 0.36500 42.33800
H  6.29000 1.67000 42.84300
H  -2.68700 1.60100 44.09800
H  -2.42400 1.21300 42.36300
H  -1.17300 1.84900 43.37800
H  -4.55100 -2.92600 45.61400
H  -4.46600 -3.32500 43.80700
H  -5.80200 -2.50100 44.41800
H  -1.97600 -6.50500 45.52300
H  -0.13400 -7.19900 47.73800
H  -2.48800 -4.93500 47.82300
H  -1.79300 -6.40400 48.50000
H  -3.26100 -6.46500 47.51200
H  1.18900 -7.17100 44.90300
H  -0.37000 -8.08500 44.93900
H  2.14900 -9.13100 45.51000
H  0.75200 -9.88000 45.22900
H  1.05800 -9.36000 46.91600
H  5.27600 -6.87800 47.51300
H  4.53400 -6.29000 49.01600
H  6.26600 -5.88400 48.49800
H  7.06000 -2.16900 44.77900
H  7.94200 2.19200 45.13500
H  9.04800 1.54900 46.36000
H  7.33000 1.91000 46.69700
Mg 47.48800 25.32500 28.21700
C  48.96300 27.22800 30.70900
C  46.14500 23.35400 30.62000
C  46.83700 23.00100 25.87000
C  48.86000 27.39800 25.85500
N  47.51400 25.37400 30.40700
C  48.21400 26.18600 31.17300
C  47.88500 25.89100 32.68400
C  47.08900 24.56400 32.64500
C  46.90500 24.44100 31.13500
C  47.92700 23.34200 33.12100
C  47.10600 27.04100 33.44200
C  47.58000 27.06800 34.91600
H  46.61300 27.54700 36.02400
N  46.62200 23.48100 28.26800
C  45.99100 22.85100 29.30300
C  45.39200 21.57400 28.85700
C  45.73200 21.49100 27.47500
C  46.44100 22.67500 27.11800
C  44.71400 20.58700 29.87400
C  45.45500 20.19400 26.58800
O  45.89400 20.19000 25.43800
C  44.56800 19.04800 27.03900
N  47.88200 25.17100 26.18700
C  47.50400 24.12800 25.36000
C  47.89400 24.32000 23.91800
C  48.26900 25.86100 23.92900
C  48.32400 26.15600 25.43900
C  49.04600 23.32400 23.47300
C  47.32900 26.71100 23.03000
C  47.84500 26.85100 21.57500
N  48.66000 27.13000 28.21900
C  49.07400 27.86900 27.18300
C  49.73800 29.03900 27.65400
C  49.87700 28.81000 29.08900
C  49.08700 27.61300 29.39800
C  50.28500 30.23300 26.93200
C  50.44300 29.26600 30.35700
O  51.07300 30.26300 30.61800
C  49.83000 28.31400 31.49500
C  50.96700 27.78400 32.22000
O  51.90100 27.22500 31.68700
O  50.87300 28.03200 33.56700
C  52.04400 27.66900 34.37100
H  45.73000 22.64300 31.33700
H  46.82300 22.27600 25.05300
H  49.18000 28.07700 25.06300
H  48.85200 25.79500 33.17700
H  46.15400 24.56700 33.20400
H  48.72400 23.65700 33.79400
H  48.43600 22.76200 32.35100
H  47.39700 22.51800 33.59800
H  46.08600 26.66200 33.37300
H  47.34000 27.98800 32.95600
H  48.49500 27.65400 35.00600
H  47.86600 26.03000 35.08200
H  43.84900 20.08400 29.44300
H  44.42600 21.08300 30.80100
H  45.38400 19.76700 30.13300
H  45.08200 18.48600 27.81800
H  44.38900 18.39800 26.18200
H  43.55800 19.40800 27.23900
H  47.09900 24.18800 23.18400
H  49.28700 25.93600 23.54600
H  49.07800 23.02800 22.42400
H  49.04200 22.46900 24.14900
H  50.03400 23.76100 23.62200
H  47.31300 27.70500 23.47700
H  46.35900 26.21500 23.01600
H  47.03700 26.63100 20.87700
H  48.72700 26.24600 21.36600
H  48.13900 27.88700 21.40500
H  51.22300 29.93300 26.46400
H  50.46900 30.99500 27.69000
H  49.51600 30.65000 26.28100
H  49.18000 29.04100 31.98100
H  52.70600 26.92600 33.92700
H  51.59700 27.24600 35.27000
H  52.63800 28.58100 34.43200

