158

Mg -2.35500 16.79600 26.31900
C  -2.65000 14.77300 29.00300
C  -2.89900 19.51600 28.29400
C  -1.85900 18.70300 23.59500
C  -2.02400 13.88600 24.22800
N  -2.53800 17.06300 28.48000
C  -2.68200 16.10500 29.40000
C  -2.85900 16.63500 30.80400
C  -2.98400 18.15700 30.56700
C  -2.85800 18.30300 29.03500
C  -4.29800 18.69800 31.23300
C  -1.68500 16.17800 31.70100
C  -1.23700 16.81100 33.02600
H  -1.02900 16.00800 34.26900
N  -2.31000 18.82500 26.01600
C  -2.66900 19.77800 26.97600
C  -2.51300 21.11800 26.44700
C  -1.98200 20.91000 25.06800
C  -2.08000 19.39000 24.81100
C  -2.96300 22.34900 27.16300
C  -1.54800 21.88600 24.02100
O  -1.51900 21.56800 22.83600
C  -1.29600 23.28800 24.40000
N  -1.84800 16.32700 24.21800
C  -1.78000 17.37200 23.33400
C  -1.65000 16.80700 21.95100
C  -1.55900 15.25300 22.11900
C  -1.93600 15.12100 23.56000
C  -2.64700 17.23100 20.91400
C  -0.18200 14.66100 21.76200
C  0.05700 14.14800 20.35200
N  -2.48400 14.78400 26.49000
C  -2.31100 13.70400 25.59000
C  -2.47600 12.46400 26.27600
C  -2.59600 12.83200 27.64500
C  -2.60400 14.19900 27.70900
C  -2.39200 11.12300 25.64300
C  -2.69700 12.31100 28.96100
O  -2.69600 11.13500 29.33800
C  -2.67600 13.47800 29.89700
C  -1.50000 13.17400 30.69400
O  -0.37600 13.27900 30.28200
O  -1.78100 12.69200 31.96900
C  -0.73000 12.11500 32.82600
H  -3.01600 20.43500 28.87300
H  -1.63600 19.32600 22.72600
H  -1.77600 13.02200 23.60800
H  -3.73000 16.12400 31.21400
H  -2.12000 18.69500 30.95700
H  -4.92900 19.22000 30.51400
H  -4.02400 19.46700 31.95500
H  -4.87800 18.00600 31.84300
H  -0.79400 15.95000 31.11600
H  -2.04300 15.20600 32.04100
H  -2.05900 17.50800 33.18800
H  -0.25700 17.28200 32.95200
H  -3.64900 22.07400 27.96400
H  -3.59000 23.04700 26.60800
H  -2.01700 22.78400 27.48600
H  -2.23200 23.72200 24.75200
H  -0.95300 23.75400 23.47500
H  -0.48400 23.44200 25.11000
H  -0.70700 17.22100 21.59600
H  -2.31300 14.71400 21.54600
H  -2.13500 17.75400 20.10600
H  -3.32500 17.97900 21.32400
H  -3.26000 16.43600 20.48900
H  0.06700 13.88900 22.49000
H  0.49700 15.51200 21.81500
H  -0.92000 14.37300 19.92400
H  0.23200 13.07200 20.35200
H  0.80100 14.83100 19.94200
H  -1.75100 10.99500 24.77100
H  -3.35400 10.73400 25.31100
H  -1.94500 10.46300 26.38600
H  -3.57400 13.49600 30.51400
H  0.10300 12.78700 33.03100
H  -0.42700 11.20500 32.30900
H  -1.07400 11.80700 33.81400
Mg 24.87800 1.32600 30.17500
C  27.07400 0.95900 32.89100
C  22.30500 1.72600 32.32500
C  22.82800 1.43500 27.54700
C  27.57800 0.30700 28.07700
N  24.69400 1.26800 32.36200
C  25.76400 1.30400 33.27500
C  25.19100 1.59000 34.66000
C  23.65100 1.65600 34.45200
C  23.50400 1.47900 32.96400
C  22.71700 0.63400 35.18300
C  25.83900 2.78800 35.45000
C  26.40600 2.50600 36.78800
H  26.20400 3.71300 37.78300
N  22.80400 1.53500 29.97800
C  21.91200 1.64900 30.95500
C  20.54800 1.71700 30.40600
C  20.73000 1.69300 29.03700
C  22.18400 1.58700 28.79100
C  19.29800 1.90800 31.20600
C  19.71500 1.70400 27.89700
O  19.97500 1.82200 26.71500
C  18.32600 1.62600 28.24600
N  25.15100 0.88000 28.11500
C  24.15000 1.08300 27.19900
C  24.74200 0.96800 25.73000
C  26.15900 0.57100 25.97700
C  26.30800 0.48900 27.47700
C  23.87200 0.07300 24.66200
C  27.22500 1.56800 25.43600
C  27.25200 3.07500 25.86200
N  26.95800 0.78600 30.38000
C  27.89100 0.33700 29.44500
C  29.15200 0.09200 30.11400
C  28.91600 0.44000 31.44500
C  27.56500 0.75700 31.56000
C  30.44700 -0.32100 29.49200
C  29.43500 0.50300 32.75100
O  30.54200 0.17600 33.11900
C  28.29300 0.83400 33.73100
C  28.10900 -0.24300 34.71300
O  27.49000 -1.27400 34.63100
O  28.76500 0.19900 35.78500
C  28.47000 -0.26300 37.12400
H  21.45400 1.90900 32.98400
H  22.13800 1.26700 26.71800
H  28.34900 -0.02500 27.37800
H  25.40900 0.67200 35.20600
H  23.17600 2.60600 34.69600
H  22.25900 -0.00900 34.43200
H  21.93000 1.27600 35.57700
H  23.20600 0.03000 35.94800
H  25.17500 3.65300 35.43400
H  26.61800 3.09600 34.75300
H  27.46700 2.33600 36.60200
H  25.94400 1.58600 37.14600
H  18.92700 2.76400 30.64300
H  19.41500 2.17800 32.25600
H  18.62500 1.05100 31.15800
H  17.93100 2.45800 28.83000
H  18.30400 0.79300 28.94900
H  17.68300 1.41300 27.39200
H  24.83000 1.98800 25.35700
H  26.28700 -0.41000 25.51800
H  23.09300 -0.40800 25.25400
H  24.46400 -0.67500 24.13400
H  23.31400 0.62700 23.90700
H  27.15800 1.64400 24.35100
H  28.20900 1.13800 25.62400
H  26.52200 3.30000 26.64000
H  27.02900 3.75800 25.04200
H  28.22200 3.30800 26.29900
H  30.82500 0.34200 28.71400
H  30.31500 -1.28000 28.99100
H  31.22100 -0.21500 30.25200
H  28.40300 1.82500 34.17200
H  28.59600 -1.34100 37.22400
H  27.39400 -0.10700 37.20500
H  29.01600 0.22400 37.93200

