158

Mg 45.51200 4.32700 47.47300
C  43.23900 6.98700 47.01600
C  42.84900 2.09800 47.10300
C  47.82100 1.81700 47.49600
C  48.10400 6.70500 47.41100
N  43.28100 4.54500 47.22200
C  42.59100 5.69700 46.97400
C  41.09100 5.48500 46.65100
C  40.91700 3.93300 46.81200
C  42.44500 3.45600 47.13200
C  39.81700 3.56200 47.94300
C  40.72100 5.94000 45.20700
C  39.29800 6.48200 45.15200
H  38.45200 6.13800 43.97000
N  45.33700 2.19600 47.19200
C  44.17800 1.44300 47.19500
C  44.52700 0.12900 47.07100
C  45.95100 0.04200 47.18700
C  46.51200 1.36800 47.30900
C  43.48000 -0.93700 46.86200
C  46.69500 -1.29800 47.10400
O  46.09000 -2.32700 46.79800
C  48.20000 -1.33300 47.18000
N  47.64900 4.25700 47.34600
C  48.33100 3.11800 47.52300
C  49.83300 3.31800 47.74100
C  49.92300 4.86500 47.61700
C  48.44700 5.30600 47.39800
C  50.28600 2.76200 49.07500
C  51.00600 5.37000 46.55600
C  52.37600 5.83800 47.06300
N  45.74200 6.44500 47.22800
C  46.83400 7.25400 47.30200
C  46.46500 8.64700 47.21900
C  45.07400 8.58100 47.05700
C  44.61800 7.22200 47.12500
C  47.36100 9.91500 47.31500
C  43.91900 9.42300 47.00000
O  43.81500 10.61700 46.96400
C  42.64600 8.42600 46.86500
C  41.62700 8.72700 47.89300
O  41.45000 8.07900 48.91200
O  40.93500 9.86500 47.61100
C  40.54100 10.59000 48.86100
H  42.08900 1.37800 46.79300
H  48.67000 1.13100 47.47800
H  48.93600 7.40900 47.46900
H  40.43400 5.96300 47.37700
H  40.56900 3.53000 45.86100
H  39.30500 2.68100 47.55600
H  39.00800 4.28600 48.03800
H  40.19200 3.19600 48.89900
H  40.89500 5.07500 44.56700
H  41.49600 6.67600 44.99200
H  39.34200 7.57100 45.18400
H  38.78000 6.31200 46.09600
H  43.73800 -1.55500 46.00100
H  42.45800 -0.60600 46.67800
H  43.53700 -1.62000 47.71000
H  48.55000 -2.35900 47.06300
H  48.54300 -1.11400 48.19100
H  48.66000 -0.78700 46.35700
H  50.30900 2.82900 46.89100
H  50.16000 5.19200 48.62900
H  49.48400 2.29600 49.64800
H  50.85000 3.45800 49.69500
H  51.06100 2.01100 48.91600
H  50.64700 6.20300 45.95100
H  51.16300 4.63400 45.76800
H  53.13800 5.25100 46.55100
H  52.39500 5.75300 48.14900
H  52.46400 6.90300 46.84800
H  47.02100 10.56900 48.11800
H  47.29800 10.49700 46.39600
H  48.41600 9.64300 47.32400
H  42.15800 8.70800 45.93300
H  41.42500 10.52900 49.49600
H  39.57200 10.28800 49.26000
H  40.55800 11.65000 48.60900
Mg 47.21300 35.55700 26.69900
C  45.61900 33.94000 29.37100
C  47.78000 38.25500 28.72400
C  48.11500 37.27100 23.93500
C  46.10000 32.89100 24.62700
N  46.72400 36.01100 28.73000
C  46.21100 35.18300 29.65100
C  46.53000 35.75900 31.05100
C  46.73800 37.24200 30.81400
C  47.15600 37.15600 29.36000
C  45.49400 38.14500 31.11300
C  47.69200 34.99800 31.68500
C  48.01600 35.00200 33.24300
H  47.05600 35.89100 34.06300
N  47.97100 37.48800 26.31900
C  48.10800 38.50000 27.29500
C  48.60800 39.67000 26.71000
C  48.85000 39.37100 25.29400
C  48.30100 37.99800 25.10100
C  48.84400 40.90800 27.48000
C  49.37500 40.24500 24.22000
O  49.41000 39.87100 23.04000
C  49.91500 41.64800 24.51400
N  47.11000 35.07300 24.57300
C  47.52400 35.97000 23.64300
C  47.48700 35.47300 22.25200
C  47.23700 33.94800 22.50600
C  46.78300 33.93700 23.97900
C  46.54600 36.18100 21.24800
C  48.50200 33.11400 22.33900
C  48.61600 32.08800 21.15200
N  46.13000 33.80200 26.86200
C  45.81600 32.79500 25.99100
C  45.17000 31.70100 26.63300
C  45.00600 32.09900 28.03000
C  45.63800 33.38400 28.06800
C  44.53600 30.46600 26.04300
C  44.42200 31.78900 29.28600
O  43.81200 30.80100 29.66400
C  44.69700 32.99000 30.20400
C  45.09700 32.53800 31.53200
O  46.09700 31.86600 31.84600
O  44.20000 33.02300 32.42500
C  44.59400 32.83200 33.82500
H  47.96800 39.18400 29.26800
H  48.44700 37.71600 22.99400
H  45.83900 32.03200 24.00600
H  45.67400 35.61800 31.71000
H  47.54100 37.64100 31.43400
H  45.73900 38.97200 31.77900
H  44.65000 37.56300 31.48200
H  45.19500 38.59300 30.16500
H  48.58900 35.23900 31.11500
H  47.60900 33.94800 31.40500
H  49.02300 35.38900 33.40300
H  47.90500 33.96700 33.56800
H  49.72900 41.38300 27.05800
H  48.96200 40.72800 28.54800
H  48.04600 41.59700 27.20000
H  50.19600 42.12400 23.57500
H  50.73300 41.90600 25.18700
H  49.09000 42.25700 24.88300
H  48.45500 35.57200 21.76100
H  46.46400 33.51200 21.87300
H  45.84000 35.48500 20.79600
H  47.19100 36.66500 20.51500
H  45.95200 36.95500 21.73500
H  48.51600 32.49900 23.23900
H  49.40500 33.72400 22.35300
H  48.53400 31.07500 21.54600
H  49.54500 32.07600 20.58200
H  47.83000 32.25300 20.41600
H  45.25200 29.65600 26.18000
H  44.39900 30.65500 24.97800
H  43.52600 30.23900 26.38300
H  43.74400 33.49800 30.34900
H  43.86000 33.44400 34.35000
H  45.59700 33.23300 33.96900
H  44.40300 31.81500 34.16700

