158

Mg 48.46500 46.29400 43.52900
C  45.33900 46.69300 42.37800
C  48.48600 43.20600 42.14900
C  51.82300 46.24300 44.22100
C  48.54700 49.62800 44.68700
N  47.09100 45.28200 42.23000
C  45.81400 45.49700 41.89000
C  45.14600 44.45500 40.97600
C  46.09900 43.28500 41.20600
C  47.30300 43.94200 41.96800
C  45.43600 42.04400 41.94000
C  44.99100 44.77200 39.41500
C  43.62200 44.47900 38.85200
H  43.65100 43.40700 37.82800
N  49.94600 44.89700 43.24900
C  49.76800 43.69600 42.63400
C  51.06900 43.03200 42.55000
C  52.03800 43.83100 43.18900
C  51.34600 45.03100 43.54500
C  51.22800 41.72200 41.81600
C  53.52700 43.46100 43.36300
O  54.08500 42.53400 42.83800
C  54.29400 44.23800 44.29500
N  49.97900 47.77300 44.39400
C  51.22100 47.42600 44.64300
C  52.07500 48.49400 45.24600
C  51.06600 49.72300 45.25300
C  49.79400 49.07400 44.73200
C  52.69800 48.14800 46.58300
C  51.43500 51.00300 44.35800
C  51.10500 52.35100 45.06900
N  47.26700 47.83600 43.65300
C  47.37400 49.04700 44.18100
C  46.08100 49.74700 44.15300
C  45.27000 48.86200 43.45200
C  46.00300 47.71800 43.20300
C  45.80600 51.14700 44.72100
C  43.91800 48.66100 43.00100
O  42.93400 49.39300 43.03000
C  43.95200 47.29500 42.26700
C  42.88700 46.43700 42.79900
O  42.89200 45.69600 43.79600
O  41.84300 46.52100 41.91700
C  40.81900 45.50600 42.27300
H  48.47100 42.17700 41.78500
H  52.87100 46.31600 44.51900
H  48.49200 50.66900 45.01200
H  44.18800 44.27900 41.46600
H  46.37100 42.82700 40.25500
H  44.43700 41.85500 41.54800
H  45.44600 42.15600 43.02400
H  46.05200 41.15100 41.82600
H  45.67600 44.22200 38.76900
H  45.16300 45.83900 39.27400
H  43.06000 45.31600 38.43700
H  43.03000 44.11500 39.69200
H  52.16800 41.78000 41.26700
H  50.45300 41.45000 41.10000
H  51.17600 40.89500 42.52500
H  53.60500 44.53300 45.08600
H  54.68100 45.06800 43.70500
H  55.11400 43.62900 44.67600
H  52.81800 48.60300 44.45600
H  50.79800 49.95500 46.28400
H  53.66700 47.66600 46.45100
H  52.03800 47.45800 47.10900
H  53.01700 49.05400 47.09700
H  50.96900 50.79700 43.39400
H  52.51600 50.93300 44.23600
H  50.74600 52.99300 44.26500
H  52.07600 52.68000 45.44100
H  50.30800 52.28400 45.81000
H  46.30400 51.19900 45.68900
H  44.73600 51.33700 44.80500
H  46.21200 51.95500 44.11200
H  43.71400 47.43100 41.21200
H  40.16900 45.82500 43.08800
H  41.24200 44.52400 42.48400
H  40.23600 45.52200 41.35200
Mg 26.46900 49.95600 26.01900
C  24.72800 51.54600 28.53900
C  28.61400 48.69800 28.44800
C  28.32900 48.61000 23.54200
C  24.19500 51.17400 23.64000
N  26.68500 50.14100 28.25700
C  25.81000 50.83900 29.07700
C  26.19100 50.69200 30.52800
C  27.60600 50.04700 30.44300
C  27.63800 49.55100 28.97900
C  28.77700 51.00500 30.66100
C  25.19700 49.85300 31.35300
C  24.78000 50.40200 32.80100
H  25.88300 50.52000 33.83700
N  28.24700 48.87600 25.99900
C  28.92500 48.50400 27.08000
C  30.06700 47.68500 26.65500
C  30.02000 47.64100 25.25300
C  28.85400 48.42300 24.81100
C  31.07900 47.04200 27.61000
C  31.00100 46.92900 24.31000
O  30.95900 47.12600 23.09200
C  32.13900 46.01500 24.79100
N  26.31500 49.96700 23.85600
C  27.18100 49.34300 23.09300
C  26.79200 49.31100 21.60600
C  25.28300 49.91200 21.61500
C  25.23100 50.40500 23.08400
C  27.79800 49.90100 20.59500
C  24.18500 48.81000 21.30900
C  24.33300 47.43000 21.99300
N  24.82900 51.13700 25.98500
C  24.03300 51.54600 24.98400
C  22.97500 52.41000 25.52300
C  23.26000 52.46600 26.90600
C  24.33600 51.61400 27.15900
C  21.94100 53.15500 24.77500
C  22.74100 52.95800 28.17700
O  21.74900 53.69400 28.40900
C  23.65900 52.27600 29.29500
C  24.21100 53.46800 30.08200
O  25.13800 54.27200 29.79800
O  23.47700 53.50300 31.21200
C  23.80300 54.41200 32.30100
H  29.27700 48.31400 29.22600
H  28.84100 48.06700 22.74400
H  23.34800 51.33700 22.97000
H  26.26200 51.62200 31.09200
H  27.78900 49.11500 30.97600
H  28.65000 52.05000 30.94200
H  29.31600 51.08000 29.71700
H  29.48800 50.59200 31.37700
H  25.61000 48.85100 31.46500
H  24.25400 49.74300 30.81800
H  24.05500 49.65500 33.12400
H  24.17700 51.31000 32.81200
H  30.88200 45.97200 27.67100
H  30.94700 47.28300 28.66400
H  32.09300 47.26700 27.28000
H  32.46300 45.35400 23.98700
H  31.69500 45.39000 25.56600
H  32.96900 46.41700 25.37200
H  26.77400 48.30100 21.19600
H  25.25600 50.73300 20.89900
H  27.30700 50.58700 19.90300
H  28.22100 49.09600 19.99300
H  28.55300 50.51100 21.09100
H  24.14700 48.61200 20.23800
H  23.20100 49.23200 21.51400
H  23.86200 47.52100 22.97200
H  25.38800 47.16000 22.02100
H  23.78000 46.67000 21.44200
H  21.38700 53.83200 25.42500
H  21.34000 52.42600 24.23100
H  22.48300 53.66700 23.98000
H  23.14300 51.63100 30.00600
H  24.49500 54.05900 33.06600
H  22.85500 54.69600 32.75700
H  24.15800 55.36000 31.89700

