158

Mg 1.79200 -2.32100 44.50300
C  5.04400 -1.05200 44.27200
C  0.66400 0.22800 42.48200
C  -1.29400 -3.79500 44.71200
C  3.19100 -5.28900 45.85600
N  2.80800 -0.64500 43.44000
C  4.13400 -0.30300 43.50600
C  4.41600 0.83500 42.53500
C  3.00800 1.39200 42.12100
C  2.07500 0.24600 42.62500
C  2.60100 2.77100 42.65400
C  5.30200 0.49500 41.28000
C  6.45900 1.52500 40.99400
H  6.42900 2.08200 39.58200
N  -0.05500 -1.79200 43.83400
C  -0.31100 -0.65000 43.02500
C  -1.76300 -0.63500 42.76200
C  -2.36900 -1.78800 43.43400
C  -1.26600 -2.51400 44.04300
C  -2.40300 0.41000 41.92300
C  -3.79600 -2.06100 43.45700
O  -4.62400 -1.33600 42.95800
C  -4.39300 -3.26300 44.10200
N  1.17000 -4.27100 45.10000
C  -0.20700 -4.55400 45.17300
C  -0.49000 -5.87500 45.87700
C  0.88300 -6.48300 46.03500
C  1.82200 -5.31700 45.57200
C  -1.22300 -5.58700 47.20000
C  1.16700 -7.68800 45.12400
C  2.05900 -8.82200 45.59200
N  3.71200 -3.06500 45.10100
C  4.11700 -4.26600 45.62200
C  5.53100 -4.33300 45.90000
C  5.97900 -3.07100 45.39200
C  4.79500 -2.33400 44.92100
C  6.31000 -5.45500 46.49100
C  7.12300 -2.17800 45.17900
O  8.30400 -2.45600 45.29600
C  6.54200 -0.90600 44.38500
C  6.77300 0.35600 45.13700
O  6.28700 0.54500 46.26200
O  7.61500 1.22700 44.45900
C  8.09500 2.32900 45.30500
H  0.32200 1.08500 41.89700
H  -2.23400 -4.30200 44.94000
H  3.43900 -6.18700 46.42600
H  5.04400 1.47400 43.15400
H  2.91400 1.58100 41.05200
H  1.68200 2.68000 43.23200
H  2.22900 3.33800 41.80000
H  3.42100 3.31300 43.12700
H  4.64200 0.45600 40.41400
H  5.68300 -0.52300 41.35800
H  7.35300 0.91800 41.13500
H  6.41500 2.34400 41.71300
H  -3.22800 -0.13900 41.46900
H  -1.85700 0.50900 40.98500
H  -2.69900 1.35300 42.38300
H  -4.05800 -4.09600 43.48400
H  -5.45900 -3.26400 43.87400
H  -4.14100 -3.50400 45.13500
H  -1.20400 -6.43700 45.27300
H  1.11300 -6.59400 47.09500
H  -2.03200 -6.31700 47.22900
H  -1.70600 -4.61000 47.20600
H  -0.55200 -5.67400 48.05500
H  1.53900 -7.28200 44.18400
H  0.23500 -8.20000 44.88200
H  1.37400 -9.61600 45.89400
H  2.46200 -8.44900 46.53400
H  2.91000 -8.89800 44.91600
H  6.51200 -6.25000 45.77400
H  5.87100 -5.92400 47.37200
H  7.22500 -4.93700 46.77800
H  7.06400 -0.83200 43.43100
H  8.58700 2.93000 44.54000
H  8.81900 2.02000 46.05800
H  7.33800 3.02300 45.67100
Mg 47.37500 25.77300 27.62500
C  48.17400 28.18200 30.15300
C  47.02400 23.49500 30.13900
C  46.91800 23.40600 25.21800
C  48.91000 27.83600 25.26300
N  47.51300 25.89100 29.81400
C  47.72700 26.97000 30.66600
C  47.59300 26.64800 32.11100
C  47.50300 25.08300 32.05200
C  47.33900 24.81400 30.60900
C  48.72000 24.28300 32.70900
C  46.44500 27.45600 32.78900
C  45.84300 26.96200 34.12900
H  45.80300 27.93200 35.28900
N  46.90600 23.72900 27.63300
C  46.79500 22.97000 28.82900
C  46.29200 21.63400 28.53000
C  46.19000 21.60200 27.04700
C  46.74400 22.89100 26.55400
C  46.10700 20.56800 29.55600
C  45.69700 20.48800 26.15700
O  45.75800 20.59300 24.93600
C  45.13500 19.25500 26.64400
N  47.79700 25.62500 25.51000
C  47.52300 24.58100 24.69100
C  47.89800 24.87400 23.21400
C  48.08200 26.42700 23.25400
C  48.32100 26.63900 24.75700
C  49.03600 23.94800 22.73800
C  46.92200 27.29000 22.65000
C  47.35500 28.49800 21.79800
N  48.29000 27.64800 27.63900
C  48.93300 28.26800 26.63100
C  49.34600 29.59200 27.13400
C  49.06600 29.59600 28.51800
C  48.47200 28.38000 28.79100
C  49.88000 30.70000 26.32400
C  49.15600 30.38900 29.76400
O  49.68200 31.51200 29.93100
C  48.58100 29.48400 30.93500
C  49.62700 29.28800 31.95500
O  50.54000 28.40900 32.00900
O  49.25900 30.05900 33.06000
C  49.82400 29.57200 34.31700
H  46.87300 22.71000 30.88400
H  46.85000 22.67700 24.40800
H  49.32600 28.48200 24.48800
H  48.58400 26.90400 32.48400
H  46.65000 24.77100 32.65500
H  49.51000 24.91900 33.10800
H  49.24900 23.71600 31.94300
H  48.33600 23.58200 33.45000
H  45.61000 27.55200 32.09600
H  46.90800 28.43000 32.94900
H  46.22100 25.96600 34.36100
H  44.77700 26.77000 34.01100
H  45.07400 20.22500 29.51300
H  46.19400 20.88000 30.59600
H  46.77700 19.76000 29.26400
H  44.21600 19.40400 27.20900
H  45.92700 18.72800 27.17500
H  44.78000 18.72600 25.76000
H  47.04900 24.60900 22.58500
H  49.03800 26.52000 22.73900
H  49.38100 23.38000 23.60100
H  49.80900 24.57500 22.29400
H  48.52800 23.26800 22.05400
H  46.31500 27.63900 23.48500
H  46.22900 26.66300 22.08900
H  47.45000 29.37600 22.43800
H  46.53400 28.65200 21.09800
H  48.26300 28.32500 21.22000
H  49.16100 31.06600 25.59100
H  50.81100 30.47900 25.80300
H  50.09400 31.47100 27.06500
H  47.71300 29.89600 31.45100
H  50.90800 29.48400 34.23700
H  49.29400 28.64100 34.51500
H  49.63400 30.33900 35.06900

