158

Mg 35.92700 3.13900 30.17400
C  33.53100 4.06600 32.58600
C  38.37200 3.59600 32.66200
C  38.23500 2.98300 27.79900
C  33.39400 3.21400 27.78500
N  35.93200 3.87100 32.34700
C  34.83200 4.00500 33.14900
C  35.17100 3.97600 34.60600
C  36.69800 4.17300 34.60500
C  37.04600 3.93200 33.11000
C  37.17200 5.49500 35.14000
C  34.67100 2.66100 35.28600
C  33.93500 2.79300 36.64000
H  34.22900 3.97300 37.55500
N  38.02600 3.23300 30.25700
C  38.80800 3.24100 31.35600
C  40.15000 2.93300 31.05200
C  40.16400 2.92600 29.59200
C  38.75400 3.03800 29.13900
C  41.13100 2.48100 32.09800
C  41.35900 2.68600 28.71800
O  41.29000 2.59400 27.49200
C  42.73700 2.61200 29.31400
N  35.86600 3.30400 28.07700
C  36.92300 3.05300 27.32700
C  36.49900 3.04500 25.79000
C  34.96400 3.04300 25.80000
C  34.70500 3.15200 27.30200
C  37.17800 4.24700 24.98700
C  34.30900 1.77300 25.16800
C  33.74000 2.07600 23.81600
N  33.88500 3.44300 30.16900
C  33.00200 3.46500 29.13400
C  31.71000 3.89900 29.63000
C  31.81800 4.02400 31.01300
C  33.18000 3.79300 31.28000
C  30.47000 4.13400 28.70200
C  31.13600 4.25500 32.24100
O  29.91400 4.44000 32.39800
C  32.20400 4.14100 33.36000
C  32.14900 5.38800 34.18800
O  32.60500 6.51300 33.91600
O  31.20600 5.19900 35.14900
C  30.96100 6.36100 35.91300
H  39.09800 3.67800 33.47400
H  39.03200 2.94600 27.05300
H  32.63200 3.38100 27.02100
H  34.63700 4.82600 35.03100
H  37.24200 3.42700 35.18300
H  37.71100 5.36500 36.07900
H  36.35100 6.18900 35.31700
H  37.65700 6.14300 34.41000
H  35.63300 2.15700 35.38500
H  34.09100 1.98000 34.66400
H  34.16900 1.88900 37.20200
H  32.88500 2.65200 36.38500
H  41.74100 3.32100 32.43200
H  41.82300 1.72800 31.72200
H  40.65300 1.94500 32.91800
H  42.92400 1.64600 29.78500
H  42.95800 3.34700 30.08800
H  43.52200 2.79500 28.58000
H  36.73000 2.17600 25.17400
H  34.65800 4.02600 25.44100
H  37.81400 4.71500 25.73800
H  36.47400 4.93700 24.52300
H  37.93700 3.80400 24.34200
H  33.53100 1.41600 25.84200
H  35.07600 1.01000 25.04000
H  32.67700 2.11000 24.05600
H  34.16500 1.36900 23.10400
H  34.05900 3.01900 23.37100
H  29.77700 3.29300 28.68500
H  30.85100 4.42600 27.72400
H  29.96900 5.01600 29.10200
H  31.93400 3.20400 33.84800
H  30.50500 7.17300 35.34600
H  31.83800 6.77400 36.41100
H  30.26800 6.33200 36.75400
Mg 48.51900 34.62500 26.32500
C  46.47200 33.55800 28.95400
C  49.07800 37.49500 28.13000
C  50.04500 35.99900 23.67600
C  47.42400 32.06600 24.30800
N  47.77300 35.46300 28.34800
C  47.10000 34.76800 29.35200
C  47.42400 35.44500 30.73700
C  47.83700 36.86900 30.24600
C  48.36500 36.53700 28.81500
C  46.69900 37.99500 30.13500
C  48.53500 34.64700 31.52400
C  48.38800 34.42200 33.07200
H  47.42300 35.50200 33.71100
N  49.49300 36.42800 26.00000
C  49.67500 37.43500 26.89000
C  50.46600 38.53300 26.30200
C  50.73800 38.11300 24.99600
C  50.00500 36.84000 24.85400
C  50.77900 39.80400 27.09500
C  51.52000 38.81900 23.95900
O  51.39900 38.64300 22.77200
C  52.30800 40.00800 24.36900
N  48.85700 34.00400 24.35600
C  49.46200 34.70000 23.42100
C  49.44100 34.05200 22.06300
C  48.82200 32.62300 22.37600
C  48.40100 32.90600 23.77300
C  48.75500 34.92400 21.01100
C  49.76800 31.36700 22.20900
C  49.39200 30.33300 21.15700
N  47.24000 33.09100 26.54900
C  46.91000 32.08100 25.65600
C  45.96800 31.21600 26.32600
C  45.80900 31.74300 27.59600
C  46.50100 32.95000 27.68100
C  45.41800 29.89700 25.68600
C  45.10500 31.49200 28.86700
O  44.32900 30.58400 29.22300
C  45.58700 32.58600 29.85500
C  46.35000 31.87500 30.87100
O  47.44900 31.42100 30.69300
O  45.63500 31.81200 32.02600
C  46.32700 30.98700 33.01300
H  49.33900 38.38200 28.71200
H  50.46800 36.46800 22.78600
H  47.15000 31.16200 23.76000
H  46.47900 35.50400 31.27600
H  48.59500 37.33300 30.87600
H  46.27200 38.10400 29.13800
H  47.12600 38.95600 30.42300
H  46.02000 37.68800 30.93100
H  49.50300 35.05400 31.23200
H  48.52600 33.63500 31.11900
H  49.35700 34.57200 33.55000
H  48.01300 33.43100 33.32800
H  51.76700 39.71800 27.54600
H  50.07900 40.02300 27.90200
H  50.63200 40.66600 26.44500
H  51.66800 40.88500 24.46600
H  53.10300 40.13300 23.63400
H  52.69500 39.76200 25.35900
H  50.48800 33.92100 21.78900
H  47.92500 32.49500 21.77100
H  48.02100 34.36100 20.43500
H  49.30000 35.55800 20.31200
H  48.21500 35.67700 21.58500
H  49.78200 30.89200 23.19000
H  50.78000 31.71300 21.99600
H  50.22300 30.47700 20.46700
H  48.44700 30.51100 20.64300
H  49.46800 29.32700 21.56900
H  44.86200 29.43200 26.50000
H  46.30100 29.27700 25.53400
H  44.80300 30.01300 24.79300
H  44.79900 33.09500 30.41000
H  45.81200 31.05600 33.97100
H  47.34700 31.29300 33.24400
H  46.29100 29.94000 32.71200

