158

Mg 1.87500 -2.18100 44.36300
C  5.26900 -0.96800 44.04100
C  0.98100 0.42400 42.46400
C  -1.03100 -3.65100 44.20300
C  3.25800 -5.15700 45.81200
N  3.01900 -0.55900 43.14100
C  4.38600 -0.28400 43.22700
C  4.65400 0.99200 42.48700
C  3.22500 1.63200 42.41400
C  2.35000 0.45000 42.80300
C  3.08300 2.94300 43.35100
C  5.45200 0.75600 41.17700
C  6.86000 1.37800 41.26800
H  7.93100 1.22300 40.20100
N  0.17600 -1.68400 43.42400
C  -0.07100 -0.50200 42.71400
C  -1.48900 -0.26100 42.48000
C  -2.08400 -1.50100 43.02600
C  -0.96500 -2.33600 43.57500
C  -2.06000 0.91200 41.75200
C  -3.55500 -1.79000 42.87500
O  -4.29600 -0.95600 42.36900
C  -4.16900 -3.05800 43.44800
N  1.21100 -4.13200 44.97700
C  -0.04500 -4.46700 44.69300
C  -0.41700 -5.89200 45.24000
C  0.99500 -6.36300 45.78600
C  1.90600 -5.19300 45.44700
C  -1.46300 -5.99300 46.37500
C  1.50700 -7.75800 45.30800
C  2.10600 -8.68500 46.42400
N  3.79500 -2.92000 44.92300
C  4.18400 -4.09600 45.55700
C  5.60300 -4.03300 45.91600
C  5.97200 -2.75200 45.43100
C  4.89100 -2.19800 44.72200
C  6.37100 -5.03900 46.65000
C  7.18000 -1.87200 45.26000
O  8.31700 -2.00200 45.62100
C  6.71300 -0.68600 44.33400
C  6.96600 0.49800 45.18100
O  6.31800 0.71500 46.18500
O  8.02200 1.31200 44.72600
C  8.13600 2.60200 45.49100
H  0.63500 1.36400 42.03000
H  -2.02900 -4.08200 44.31300
H  3.56400 -6.07500 46.31700
H  5.22800 1.58000 43.20400
H  3.11800 2.05500 41.41500
H  2.24400 3.04500 44.04000
H  3.00600 3.68500 42.55700
H  3.99900 3.16900 43.89800
H  4.96600 1.27400 40.35000
H  5.57500 -0.30500 40.95700
H  7.26900 1.21500 42.26500
H  6.58700 2.43300 41.25700
H  -3.00600 1.20900 42.20600
H  -2.19500 0.76400 40.68000
H  -1.49600 1.83400 41.89100
H  -4.04900 -3.98200 42.88300
H  -5.22700 -2.81600 43.35400
H  -3.87600 -3.04700 44.49800
H  -0.69100 -6.43800 44.33800
H  0.91000 -6.30700 46.87100
H  -1.51500 -4.98400 46.78300
H  -1.14900 -6.66500 47.17400
H  -2.40300 -6.27300 45.89800
H  2.33200 -7.52100 44.63700
H  0.82900 -8.36800 44.71100
H  1.72200 -9.68500 46.22200
H  1.84300 -8.31100 47.41300
H  3.18700 -8.58600 46.32400
H  6.08700 -5.05700 47.70200
H  7.43800 -4.86100 46.51600
H  6.23000 -5.99500 46.14500
H  7.39300 -0.73000 43.48300
H  7.27200 3.21500 45.23600
H  8.93100 3.21000 45.05900
H  8.17200 2.43500 46.56700
Mg 0.38800 7.70900 26.31700
C  1.03200 9.88900 28.96000
C  0.78200 5.02700 28.69200
C  0.10300 5.63300 23.84700
C  0.74000 10.36700 24.11300
N  0.94600 7.43600 28.55100
C  0.98900 8.55100 29.43700
C  1.24500 8.06300 30.85700
C  1.16800 6.49000 30.74800
C  0.94400 6.25500 29.23900
C  2.38200 5.76100 31.31400
C  0.11600 8.57000 31.83100
C  0.49000 8.59100 33.35000
H  1.72200 7.88500 33.87400
N  0.35000 5.63600 26.28400
C  0.43600 4.71400 27.34400
C  0.29400 3.36600 26.87800
C  0.08300 3.49400 25.42900
C  0.19700 4.93900 25.14300
C  0.43600 2.12800 27.80600
C  -0.11700 2.41800 24.36700
O  -0.39300 2.67300 23.18700
C  -0.10500 1.03000 24.77500
N  0.65900 7.97400 24.19400
C  0.29600 6.92700 23.41800
C  0.03700 7.36200 22.02200
C  0.42700 8.86000 22.05200
C  0.55600 9.12800 23.52300
C  0.68200 6.53800 20.87800
C  -0.57100 9.81300 21.31500
C  -2.01400 9.82800 21.77600
N  0.69700 9.63300 26.48600
C  0.75600 10.63000 25.52000
C  0.89500 11.91100 26.08600
C  0.93900 11.63200 27.46700
C  0.90600 10.23400 27.63900
C  0.97000 13.23600 25.36400
C  1.05100 12.29600 28.76900
O  1.19200 13.49500 28.99500
C  1.24500 11.18100 29.79900
C  2.46100 11.14800 30.63900
O  3.59900 11.18300 30.20800
O  2.12000 11.30000 31.98300
C  3.17600 11.23200 33.00000
H  0.73500 4.21300 29.41800
H  -0.18000 5.00400 23.00100
H  0.93000 11.15900 23.38500
H  2.15100 8.46500 31.31000
H  0.28000 6.03300 31.18300
H  2.79700 5.24700 30.44700
H  2.03700 5.02100 32.03600
H  3.06100 6.44500 31.82200
H  -0.78500 7.98000 31.66300
H  -0.20700 9.55800 31.50300
H  -0.43600 8.32100 33.85800
H  0.56700 9.61600 33.71300
H  0.33300 1.13600 27.36600
H  -0.35600 2.19800 28.55100
H  1.36900 2.25700 28.35400
H  -0.52300 0.31600 24.06500
H  -0.67400 0.90100 25.69700
H  0.92700 0.77000 25.00900
H  -1.04000 7.19800 21.96600
H  1.32400 9.00900 21.45100
H  1.39600 5.84900 21.33000
H  1.29000 7.18000 20.24000
H  0.04200 5.99200 20.18600
H  -0.65000 9.46700 20.28500
H  -0.23200 10.84800 21.26100
H  -2.76800 9.60700 21.02000
H  -2.14600 10.85600 22.11200
H  -2.24600 9.14900 22.59700
H  0.20100 13.25200 24.59100
H  1.93300 13.23300 24.85400
H  0.94100 14.14200 25.97000
H  0.41700 11.25200 30.50400
H  3.10200 10.48200 33.78700
H  3.22700 12.18800 33.52200
H  4.10200 11.03500 32.45900

