158

Mg 41.78800 41.27200 26.53000
C  41.16500 43.82400 29.09800
C  42.47300 39.08800 29.13400
C  42.72700 39.23500 24.34200
C  41.28200 43.82100 24.11100
N  42.03200 41.47400 28.82300
C  41.65900 42.62000 29.61500
C  41.54800 42.11300 31.11600
C  41.94900 40.63600 31.12300
C  42.16000 40.37500 29.62700
C  43.29900 40.25900 31.85300
C  40.04500 42.27900 31.70500
C  39.91400 42.98800 33.00000
H  39.18200 42.37300 34.20400
N  42.54500 39.41600 26.66800
C  42.62700 38.60300 27.83400
C  42.90300 37.24400 27.40700
C  43.11500 37.27600 26.00500
C  42.78800 38.67500 25.60500
C  43.32300 36.22300 28.46100
C  43.58700 36.23700 25.05100
O  43.85400 36.44400 23.86000
C  43.61700 34.74000 25.60300
N  42.04100 41.56800 24.50800
C  42.33200 40.47200 23.80200
C  42.08900 40.66000 22.28200
C  41.50400 42.16600 22.17200
C  41.70100 42.56500 23.66800
C  43.27200 40.36900 21.30700
C  40.08700 42.24600 21.62600
C  39.02400 41.54300 22.44800
N  41.35500 43.35800 26.52400
C  41.20900 44.23200 25.43700
C  40.75900 45.51200 25.93400
C  40.76200 45.37400 27.36900
C  41.07900 44.05100 27.66400
C  40.27500 46.67900 25.06900
C  40.53800 46.16400 28.59100
O  40.39400 47.36400 28.70700
C  40.76500 45.16700 29.73700
C  41.82800 45.68700 30.62500
O  43.01400 45.92100 30.36100
O  41.26100 45.98800 31.84400
C  42.15400 46.73100 32.74100
H  42.45200 38.39700 29.97900
H  42.81200 38.50800 23.53200
H  40.87900 44.44900 23.31300
H  42.28500 42.80800 31.52000
H  41.13200 40.05800 31.55600
H  43.54000 41.06400 32.54700
H  44.09800 40.15000 31.12000
H  43.07600 39.35500 32.41900
H  39.43100 41.37900 31.69900
H  39.50800 42.85500 30.95100
H  39.44500 43.95500 32.81500
H  40.89200 43.27600 33.38700
H  44.36900 35.95500 28.31100
H  42.80300 35.28200 28.27900
H  43.20900 36.51100 29.50600
H  44.53000 34.59300 26.18000
H  43.63100 34.05700 24.75300
H  42.69500 34.46900 26.11700
H  41.19700 40.05500 22.12200
H  42.25400 42.81800 21.72500
H  43.48900 41.25500 20.71000
H  43.08700 39.51200 20.65900
H  44.16300 40.04100 21.84200
H  40.00200 41.72200 20.67400
H  39.75100 43.27300 21.48100
H  39.32900 41.15300 23.41900
H  38.71800 40.68600 21.84700
H  38.17100 42.21300 22.55200
H  40.54400 46.60800 24.01500
H  40.76600 47.53600 25.53100
H  39.20500 46.87500 25.14700
H  39.83300 45.03800 30.28600
H  42.94300 47.28500 32.23200
H  42.54300 46.00200 33.45200
H  41.64300 47.49000 33.33300
Mg 29.78700 58.48800 39.52600
C  27.12700 56.30800 38.46500
C  32.00500 56.06700 38.63700
C  32.25700 60.78400 39.59700
C  27.40900 60.90900 40.12100
N  29.50700 56.48000 38.64900
C  28.40400 55.71600 38.34800
C  28.70000 54.22900 38.14600
C  30.23100 54.12800 38.43600
C  30.66100 55.66000 38.67300
C  30.59700 53.20400 39.63500
C  28.36200 53.76900 36.68800
C  29.01500 54.46100 35.45000
H  28.20100 55.05600 34.37200
N  31.91900 58.46300 39.18600
C  32.62200 57.28500 38.85500
C  33.99100 57.61000 38.84400
C  34.11700 59.02600 39.24200
C  32.75100 59.51200 39.33400
C  35.10300 56.52300 38.61400
C  35.42600 59.61300 39.53600
O  36.44400 58.93800 39.40300
C  35.46300 60.99400 39.86600
N  29.83500 60.55900 39.71300
C  30.95800 61.28100 39.84000
C  30.74400 62.70900 40.33300
C  29.19000 62.77800 40.37200
C  28.78700 61.28700 40.08400
C  31.50100 63.00500 41.62500
C  28.48200 63.75000 39.39300
C  27.42400 64.73200 39.92400
N  27.66000 58.68600 39.49100
C  26.85700 59.71200 39.80400
C  25.56000 59.33200 39.54600
C  25.60600 58.00100 39.03600
C  26.86400 57.63800 38.98200
C  24.31300 60.20500 39.60500
C  24.77200 56.89300 38.56800
O  23.59800 56.86200 38.50400
C  25.73200 55.71200 38.25100
C  25.34300 54.51300 39.08200
O  25.14700 54.39600 40.28300
O  25.18300 53.50300 38.18300
C  24.49600 52.37300 38.75500
H  32.64800 55.19200 38.52100
H  32.96800 61.61000 39.52400
H  26.75600 61.73100 40.42000
H  28.07300 53.61700 38.79300
H  30.87700 53.76500 37.63700
H  29.69800 52.86900 40.15300
H  31.06400 53.84200 40.38600
H  31.28800 52.44100 39.27800
H  27.29100 53.77000 36.48700
H  28.74900 52.75000 36.71600
H  29.82700 53.80300 35.13900
H  29.53400 55.34500 35.81800
H  34.72600 55.53000 38.37000
H  35.72200 56.39400 39.50200
H  35.68900 56.94500 37.79800
H  34.84300 61.13000 40.75200
H  35.10300 61.56400 39.01000
H  36.44100 61.41600 40.09600
H  30.99700 63.45900 39.58400
H  28.88400 63.08400 41.37300
H  32.04000 63.94700 41.52600
H  32.15800 62.17200 41.87400
H  30.91400 63.25500 42.50900
H  27.94900 63.11000 38.68900
H  29.21800 64.34900 38.85600
H  26.40500 64.53400 39.59100
H  27.64300 65.77100 39.67700
H  27.38700 64.71500 41.01300
H  23.80500 60.10100 38.64700
H  24.49300 61.26600 39.77900
H  23.69000 59.91800 40.45200
H  25.70400 55.32000 37.23400
H  25.14500 51.60600 39.17700
H  23.89200 52.04300 37.91000
H  23.78100 52.51300 39.56600

