158

Mg 16.81000 -3.33500 28.49400
C  16.09400 -1.06100 31.11200
C  18.31500 -5.38000 30.70800
C  18.07700 -5.02100 25.89800
C  15.52000 -0.86400 26.26300
N  17.24200 -3.11900 30.64300
C  16.85900 -2.20200 31.53700
C  17.18400 -2.68200 32.98700
C  18.08100 -3.96100 32.73200
C  17.87800 -4.14800 31.28600
C  19.62600 -3.81300 33.09000
C  15.89800 -3.03100 33.86300
C  15.70200 -2.27400 35.16500
H  16.83300 -1.87800 35.95700
N  17.87300 -5.04200 28.25500
C  18.36500 -5.76300 29.35200
C  18.88800 -7.03600 28.86300
C  18.82800 -6.94200 27.42000
C  18.25500 -5.64700 27.12500
C  19.36200 -8.18800 29.70100
C  19.35200 -7.96000 26.34700
O  19.32000 -7.70200 25.17300
C  19.97000 -9.23900 26.78900
N  16.61400 -3.08800 26.40400
C  17.30500 -3.89300 25.54500
C  17.11500 -3.46600 24.12900
C  16.17900 -2.23200 24.17000
C  16.03400 -2.03300 25.70700
C  18.50700 -3.25100 23.37500
C  14.84300 -2.35100 23.33500
C  13.55800 -2.04600 24.04700
N  15.84500 -1.42200 28.60800
C  15.37200 -0.53100 27.63400
C  14.76300 0.70600 28.29500
C  14.99700 0.45800 29.62600
C  15.67100 -0.81900 29.74500
C  14.15600 1.80900 27.53900
C  14.96200 1.12800 30.96800
O  14.48500 2.22000 31.20600
C  15.55600 0.09400 31.97900
C  16.53300 0.83100 32.75900
O  17.67100 1.09500 32.39700
O  15.93300 1.38700 33.82400
C  16.55000 2.45200 34.59000
H  18.70600 -6.15000 31.37800
H  18.43500 -5.58300 25.03300
H  15.08200 -0.13800 25.57500
H  17.78900 -1.90700 33.45800
H  17.61100 -4.83000 33.19200
H  20.17300 -3.65700 32.16000
H  20.01500 -4.74800 33.49200
H  19.72900 -3.03800 33.85000
H  15.68000 -4.05800 34.15700
H  15.06700 -2.76000 33.21200
H  14.90600 -2.70400 35.77300
H  15.23800 -1.35300 34.80900
H  18.76100 -9.02800 29.35500
H  19.05700 -8.05100 30.73900
H  20.42100 -8.43500 29.62200
H  20.85500 -9.24300 27.42600
H  20.26500 -9.83700 25.92600
H  19.14900 -9.79800 27.23800
H  16.60000 -4.37200 23.81300
H  16.65600 -1.37000 23.70300
H  18.67800 -2.17900 23.27300
H  18.51800 -3.70000 22.38100
H  19.30400 -3.50800 24.07200
H  14.79600 -3.33500 22.86900
H  14.88000 -1.70300 22.45900
H  13.37400 -2.60900 24.96200
H  12.78600 -2.29200 23.31800
H  13.58600 -0.97100 24.22200
H  14.47100 1.64000 26.50900
H  14.51000 2.80600 27.79900
H  13.07100 1.70500 27.53400
H  14.86900 -0.32800 32.71300
H  15.96000 3.36600 34.65800
H  17.58300 2.65700 34.30600
H  16.43900 2.18700 35.64100
Mg 45.51700 2.30600 47.74600
C  43.38400 5.23800 47.15300
C  42.81300 0.44900 46.83300
C  47.55800 -0.25300 47.62400
C  48.28900 4.57700 47.94100
N  43.19000 2.84200 47.19600
C  42.68200 4.02900 46.92100
C  41.21600 3.82100 46.39600
C  40.93700 2.24800 46.62800
C  42.40700 1.80300 46.96700
C  39.86300 2.04400 47.80600
C  41.02900 4.33100 44.94300
C  39.69600 5.14500 44.69500
H  39.09700 4.92400 43.28800
N  45.21200 0.30700 47.28700
C  44.04900 -0.29400 47.02000
C  44.26000 -1.71400 46.87800
C  45.61700 -1.97800 47.06200
C  46.21600 -0.62900 47.35400
C  43.19400 -2.73900 46.54400
C  46.40700 -3.24000 47.00200
O  45.77900 -4.25200 46.70600
C  47.94100 -3.48500 47.30600
N  47.64300 2.18100 47.58400
C  48.14700 0.97100 47.84500
C  49.66400 1.05800 48.11000
C  49.94500 2.64800 48.16400
C  48.51800 3.20200 47.92800
C  50.10800 0.30900 49.41800
C  51.07800 3.23100 47.29500
C  51.70500 4.45700 48.02700
N  45.84300 4.48500 47.63000
C  47.01800 5.22500 47.72900
C  46.65300 6.64900 47.60600
C  45.31200 6.66900 47.40300
C  44.80200 5.32800 47.39000
C  47.56200 7.78600 47.71400
C  44.08900 7.52600 47.26900
O  43.97300 8.76600 47.22600
C  42.82700 6.59000 47.08800
C  41.80600 6.68700 48.18300
O  41.81900 6.12000 49.26500
O  40.82600 7.58500 47.78900
C  39.75700 7.76400 48.78800
H  41.93500 -0.14600 46.57000
H  48.32500 -1.01700 47.76800
H  49.10800 5.25800 48.18100
H  40.59500 4.49100 46.99000
H  40.64200 1.68300 45.74400
H  39.00400 1.67800 47.24400
H  39.58600 2.96800 48.31300
H  40.23500 1.37600 48.58400
H  41.05300 3.52400 44.21000
H  41.84400 5.01000 44.69300
H  39.88100 6.21600 44.77700
H  39.02700 4.85000 45.50300
H  43.30500 -3.04700 45.50400
H  42.18700 -2.34600 46.68800
H  43.39600 -3.59200 47.19100
H  48.52200 -2.99100 46.52800
H  48.04100 -4.56700 47.22200
H  48.32800 -3.24200 48.29600
H  50.17100 0.54000 47.29600
H  50.18300 2.96000 49.18100
H  49.27100 -0.00600 50.04100
H  50.63300 1.08400 49.97700
H  50.83300 -0.50100 49.33900
H  50.53700 3.62400 46.43300
H  51.85700 2.56900 46.91700
H  52.77000 4.22400 47.99000
H  51.42500 4.58200 49.07300
H  51.48400 5.38800 47.50500
H  47.19400 8.66600 47.18800
H  48.55100 7.62900 47.28400
H  47.68200 7.97300 48.78100
H  42.28000 6.87800 46.19000
H  39.04500 6.96000 48.60500
H  39.26600 8.73400 48.71300
H  40.02900 7.69100 49.84100

