158

Mg 2.17100 -1.43800 43.30300
C  5.52100 -1.20200 43.34900
C  1.91300 1.35300 41.49600
C  -1.13000 -2.22600 42.62400
C  2.56100 -4.79700 44.38000
N  3.51700 -0.06900 42.63900
C  4.87300 -0.13200 42.74900
C  5.64500 1.02400 42.06800
C  4.40700 1.84400 41.55100
C  3.20300 0.98100 41.92600
C  4.36100 3.33900 42.05600
C  6.56700 0.63800 40.80600
C  7.03400 1.92500 40.05600
H  6.49000 2.26900 38.66200
N  0.63300 -0.45500 42.29100
C  0.65200 0.71100 41.63200
C  -0.66900 1.16300 41.32000
C  -1.55700 0.16700 41.61400
C  -0.67000 -0.87800 42.23700
C  -1.14000 2.44300 40.63400
C  -3.05500 0.21800 41.51900
O  -3.56900 1.17600 40.94700
C  -4.03000 -0.96900 41.95600
N  0.95800 -3.31800 43.33500
C  -0.43800 -3.27300 43.17700
C  -1.10300 -4.62300 43.54600
C  0.11900 -5.45100 44.01100
C  1.31300 -4.48300 43.84200
C  -2.23700 -4.46800 44.54600
C  0.35500 -6.73800 43.11900
C  -0.78200 -7.86900 42.99300
N  3.68900 -2.66100 44.06400
C  3.69400 -3.98700 44.47100
C  5.04600 -4.43900 44.74900
C  5.77900 -3.30700 44.46100
C  4.91000 -2.31200 43.93500
C  5.49000 -5.77300 45.12400
C  7.09900 -2.82300 44.37000
O  8.19500 -3.34300 44.63800
C  6.98400 -1.42300 43.58800
C  7.43700 -0.34200 44.46200
O  6.93100 0.04400 45.50200
O  8.47000 0.26100 43.80000
C  8.88300 1.57700 44.29500
H  1.91000 2.31000 40.97000
H  -2.19800 -2.41800 42.50300
H  2.56100 -5.81900 44.76400
H  6.24000 1.46400 42.86900
H  4.31500 1.94800 40.47000
H  3.42600 3.50600 42.59200
H  4.41800 3.97600 41.17300
H  5.26200 3.43800 42.66000
H  5.86600 0.09900 40.16800
H  7.43200 0.03700 41.08300
H  8.09600 1.79200 39.85000
H  6.88200 2.86800 40.58000
H  -0.22100 2.97300 40.38300
H  -1.77700 3.02600 41.29900
H  -1.60800 2.05900 39.72700
H  -5.08500 -0.74100 42.10700
H  -3.68900 -1.24800 42.95300
H  -3.92500 -1.82200 41.28500
H  -1.37600 -5.05100 42.58100
H  0.16600 -5.70500 45.07000
H  -3.16900 -4.85400 44.13300
H  -2.37600 -3.39400 44.66700
H  -2.10900 -4.90300 45.53800
H  1.27300 -7.22800 43.44300
H  0.41700 -6.20400 42.17100
H  -1.32600 -7.91300 42.04900
H  -1.64000 -7.76800 43.65800
H  -0.38000 -8.81800 43.34700
H  6.01800 -6.16800 44.25600
H  4.60200 -6.33200 45.41800
H  6.14000 -5.53100 45.96400
H  7.67000 -1.57600 42.75500
H  8.06900 2.30300 44.31500
H  9.55600 2.05500 43.58300
H  9.34300 1.54900 45.28300
Mg 17.31100 -1.04700 27.46400
C  16.32600 0.65900 30.31200
C  19.51700 -2.82300 29.47200
C  18.88400 -2.36800 24.79700
C  15.79700 1.20600 25.53700
N  17.99000 -0.89300 29.71200
C  17.31700 -0.26500 30.69500
C  17.79100 -0.73500 32.03700
C  18.99000 -1.71800 31.76600
C  18.88800 -1.79700 30.20700
C  20.29500 -1.26000 32.40200
C  16.57900 -1.34500 32.87300
C  16.35100 -0.68300 34.23800
H  17.56500 -0.03000 34.96000
N  18.79700 -2.59800 27.17200
C  19.57700 -3.21300 28.11100
C  20.24800 -4.33900 27.56800
C  20.17100 -4.22900 26.18300
C  19.32400 -2.97400 25.97200
C  20.99200 -5.41200 28.37300
C  20.76200 -5.01200 25.04300
O  20.68800 -4.70900 23.84500
C  21.59600 -6.25700 25.44200
N  17.30900 -0.67900 25.51100
C  18.00800 -1.32300 24.54800
C  17.88400 -0.63700 23.15500
C  16.65700 0.21300 23.37100
C  16.59900 0.31100 24.87900
C  19.25100 0.17300 22.84000
C  15.32500 -0.04500 22.66700
C  14.19300 -0.63000 23.56200
N  16.18400 0.46800 27.82800
C  15.63700 1.34600 26.91200
C  14.78100 2.29600 27.54300
C  15.05800 2.02200 28.89700
C  15.95800 0.93900 29.01400
C  13.94400 3.43200 26.87500
C  14.77400 2.53400 30.18400
O  14.08800 3.48800 30.53900
C  15.56300 1.61000 31.18400
C  16.48600 2.42500 32.11300
O  17.67800 2.65900 32.01200
O  15.75200 2.84200 33.16800
C  16.42900 3.79700 33.95700
H  20.05100 -3.55700 30.07900
H  19.24000 -2.82900 23.87300
H  15.37600 2.00800 24.92700
H  18.08000 0.16600 32.57900
H  18.83900 -2.74500 32.09600
H  21.11200 -1.14900 31.69000
H  20.61500 -2.05500 33.07500
H  20.21300 -0.37400 33.03200
H  16.82600 -2.39300 33.04300
H  15.76200 -1.21700 32.16400
H  16.07800 -1.60300 34.75500
H  15.47400 -0.03500 34.25200
H  21.96500 -5.66000 27.94900
H  20.32500 -6.26800 28.26100
H  21.31500 -5.24500 29.40100
H  22.58500 -5.99500 25.81900
H  21.72100 -6.76900 24.48900
H  20.97300 -6.84500 26.11600
H  17.71800 -1.34100 22.33900
H  16.87300 1.21600 23.00200
H  19.50300 0.16000 21.77900
H  20.12900 -0.22500 23.35000
H  19.07200 1.20900 23.12500
H  15.49900 -0.79600 21.89700
H  15.01100 0.94700 22.34400
H  13.83400 0.12500 24.26100
H  14.61200 -1.48300 24.09500
H  13.28000 -0.78700 22.98700
H  13.55900 3.08600 25.91600
H  14.61600 4.23000 26.56100
H  13.09700 3.80400 27.45100
H  14.90600 1.09500 31.88600
H  16.97200 4.47800 33.30100
H  17.16100 3.38800 34.65200
H  15.80600 4.41100 34.60700

