158

Mg 47.95300 24.99000 29.76100
C  48.53200 27.47000 32.26000
C  47.04100 22.73900 32.24900
C  47.72600 22.52000 27.50900
C  49.36300 27.19700 27.38100
N  47.67100 25.17200 31.95500
C  47.86100 26.25900 32.75100
C  47.38200 25.99100 34.09800
C  47.00100 24.41200 34.18200
C  47.29500 24.08200 32.72400
C  47.80200 23.59500 35.16500
C  46.33500 26.98700 34.66400
C  46.29200 27.51800 36.10600
H  47.01100 26.97100 37.34300
N  47.37600 22.91500 29.87100
C  47.02400 22.22700 30.94800
C  46.79400 20.82500 30.60600
C  46.93700 20.73400 29.23700
C  47.41200 22.06400 28.80800
C  46.39600 19.71800 31.59400
C  46.73400 19.55700 28.30300
O  46.77200 19.63900 27.08000
C  46.25400 18.30500 28.86000
N  48.61900 24.86200 27.72400
C  48.21700 23.79800 27.00000
C  48.47500 24.08000 25.45800
C  48.91400 25.60200 25.45700
C  49.01000 25.91000 26.87600
C  49.55600 23.23800 24.88100
C  47.88900 26.60800 24.77900
C  46.46300 26.75500 25.36400
N  48.81700 26.94800 29.72500
C  49.43800 27.69400 28.73200
C  49.85300 28.94800 29.25900
C  49.39400 28.90600 30.58400
C  48.87300 27.64200 30.86200
C  50.57800 30.00800 28.50700
C  49.47700 29.71300 31.82700
O  49.89100 30.79100 32.06500
C  48.88000 28.78500 32.99600
C  49.98500 28.55100 33.99200
O  50.87800 27.69900 33.88800
O  49.89900 29.41200 35.03200
C  51.01000 29.29400 36.04700
H  46.69600 22.00500 32.98000
H  47.67300 21.65100 26.85000
H  49.65500 27.95900 26.65600
H  48.31300 26.16400 34.63800
H  45.92900 24.30800 34.35000
H  48.56300 23.05700 34.59900
H  47.11700 22.93800 35.70100
H  48.38900 24.16800 35.88200
H  45.32700 26.58900 34.54300
H  46.30300 27.80400 33.94200
H  45.26200 27.44200 36.45500
H  46.60200 28.55900 36.02000
H  47.23200 19.04200 31.41400
H  45.48300 19.21200 31.28300
H  46.33600 19.99500 32.64700
H  47.02600 17.80800 29.44800
H  46.02500 17.62100 28.04400
H  45.28700 18.49900 29.32400
H  47.52500 23.98400 24.93400
H  49.90400 25.68600 25.00800
H  50.44300 23.79800 24.58500
H  49.22900 22.73400 23.97200
H  49.94700 22.52600 25.60800
H  47.80100 26.31400 23.73300
H  48.31600 27.60500 24.67000
H  46.44400 26.52200 26.42900
H  45.78000 26.03200 24.91600
H  46.07200 27.75600 25.18600
H  50.96600 29.54700 27.59800
H  51.45000 30.42100 29.01400
H  49.93700 30.83300 28.19600
H  47.97800 29.28700 33.34500
H  50.76600 28.47100 36.71900
H  50.89900 30.24300 36.57100
H  52.05500 29.16000 35.76700
Mg -11.99200 16.61900 41.97200
C  -8.83500 15.59800 41.29400
C  -11.26300 19.78900 40.65800
C  -15.27900 17.51000 42.20200
C  -12.96400 13.22300 42.43100
N  -10.22600 17.57000 41.21600
C  -8.95400 16.97500 41.08500
C  -7.93300 17.92100 40.55700
C  -8.68800 19.30800 40.66300
C  -10.16700 18.90000 40.86900
C  -8.16700 20.12500 41.83700
C  -7.55600 17.56300 39.07400
C  -6.05000 17.41100 38.74900
H  -5.67500 17.96100 37.36300
N  -13.12300 18.37700 41.56600
C  -12.66800 19.49900 40.90100
C  -13.77300 20.31600 40.55600
C  -14.94900 19.78700 41.10600
C  -14.45200 18.51400 41.68300
C  -13.70300 21.55600 39.66800
C  -16.33700 20.44100 41.15500
O  -16.42900 21.58700 40.72300
C  -17.53200 19.84100 41.77000
N  -13.84900 15.53500 42.33500
C  -15.07700 16.12000 42.44400
C  -16.18600 15.06400 42.55700
C  -15.42600 13.71900 42.36500
C  -13.97600 14.17900 42.41000
C  -17.10100 15.18400 43.81400
C  -15.85500 13.00900 41.08700
C  -16.14500 11.49600 41.20500
N  -11.08100 14.74600 41.99200
C  -11.55600 13.49400 42.30900
C  -10.43100 12.59100 42.24900
C  -9.33100 13.36500 41.87200
C  -9.80400 14.64000 41.69000
C  -10.44600 11.13000 42.44800
C  -7.92300 13.32500 41.46300
O  -7.12000 12.43500 41.38000
C  -7.50200 14.80300 41.16100
C  -6.46300 15.21000 42.22900
O  -6.73600 15.21800 43.44100
O  -5.43100 15.77500 41.61400
C  -4.41600 16.17500 42.56700
H  -11.03800 20.83800 40.45500
H  -16.35700 17.68300 42.23000
H  -13.36900 12.21000 42.45700
H  -7.07600 17.98200 41.22700
H  -8.55900 19.93200 39.77800
H  -8.21600 21.17100 41.53500
H  -7.12000 19.92100 42.06200
H  -8.68800 20.03900 42.79000
H  -7.98300 18.24200 38.33600
H  -8.04500 16.60400 38.89900
H  -5.75600 16.36400 38.67100
H  -5.42600 17.99900 39.42300
H  -14.65400 21.77100 39.17900
H  -13.00600 21.27800 38.87800
H  -13.42700 22.44000 40.24300
H  -18.40500 20.37900 41.40100
H  -17.47300 19.81500 42.85800
H  -17.63600 18.83400 41.36500
H  -16.72700 15.26900 41.63300
H  -15.48900 13.09800 43.25800
H  -17.84300 15.98100 43.75300
H  -16.52900 15.37400 44.72300
H  -17.52400 14.19400 43.98500
H  -15.02300 13.11900 40.39200
H  -16.77400 13.36500 40.62300
H  -17.19000 11.23800 41.03600
H  -15.90800 11.12300 42.20200
H  -15.49900 11.00200 40.47900
H  -10.87500 10.60000 41.59800
H  -10.99900 10.92600 43.36500
H  -9.40200 10.83000 42.54000
H  -6.97700 14.87300 40.20900
H  -3.51700 15.98200 41.98200
H  -4.36200 15.55800 43.46300
H  -4.49900 17.24900 42.73400

