158

Mg 47.22000 16.66200 28.51900
C  45.17900 16.57700 31.37200
C  49.44600 18.65300 30.41300
C  48.74300 17.67500 25.62200
C  44.66200 15.31300 26.82200
N  47.25300 17.45100 30.70100
C  46.35700 17.23800 31.69300
C  46.91800 17.56500 33.02500
C  48.13300 18.51400 32.61600
C  48.33400 18.18100 31.13400
C  47.78500 19.99400 32.83800
C  47.38900 16.26800 33.78000
C  47.13900 16.16500 35.29900
H  46.70300 17.41700 36.02100
N  48.97200 17.77700 28.10400
C  49.71700 18.47100 29.01400
C  50.87000 19.12200 28.31000
C  50.66900 18.90100 26.94800
C  49.44000 18.08500 26.80800
C  51.85400 20.05100 29.07500
C  51.49100 19.52000 25.81400
O  51.17600 19.36400 24.64000
C  52.78600 20.36800 25.99200
N  46.79600 16.57600 26.49800
C  47.52200 17.00900 25.48100
C  46.79000 16.87900 24.10600
C  45.77400 15.82400 24.53200
C  45.72900 15.80200 26.06800
C  46.15200 18.16900 23.52100
C  46.02200 14.31900 23.96100
C  45.03600 13.76100 22.97100
N  45.34900 15.95400 28.98700
C  44.42800 15.41500 28.18000
C  43.29100 14.95300 28.91100
C  43.56500 15.41900 30.15400
C  44.75700 16.09500 30.17000
C  42.18900 14.17700 28.32500
C  42.99600 15.45200 31.51500
O  41.92800 15.05000 31.95000
C  44.13200 16.12900 32.39300
C  43.47000 17.27800 33.06700
O  43.31300 18.41400 32.60200
O  42.99800 16.92800 34.33400
C  42.38900 17.93800 35.17700
H  50.08400 19.25600 31.06300
H  49.30700 18.00100 24.74500
H  43.86600 14.75100 26.32800
H  46.15600 18.15400 33.53500
H  49.13800 18.37100 33.01400
H  47.83000 20.67500 31.98700
H  48.41400 20.32400 33.66500
H  46.74900 20.07200 33.16700
H  48.47100 16.16200 33.69900
H  46.95800 15.42300 33.24200
H  48.02900 15.71800 35.74400
H  46.37600 15.39500 35.41200
H  52.86700 19.80600 28.75600
H  51.92100 20.06000 30.16300
H  51.83400 21.04900 28.63700
H  53.27100 20.64200 25.05500
H  53.33400 19.61900 26.56400
H  52.68000 21.28700 26.56800
H  47.54300 16.49900 23.41500
H  44.80600 16.19700 24.19800
H  45.08800 18.29300 23.72200
H  46.30500 18.13700 22.44300
H  46.59600 19.06600 23.95200
H  46.07900 13.72300 24.87200
H  47.05200 14.36800 23.60600
H  44.76600 12.71400 23.10400
H  45.43900 13.72400 21.95900
H  44.15000 14.38700 22.87000
H  42.64700 13.39800 27.71500
H  41.60100 14.83100 27.68200
H  41.58300 13.81600 29.15700
H  44.34900 15.32000 33.09100
H  42.51700 17.65900 36.22300
H  41.34300 18.04300 34.89000
H  42.87300 18.90700 35.05900
Mg -11.88500 16.30900 40.76500
C  -8.72000 14.83400 40.34700
C  -10.52900 19.22100 39.31900
C  -15.04300 17.64600 40.45900
C  -13.25300 13.02400 40.89100
N  -9.78200 16.92000 39.93200
C  -8.66300 16.21000 40.05100
C  -7.55600 17.04900 39.44000
C  -8.11900 18.46600 39.29500
C  -9.55500 18.20800 39.54200
C  -7.44400 19.55200 40.14300
C  -7.06500 16.45800 38.11500
C  -5.48500 16.49500 37.86800
H  -5.01700 17.07600 36.56500
N  -12.65500 18.19500 40.10400
C  -11.90100 19.20500 39.60100
C  -12.76400 20.37000 39.27700
C  -14.10500 19.96500 39.67900
C  -13.99600 18.60300 40.20600
C  -12.21100 21.69100 38.83500
C  -15.34100 20.88000 39.56700
O  -15.23600 22.04300 39.21200
C  -16.70500 20.36800 39.93400
N  -13.84200 15.41700 40.53200
C  -14.96400 16.15200 40.55600
C  -16.21700 15.26100 40.50800
C  -15.65700 13.84300 40.82800
C  -14.14200 14.12500 40.80700
C  -17.37200 15.73800 41.39600
C  -16.17900 12.73700 39.81100
C  -17.01000 11.64900 40.45900
N  -11.20500 14.31500 40.76900
C  -11.87600 13.15100 40.86200
C  -10.89000 12.04000 40.87000
C  -9.67100 12.69200 40.72200
C  -9.90000 14.05000 40.62200
C  -11.13900 10.55600 41.04900
C  -8.22400 12.40600 40.58800
O  -7.62000 11.30800 40.62000
C  -7.58500 13.77300 40.26900
C  -6.60100 13.92900 41.36900
O  -6.78900 14.10600 42.57500
O  -5.39500 14.10200 40.79400
C  -4.26600 14.44100 41.63000
H  -10.05700 20.12800 38.93500
H  -16.05100 18.06600 40.48300
H  -13.72600 12.04200 40.95800
H  -6.69400 17.17600 40.09600
H  -8.01000 18.86700 38.28700
H  -6.39200 19.30200 40.27700
H  -8.00900 19.72700 41.05900
H  -7.48900 20.49000 39.58900
H  -7.47400 17.12200 37.35300
H  -7.41700 15.44800 37.90000
H  -5.15700 15.46500 38.01000
H  -5.00400 17.10000 38.63700
H  -11.45000 21.54400 38.06800
H  -11.66100 22.21800 39.61500
H  -12.86900 22.48900 38.49300
H  -17.37600 21.22300 39.85500
H  -16.69000 20.02300 40.96800
H  -17.04600 19.66100 39.17900
H  -16.54300 15.36200 39.47300
H  -15.87100 13.61400 41.87200
H  -17.06200 16.15000 42.35600
H  -17.91000 14.83200 41.67600
H  -18.09800 16.34600 40.85600
H  -15.37700 12.24000 39.26500
H  -16.84400 13.18300 39.07200
H  -16.64300 10.68900 40.09500
H  -18.06100 11.75700 40.19000
H  -16.86400 11.58600 41.53700
H  -11.35600 10.36400 42.09900
H  -10.29700 9.92900 40.75300
H  -12.08800 10.38400 40.54200
H  -7.12200 13.83800 39.28400
H  -4.59300 14.65400 42.64800
H  -3.93100 15.41900 41.28700
H  -3.51700 13.64800 41.63500

