158

Mg 46.38300 25.37400 28.89900
C  47.20200 27.68200 31.34500
C  45.02900 23.31900 31.33400
C  46.06500 22.96200 26.55100
C  47.65200 27.47400 26.33500
N  46.14200 25.53700 31.00700
C  46.36800 26.64600 31.78100
C  45.99700 26.37800 33.26700
C  45.48100 24.89000 33.18100
C  45.59200 24.50900 31.74100
C  46.31100 23.85600 34.04600
C  44.93200 27.38400 33.88400
C  45.41300 28.12400 35.15500
H  45.75600 27.33800 36.42000
N  45.79100 23.36600 29.00400
C  45.20100 22.69300 30.07900
C  44.80600 21.37000 29.67200
C  45.13500 21.27200 28.31200
C  45.75300 22.53800 27.90500
C  44.15600 20.35100 30.63800
C  44.89700 20.06400 27.41200
O  45.16800 20.05200 26.25500
C  44.22900 18.86600 28.01900
N  46.71000 25.27400 26.75200
C  46.47300 24.15600 26.00300
C  46.47900 24.37900 24.48300
C  47.11700 25.80200 24.46700
C  47.16500 26.21700 25.93000
C  47.44800 23.41200 23.65100
C  46.51500 26.88100 23.54600
C  47.47200 27.45600 22.55600
N  47.22900 27.22500 28.83100
C  47.70600 27.93800 27.70700
C  48.41700 29.13700 28.28400
C  48.23300 29.08900 29.66700
C  47.48000 27.95700 29.97700
C  49.33700 29.99700 27.48000
C  48.47500 29.80800 31.01100
O  49.04200 30.82300 31.32100
C  47.87700 28.79200 32.11500
C  49.00500 28.44500 33.00200
O  50.11500 27.97100 32.66600
O  48.71300 28.78700 34.27800
C  49.62100 28.18600 35.32600
H  44.64200 22.70600 32.15000
H  46.01200 22.17700 25.79300
H  48.11000 28.02600 25.51100
H  46.94100 26.53300 33.79000
H  44.48300 24.78900 33.60700
H  45.68400 23.46300 34.84600
H  47.12800 24.44400 34.46400
H  46.68700 22.99900 33.48600
H  44.00600 26.85700 34.11200
H  44.72900 28.06300 33.05500
H  44.61400 28.81900 35.41600
H  46.26000 28.76800 34.92000
H  43.10100 20.28300 30.37400
H  44.20400 20.54100 31.71000
H  44.59700 19.35500 30.60000
H  43.23900 19.20200 28.32900
H  44.87600 18.45800 28.79500
H  44.20200 18.03700 27.31200
H  45.42700 24.35000 24.19900
H  48.16200 25.63600 24.20400
H  48.25200 23.06100 24.29800
H  47.88100 23.87100 22.76300
H  46.83300 22.60700 23.25100
H  46.03200 27.59600 24.21300
H  45.63500 26.49600 23.03100
H  47.56500 28.48600 22.90100
H  47.02800 27.43300 21.56100
H  48.43600 26.94700 22.54600
H  50.15000 29.33900 27.17400
H  49.81900 30.68700 28.17300
H  48.94300 30.48500 26.58900
H  47.10500 29.28400 32.70600
H  49.18300 27.21800 35.56800
H  49.65500 28.87200 36.17200
H  50.64000 27.97700 35.00100
Mg 47.84400 34.77400 26.97000
C  45.85700 33.45400 29.68600
C  48.55100 37.47600 28.93500
C  48.77400 36.30600 24.19800
C  46.94200 31.87700 25.14200
N  47.28100 35.38400 29.06700
C  46.60500 34.54300 30.00700
C  46.84400 35.09000 31.41600
C  47.47100 36.49500 31.14100
C  47.80700 36.48100 29.68200
C  46.48600 37.68300 31.30500
C  47.92100 34.22800 32.18300
C  48.09800 34.32300 33.65500
H  47.25900 35.29000 34.49100
N  48.63500 36.56500 26.61000
C  48.92700 37.56000 27.54800
C  49.66800 38.65500 26.90900
C  49.69600 38.31800 25.57300
C  48.94900 37.02000 25.42400
C  50.28900 39.89000 27.59900
C  50.35800 39.04200 24.39200
O  50.30500 38.56200 23.25400
C  51.06700 40.35100 24.59400
N  47.81900 34.19800 24.96400
C  48.25900 35.01900 23.98800
C  48.38900 34.33200 22.66900
C  48.13700 32.83700 23.08700
C  47.62300 32.90800 24.50400
C  47.43600 34.79100 21.49400
C  49.47800 31.98900 22.99500
C  50.25900 31.62300 24.27900
N  46.71000 33.04500 27.28300
C  46.45500 31.97300 26.45000
C  45.47300 31.03900 27.03200
C  45.20500 31.60500 28.27900
C  45.98600 32.78300 28.44100
C  44.92700 29.79300 26.55800
C  44.47400 31.37600 29.49700
O  43.66300 30.52800 29.92100
C  44.86800 32.60600 30.44900
C  45.30000 32.06300 31.79600
O  45.75700 30.96700 32.04500
O  44.89800 32.98100 32.72200
C  44.97400 32.35500 34.07500
H  48.74700 38.29700 29.62800
H  49.11500 36.57600 23.19600
H  46.73100 30.90200 24.69800
H  45.89700 35.09900 31.95500
H  48.39400 36.75700 31.65900
H  46.04000 37.50900 32.28400
H  45.63300 37.69300 30.62700
H  46.92000 38.68300 31.30800
H  48.85400 34.52500 31.70500
H  47.80300 33.18600 31.88600
H  49.15300 34.42600 33.90900
H  47.79800 33.32200 33.96400
H  49.74100 40.79700 27.34400
H  51.35000 39.77300 27.37700
H  50.11900 39.70300 28.65900
H  51.41400 40.66100 23.60800
H  51.92600 40.09500 25.21500
H  50.34600 41.05400 25.01000
H  49.42800 34.45000 22.36300
H  47.31700 32.46000 22.47500
H  46.50600 34.22800 21.41700
H  47.92200 34.74300 20.52000
H  47.19000 35.83500 21.69000
H  50.22200 32.25200 22.24300
H  49.05400 31.02500 22.71300
H  51.34200 31.70700 24.19800
H  50.10500 30.55200 24.40500
H  49.91400 32.09200 25.20100
H  45.40100 29.40300 25.65700
H  43.88200 29.94800 26.29000
H  44.93300 29.02000 27.32600
H  44.08500 33.32600 30.68700
H  44.55800 31.34800 34.10600
H  44.28800 32.94500 34.68200
H  45.98300 32.42700 34.47900

