158

Mg 29.93500 58.91000 39.88200
C  27.53900 56.59700 38.95400
C  32.39400 56.82500 38.67900
C  32.16700 61.50000 40.08600
C  27.22900 61.18800 40.66500
N  29.96500 56.92000 38.98900
C  28.81900 56.17800 38.69200
C  29.28400 54.77600 38.02300
C  30.81300 54.77200 38.23500
C  31.07500 56.27500 38.68100
C  31.36200 53.60300 39.03700
C  28.74000 54.75600 36.57500
C  27.93300 53.50200 36.12400
H  27.10400 53.85900 34.86900
N  32.05000 59.16600 39.44400
C  32.86000 58.13600 38.98700
C  34.21000 58.71600 38.81900
C  34.18500 60.08800 39.26700
C  32.73400 60.26000 39.63000
C  35.34500 57.92200 38.32100
C  35.33500 61.02300 39.29700
O  36.43300 60.59000 38.92600
C  35.36900 62.36000 40.07300
N  29.71100 61.04100 40.28200
C  30.85100 61.82200 40.41800
C  30.42000 63.24100 40.86800
C  28.89000 63.16000 41.11800
C  28.55000 61.74900 40.65100
C  31.28500 63.84100 41.97800
C  28.08900 64.23400 40.38100
C  27.09600 65.02500 41.30200
N  27.83100 58.92600 39.93600
C  26.92400 59.90800 40.15800
C  25.58200 59.37500 39.97500
C  25.77700 58.12400 39.45700
C  27.13200 57.90200 39.43800
C  24.29900 60.13600 40.19100
C  25.08400 57.01700 38.88100
O  23.87200 56.81900 38.63500
C  26.21700 55.93000 38.61100
C  25.99100 54.76000 39.45600
O  26.44700 54.63900 40.56500
O  25.15300 53.84800 38.87600
C  24.69800 52.58700 39.60300
H  33.17700 56.09000 38.48300
H  32.85200 62.33200 40.26000
H  26.46300 61.92700 40.91200
H  28.80200 53.92800 38.50900
H  31.29500 54.67600 37.26200
H  31.48700 53.92400 40.07100
H  32.26000 53.18300 38.58200
H  30.74400 52.70900 39.11600
H  29.49800 54.82500 35.79400
H  28.21800 55.70200 36.42900
H  27.22600 53.31700 36.93200
H  28.55000 52.64200 35.86700
H  35.02900 56.88000 38.28800
H  36.16200 57.96300 39.04000
H  35.67500 58.21400 37.32400
H  34.74900 62.25000 40.96400
H  34.83500 63.09800 39.47500
H  36.38100 62.66800 40.33500
H  30.55500 63.97300 40.07200
H  28.72800 63.27900 42.18900
H  32.23500 63.30800 42.01200
H  30.74900 63.69200 42.91500
H  31.37700 64.91300 41.80700
H  27.55700 63.78500 39.54200
H  28.77500 64.99800 40.01700
H  26.40000 65.51000 40.61800
H  27.55400 65.77300 41.95000
H  26.60000 64.27700 41.92000
H  24.18300 60.43700 41.23200
H  23.41000 59.61100 39.84200
H  24.50600 61.05900 39.64900
H  26.11000 55.60000 37.57800
H  25.05600 52.65500 40.63000
H  25.24800 51.72900 39.21600
H  23.62500 52.45500 39.46300
Mg 26.63800 49.91400 26.62300
C  24.66100 50.90900 29.33400
C  28.97900 48.83900 28.66400
C  28.41100 48.80000 23.90500
C  24.16800 51.32400 24.43300
N  26.75900 49.92900 28.75600
C  25.83700 50.33200 29.73700
C  26.45000 50.16400 31.12300
C  27.82600 49.52500 30.90200
C  27.87300 49.45300 29.32800
C  29.09400 50.26000 31.49600
C  25.50300 49.24900 31.98600
C  24.90700 49.83500 33.29900
H  25.88400 50.02000 34.51100
N  28.52500 48.92500 26.36100
C  29.34300 48.59300 27.37200
C  30.57600 48.05300 26.81100
C  30.40400 48.17700 25.40100
C  29.04700 48.62500 25.13000
C  31.73500 47.62900 27.68900
C  31.47900 47.96100 24.35400
O  31.32600 48.23900 23.15100
C  32.81600 47.68000 24.80800
N  26.40300 50.14200 24.42800
C  27.21400 49.51000 23.57000
C  26.80600 49.75600 22.10500
C  25.50900 50.60300 22.26000
C  25.34700 50.72100 23.82000
C  27.81400 50.63600 21.30200
C  24.20900 50.01300 21.58000
C  23.24200 51.15200 21.18800
N  24.86300 50.89400 26.77600
C  23.96800 51.40900 25.80600
C  22.87500 52.07600 26.44600
C  23.04500 51.80300 27.80500
C  24.23800 51.09700 27.99900
C  21.81200 52.97900 25.80900
C  22.44300 52.13600 29.05400
O  21.44000 52.76300 29.29800
C  23.53500 51.52300 30.13800
C  23.91600 52.64000 31.04900
O  24.86000 53.35300 30.93500
O  22.97100 52.81000 32.00700
C  23.32700 53.64700 33.14700
H  29.68500 48.42400 29.38700
H  28.85600 48.42400 22.98100
H  23.41400 51.88200 23.87500
H  26.43400 51.16100 31.56300
H  27.71600 48.48500 31.21100
H  28.82800 51.30200 31.67300
H  29.93000 50.24200 30.79700
H  29.47300 49.84200 32.42800
H  26.07000 48.35600 32.24700
H  24.71200 48.93100 31.30600
H  24.09200 49.20400 33.65300
H  24.55000 50.82200 33.00300
H  32.63200 48.22100 27.50400
H  31.98200 46.63000 27.33000
H  31.52200 47.55800 28.75500
H  33.07000 48.45700 25.52900
H  33.51900 47.72200 23.97600
H  32.85000 46.63600 25.12100
H  26.73400 48.80300 21.58100
H  25.68200 51.65300 22.02400
H  28.51400 51.22000 21.89900
H  27.34500 51.39700 20.67800
H  28.25700 49.95600 20.57500
H  23.70000 49.42800 22.34600
H  24.41000 49.44400 20.67300
H  22.34800 51.22400 21.80900
H  23.04900 51.06200 20.11900
H  23.85000 52.05500 21.23700
H  21.19900 52.34900 25.16400
H  22.21700 53.82800 25.25900
H  21.25000 53.48100 26.59600
H  23.09600 50.75500 30.77600
H  24.16100 53.12900 33.62000
H  22.47300 53.67500 33.82300
H  23.56700 54.65600 32.81100

