158

Mg 45.06700 4.38600 47.03300
C  43.35800 7.50400 46.73100
C  41.97600 2.91200 46.37300
C  46.78700 1.57800 46.59500
C  48.15500 6.21500 46.87100
N  42.80500 5.24800 46.48700
C  42.39900 6.51000 46.50900
C  40.86600 6.51800 46.25500
C  40.52100 4.97800 46.23000
C  41.81700 4.32700 46.37700
C  39.46900 4.59000 47.30000
C  40.34300 7.35500 44.97700
C  41.25900 7.37300 43.69600
H  40.72000 6.42600 42.63200
N  44.48600 2.47500 46.58400
C  43.16500 2.07700 46.36100
C  43.24900 0.64800 46.10800
C  44.62100 0.21600 46.33300
C  45.36300 1.45200 46.54000
C  42.10700 -0.15800 45.74900
C  45.16100 -1.15300 46.14700
O  44.35300 -2.00100 45.79200
C  46.57400 -1.51300 46.36300
N  47.20800 3.94400 46.59600
C  47.58800 2.67400 46.66000
C  49.18500 2.53200 46.66500
C  49.61500 4.03800 46.65500
C  48.22600 4.81700 46.71500
C  49.57800 1.74100 47.94700
C  50.45700 4.47200 45.45300
C  51.70100 3.62900 45.05200
N  45.70800 6.36800 46.94800
C  46.93600 6.94700 46.86000
C  46.84500 8.38600 46.85000
C  45.43000 8.61400 46.86500
C  44.78400 7.40800 46.97800
C  47.94000 9.37500 46.97000
C  44.35200 9.66900 46.88400
O  44.37800 10.89600 46.80000
C  42.94900 8.89900 46.74400
C  42.20200 9.28900 47.97800
O  42.11300 8.59700 49.00300
O  41.42400 10.41300 47.75800
C  40.49800 10.57200 48.85700
H  40.99200 2.43800 46.37200
H  47.49100 0.74400 46.60000
H  49.11700 6.73200 46.86500
H  40.55200 7.03800 47.16000
H  40.06100 4.69200 45.28400
H  39.85900 3.84600 47.99500
H  38.63200 4.18000 46.73500
H  39.25800 5.42400 47.97000
H  40.00400 8.34000 45.29600
H  39.40000 6.87100 44.72100
H  42.28100 7.03100 43.86000
H  41.25900 8.39000 43.30500
H  41.84700 -0.96500 46.43300
H  42.15700 -0.66500 44.78500
H  41.20400 0.44700 45.66900
H  46.83000 -2.57000 46.29100
H  46.93900 -1.16200 47.32800
H  47.09800 -1.13300 45.48600
H  49.56200 2.14700 45.71800
H  50.07800 4.35600 47.58900
H  49.73000 0.70300 47.65000
H  48.80900 1.71700 48.71900
H  50.49500 2.04600 48.45000
H  50.71800 5.48600 45.75600
H  49.86500 4.52900 44.54000
H  51.70500 3.16000 44.06900
H  51.85400 2.83400 45.78300
H  52.61700 4.21900 45.08600
H  48.68800 9.09200 47.71100
H  47.46300 10.32600 47.20900
H  48.59900 9.47000 46.10700
H  42.60500 9.37700 45.82700
H  39.81000 9.73000 48.92600
H  39.90600 11.45700 48.62400
H  41.09000 10.71300 49.76200
Mg 29.55300 57.99800 41.16700
C  26.74600 56.32000 39.93600
C  31.48800 55.36800 39.95800
C  32.12000 60.02300 41.26500
C  27.35400 60.83300 41.93600
N  29.12900 56.05800 40.08400
C  27.92600 55.58700 39.68600
C  28.15500 54.33100 38.91800
C  29.57000 53.76300 39.33100
C  30.09600 55.13500 39.88600
C  29.60500 52.69600 40.35100
C  28.04300 54.69500 37.41100
C  26.96200 53.86000 36.62300
H  26.24100 54.62400 35.45700
N  31.56100 57.72600 40.73700
C  32.15000 56.60000 40.21500
C  33.58400 56.80200 40.15900
C  33.78300 58.12800 40.75300
C  32.44300 58.70200 40.87600
C  34.48700 55.64200 39.72000
C  35.15700 58.64800 40.92800
O  36.24400 58.13000 40.57400
C  35.29800 60.04500 41.65000
N  29.69000 60.07300 41.52800
C  30.92600 60.66800 41.57000
C  30.84900 62.02400 42.23400
C  29.31200 62.38200 42.19200
C  28.72700 61.04700 41.88800
C  31.50900 62.09100 43.67100
C  29.03900 63.51500 41.13400
C  27.66700 64.13700 41.31400
N  27.49400 58.46100 41.08800
C  26.76300 59.60200 41.58800
C  25.38200 59.33800 41.41100
C  25.29400 58.06100 40.72700
C  26.60600 57.56500 40.58800
C  24.29500 60.37600 41.58800
C  24.41800 57.04300 40.19400
O  23.18400 57.06100 40.21800
C  25.28100 55.89900 39.56000
C  25.04300 54.59100 40.26600
O  25.26000 54.43500 41.41500
O  24.33900 53.71600 39.42700
C  23.92800 52.48700 40.05500
H  32.04600 54.46000 39.72400
H  32.94400 60.72600 41.40700
H  26.72300 61.68800 42.18700
H  27.37300 53.59300 39.09600
H  30.14700 53.44300 38.46300
H  29.71000 53.10000 41.35800
H  30.44900 52.03100 40.16900
H  28.64400 52.21900 40.15800
H  29.04200 54.57900 36.99100
H  27.73200 55.72600 37.24500
H  26.16100 53.39200 37.19700
H  27.43000 52.95000 36.25000
H  34.25500 55.03000 38.84900
H  34.43700 54.99500 40.59600
H  35.50700 56.01300 39.61700
H  34.98500 60.88000 41.02400
H  36.26300 60.29200 42.09300
H  34.64500 59.95200 42.51800
H  31.39600 62.64600 41.52600
H  28.83200 62.75700 43.09600
H  31.54900 61.07900 44.07500
H  30.82800 62.57900 44.36800
H  32.54400 62.41900 43.58300
H  29.06400 63.03300 40.15700
H  29.76300 64.31300 41.30200
H  27.10100 64.02400 40.39000
H  27.68300 65.17400 41.65000
H  27.09200 63.69500 42.12800
H  23.37800 59.83500 41.35600
H  24.47800 61.24800 40.96100
H  24.27300 60.74100 42.61500
H  25.11200 56.05400 38.49500
H  24.67900 52.06500 40.72200
H  23.55200 51.79200 39.30300
H  23.01300 52.72100 40.59900

