158

Mg 47.23100 25.43400 28.22200
C  47.83100 27.43700 31.04200
C  46.55200 22.82800 30.34000
C  47.35400 23.50800 25.77100
C  48.13100 28.21400 26.24800
N  47.14900 25.23600 30.43900
C  47.44800 26.16900 31.38600
C  47.08500 25.66200 32.73300
C  46.77700 24.09400 32.52000
C  46.79600 24.05800 30.96700
C  47.71800 23.07600 33.28900
C  45.97500 26.42800 33.55100
C  46.33200 26.76700 34.99100
H  45.19200 26.79200 36.00600
N  46.81500 23.48300 28.02900
C  46.51600 22.52200 29.01400
C  46.06200 21.33900 28.45900
C  46.32700 21.50100 27.09900
C  46.84400 22.86900 26.89000
C  45.49100 20.20700 29.24100
C  46.18300 20.51100 25.95700
O  46.53900 20.78900 24.81000
C  45.52300 19.17500 26.28600
N  47.74900 25.77600 26.27600
C  47.66800 24.77100 25.38700
C  48.02300 25.15900 24.01800
C  47.99300 26.71800 24.15500
C  47.98000 26.95300 25.65800
C  49.39400 24.56200 23.58000
C  46.88700 27.53600 23.46600
C  47.44700 28.89200 23.00200
N  47.85400 27.41400 28.52800
C  48.12400 28.45200 27.64800
C  48.62300 29.57000 28.32500
C  48.47800 29.26500 29.67000
C  48.07800 27.95100 29.75400
C  49.12500 30.83300 27.76800
C  48.70200 29.77900 30.95300
O  49.10700 30.87200 31.32500
C  48.23300 28.58100 31.94100
C  49.30400 28.28400 32.89200
O  50.21600 27.48400 32.75500
O  49.02400 28.93200 34.08000
C  49.75200 28.44900 35.28100
H  46.28400 22.03800 31.04500
H  47.59200 22.72600 25.04700
H  48.31900 29.06100 25.58500
H  48.07000 25.69400 33.19900
H  45.75600 23.91500 32.85800
H  48.26700 22.52400 32.52600
H  46.94000 22.50100 33.79000
H  48.42300 23.56000 33.96600
H  45.06500 25.82900 33.59500
H  45.68000 27.39500 33.14500
H  46.97900 27.64400 35.00600
H  46.97600 25.95800 35.33600
H  44.54900 19.83400 28.83900
H  45.28500 20.43600 30.28600
H  46.20300 19.38300 29.29700
H  46.30200 18.90600 26.99900
H  45.54000 18.66000 25.32500
H  44.54100 19.44100 26.67800
H  47.23300 24.82000 23.34800
H  48.94000 27.14200 23.82100
H  49.92400 24.10000 24.41300
H  50.05300 25.26300 23.06800
H  49.22100 23.74700 22.87700
H  46.14100 27.73000 24.23600
H  46.33800 27.02100 22.67900
H  48.44800 29.17300 23.32900
H  46.81900 29.66100 23.45200
H  47.26900 29.04000 21.93700
H  49.16200 30.85800 26.67800
H  50.17700 30.94400 28.03100
H  48.67000 31.71600 28.21700
H  47.45000 29.07100 32.52000
H  50.15600 27.45700 35.08000
H  49.01300 28.47800 36.08200
H  50.58600 29.14300 35.38800
Mg -0.08400 43.27700 25.07300
C  2.34900 42.30000 27.60100
C  -2.51400 42.39300 27.36600
C  -2.26200 43.76700 22.77900
C  2.63500 43.73700 22.87700
N  -0.09600 42.48200 27.29400
C  1.01700 42.23100 28.07500
C  0.60600 41.95700 29.49200
C  -0.96000 41.66000 29.33400
C  -1.23100 42.23200 27.92400
C  -1.31200 40.16900 29.56200
C  1.08700 43.04700 30.56900
C  0.24700 43.34700 31.76900
H  -0.30200 42.18500 32.67900
N  -2.15900 43.18500 25.04600
C  -2.97500 42.75200 26.04700
C  -4.37300 42.97100 25.57300
C  -4.31300 43.39300 24.21500
C  -2.85800 43.44800 23.93000
C  -5.59000 42.67700 26.42700
C  -5.41300 43.76300 23.25000
O  -5.19700 44.15100 22.08600
C  -6.78300 43.74700 23.75500
N  0.21200 43.70200 23.07700
C  -0.90400 43.94700 22.37200
C  -0.51000 44.40300 21.00000
C  1.07300 44.38200 20.99700
C  1.36000 43.90300 22.38400
C  -1.23100 43.64600 19.78400
C  1.73800 45.78200 20.81700
C  1.66400 46.28400 19.37400
N  2.07300 43.03700 25.10200
C  3.00600 43.35700 24.16800
C  4.35900 43.08700 24.65000
C  4.15400 42.70800 26.01600
C  2.75900 42.79700 26.28700
C  5.63100 43.19800 23.90200
C  4.83500 42.33200 27.29400
O  5.99500 42.13300 27.58300
C  3.66700 42.16100 28.34800
C  3.97800 40.90900 29.02900
O  3.71300 39.80700 28.66400
O  4.51400 41.25400 30.20600
C  4.70500 40.10700 31.09800
H  -3.21100 41.94800 28.07800
H  -2.92700 44.16800 22.01100
H  3.53800 43.92700 22.29300
H  1.13300 41.05700 29.80800
H  -1.59900 42.21600 30.02000
H  -1.71600 39.87200 28.59400
H  -2.01600 40.10000 30.39100
H  -0.46500 39.51600 29.77400
H  1.37100 43.93500 30.00500
H  2.09100 42.77600 30.89600
H  -0.53500 44.02800 31.43200
H  0.84000 43.96100 32.44700
H  -6.10300 43.63500 26.50300
H  -5.24900 42.40500 27.42600
H  -6.28500 41.96900 25.97500
H  -7.06600 44.55800 24.42700
H  -7.00400 42.73300 24.08600
H  -7.49500 43.77900 22.93000
H  -0.82300 45.44600 20.94400
H  1.48000 43.67500 20.27400
H  -1.37600 44.28200 18.91000
H  -2.06600 43.11300 20.23800
H  -0.48500 42.87800 19.57600
H  2.77000 45.76900 21.16700
H  1.34000 46.61100 21.40200
H  0.81200 45.83000 18.86800
H  2.62100 46.05000 18.90700
H  1.43300 47.35000 19.37100
H  5.80800 44.22500 23.58200
H  5.41400 42.57400 23.03500
H  6.54300 42.73700 24.28100
H  3.75600 42.98600 29.05400
H  5.04400 39.23200 30.54300
H  3.84400 39.88400 31.72800
H  5.58500 40.17400 31.73700

