158

Mg -0.15700 43.85300 24.71100
C  2.06400 43.70000 27.43000
C  -2.69600 42.78300 26.82900
C  -2.16900 44.06800 22.18800
C  2.72500 44.27700 22.66700
N  -0.30400 43.29300 26.93500
C  0.69500 43.43600 27.84000
C  0.24900 43.01900 29.26400
C  -1.23600 42.50400 28.95600
C  -1.47600 42.95400 27.46300
C  -1.51400 41.02100 29.24200
C  0.26000 44.15400 30.25100
C  0.14000 43.76900 31.75900
H  0.11800 42.32200 32.14800
N  -2.22400 43.59600 24.54300
C  -3.02300 43.11200 25.52800
C  -4.35000 43.13000 24.94100
C  -4.24200 43.46200 23.57300
C  -2.87300 43.78400 23.35200
C  -5.53300 42.67900 25.66400
C  -5.28700 43.51200 22.44300
O  -5.11400 43.98200 21.34500
C  -6.66700 42.88800 22.69900
N  0.29400 44.09700 22.74900
C  -0.79200 44.19000 21.91800
C  -0.24400 44.13700 20.42200
C  1.20300 44.46700 20.65300
C  1.49800 44.30900 22.08800
C  -0.55800 42.66700 19.74100
C  1.61000 45.90100 20.06800
C  1.44100 47.05300 21.05200
N  1.99200 43.86500 24.88000
C  3.02000 44.08100 24.02700
C  4.21600 44.18200 24.64300
C  3.94500 44.00800 26.02300
C  2.55500 43.80900 26.14000
C  5.59100 44.45000 23.98300
C  4.49000 44.00500 27.36300
O  5.60900 44.14400 27.68900
C  3.30500 43.79400 28.35900
C  3.58700 42.50400 29.16500
O  3.80900 41.37600 28.68300
O  3.85100 42.84300 30.43000
C  4.43200 41.77000 31.20200
H  -3.58900 42.38200 27.31300
H  -2.78700 44.18500 21.29500
H  3.58900 44.53800 22.05300
H  0.84900 42.15800 29.55800
H  -1.98800 43.02700 29.54700
H  -2.08200 40.58800 28.41900
H  -2.20200 41.00700 30.08700
H  -0.62500 40.51200 29.61500
H  -0.52800 44.84900 29.96400
H  1.16500 44.71500 30.01800
H  -0.66200 44.41000 32.12600
H  1.03500 44.13600 32.26200
H  -5.52400 42.87500 26.73600
H  -5.71400 41.63800 25.39800
H  -6.38000 43.19400 25.20900
H  -6.50700 41.98700 23.29100
H  -7.00800 42.70300 21.68000
H  -7.38800 43.47800 23.26400
H  -0.82600 44.79700 19.77800
H  1.69700 43.63200 20.15600
H  -1.19100 42.05600 20.38500
H  0.29500 41.99600 19.64300
H  -1.19200 42.77800 18.86200
H  0.98200 46.00300 19.18300
H  2.64400 45.95200 19.72600
H  1.10100 46.68000 22.01800
H  0.59700 47.60500 20.64000
H  2.37200 47.61700 20.99700
H  5.75900 43.63000 23.28400
H  6.40200 44.43900 24.71100
H  5.65400 45.42200 23.49400
H  3.16400 44.65500 29.01200
H  4.57000 42.20000 32.19300
H  5.43500 41.59600 30.81200
H  3.78200 40.89600 31.17100
Mg -2.37600 34.13500 26.71600
C  -3.49700 32.38900 29.71600
C  -0.79600 36.32000 28.73400
C  -2.22200 36.12400 24.06000
C  -4.26700 31.75600 24.94400
N  -2.25900 34.36300 29.01000
C  -2.59000 33.46600 29.98000
C  -2.01100 33.86300 31.38200
C  -1.35800 35.23900 31.07600
C  -1.39700 35.29900 29.51400
C  -1.81100 36.52000 31.80600
C  -1.06700 32.79900 32.03800
C  -1.54000 32.23100 33.38400
H  -0.62400 32.41800 34.60300
N  -1.51200 35.92100 26.39900
C  -0.89400 36.63800 27.35100
C  -0.43200 37.86900 26.74800
C  -0.86200 37.94000 25.38600
C  -1.59500 36.62900 25.23000
C  0.44600 38.89700 27.46800
C  -0.59500 39.10600 24.33000
O  -1.05200 39.06200 23.17200
C  0.19100 40.33800 24.71700
N  -3.11400 33.95700 24.78600
C  -2.85800 34.91700 23.81700
C  -3.34500 34.49400 22.43900
C  -3.89700 33.02600 22.79200
C  -3.75800 32.86100 24.31000
C  -4.32500 35.52300 21.91200
C  -3.16400 31.83300 22.08300
C  -3.89000 31.08400 20.97900
N  -3.67500 32.46600 27.17300
C  -4.31900 31.55200 26.31100
C  -5.01900 30.52300 27.06600
C  -4.73500 30.81400 28.40700
C  -3.94200 32.00600 28.41500
C  -5.67100 29.31300 26.49500
C  -4.91200 30.35000 29.68100
O  -5.46600 29.36700 30.15500
C  -4.08200 31.30000 30.62500
C  -5.06600 31.79600 31.67700
O  -6.00300 32.58500 31.45200
O  -4.86700 31.23700 32.91000
C  -5.69700 31.60200 34.03800
H  -0.15600 36.93300 29.37100
H  -2.16400 36.89200 23.28700
H  -4.77800 30.96200 24.39600
H  -2.93200 34.05900 31.93100
H  -0.31200 35.20400 31.37900
H  -2.59400 36.17900 32.48400
H  -2.15300 37.20800 31.03300
H  -1.09200 37.02900 32.44800
H  -0.06300 33.17800 32.22800
H  -1.02200 32.02300 31.27400
H  -1.69900 31.15600 33.29900
H  -2.53600 32.65400 33.51800
H  1.50900 38.89000 27.22600
H  0.37000 38.82500 28.55300
H  0.02400 39.88600 27.28500
H  -0.42800 41.02500 25.29400
H  0.56100 40.71200 23.76200
H  1.05700 40.19000 25.36200
H  -2.51900 34.37800 21.73700
H  -4.97000 32.97800 22.61100
H  -5.33300 35.19300 22.16600
H  -4.15500 35.64600 20.84200
H  -4.18500 36.52500 22.31600
H  -3.04800 31.05200 22.83500
H  -2.15000 32.10400 21.79100
H  -4.20000 30.12800 21.40000
H  -3.18900 30.88700 20.16700
H  -4.80700 31.58300 20.66800
H  -5.38300 29.03000 25.48200
H  -6.74800 29.47000 26.44900
H  -5.46000 28.62500 27.31400
H  -3.25800 30.81200 31.14500
H  -5.23900 32.50000 34.45200
H  -5.68400 30.78300 34.75700
H  -6.71500 31.89600 33.78200

