158

Mg 42.86400 42.61400 26.39800
C  41.96700 44.91800 28.80600
C  44.10300 40.53800 28.91400
C  44.42900 40.63300 24.00100
C  42.21300 45.02800 23.97800
N  43.12400 42.73000 28.64200
C  42.47200 43.71900 29.36100
C  42.57100 43.39800 30.89800
C  43.39000 42.03300 30.88500
C  43.48700 41.63700 29.39300
C  44.75100 42.03400 31.58200
C  41.12400 43.29200 31.46000
C  40.78400 44.22400 32.58200
H  40.13600 43.78200 33.90700
N  44.02800 40.85100 26.44000
C  44.33600 40.08300 27.57300
C  44.80700 38.77300 27.11100
C  44.93900 38.86700 25.69600
C  44.51300 40.20600 25.31200
C  45.14700 37.73900 28.22100
C  45.41700 37.78900 24.72100
O  45.59600 37.92700 23.51200
C  45.56000 36.31700 25.27600
N  43.41200 42.80800 24.35000
C  43.79500 41.79700 23.53700
C  43.61400 42.09400 22.09700
C  42.80300 43.40500 22.17200
C  42.78000 43.75300 23.61900
C  44.84900 42.18900 21.17400
C  41.38400 43.30000 21.50800
C  40.32900 42.55900 22.34100
N  42.13200 44.56100 26.30900
C  42.00900 45.40100 25.31400
C  41.54500 46.65400 25.79800
C  41.48300 46.50700 27.20300
C  41.86700 45.20000 27.46400
C  41.36200 47.96700 24.97300
C  41.23500 47.24500 28.38000
O  40.79900 48.37100 28.56500
C  41.50900 46.21200 29.54100
C  42.51100 46.83300 30.46200
O  43.73300 46.81600 30.33300
O  41.92300 47.33200 31.56700
C  42.81600 47.63400 32.68100
H  44.23600 39.81000 29.71700
H  44.61500 39.88500 23.22700
H  41.96600 45.61600 23.09100
H  43.18300 44.17800 31.35000
H  42.84500 41.18100 31.29100
H  45.55000 41.73400 30.90400
H  44.78700 41.43200 32.48900
H  44.99300 43.04800 31.89900
H  40.87000 42.25300 31.66700
H  40.41800 43.58600 30.68400
H  40.07500 44.93300 32.15500
H  41.63300 44.86000 32.83200
H  45.01100 36.68900 27.96100
H  44.67800 37.84800 29.19900
H  46.21100 37.79500 28.44900
H  46.27700 36.39100 26.09300
H  46.01700 35.65200 24.54200
H  44.53400 36.03400 25.51400
H  42.99400 41.33200 21.62500
H  43.32600 44.16000 21.58600
H  45.45400 41.32400 21.44800
H  45.39500 43.13200 21.18000
H  44.54000 42.13700 20.13000
H  41.53600 42.83500 20.53400
H  40.97900 44.29100 21.30300
H  40.78500 42.12800 23.23200
H  39.75200 41.87000 21.72500
H  39.57800 43.31800 22.56100
H  41.46300 48.94800 25.43700
H  40.35900 47.89300 24.55300
H  42.05000 48.07300 24.13500
H  40.56500 46.19600 30.08700
H  42.13300 47.67200 33.52900
H  43.32900 48.58400 32.52900
H  43.49100 46.79100 32.83100
Mg -12.95700 15.90900 41.98300
C  -9.82500 14.22000 41.77500
C  -11.40700 18.61400 40.45000
C  -15.95000 17.16900 41.66300
C  -14.24700 12.85800 42.92300
N  -10.83600 16.33400 41.16500
C  -9.77800 15.54400 41.18600
C  -8.57000 16.22900 40.57300
C  -9.03700 17.68900 40.40100
C  -10.53000 17.55900 40.64100
C  -8.42100 18.63400 41.47700
C  -7.96200 15.51400 39.33100
C  -6.46400 15.33800 39.24200
H  -5.71900 16.02500 38.08700
N  -13.59300 17.70000 41.20700
C  -12.82500 18.71500 40.57600
C  -13.69600 19.80700 40.25900
C  -15.03400 19.38200 40.52500
C  -14.92300 18.04000 41.17300
C  -13.12600 21.11500 39.62900
C  -16.31000 20.11700 40.15400
O  -16.19400 21.16700 39.51900
C  -17.69000 19.57300 40.40500
N  -14.81600 15.05500 42.09700
C  -15.92900 15.81800 42.00400
C  -17.24200 15.10400 42.32900
C  -16.72100 13.63900 42.47100
C  -15.14200 13.85900 42.49100
C  -18.03200 15.62700 43.57700
C  -17.13700 12.73300 41.37900
C  -17.08400 11.15600 41.54000
N  -12.26200 13.97200 42.51800
C  -12.88400 12.80400 42.88700
C  -11.94900 11.68600 43.16700
C  -10.73200 12.29500 42.82000
C  -10.97300 13.61100 42.37700
C  -12.17900 10.29400 43.46300
C  -9.28300 11.97300 42.62600
O  -8.59700 11.03000 42.96000
C  -8.73700 13.16600 41.76900
C  -7.58800 13.54700 42.58200
O  -7.67900 13.89800 43.78100
O  -6.46500 13.58700 41.73400
C  -5.19800 13.95400 42.36500
H  -10.96100 19.52700 40.05000
H  -16.93600 17.63200 41.73300
H  -14.70400 11.93500 43.28400
H  -7.90300 16.20300 41.43500
H  -8.73600 18.11700 39.44500
H  -7.73100 19.29200 40.94800
H  -8.02300 18.05900 42.31300
H  -9.17300 19.29500 41.90800
H  -8.10500 16.14000 38.45000
H  -8.52400 14.60500 39.11900
H  -6.24700 14.27000 39.23200
H  -6.08700 15.61900 40.22500
H  -12.52200 20.99800 38.72900
H  -12.60000 21.70700 40.37700
H  -13.83000 21.87200 39.28100
H  -18.45300 20.30600 40.14300
H  -17.85300 19.51900 41.48100
H  -17.88100 18.58800 39.97700
H  -17.87900 15.15700 41.44600
H  -17.04100 13.17300 43.40300
H  -19.05100 15.88600 43.29000
H  -17.53600 16.50300 43.99400
H  -18.02800 14.90400 44.39200
H  -16.41600 13.04400 40.62300
H  -18.13500 13.07400 41.10200
H  -16.21700 10.75700 41.01500
H  -17.95400 10.73000 41.04000
H  -17.05500 10.87300 42.59200
H  -13.11100 10.25400 44.02700
H  -11.43200 9.93800 44.17300
H  -12.32100 9.68500 42.57100
H  -8.39200 12.74700 40.82300
H  -4.52600 14.14500 41.52900
H  -4.79900 13.11000 42.92700
H  -5.36900 14.77800 43.05800

