158

Mg 47.95300 24.99000 29.76100
C  48.53200 27.47000 32.26000
C  47.04100 22.73900 32.24900
C  47.72600 22.52000 27.50900
C  49.36300 27.19700 27.38100
N  47.67100 25.17200 31.95500
C  47.86100 26.25900 32.75100
C  47.38200 25.99100 34.09800
C  47.00100 24.41200 34.18200
C  47.29500 24.08200 32.72400
C  47.80200 23.59500 35.16500
C  46.33500 26.98700 34.66400
C  46.29200 27.51800 36.10600
H  47.01100 26.97100 37.34300
N  47.37600 22.91500 29.87100
C  47.02400 22.22700 30.94800
C  46.79400 20.82500 30.60600
C  46.93700 20.73400 29.23700
C  47.41200 22.06400 28.80800
C  46.39600 19.71800 31.59400
C  46.73400 19.55700 28.30300
O  46.77200 19.63900 27.08000
C  46.25400 18.30500 28.86000
N  48.61900 24.86200 27.72400
C  48.21700 23.79800 27.00000
C  48.47500 24.08000 25.45800
C  48.91400 25.60200 25.45700
C  49.01000 25.91000 26.87600
C  49.55600 23.23800 24.88100
C  47.88900 26.60800 24.77900
C  46.46300 26.75500 25.36400
N  48.81700 26.94800 29.72500
C  49.43800 27.69400 28.73200
C  49.85300 28.94800 29.25900
C  49.39400 28.90600 30.58400
C  48.87300 27.64200 30.86200
C  50.57800 30.00800 28.50700
C  49.47700 29.71300 31.82700
O  49.89100 30.79100 32.06500
C  48.88000 28.78500 32.99600
C  49.98500 28.55100 33.99200
O  50.87800 27.69900 33.88800
O  49.89900 29.41200 35.03200
C  51.01000 29.29400 36.04700
H  46.69600 22.00500 32.98000
H  47.67300 21.65100 26.85000
H  49.65500 27.95900 26.65600
H  48.31300 26.16400 34.63800
H  45.92900 24.30800 34.35000
H  48.56300 23.05700 34.59900
H  47.11700 22.93800 35.70100
H  48.38900 24.16800 35.88200
H  45.32700 26.58900 34.54300
H  46.30300 27.80400 33.94200
H  45.26200 27.44200 36.45500
H  46.60200 28.55900 36.02000
H  47.23200 19.04200 31.41400
H  45.48300 19.21200 31.28300
H  46.33600 19.99500 32.64700
H  47.02600 17.80800 29.44800
H  46.02500 17.62100 28.04400
H  45.28700 18.49900 29.32400
H  47.52500 23.98400 24.93400
H  49.90400 25.68600 25.00800
H  50.44300 23.79800 24.58500
H  49.22900 22.73400 23.97200
H  49.94700 22.52600 25.60800
H  47.80100 26.31400 23.73300
H  48.31600 27.60500 24.67000
H  46.44400 26.52200 26.42900
H  45.78000 26.03200 24.91600
H  46.07200 27.75600 25.18600
H  50.96600 29.54700 27.59800
H  51.45000 30.42100 29.01400
H  49.93700 30.83300 28.19600
H  47.97800 29.28700 33.34500
H  50.76600 28.47100 36.71900
H  50.89900 30.24300 36.57100
H  52.05500 29.16000 35.76700
Mg 48.84400 44.46800 42.87700
C  45.47300 43.91300 42.36000
C  49.43000 41.10200 41.93000
C  52.20600 45.05500 42.74700
C  48.23300 47.79300 42.91500
N  47.67400 42.79600 41.95300
C  46.29000 42.80300 42.03400
C  45.76100 41.46800 41.38800
C  46.97800 40.48000 41.70300
C  48.12800 41.48900 41.80500
C  46.74500 39.68100 42.97700
C  45.51400 41.71300 39.85600
C  44.40600 41.09500 39.04000
H  44.86200 40.56800 37.71300
N  50.53100 43.17800 42.58200
C  50.58800 41.85100 42.19100
C  51.92800 41.49200 41.87300
C  52.79000 42.58200 42.25200
C  51.81700 43.66300 42.66200
C  52.29500 40.17500 41.32400
C  54.27200 42.57000 42.19200
O  54.88600 41.61000 41.69600
C  54.94800 43.70100 42.80400
N  50.02300 46.14800 42.69900
C  51.40600 46.16800 42.78600
C  51.99400 47.57100 42.90500
C  50.68800 48.44600 42.70400
C  49.54800 47.39100 42.89700
C  52.58600 47.84200 44.29100
C  50.67300 49.06700 41.28100
C  49.87500 50.33900 41.06100
N  47.21000 45.65000 42.91200
C  47.05600 46.97700 42.93100
C  45.65400 47.37300 42.97400
C  44.96100 46.14000 42.88300
C  45.96000 45.16600 42.74200
C  45.10000 48.79700 42.91000
C  43.59300 45.60600 42.70500
O  42.45100 46.05700 42.73600
C  43.91200 44.06800 42.28300
C  43.14000 43.18300 43.21400
O  41.95900 43.15600 43.22800
O  44.03800 42.54300 44.05200
C  43.44000 41.67400 45.14200
H  49.54600 40.04300 41.69200
H  53.25700 45.35300 42.74900
H  48.21600 48.88500 42.90500
H  44.82300 41.18800 41.86900
H  47.04700 39.82000 40.83800
H  45.85900 40.08700 43.46600
H  47.53500 39.95100 43.67800
H  46.55500 38.61200 42.87600
H  46.49700 41.44300 39.47300
H  45.42100 42.79200 39.73000
H  43.77900 41.95700 38.81200
H  43.89200 40.28900 39.56400
H  52.63400 40.31500 40.29700
H  51.37000 39.63700 41.11700
H  52.91100 39.60700 42.02100
H  54.88500 44.52400 42.09200
H  56.00000 43.50100 43.00700
H  54.51300 43.96400 43.76800
H  52.83400 47.78800 42.24600
H  50.42700 49.27200 43.36600
H  52.46700 48.87400 44.62100
H  53.65500 47.63600 44.34000
H  52.18000 47.17800 45.05400
H  50.26000 48.30600 40.61900
H  51.70000 49.37700 41.08300
H  49.36200 50.81600 41.89600
H  48.97200 50.21300 40.46400
H  50.57700 51.07700 40.67300
H  45.36300 49.25800 41.95800
H  45.70200 49.44700 43.54400
H  44.02300 48.86500 43.05900
H  43.56800 43.96000 41.25400
H  44.21100 41.75700 45.90900
H  43.29700 40.64900 44.80300
H  42.54800 42.03200 45.65500

