158

Mg 40.13200 9.20400 29.92400
C  42.40400 10.60300 32.26300
C  38.26800 8.11600 32.57800
C  38.15400 7.86400 27.77900
C  42.36300 10.03800 27.37100
N  40.44000 9.32500 32.17400
C  41.29000 10.07500 32.88900
C  40.86000 10.12900 34.35400
C  39.82600 8.92400 34.32600
C  39.44700 8.78900 32.97400
C  40.27900 7.62300 35.01500
C  40.28300 11.52800 34.78500
C  40.07200 11.43100 36.31200
H  40.93700 12.23400 37.21600
N  38.43400 8.19100 30.17100
C  37.79200 7.76900 31.33300
C  36.47000 7.16400 30.97000
C  36.52400 7.02100 29.55700
C  37.75100 7.66200 29.11200
C  35.46700 6.54200 31.96900
C  35.51900 6.30300 28.60900
O  35.65300 6.10700 27.41700
C  34.44400 5.63500 29.27700
N  40.31200 8.82900 27.85900
C  39.23800 8.42800 27.20500
C  39.38000 8.56600 25.68800
C  40.87200 9.09300 25.52900
C  41.22900 9.34800 26.94200
C  39.07400 7.12200 24.98500
C  40.95000 10.29500 24.59000
C  40.47500 11.63400 25.14100
N  42.05400 10.09300 29.76500
C  42.78000 10.39400 28.65400
C  44.03500 11.02200 29.08500
C  43.89200 11.20500 30.49300
C  42.73000 10.56800 30.89700
C  45.10800 11.49300 28.11400
C  44.43500 11.87700 31.66300
O  45.44500 12.60500 31.79000
C  43.57700 11.42500 32.84500
C  44.46500 10.68400 33.77200
O  44.82200 9.53700 33.61200
O  44.69600 11.49600 34.87700
C  45.43900 10.92600 36.00300
H  37.71300 7.67100 33.40700
H  37.42600 7.55000 27.02800
H  43.02600 10.20200 26.52000
H  41.71400 9.86300 34.97700
H  38.93700 9.25300 34.86400
H  40.15100 6.77000 34.34800
H  39.85100 7.32100 35.97100
H  41.34600 7.77800 35.17400
H  39.41400 11.76300 34.17100
H  40.99500 12.29900 34.49100
H  40.01100 10.43800 36.75800
H  39.03800 11.76900 36.37000
H  34.53100 7.00100 31.65200
H  35.73200 6.88200 32.97000
H  35.50300 5.46100 31.84000
H  34.91500 4.83700 29.85000
H  33.72700 5.19100 28.58600
H  33.88200 6.26600 29.96500
H  38.63600 9.31000 25.40500
H  41.59700 8.34100 25.21900
H  39.95600 6.76100 24.45600
H  38.21400 7.13600 24.31600
H  38.87100 6.36800 25.74600
H  40.31100 10.17000 23.71600
H  41.99600 10.34100 24.28400
H  40.20100 11.76200 26.18800
H  39.74800 12.10600 24.48000
H  41.33100 12.30300 25.06500
H  44.65000 12.42600 27.78500
H  44.89900 10.72800 27.36600
H  46.05300 11.55700 28.65200
H  43.13200 12.29500 33.32900
H  44.63600 10.55700 36.64000
H  46.04700 11.70600 36.46100
H  46.07000 10.10300 35.66800
Mg 47.48800 25.32500 28.21700
C  48.96300 27.22800 30.70900
C  46.14500 23.35400 30.62000
C  46.83700 23.00100 25.87000
C  48.86000 27.39800 25.85500
N  47.51400 25.37400 30.40700
C  48.21400 26.18600 31.17300
C  47.88500 25.89100 32.68400
C  47.08900 24.56400 32.64500
C  46.90500 24.44100 31.13500
C  47.92700 23.34200 33.12100
C  47.10600 27.04100 33.44200
C  47.58000 27.06800 34.91600
H  46.61300 27.54700 36.02400
N  46.62200 23.48100 28.26800
C  45.99100 22.85100 29.30300
C  45.39200 21.57400 28.85700
C  45.73200 21.49100 27.47500
C  46.44100 22.67500 27.11800
C  44.71400 20.58700 29.87400
C  45.45500 20.19400 26.58800
O  45.89400 20.19000 25.43800
C  44.56800 19.04800 27.03900
N  47.88200 25.17100 26.18700
C  47.50400 24.12800 25.36000
C  47.89400 24.32000 23.91800
C  48.26900 25.86100 23.92900
C  48.32400 26.15600 25.43900
C  49.04600 23.32400 23.47300
C  47.32900 26.71100 23.03000
C  47.84500 26.85100 21.57500
N  48.66000 27.13000 28.21900
C  49.07400 27.86900 27.18300
C  49.73800 29.03900 27.65400
C  49.87700 28.81000 29.08900
C  49.08700 27.61300 29.39800
C  50.28500 30.23300 26.93200
C  50.44300 29.26600 30.35700
O  51.07300 30.26300 30.61800
C  49.83000 28.31400 31.49500
C  50.96700 27.78400 32.22000
O  51.90100 27.22500 31.68700
O  50.87300 28.03200 33.56700
C  52.04400 27.66900 34.37100
H  45.73000 22.64300 31.33700
H  46.82300 22.27600 25.05300
H  49.18000 28.07700 25.06300
H  48.85200 25.79500 33.17700
H  46.15400 24.56700 33.20400
H  48.72400 23.65700 33.79400
H  48.43600 22.76200 32.35100
H  47.39700 22.51800 33.59800
H  46.08600 26.66200 33.37300
H  47.34000 27.98800 32.95600
H  48.49500 27.65400 35.00600
H  47.86600 26.03000 35.08200
H  43.84900 20.08400 29.44300
H  44.42600 21.08300 30.80100
H  45.38400 19.76700 30.13300
H  45.08200 18.48600 27.81800
H  44.38900 18.39800 26.18200
H  43.55800 19.40800 27.23900
H  47.09900 24.18800 23.18400
H  49.28700 25.93600 23.54600
H  49.07800 23.02800 22.42400
H  49.04200 22.46900 24.14900
H  50.03400 23.76100 23.62200
H  47.31300 27.70500 23.47700
H  46.35900 26.21500 23.01600
H  47.03700 26.63100 20.87700
H  48.72700 26.24600 21.36600
H  48.13900 27.88700 21.40500
H  51.22300 29.93300 26.46400
H  50.46900 30.99500 27.69000
H  49.51600 30.65000 26.28100
H  49.18000 29.04100 31.98100
H  52.70600 26.92600 33.92700
H  51.59700 27.24600 35.27000
H  52.63800 28.58100 34.43200

