158

Mg 25.47800 0.73400 29.92300
C  27.60400 0.66200 32.83900
C  22.88300 0.49400 32.12300
C  23.48100 0.58400 27.25700
C  28.24800 0.47000 27.95800
N  25.36700 0.65500 32.21100
C  26.28500 0.72300 33.18900
C  25.70300 0.81700 34.59700
C  24.19600 0.66500 34.29800
C  24.13100 0.61600 32.79100
C  23.60600 -0.65900 34.77800
C  26.18500 2.10200 35.32100
C  25.37800 2.41800 36.60100
H  26.09900 2.66800 37.91200
N  23.40900 0.60700 29.71700
C  22.48300 0.50500 30.75700
C  21.13500 0.38500 30.18100
C  21.34900 0.46000 28.77900
C  22.79400 0.59300 28.54100
C  19.88800 0.31500 31.02400
C  20.25300 0.52300 27.65800
O  20.53600 0.58600 26.46300
C  18.82400 0.59100 28.01400
N  25.84300 0.66300 27.87700
C  24.87400 0.75500 26.97700
C  25.36700 0.77900 25.58200
C  26.90000 0.92000 25.80100
C  27.01200 0.65700 27.30500
C  24.91400 -0.31800 24.57300
C  27.65200 2.12400 25.31000
C  28.76300 1.85900 24.31300
N  27.49300 0.55900 30.26300
C  28.47600 0.37000 29.31900
C  29.73500 0.19600 29.95400
C  29.45600 0.28900 31.33300
C  28.04400 0.58300 31.51200
C  30.99500 -0.09000 29.26600
C  30.00800 0.24700 32.71700
O  31.11600 -0.11300 33.09900
C  28.94700 0.71200 33.67600
C  29.01100 -0.09500 34.89500
O  28.53700 -1.17700 35.01700
O  29.83800 0.54500 35.78700
C  29.80900 -0.06300 37.13300
H  22.07700 0.57300 32.85600
H  22.90400 0.59200 26.33000
H  29.04200 0.55000 27.21200
H  26.11400 0.00500 35.19600
H  23.67200 1.53600 34.69100
H  24.22400 -1.10800 35.55600
H  23.36400 -1.39800 34.01500
H  22.64300 -0.49000 35.26000
H  26.06100 3.01900 34.74400
H  27.25300 1.96600 35.49100
H  24.82000 1.50200 36.79700
H  24.75200 3.29200 36.41600
H  19.35400 1.26300 30.96800
H  20.19100 0.09400 32.04800
H  19.22300 -0.47700 30.67900
H  18.14200 0.81400 27.19400
H  18.70100 1.48300 28.62800
H  18.43600 -0.29900 28.51000
H  25.02600 1.72100 25.15200
H  27.43200 0.10200 25.31500
H  24.38400 -1.03600 25.19900
H  25.74300 -0.87700 24.13900
H  24.24100 0.10300 23.82600
H  28.05300 2.79400 26.07000
H  26.95500 2.75800 24.76200
H  28.31600 1.83400 23.31900
H  29.28100 0.90300 24.39900
H  29.37100 2.75300 24.44900
H  31.61200 0.54200 29.90400
H  31.08800 0.29300 28.25000
H  31.23000 -1.14800 29.38600
H  29.10200 1.77600 33.85700
H  30.44400 -0.93100 36.95600
H  28.82200 -0.23500 37.56200
H  30.44700 0.48700 37.82500
Mg 34.89600 2.32000 29.59900
C  32.97500 3.51700 32.22500
C  37.60700 2.12100 31.81300
C  36.80700 1.21000 27.15000
C  32.22500 2.70900 27.44300
N  35.23400 2.71500 31.74300
C  34.24400 3.10300 32.60700
C  34.72500 2.91300 34.03800
C  36.25300 2.65700 33.90100
C  36.40900 2.44200 32.44500
C  37.13800 3.88800 34.51900
C  33.85700 1.78600 34.72000
C  33.44700 2.00500 36.20900
H  34.17400 3.13700 36.95800
N  36.93600 1.83500 29.52900
C  37.87800 1.89000 30.43600
C  39.22500 1.73700 29.92400
C  39.00300 1.17900 28.59200
C  37.51800 1.38900 28.39600
C  40.50000 1.77600 30.74000
C  39.97900 0.62300 27.54600
O  39.59800 0.02500 26.53900
C  41.40000 0.54200 27.91600
N  34.57200 1.99000 27.63800
C  35.51600 1.53300 26.84100
C  35.01100 1.29500 25.40400
C  33.52200 1.64200 25.53100
C  33.42200 2.21200 26.91900
C  35.72300 2.10800 24.32300
C  32.55400 0.51500 25.24100
C  32.53500 0.10100 23.71100
N  33.09900 3.12000 29.69100
C  32.00600 3.13600 28.76800
C  30.82300 3.64400 29.41900
C  31.17900 3.78200 30.80300
C  32.51300 3.52300 30.90800
C  29.43400 3.86300 28.82500
C  30.57500 4.13100 32.12200
O  29.43700 4.36600 32.42700
C  31.77900 3.88700 33.13600
C  31.87300 5.13400 33.99900
O  32.53900 6.14800 33.67300
O  31.09500 5.02000 35.13000
C  31.07400 6.17800 35.99300
H  38.45200 2.27500 32.48800
H  37.42500 1.03300 26.26800
H  31.34700 2.74000 26.79400
H  34.54100 3.90100 34.46100
H  36.54900 1.71900 34.37000
H  37.44700 4.58100 33.73600
H  37.98500 3.36500 34.96300
H  36.64900 4.37700 35.36100
H  34.45200 0.88100 34.84000
H  32.94700 1.45500 34.22100
H  33.61100 1.05600 36.72000
H  32.38000 2.15700 36.04400
H  41.29000 2.46200 30.43400
H  40.89800 0.77200 30.88500
H  40.13100 2.11700 31.70800
H  41.75400 -0.36200 28.41000
H  41.77300 1.36800 28.52200
H  41.99400 0.59600 27.00300
H  35.14100 0.22100 25.27400
H  33.23800 2.44100 24.84700
H  36.62800 1.56400 24.05400
H  35.87100 3.10000 24.75000
H  35.09100 2.34300 23.46600
H  31.52900 0.82600 25.44600
H  32.93000 -0.31300 25.84200
H  32.80200 -0.95500 23.68200
H  33.29600 0.61400 23.12300
H  31.60800 0.33900 23.18900
H  29.45300 4.22300 27.79600
H  28.87100 4.59200 29.40700
H  28.82000 2.96800 28.92700
H  31.50000 3.00300 33.70800
H  32.07800 6.51500 36.25100
H  30.44700 5.84900 36.82200
H  30.65300 7.04100 35.47800

