158

Mg 0.70700 8.57400 25.87900
C  1.68900 10.24600 28.71700
C  1.18300 5.61400 27.55700
C  0.32700 6.91000 22.95200
C  1.04100 11.59800 23.99800
N  1.31700 7.98900 27.88400
C  1.49500 8.85300 28.88600
C  1.55000 8.16200 30.27100
C  1.58500 6.67600 29.85100
C  1.33400 6.71900 28.32400
C  2.85800 5.90900 30.26300
C  0.37400 8.46900 31.34800
C  0.67600 8.35200 32.87800
H  1.79100 7.38400 33.28200
N  0.52400 6.53700 25.38900
C  0.74000 5.47700 26.22300
C  0.49700 4.28600 25.50900
C  0.26200 4.55900 24.06100
C  0.33400 6.04800 24.08800
C  0.57700 2.89300 26.21100
C  0.04500 3.62200 22.86300
O  -0.21300 3.97100 21.71200
C  0.05400 2.22800 23.06000
N  0.72500 9.19600 23.78300
C  0.35000 8.28100 22.85400
C  0.41000 8.86200 21.50900
C  0.15300 10.36500 21.88300
C  0.66400 10.43500 23.33300
C  1.68300 8.57900 20.71000
C  -1.35800 10.83800 21.78000
C  -1.67400 11.90800 20.66600
N  1.30300 10.56200 26.28300
C  1.31800 11.69800 25.40300
C  1.68400 12.91300 26.17800
C  1.85300 12.30700 27.56900
C  1.63800 10.94300 27.49400
C  1.73000 14.31200 25.80400
C  2.16200 12.64300 28.86200
O  2.60200 13.70700 29.30200
C  1.92100 11.35900 29.77000
C  3.02200 11.11300 30.82200
O  4.02900 10.45300 30.59900
O  2.68500 11.72100 31.98900
C  3.61500 11.51200 33.01300
H  1.22900 4.71400 28.17300
H  0.25300 6.39700 21.99000
H  1.11100 12.55400 23.47400
H  2.45900 8.40100 30.82300
H  0.72800 6.13400 30.25000
H  3.48600 6.54300 30.88900
H  3.60900 5.75800 29.48800
H  2.68800 4.92000 30.68700
H  -0.51700 7.86900 31.16000
H  -0.01900 9.47300 31.19300
H  -0.26600 8.05000 33.33500
H  1.00200 9.36700 33.10700
H  0.97700 2.15600 25.51500
H  -0.43600 2.57200 26.45500
H  1.29400 2.98400 27.02700
H  -0.80500 2.01900 23.69800
H  1.00000 1.93000 23.51400
H  -0.06200 1.72200 22.10100
H  -0.48700 8.40000 21.09800
H  0.76800 10.87100 21.13900
H  2.36000 7.95500 21.29300
H  2.30300 9.37200 20.29100
H  1.27900 7.87800 19.98000
H  -1.74600 11.27500 22.70000
H  -1.92000 9.92500 21.58200
H  -0.79000 12.25400 20.13100
H  -2.02700 12.79500 21.19300
H  -2.55500 11.63600 20.08500
H  2.08100 14.45700 24.78300
H  2.29500 14.95800 26.47500
H  0.69100 14.63300 25.73200
H  1.04900 11.76200 30.28400
H  3.98000 12.50200 33.28400
H  4.53500 10.96000 32.81600
H  3.18000 11.14700 33.94300
Mg 25.89700 0.35000 29.73100
C  27.96300 0.22400 32.42100
C  23.18600 0.66500 31.78000
C  23.88100 0.23000 27.00900
C  28.67400 -0.19300 27.63700
N  25.61900 0.29700 31.81200
C  26.59200 0.32400 32.77900
C  26.06800 0.43000 34.28000
C  24.52300 0.39900 33.95200
C  24.43900 0.44300 32.42500
C  23.85700 -0.76100 34.59900
C  26.57600 1.57100 35.10900
C  25.75900 2.21700 36.19900
H  26.69900 2.54900 37.43000
N  23.83900 0.53600 29.42000
C  22.90000 0.69600 30.40500
C  21.61400 0.79300 29.80900
C  21.79200 0.78100 28.44000
C  23.23600 0.51200 28.22400
C  20.29200 0.83000 30.58800
C  20.78100 1.11100 27.29000
O  21.14800 1.10500 26.09200
C  19.31500 1.38300 27.60400
N  26.23500 0.04100 27.73400
C  25.22800 0.00400 26.77600
C  25.72700 -0.20200 25.35900
C  27.23500 -0.35400 25.54400
C  27.46800 -0.05700 27.01400
C  24.99500 -1.42300 24.72600
C  28.07300 0.65900 24.66800
C  28.29200 2.10500 25.21100
N  27.87900 0.15800 29.90700
C  28.91300 -0.13900 29.02600
C  30.21300 -0.26000 29.77200
C  29.91000 -0.10700 31.13200
C  28.48800 0.11700 31.11500
C  31.57600 -0.48500 29.18100
C  30.39600 -0.04800 32.44300
O  31.53600 -0.15400 32.91000
C  29.16800 0.12100 33.29500
C  29.10000 -1.04500 34.22600
O  28.69100 -2.10300 33.92300
O  29.64600 -0.72600 35.39500
C  29.65700 -1.69300 36.46800
H  22.32000 0.83200 32.42400
H  23.29300 0.20000 26.08900
H  29.52700 -0.47700 27.01700
H  26.44900 -0.53800 34.60700
H  23.97700 1.21200 34.43100
H  24.60500 -1.55400 34.59800
H  23.06600 -1.20200 33.99400
H  23.57400 -0.54000 35.62800
H  26.97900 2.36300 34.47800
H  27.35600 1.05400 35.66900
H  24.99600 1.47200 36.42100
H  25.35700 3.15800 35.82300
H  19.66300 -0.00300 30.27200
H  19.79400 1.76700 30.34200
H  20.48900 0.74300 31.65700
H  18.95600 0.53900 28.19300
H  18.74600 1.40500 26.67500
H  19.23400 2.30100 28.18700
H  25.51700 0.68100 24.75500
H  27.57000 -1.36200 25.30200
H  24.34100 -2.02500 25.35500
H  25.57100 -2.18100 24.19600
H  24.35400 -1.04300 23.93000
H  27.50200 0.68500 23.74000
H  29.05100 0.21700 24.47800
H  28.05300 2.39400 26.23400
H  27.65100 2.76800 24.63000
H  29.31700 2.31200 24.90100
H  31.62700 -0.05600 28.18100
H  31.75900 -1.55900 29.16500
H  32.35300 0.02200 29.75500
H  29.30600 1.04600 33.85400
H  28.81000 -1.54300 37.13700
H  30.64100 -1.65800 36.93600
H  29.62000 -2.73500 36.15200

