158

Mg 26.06900 0.58300 30.10700
C  28.12000 0.73200 33.02000
C  23.29600 1.08700 32.22200
C  24.02800 0.05900 27.59900
C  28.85000 -0.19600 28.16800
N  25.74300 0.72900 32.42500
C  26.69900 0.85700 33.37100
C  26.12000 1.32900 34.75400
C  24.64500 1.35500 34.40400
C  24.54600 0.99800 32.94200
C  23.71500 0.46200 35.33300
C  26.70300 2.69700 35.19200
C  27.64100 2.62200 36.38200
H  27.08000 3.08600 37.73900
N  23.93300 0.64200 29.94900
C  23.01900 0.90700 30.89800
C  21.71000 0.85300 30.28500
C  21.83800 0.64400 28.91600
C  23.30400 0.42400 28.73800
C  20.40900 1.08100 31.06900
C  20.77200 0.58400 27.81400
O  21.06100 0.35700 26.61700
C  19.35300 0.60100 28.13800
N  26.41400 0.18200 28.12000
C  25.36800 -0.04400 27.29400
C  25.82200 -0.40700 25.89500
C  27.36900 0.01800 25.96400
C  27.62000 -0.07800 27.45000
C  25.52900 -1.83400 25.54300
C  27.88700 1.38900 25.36200
C  28.59400 1.27500 24.02400
N  28.07900 0.27800 30.45800
C  29.09600 -0.04600 29.56400
C  30.38400 -0.03800 30.26700
C  30.02500 0.24600 31.62800
C  28.60900 0.42400 31.69900
C  31.71700 -0.37600 29.75200
C  30.50600 0.41400 32.94900
O  31.67800 0.47600 33.32800
C  29.29700 0.66800 33.89300
C  29.27100 -0.57600 34.64000
O  28.45500 -1.50400 34.50500
O  30.23100 -0.54800 35.65000
C  30.08800 -1.50000 36.70600
H  22.53900 1.30000 32.98000
H  23.37000 -0.15300 26.75300
H  29.76300 -0.46700 27.63400
H  26.33500 0.61500 35.54900
H  24.18700 2.34300 34.44500
H  23.24500 -0.34500 34.77100
H  22.85600 1.08000 35.59300
H  24.20800 0.05100 36.21400
H  25.91200 3.40000 35.45100
H  27.26200 3.21300 34.41100
H  28.46900 3.30300 36.18500
H  28.02500 1.62800 36.61100
H  19.65500 0.37600 30.71900
H  20.12400 2.12500 30.93900
H  20.51100 0.81900 32.12200
H  18.70200 0.60100 27.26400
H  19.15100 1.48300 28.74500
H  19.12500 -0.24800 28.78300
H  25.27100 0.20700 25.18300
H  27.96400 -0.79000 25.53900
H  25.01000 -2.35000 26.35000
H  26.46400 -2.33000 25.28200
H  24.98800 -1.90400 24.59900
H  28.51800 1.96800 26.03700
H  26.95600 1.94100 25.23600
H  27.89600 1.34100 23.19000
H  29.13500 0.32900 24.00400
H  29.45500 1.93900 24.10200
H  31.83300 -0.81700 28.76200
H  31.99400 -1.16800 30.44800
H  32.30700 0.53600 29.66600
H  29.44800 1.65600 34.32800
H  29.88800 -2.51000 36.34900
H  29.16400 -1.23400 37.22000
H  30.95600 -1.50100 37.36500
Mg 46.63900 16.87500 28.83600
C  44.55400 16.33100 31.50900
C  48.69700 18.69500 30.85500
C  48.24500 17.92600 26.09300
C  44.16500 15.36400 26.76500
N  46.63100 17.39400 31.00400
C  45.68700 17.06200 31.90500
C  46.27000 17.34700 33.37200
C  47.46000 18.37400 33.07500
C  47.67000 18.12700 31.56200
C  47.25400 19.88300 33.35600
C  46.69600 16.03900 34.18900
C  46.20800 15.99500 35.61000
H  45.83500 17.29500 36.36000
N  48.26200 18.13600 28.56600
C  49.04600 18.75600 29.56200
C  50.15600 19.40200 28.95200
C  50.03400 19.20900 27.49700
C  48.74500 18.40300 27.32300
C  51.19900 20.22000 29.76500
C  50.94300 19.60900 26.41300
O  50.66000 19.47200 25.24300
C  52.35900 20.19300 26.80300
N  46.34700 16.55100 26.68900
C  47.07200 17.23500 25.75800
C  46.57600 16.91400 24.35500
C  45.45100 15.88400 24.62700
C  45.27700 15.89900 26.11900
C  46.14200 18.18700 23.52600
C  45.86000 14.44000 24.08400
C  44.80900 13.55300 23.37000
N  44.76100 15.97200 29.05400
C  43.89200 15.43200 28.17500
C  42.68500 14.95900 28.85800
C  42.90500 15.24300 30.20600
C  44.22000 15.79300 30.25000
C  41.49300 14.49100 28.25700
C  42.40800 15.14100 31.56900
O  41.38700 14.64100 32.06200
C  43.42200 15.85700 32.44900
C  42.72200 16.92200 33.15700
O  42.70300 18.06600 32.78500
O  42.21900 16.38800 34.31900
C  41.38800 17.29600 35.04800
H  49.43700 19.20400 31.47500
H  48.82900 18.03800 25.17700
H  43.40900 14.97700 26.07900
H  45.49800 17.84200 33.96200
H  48.25900 17.99500 33.71300
H  48.09600 20.24600 33.94500
H  46.34000 20.01200 33.93600
H  47.16000 20.46600 32.44000
H  47.76500 15.82600 34.17000
H  46.22700 15.22800 33.63100
H  46.94100 15.70600 36.36300
H  45.42800 15.23600 35.67700
H  52.11000 19.70900 30.07700
H  50.72800 20.56700 30.68500
H  51.29500 21.17700 29.25200
H  52.73500 19.53000 27.58200
H  52.14000 21.11400 27.34200
H  53.02300 20.30900 25.94600
H  47.40100 16.49700 23.77700
H  44.49400 16.15800 24.18200
H  45.10900 18.09200 23.19200
H  46.65600 18.36900 22.58200
H  46.21900 19.02300 24.22000
H  46.26300 13.95800 24.97500
H  46.73700 14.56100 23.44800
H  45.17900 13.37400 22.36000
H  43.77000 13.86100 23.48700
H  44.82800 12.62300 23.93700
H  41.52200 13.40900 28.13300
H  41.43400 14.99500 27.29200
H  40.63200 14.79900 28.85100
H  43.88400 15.17200 33.15900
H  40.61000 17.81600 34.48900
H  42.05800 18.07200 35.41700
H  40.95400 16.88100 35.95800

