158

Mg 26.58200 0.36000 29.15300
C  28.32100 -0.15100 32.09900
C  23.68800 0.95300 30.98000
C  24.80100 0.31100 26.19600
C  29.40200 -0.70300 27.33700
N  26.09600 0.27900 31.28200
C  27.00200 0.21000 32.30300
C  26.34300 0.34600 33.74500
C  24.79000 0.45800 33.27600
C  24.85400 0.54300 31.76100
C  23.75400 -0.56600 33.72300
C  26.90700 1.43700 34.60700
C  27.36400 1.02800 36.06300
H  27.03500 1.91400 37.17200
N  24.56000 0.78800 28.66200
C  23.52300 1.04700 29.56400
C  22.32400 1.36800 28.80800
C  22.64600 1.16300 27.42000
C  24.06200 0.70200 27.39200
C  21.07200 1.80200 29.49900
C  21.72300 1.27000 26.21800
O  22.01500 1.03400 25.05100
C  20.28600 1.50500 26.59700
N  27.04900 -0.21700 26.95300
C  26.14900 -0.05900 26.00900
C  26.74200 0.05700 24.55500
C  28.32800 -0.13800 24.97700
C  28.28300 -0.40600 26.52300
C  26.23400 -1.03000 23.50600
C  29.24600 1.00600 24.59400
C  29.57900 1.12200 23.11700
N  28.44000 -0.33700 29.52800
C  29.48500 -0.78300 28.75400
C  30.63100 -1.14700 29.55400
C  30.22400 -0.91000 30.89800
C  28.88600 -0.39900 30.83100
C  31.89600 -1.57200 28.99600
C  30.67900 -0.94300 32.30600
O  31.71500 -1.08200 32.87300
C  29.41000 -0.46800 33.10300
C  29.04100 -1.44200 34.10100
O  28.25800 -2.37600 33.89100
O  29.75200 -1.15200 35.21700
C  29.56000 -2.11500 36.36100
H  22.83700 1.24900 31.59700
H  24.19400 0.27500 25.28900
H  30.33500 -0.90100 26.80600
H  26.46300 -0.63400 34.20800
H  24.38900 1.37300 33.71200
H  24.32200 -1.30900 34.28300
H  23.21300 -1.08800 32.93400
H  23.02200 -0.10300 34.38400
H  26.11200 2.17600 34.71100
H  27.72800 1.96800 34.12600
H  28.44200 0.87000 36.09700
H  26.96100 0.05000 36.32600
H  20.79300 2.82500 29.24500
H  21.19400 1.84500 30.58100
H  20.27100 1.06800 29.41100
H  19.84800 0.71600 27.20800
H  19.73100 1.63600 25.66800
H  20.31500 2.51400 27.00900
H  26.56900 1.07200 24.19900
H  28.68800 -1.05300 24.50500
H  25.50700 -1.69900 23.96800
H  27.08900 -1.56400 23.09200
H  25.69700 -0.51400 22.71000
H  30.14500 1.05200 25.20900
H  28.68100 1.91700 24.78900
H  28.99900 1.95700 22.72400
H  29.31800 0.18500 22.62400
H  30.63500 1.37800 23.03300
H  32.12800 -1.06200 28.06100
H  31.89400 -2.61400 28.67500
H  32.73600 -1.40000 29.66900
H  29.69300 0.40400 33.69300
H  29.43200 -3.14600 36.03200
H  28.67800 -1.75100 36.88900
H  30.43800 -2.09400 37.00600
Mg 47.42100 35.12500 27.57200
C  45.58900 33.66900 30.02300
C  47.76600 37.95000 29.44000
C  49.10100 36.67800 25.00600
C  46.51700 32.45800 25.47600
N  46.80300 35.66600 29.38000
C  46.25200 34.84700 30.30100
C  46.45700 35.42400 31.69300
C  46.59400 36.93600 31.39900
C  47.09600 36.86200 29.96300
C  45.44000 37.93900 31.72200
C  47.63600 34.75200 32.41600
C  47.41700 34.55500 33.97500
H  46.53800 35.52200 34.79900
N  48.34700 37.05600 27.25300
C  48.31900 38.09300 28.17000
C  49.21900 39.18000 27.82500
C  49.63200 38.77400 26.52300
C  49.01300 37.41100 26.19800
C  49.65700 40.35400 28.74800
C  50.70700 39.34400 25.61700
O  51.02200 38.75000 24.59400
C  51.36800 40.73500 25.91700
N  47.72900 34.65200 25.56200
C  48.52200 35.42400 24.71000
C  48.49800 34.80200 23.24400
C  47.74400 33.51600 23.48300
C  47.23100 33.55000 24.88300
C  47.86400 35.67700 22.14600
C  48.66700 32.18400 23.13500
C  49.92700 31.95900 24.07100
N  46.27000 33.34000 27.67900
C  46.05300 32.32100 26.80400
C  45.26300 31.26000 27.47400
C  45.06300 31.76900 28.70400
C  45.67800 32.96700 28.79500
C  44.70500 29.96200 26.84700
C  44.40200 31.47500 29.92700
O  43.81200 30.47200 30.29900
C  44.61400 32.75500 30.79200
C  45.18900 32.37100 32.15500
O  46.24900 31.78200 32.33700
O  44.22300 32.51600 33.14100
C  44.35900 31.79000 34.32400
H  47.97100 38.81100 30.08000
H  49.60600 37.09000 24.13000
H  46.27300 31.58900 24.86100
H  45.59100 35.30200 32.34300
H  47.36900 37.33100 32.05600
H  44.54500 37.34900 31.92000
H  45.25900 38.60600 30.87900
H  45.69200 38.51200 32.61400
H  48.50100 35.38100 32.20500
H  47.64500 33.75300 31.98100
H  48.42200 34.60400 34.39600
H  47.05800 33.56200 34.24700
H  50.63300 40.11800 29.17200
H  48.91600 40.65400 29.48900
H  49.79700 41.24500 28.13500
H  51.96800 40.67500 26.82600
H  50.60000 41.48000 26.12200
H  51.80000 41.05200 24.96800
H  49.54100 34.61600 22.98700
H  46.85300 33.37900 22.87000
H  48.45600 35.61600 21.23300
H  47.80600 36.73000 22.42400
H  46.84700 35.36100 21.91400
H  48.92800 32.25200 22.07900
H  48.07800 31.27300 23.24400
H  49.90200 32.68800 24.88100
H  50.89600 31.90000 23.57400
H  49.82200 30.90100 24.31200
H  44.79000 30.18600 25.78300
H  43.65600 29.94400 27.14200
H  45.33800 29.13000 27.15600
H  43.66400 33.26400 30.95300
H  43.81600 30.86200 34.14600
H  43.79200 32.29400 35.10600
H  45.37000 31.63100 34.69800

