158

Mg 24.85200 -4.30100 45.71500
C  27.16600 -2.11200 44.17300
C  22.46000 -3.48400 43.26300
C  22.76900 -7.00900 46.60000
C  27.26100 -5.55900 47.83700
N  24.87900 -2.93100 43.86000
C  25.93400 -2.11000 43.47700
C  25.52900 -1.25700 42.32100
C  23.95100 -1.58500 42.14300
C  23.68700 -2.72800 43.14700
C  22.91900 -0.38500 42.37900
C  26.41000 -1.48500 41.02800
C  26.12400 -0.49600 39.85100
H  25.87900 -1.06500 38.45800
N  22.87800 -5.06900 45.10100
C  22.05500 -4.49900 44.16600
C  20.79000 -5.27600 44.07900
C  20.88900 -6.34100 44.98800
C  22.20100 -6.21900 45.60100
C  19.70900 -4.93400 43.15100
C  19.77600 -7.35700 45.20300
O  18.85600 -7.44900 44.41600
C  19.79000 -8.36800 46.30100
N  25.02700 -6.07600 46.93700
C  24.02100 -7.00100 47.17500
C  24.57300 -8.09700 48.11700
C  25.94200 -7.57900 48.65000
C  26.07900 -6.29800 47.80600
C  23.52200 -8.52200 49.15900
C  27.09500 -8.61600 48.62400
C  27.54200 -9.26500 49.99100
N  26.79800 -3.87000 46.06500
C  27.69300 -4.46300 46.95700
C  28.89200 -3.77900 46.80400
C  28.81800 -2.85500 45.72000
C  27.50400 -2.97900 45.29100
C  30.10000 -4.17400 47.66400
C  29.47900 -1.96200 44.85600
O  30.65200 -1.59800 44.72500
C  28.40100 -1.29000 43.93400
C  28.24600 0.10400 44.34000
O  27.75800 0.49100 45.42200
O  28.66400 0.92800 43.29200
C  28.70800 2.27600 43.62300
H  21.66600 -3.17500 42.58000
H  22.20600 -7.93600 46.73000
H  28.07400 -5.82600 48.51500
H  25.55700 -0.19300 42.55300
H  23.82800 -1.99900 41.14200
H  23.43400 0.50100 42.75100
H  22.16500 -0.67500 43.11100
H  22.40800 -0.02800 41.48500
H  26.35900 -2.54500 40.77700
H  27.41500 -1.19300 41.33200
H  26.98000 0.17700 39.80800
H  25.34400 0.17500 40.21200
H  19.87700 -5.55000 42.26800
H  19.64300 -3.87700 42.89200
H  18.72000 -5.10800 43.57400
H  20.40300 -9.23400 46.05000
H  18.77700 -8.74900 46.42500
H  20.00300 -7.93300 47.27800
H  24.80700 -8.94900 47.48000
H  25.72500 -7.12400 49.61600
H  23.87500 -8.31000 50.16900
H  23.43800 -9.60100 49.02700
H  22.52700 -8.09100 49.05300
H  27.93900 -8.04600 48.23700
H  26.86200 -9.44800 47.96000
H  26.95300 -8.81600 50.79100
H  28.58400 -9.00900 50.18200
H  27.40400 -10.34700 49.99300
H  30.35900 -5.23300 47.63600
H  30.01400 -3.78200 48.67700
H  30.85600 -3.66800 47.06400
H  28.74400 -1.38500 42.90400
H  28.10800 2.67000 44.44400
H  28.34600 2.77500 42.72400
H  29.75400 2.51500 43.81000
Mg -12.74500 14.56300 42.50100
C  -9.43900 13.70100 41.65400
C  -12.22800 17.58500 40.89700
C  -15.99600 15.26200 43.00600
C  -13.42700 11.23700 43.32100
N  -11.04600 15.40700 41.30900
C  -9.71100 14.93500 41.24200
C  -8.76100 15.93000 40.54100
C  -9.67000 17.14300 40.35100
C  -11.09800 16.73900 40.84500
C  -9.05300 18.45700 40.86900
C  -8.02900 15.38800 39.25000
C  -6.52900 15.27600 39.27400
H  -5.72600 15.90300 38.21500
N  -14.00400 16.18500 41.95800
C  -13.56600 17.37600 41.33400
C  -14.79100 18.19000 41.34800
C  -15.83700 17.51000 41.92700
C  -15.31500 16.23900 42.27500
C  -14.67800 19.55100 40.74900
C  -17.29100 18.10200 42.10500
O  -17.52200 19.28200 41.82400
C  -18.48900 17.19300 42.57700
N  -14.53100 13.35600 43.05300
C  -15.68900 13.93800 43.41100
C  -16.57700 12.98600 44.17800
C  -15.88400 11.62000 44.06000
C  -14.54900 12.05300 43.44800
C  -16.82700 13.34600 45.61900
C  -16.66000 10.45300 43.32500
C  -16.84400 9.21900 44.23600
N  -11.71400 12.89900 42.62800
C  -12.14700 11.61500 42.84500
C  -10.94900 10.76200 42.77900
C  -9.93200 11.51800 42.22800
C  -10.40200 12.85700 42.22000
C  -10.92000 9.31100 43.27300
C  -8.58100 11.46700 41.70100
O  -7.80500 10.54800 41.63100
C  -8.17300 12.93800 41.45000
C  -7.07500 13.45400 42.32500
O  -7.29200 14.13100 43.31400
O  -5.87400 13.23300 41.76000
C  -4.64200 13.77100 42.41700
H  -12.03400 18.59400 40.52700
H  -17.00500 15.40500 43.40000
H  -13.61500 10.17100 43.46200
H  -7.97800 16.27100 41.21900
H  -9.85200 17.25000 39.28200
H  -9.50100 19.27700 40.30700
H  -7.99400 18.43500 40.61500
H  -9.16500 18.45500 41.95300
H  -8.28800 16.10800 38.47300
H  -8.49100 14.40700 39.14100
H  -6.14400 14.27100 39.44100
H  -6.25100 15.76000 40.21000
H  -14.93500 19.57500 39.69000
H  -13.64800 19.90700 40.76700
H  -15.27400 20.28400 41.29300
H  -18.54500 16.28900 41.97000
H  -19.38000 17.77200 42.33200
H  -18.46900 17.05000 43.65700
H  -17.50600 13.09300 43.61800
H  -15.63300 11.36100 45.08900
H  -17.09500 12.46700 46.20400
H  -17.64700 14.05200 45.74700
H  -15.97100 13.82500 46.09400
H  -16.20800 10.13500 42.38500
H  -17.65100 10.87900 43.16000
H  -17.35700 8.45700 43.64800
H  -17.59300 9.58300 44.94000
H  -15.97900 8.71400 44.66500
H  -11.05900 9.30200 44.35400
H  -9.91400 8.92800 43.10500
H  -11.56900 8.71200 42.63400
H  -7.88600 12.95600 40.39800
H  -3.78400 13.28800 41.94900
H  -4.75100 13.35400 43.41800
H  -4.73700 14.85500 42.35600

