158

Mg 1.16600 -2.04600 42.88000
C  4.48800 -1.61700 41.89700
C  0.37800 0.87900 41.15300
C  -2.00800 -2.86500 43.09600
C  2.08900 -5.20200 44.11800
N  2.28600 -0.60400 41.55300
C  3.61600 -0.63000 41.35800
C  4.13000 0.65400 40.67100
C  2.72200 1.43200 40.46600
C  1.76100 0.52600 41.15500
C  2.71500 2.84200 41.12700
C  4.96100 0.39100 39.32800
C  4.46000 -0.79800 38.50700
H  5.18600 -1.06800 37.13600
N  -0.56800 -1.10200 42.42300
C  -0.68800 0.11000 41.67600
C  -2.08600 0.40800 41.51300
C  -2.84900 -0.60900 42.03400
C  -1.81800 -1.59300 42.56400
C  -2.64400 1.68300 40.81900
C  -4.37200 -0.63300 42.09700
O  -5.03400 0.17200 41.51100
C  -5.08600 -1.71400 42.85100
N  0.20500 -3.85700 43.44600
C  -1.12600 -3.91900 43.43900
C  -1.62500 -5.30800 43.97000
C  -0.36200 -5.92100 44.58500
C  0.77000 -4.96100 44.09500
C  -2.88900 -5.30800 44.81700
C  -0.08500 -7.36400 44.13900
C  0.39100 -8.34900 45.23800
N  2.95800 -3.15600 43.12500
C  3.14600 -4.35500 43.68200
C  4.56300 -4.60600 43.80900
C  5.18400 -3.53800 43.12700
C  4.10300 -2.75000 42.65700
C  5.20200 -5.72400 44.49700
C  6.42700 -2.94500 42.67800
O  7.58900 -3.28200 42.86900
C  6.07900 -1.64100 41.94600
C  6.76700 -0.46000 42.56400
O  7.64200 0.20400 42.10200
O  6.26400 -0.35000 43.80900
C  6.58800 0.84000 44.65100
H  0.14600 1.81700 40.64300
H  -3.03100 -3.23700 43.18800
H  2.31600 -6.22600 44.42100
H  4.72800 1.15600 41.43200
H  2.36100 1.50600 39.44000
H  3.65100 3.16100 41.58500
H  1.94700 2.86000 41.90000
H  2.21500 3.46700 40.38600
H  6.01200 0.23800 39.57300
H  4.88100 1.27500 38.69500
H  3.39500 -0.61100 38.37100
H  4.66000 -1.70200 39.08200
H  -3.13700 1.46600 39.87200
H  -1.76700 2.29400 40.60400
H  -3.33800 2.21700 41.46800
H  -6.07800 -1.41900 43.19300
H  -4.52300 -1.91300 43.76300
H  -5.22400 -2.55800 42.17500
H  -1.89300 -5.88900 43.08800
H  -0.36300 -5.83400 45.67200
H  -3.79000 -5.66900 44.32100
H  -3.13400 -4.32300 45.21400
H  -2.64700 -6.05900 45.57000
H  0.72800 -7.28100 43.41700
H  -1.00300 -7.70200 43.66000
H  1.27000 -8.89400 44.89300
H  -0.48500 -8.96900 45.43200
H  0.59500 -7.89600 46.20900
H  4.75600 -6.01800 45.44700
H  6.24000 -5.41800 44.62600
H  5.05100 -6.50600 43.75300
H  6.57000 -1.63100 40.97300
H  6.10600 0.96600 45.62100
H  6.36200 1.70800 44.03200
H  7.65000 0.73600 44.87200
Mg -3.74100 26.18800 25.69600
C  -2.37300 27.40900 28.60200
C  -5.86300 24.19400 27.41200
C  -4.26600 24.48800 22.81500
C  -1.28200 28.04700 23.85400
N  -4.07300 25.81800 27.76700
C  -3.44400 26.54100 28.81600
C  -3.97500 26.05800 30.20100
C  -5.04000 24.87600 29.72500
C  -4.96600 24.99600 28.18900
C  -4.71700 23.41600 30.25000
C  -4.63300 27.26000 31.00900
C  -5.68500 26.91200 32.13700
H  -5.33200 25.74500 33.06000
N  -5.00200 24.59200 25.21300
C  -5.86500 23.94400 26.01100
C  -6.76300 23.07200 25.22900
C  -6.17000 23.08200 23.88900
C  -5.15600 24.13100 23.94800
C  -7.82400 22.31500 25.87300
C  -6.43400 22.20400 22.70100
O  -5.78300 22.21600 21.63600
C  -7.58000 21.22500 22.70600
N  -2.85800 26.25200 23.59900
C  -3.20600 25.39300 22.66500
C  -2.49300 25.53000 21.26000
C  -1.57000 26.68600 21.65700
C  -1.96400 27.12400 23.08900
C  -1.84700 24.19000 20.73900
C  -1.51200 27.86100 20.62700
C  -0.13700 28.47200 20.58300
N  -2.33100 27.63600 26.05400
C  -1.41600 28.33400 25.24400
C  -0.71300 29.32000 26.08600
C  -0.96600 28.84000 27.38200
C  -1.95700 27.89200 27.30100
C  0.21800 30.25700 25.61700
C  -0.56600 29.01900 28.77100
O  0.32100 29.72300 29.22400
C  -1.46200 28.12400 29.64100
C  -0.62400 27.33300 30.55000
O  0.17900 26.46700 30.27200
O  -0.83700 27.73200 31.79400
C  -0.27400 26.89800 32.79800
H  -6.52200 23.55300 28.00100
H  -4.52600 24.00000 21.87200
H  -0.52100 28.47300 23.19700
H  -3.20300 25.57100 30.79700
H  -6.07400 25.08700 29.99500
H  -3.65900 23.29700 30.48200
H  -4.91800 22.70500 29.44900
H  -5.27800 23.06800 31.11700
H  -4.81400 28.01300 30.24300
H  -3.78600 27.57700 31.61800
H  -6.61700 26.69500 31.61500
H  -5.91200 27.76900 32.77200
H  -8.62100 22.15000 25.14800
H  -8.20000 22.78000 26.78400
H  -7.41500 21.33300 26.11200
H  -7.46500 20.76700 23.68800
H  -7.47200 20.45600 21.94200
H  -8.58500 21.59100 22.49400
H  -3.28900 25.78200 20.55900
H  -0.57200 26.26600 21.78800
H  -2.48500 23.67500 20.02200
H  -1.47000 23.62000 21.58800
H  -0.96500 24.57100 20.22300
H  -2.13400 28.69400 20.95700
H  -1.80000 27.70000 19.58800
H  -0.09100 28.85800 19.56400
H  0.58600 27.68000 20.77900
H  -0.10000 29.32300 21.26300
H  -0.15600 30.62400 24.66100
H  1.28100 30.02100 25.66300
H  0.20500 31.15900 26.22900
H  -2.13800 28.71500 30.25900
H  0.73100 27.29600 32.94000
H  -0.29400 25.83100 32.57700
H  -0.91300 27.08900 33.66000

