158

Mg 26.27800 -0.61500 30.11500
C  28.31300 -0.58300 33.02200
C  23.57600 0.07800 32.13900
C  24.45400 -0.90500 27.36600
C  29.03300 -1.75100 28.37200
N  26.01700 -0.43300 32.28200
C  26.95100 -0.42100 33.30800
C  26.34600 -0.01100 34.69500
C  24.84000 -0.06700 34.40700
C  24.76500 -0.16200 32.87800
C  24.20200 -1.31300 34.98700
C  26.75900 1.46700 35.09100
C  27.35200 1.72600 36.47100
H  26.78200 0.89900 37.63400
N  24.30700 -0.52400 29.77800
C  23.31700 -0.06300 30.75100
C  22.06300 0.21400 30.04400
C  22.25400 -0.13200 28.62600
C  23.74900 -0.53900 28.52300
C  20.80300 0.80100 30.74000
C  21.21300 -0.09500 27.46700
O  21.50400 -0.68200 26.40400
C  19.80200 0.40800 27.72700
N  26.69000 -1.46300 28.19900
C  25.75700 -1.28600 27.22500
C  26.32500 -1.95200 25.89500
C  27.81000 -1.81200 26.13200
C  27.92700 -1.70400 27.63400
C  25.85400 -3.34300 25.54000
C  28.37300 -0.54300 25.37300
C  29.16500 -0.78400 24.00100
N  28.28400 -1.06500 30.56000
C  29.26400 -1.49100 29.78000
C  30.53300 -1.60800 30.56000
C  30.20900 -1.16300 31.83200
C  28.81200 -0.86500 31.81400
C  31.86100 -2.27400 30.16700
C  30.69300 -0.88200 33.19400
O  31.84200 -0.89400 33.62600
C  29.42300 -0.58100 34.03800
C  29.34000 -1.61000 35.12900
O  28.84700 -2.68500 34.96600
O  29.97500 -1.15700 36.28900
C  30.10300 -2.12600 37.42300
H  22.75300 0.41900 32.77100
H  23.78900 -0.84000 26.50200
H  29.95500 -2.09900 27.90200
H  26.67900 -0.69100 35.47900
H  24.29900 0.82200 34.72900
H  23.70400 -1.92700 34.23600
H  23.39700 -1.06200 35.67700
H  24.92800 -1.88300 35.56700
H  25.92700 2.15700 34.94800
H  27.55800 1.71200 34.39200
H  27.18200 2.78500 36.66300
H  28.43000 1.56700 36.44800
H  19.93000 0.17000 30.57100
H  20.69400 1.83800 30.42300
H  20.88700 0.74300 31.82500
H  19.33100 -0.08200 28.58000
H  19.32000 0.14500 26.78600
H  19.72500 1.49400 27.78300
H  25.88800 -1.31200 25.12900
H  28.27200 -2.74800 25.81800
H  25.37700 -3.70300 26.45100
H  26.62000 -4.05600 25.23400
H  25.08300 -3.28800 24.77100
H  28.99000 0.00800 26.08200
H  27.50900 0.10600 25.23000
H  28.90700 0.05100 23.34900
H  28.76500 -1.69900 23.56400
H  30.24300 -0.81100 24.16000
H  32.42900 -1.55900 29.57300
H  31.65000 -3.17300 29.58700
H  32.33200 -2.66100 31.07100
H  29.47000 0.45100 34.38600
H  31.06500 -2.62900 37.51900
H  29.43400 -2.97700 37.28800
H  29.86800 -1.56300 38.32700
Mg -12.37400 38.19000 42.01100
C  -10.09000 35.73200 40.98700
C  -10.32800 40.53900 40.53100
C  -14.78400 40.47500 42.35100
C  -14.41300 35.66200 43.07200
N  -10.56900 38.08800 40.71400
C  -9.69700 37.01100 40.62400
C  -8.34300 37.43800 39.93100
C  -8.31800 38.92800 40.08700
C  -9.81700 39.22200 40.47700
C  -7.38300 39.59400 41.08200
C  -8.26700 36.96100 38.38200
C  -6.88900 36.33600 37.97400
H  -5.99600 36.99100 36.93600
N  -12.56800 40.21100 41.52900
C  -11.62000 41.03500 40.94800
C  -12.09300 42.37400 40.80800
C  -13.39900 42.36800 41.36400
C  -13.65100 40.95800 41.72300
C  -11.25700 43.48500 40.12600
C  -14.24300 43.52800 41.58400
O  -13.77800 44.61100 41.24700
C  -15.57100 43.58700 42.34600
N  -14.33300 38.12900 42.57500
C  -15.06800 39.21600 42.80500
C  -16.47900 38.85200 43.37900
C  -16.27500 37.36400 43.68000
C  -14.97800 36.92800 43.02300
C  -16.97900 39.67700 44.61100
C  -17.46800 36.55300 43.17200
C  -17.75400 35.21600 43.97400
N  -12.32100 36.04000 42.17800
C  -13.23900 35.15300 42.60500
C  -12.79300 33.77700 42.45500
C  -11.56600 33.94700 41.81500
C  -11.33400 35.35800 41.63500
C  -13.45400 32.54700 42.90500
C  -10.37700 33.34300 41.29700
O  -10.11700 32.12100 41.21600
C  -9.34600 34.49300 40.84200
C  -8.31400 34.33900 41.89900
O  -8.45500 34.48200 43.10900
O  -7.00900 34.11200 41.38200
C  -5.90700 34.12500 42.32800
H  -9.64400 41.31000 40.17200
H  -15.59900 41.15500 42.60700
H  -15.05000 34.94500 43.59400
H  -7.54200 37.05800 40.56400
H  -8.25900 39.38700 39.10000
H  -6.56000 38.89900 41.24400
H  -7.81000 39.84700 42.05300
H  -7.02700 40.49800 40.58700
H  -8.48900 37.78800 37.70700
H  -8.95800 36.12900 38.24300
H  -7.10900 35.39400 37.47000
H  -6.24100 36.11000 38.82000
H  -11.58200 43.44100 39.08600
H  -10.16900 43.50100 40.19300
H  -11.36400 44.41800 40.68000
H  -16.42000 43.07500 41.89400
H  -15.85600 44.63700 42.41600
H  -15.42300 43.07300 43.29600
H  -17.11400 39.00200 42.50500
H  -16.15600 37.16300 44.74500
H  -17.76800 40.33900 44.25600
H  -16.21200 40.31000 45.05600
H  -17.43300 39.02200 45.35500
H  -17.27000 36.16000 42.17400
H  -18.36400 37.13200 42.94800
H  -18.80200 35.42500 44.18600
H  -17.16300 35.04000 44.87200
H  -17.64300 34.36300 43.30400
H  -13.10300 31.66500 42.36800
H  -14.54000 32.56800 42.82100
H  -13.40800 32.54000 43.99400
H  -9.04200 34.28300 39.81700
H  -5.68200 35.15200 42.61600
H  -5.23300 33.61300 41.64200
H  -5.98400 33.45900 43.18700

