158

Mg 35.30600 -0.24100 29.44100
C  33.29900 1.12000 32.02400
C  37.88400 -0.28500 31.70400
C  37.32700 -1.32700 27.03700
C  32.79400 0.43300 27.13100
N  35.53100 0.38800 31.59300
C  34.56900 0.87200 32.42600
C  35.09900 1.09700 33.75600
C  36.62900 1.10300 33.50000
C  36.74100 0.32600 32.17300
C  37.44200 2.41600 33.60400
C  34.56100 -0.06300 34.69500
C  34.17500 0.48100 36.09000
H  35.09200 1.60600 36.70000
N  37.30100 -0.76400 29.42100
C  38.23500 -0.74700 30.41800
C  39.48900 -1.38400 29.99200
C  39.34700 -1.69400 28.61400
C  37.92700 -1.27200 28.27300
C  40.55400 -1.55800 30.98000
C  40.30600 -2.42200 27.73100
O  40.03500 -2.74200 26.56300
C  41.70500 -2.81400 28.25500
N  35.07800 -0.39500 27.39300
C  36.07400 -0.90300 26.59600
C  35.75400 -0.74600 25.11100
C  34.20900 -0.47300 25.16900
C  34.01100 -0.07000 26.62200
C  36.46100 0.34800 24.41200
C  33.38900 -1.68700 24.68900
C  32.86300 -2.82500 25.57700
N  33.39200 0.61900 29.52400
C  32.50200 0.72800 28.49500
C  31.24200 1.13800 29.06700
C  31.53100 1.28700 30.48500
C  32.83100 0.95000 30.69300
C  29.95300 1.47500 28.28300
C  30.90200 1.79900 31.70100
O  29.75400 2.21500 31.90200
C  32.01800 1.58400 32.79600
C  32.19700 2.82500 33.58600
O  32.57400 3.89900 33.14800
O  31.62100 2.66900 34.77200
C  31.56700 3.79700 35.69600
H  38.69400 -0.12300 32.41900
H  38.05000 -1.51800 26.24100
H  31.99300 0.62200 26.41300
H  34.89000 2.08200 34.17100
H  37.05400 0.49300 34.29800
H  37.87700 2.46800 32.60600
H  38.05500 2.36200 34.50400
H  36.81600 3.30700 33.66100
H  35.37400 -0.77900 34.81200
H  33.67400 -0.47100 34.21100
H  34.09200 -0.41300 36.70700
H  33.18900 0.94500 36.11400
H  40.11400 -1.66800 31.97200
H  41.19000 -0.68000 31.08600
H  41.20700 -2.42600 30.89400
H  42.28400 -2.03400 28.75000
H  42.36800 -3.04400 27.42100
H  41.53500 -3.72800 28.82600
H  36.12300 -1.62300 24.58100
H  33.88300 0.35600 24.54000
H  35.94000 1.29100 24.24500
H  36.89200 -0.07900 23.50700
H  37.33800 0.72100 24.94200
H  34.00300 -2.21000 23.95600
H  32.58200 -1.30200 24.06600
H  31.83400 -3.02500 25.27700
H  32.97100 -2.73300 26.65800
H  33.41100 -3.76100 25.46800
H  29.72900 0.62200 27.64200
H  30.18000 2.42700 27.80300
H  29.14100 1.66500 28.98500
H  31.76300 0.72400 33.41500
H  32.48800 3.80500 36.28000
H  30.71000 3.75700 36.36800
H  31.65300 4.77300 35.21900
Mg 8.95500 47.79700 27.38000
C  7.36000 47.48600 30.62000
C  11.87000 48.41200 29.08800
C  10.30900 48.68700 24.57200
C  5.66100 47.83100 25.98000
N  9.59500 47.73700 29.65200
C  8.77700 47.54200 30.76800
C  9.57200 47.74600 32.04400
C  10.98000 48.15500 31.57900
C  10.87000 48.12600 30.05400
C  11.50000 49.51800 32.15200
C  9.47900 46.45000 32.95000
C  9.58500 46.76500 34.41900
H  10.23300 45.77200 35.36900
N  10.81300 48.15600 26.85000
C  11.87500 48.39100 27.64100
C  13.04300 48.70700 26.81900
C  12.66700 48.74000 25.46500
C  11.21800 48.52100 25.55800
C  14.28400 49.10800 27.47900
C  13.48200 49.02400 24.21600
O  12.91600 49.21500 23.15200
C  15.02800 49.20000 24.32400
N  8.07200 48.27900 25.54100
C  8.92000 48.52800 24.53200
C  8.21000 48.51600 23.14900
C  6.78600 48.25400 23.58500
C  6.80300 48.06700 25.12800
C  8.40600 49.69500 22.22300
C  6.14100 47.05000 22.88000
C  5.96600 46.99200 21.35000
N  6.95300 47.78400 28.05200
C  5.72500 47.86900 27.34600
C  4.60300 47.71800 28.27900
C  5.24000 47.57200 29.53400
C  6.65700 47.60900 29.38900
C  3.10500 47.67100 27.95100
C  4.98100 47.45100 30.86200
O  3.92800 47.53500 31.46400
C  6.28300 47.25700 31.61200
C  6.24600 45.86500 31.99400
O  6.49200 44.86100 31.31600
O  5.80000 45.84200 33.32500
C  5.66700 44.50900 33.98200
H  12.75300 48.71100 29.65600
H  10.60300 49.14500 23.62500
H  4.67200 47.67900 25.54300
H  9.02100 48.45400 32.66300
H  11.74600 47.44400 31.89000
H  10.85700 50.00400 32.88700
H  11.59300 50.22600 31.32900
H  12.42700 49.20200 32.62900
H  10.31200 45.77500 32.75500
H  8.57000 45.87600 32.77000
H  8.59600 46.91200 34.85200
H  10.11900 47.71600 34.40500
H  15.04400 48.36800 27.22800
H  14.33200 48.89900 28.54800
H  14.58600 50.13600 27.27700
H  15.35200 49.56400 23.34900
H  15.56200 48.25000 24.36000
H  15.35700 49.91900 25.07400
H  8.56800 47.69300 22.53000
H  6.23700 49.15300 23.30700
H  8.50800 50.59200 22.83400
H  7.61000 49.78100 21.48400
H  9.33300 49.48900 21.68900
H  5.12600 46.97700 23.27000
H  6.63200 46.13800 23.21900
H  6.03800 48.00600 20.95700
H  5.00000 46.60400 21.02400
H  6.60800 46.25900 20.86200
H  2.94200 47.57900 26.87700
H  2.55200 48.55300 28.27400
H  2.57600 46.84100 28.42000
H  6.30700 47.97400 32.43300
H  6.57900 43.98200 33.70200
H  4.83300 43.97300 33.52900
H  5.64300 44.51000 35.07100

