158

Mg 44.09400 3.54400 46.84100
C  42.16400 6.33100 46.60700
C  41.33200 1.67600 46.12300
C  46.08300 0.84300 46.54100
C  47.00600 5.62000 47.30800
N  42.01100 4.03600 46.36900
C  41.41500 5.20800 46.31600
C  39.90800 5.17800 45.97700
C  39.68900 3.61300 45.92500
C  41.15400 3.05500 46.14200
C  38.68400 3.03900 46.97800
C  39.63000 5.92200 44.61000
C  40.70500 6.06400 43.54900
H  40.24700 6.29700 42.06700
N  43.69100 1.49600 46.61200
C  42.48600 0.93000 46.40400
C  42.68000 -0.51000 46.31800
C  44.10400 -0.73800 46.42900
C  44.70200 0.60900 46.51800
C  41.58500 -1.53700 45.98100
C  44.76500 -2.10100 46.33700
O  44.05600 -3.12600 46.27000
C  46.25000 -2.31000 46.35600
N  46.24400 3.29500 46.86700
C  46.76900 2.01300 46.87100
C  48.38500 2.10000 46.83500
C  48.62300 3.62500 46.95100
C  47.20200 4.21800 47.07400
C  49.06800 1.27600 48.05600
C  49.48200 4.24600 45.78300
C  50.97700 4.43200 46.06600
N  44.55800 5.56800 46.93700
C  45.72400 6.27400 47.32400
C  45.41800 7.69600 47.57300
C  43.99000 7.70500 47.19800
C  43.56300 6.43100 46.89000
C  46.44300 8.64500 47.98000
C  42.90800 8.67600 47.14900
O  42.81500 9.87900 47.41100
C  41.61000 7.78800 46.73700
C  40.61700 8.08700 47.83100
O  40.52300 7.56100 48.94300
O  39.69200 8.98800 47.33700
C  38.63800 9.21700 48.32800
H  40.46500 1.05400 45.89100
H  46.67400 -0.06400 46.40000
H  47.93100 6.19800 47.35300
H  39.29700 5.51700 46.81400
H  39.21400 3.41500 44.96400
H  38.57400 3.72200 47.82000
H  39.02200 2.06300 47.32600
H  37.64500 2.91400 46.67200
H  39.41300 6.94700 44.91000
H  38.64200 5.76000 44.17700
H  41.13300 5.06200 43.58500
H  41.44700 6.78700 43.88700
H  41.57300 -1.71600 44.90500
H  40.60100 -1.08900 46.12100
H  41.70900 -2.43100 46.59200
H  46.82400 -1.98500 45.48900
H  46.35100 -3.39000 46.46600
H  46.71900 -1.92400 47.26100
H  48.72800 1.64200 45.90700
H  49.07400 3.91400 47.90100
H  49.48200 0.34400 47.67100
H  48.27800 1.06500 48.77600
H  49.84400 1.92000 48.47000
H  49.08500 5.23200 45.53800
H  49.41400 3.57000 44.93100
H  51.18400 3.90500 46.99800
H  51.33900 5.45700 46.14000
H  51.55900 4.08400 45.21200
H  46.48600 9.53000 47.34600
H  47.44800 8.23100 47.89800
H  46.26400 8.94900 49.01100
H  41.14400 8.21600 45.85000
H  37.94900 8.39000 48.49800
H  38.03500 10.01700 47.89800
H  39.10000 9.62800 49.22600
Mg 0.27400 42.95500 26.36700
C  2.50600 42.60200 28.97600
C  -2.24600 41.73900 28.56800
C  -1.76100 42.34800 23.73700
C  2.98900 43.30100 24.16400
N  0.10300 42.29600 28.61900
C  1.17500 42.33800 29.48900
C  0.63800 42.27900 30.92400
C  -0.80200 41.75200 30.77100
C  -0.98700 41.83700 29.22500
C  -1.17800 40.34400 31.27500
C  0.68800 43.59900 31.66600
C  1.23700 43.57600 33.15100
H  0.91500 42.32300 34.08800
N  -1.68600 42.22900 26.14100
C  -2.58100 41.84000 27.13600
C  -3.89400 41.53300 26.56700
C  -3.71800 41.68400 25.17500
C  -2.39300 42.09000 24.93400
C  -5.16400 41.18200 27.43000
C  -4.80700 41.45200 24.13100
O  -4.65800 41.63000 22.92800
C  -6.17100 40.94900 24.51200
N  0.58800 42.63000 24.29200
C  -0.41900 42.54800 23.42900
C  0.09200 42.74500 21.97900
C  1.52200 43.25600 22.14500
C  1.73900 43.03000 23.63600
C  -0.07600 41.42300 21.13800
C  1.79700 44.79800 21.83200
C  1.38000 45.88300 22.78000
N  2.38200 43.03000 26.46500
C  3.34300 43.20800 25.50500
C  4.63300 43.36400 26.15800
C  4.32700 43.10000 27.48800
C  2.99000 42.87200 27.58000
C  5.97700 43.61300 25.58500
C  4.97100 42.92800 28.77800
O  6.18900 43.08100 29.04500
C  3.78400 42.72000 29.83600
C  4.07400 41.48900 30.54100
O  4.39000 40.38900 30.06600
O  3.98900 41.73900 31.94500
C  4.07700 40.50300 32.79200
H  -3.06000 41.44200 29.23300
H  -2.33800 42.28400 22.81200
H  3.74000 43.71300 23.48600
H  1.28100 41.51000 31.35200
H  -1.58300 42.43500 31.10400
H  -1.92700 39.94800 30.58900
H  -1.69600 40.50700 32.22000
H  -0.42600 39.56100 31.37300
H  -0.27700 44.10600 31.65100
H  1.41000 44.20000 31.11400
H  0.76200 44.44600 33.60400
H  2.32700 43.59500 33.15600
H  -5.44800 40.13600 27.31300
H  -5.97300 41.79900 27.03800
H  -5.10300 41.45200 28.48400
H  -6.66600 41.73200 25.08600
H  -6.03600 40.09900 25.18100
H  -6.71500 40.66800 23.61100
H  -0.53300 43.51800 21.53200
H  2.27900 42.59700 21.72000
H  -0.83400 40.81000 21.62600
H  0.88600 40.91200 21.12000
H  -0.39700 41.67400 20.12700
H  1.09400 45.06300 21.04300
H  2.84800 45.01000 21.63500
H  2.31200 46.09100 23.30500
H  0.62100 45.52800 23.47700
H  1.01200 46.77400 22.27000
H  6.01600 43.91400 24.53800
H  6.61900 42.73900 25.69300
H  6.48600 44.39000 26.15400
H  3.78300 43.51500 30.58200
H  3.44300 39.63300 32.62100
H  3.94600 40.91200 33.79400
H  5.07300 40.06600 32.71400

