158

Mg 35.48500 2.11300 30.41700
C  33.37300 3.38100 32.99400
C  38.12400 2.11800 32.62500
C  37.33600 1.21500 27.76700
C  32.74500 2.66500 28.05500
N  35.65300 2.59200 32.50000
C  34.69500 3.10700 33.35400
C  35.19700 3.43400 34.76600
C  36.73000 3.44600 34.45100
C  36.85600 2.65000 33.08100
C  37.38000 4.87000 34.51600
C  34.74300 2.40600 35.88000
C  34.43200 2.99900 37.35000
H  35.20800 4.21200 37.82900
N  37.45400 1.49300 30.31500
C  38.41600 1.53700 31.29700
C  39.65000 0.97900 30.80500
C  39.45400 0.73800 29.43600
C  38.03500 1.13600 29.08600
C  40.90500 0.95200 31.67400
C  40.43000 0.14600 28.35400
O  40.08300 0.04200 27.15500
C  41.82100 -0.22000 28.67400
N  35.06200 1.83200 28.28900
C  36.06300 1.59300 27.46300
C  35.65300 1.73400 26.02800
C  34.12500 2.15200 26.05000
C  33.94200 2.22700 27.56700
C  36.54800 2.61200 25.15500
C  33.20100 1.18000 25.27300
C  32.04400 1.95800 24.54900
N  33.46300 2.75100 30.50000
C  32.46400 2.86000 29.45000
C  31.25100 3.26400 30.09600
C  31.52200 3.43900 31.47300
C  32.87400 3.15800 31.65600
C  29.90500 3.46300 29.37900
C  30.96700 3.79400 32.78500
O  29.88900 4.11700 33.13900
C  32.13600 3.74000 33.82900
C  32.30200 5.08900 34.49700
O  32.77500 6.07200 33.97500
O  31.58500 5.09400 35.63800
C  31.36600 6.31900 36.42500
H  38.90300 2.14400 33.39000
H  37.86500 0.89900 26.86600
H  31.86400 2.71800 27.41200
H  34.84900 4.44000 34.99800
H  37.32800 2.99900 35.24500
H  37.71400 5.10900 33.50700
H  38.17900 4.82800 35.25700
H  36.68100 5.59700 34.92800
H  35.55300 1.68700 36.00200
H  33.81800 2.01200 35.46000
H  34.45700 2.18300 38.07200
H  33.41500 3.38900 37.31700
H  41.81700 0.98400 31.07800
H  40.85400 0.02000 32.23700
H  40.94100 1.85700 32.28000
H  42.49300 0.62100 28.50200
H  42.06400 -1.10800 28.09000
H  41.89600 -0.58800 29.69800
H  35.87500 0.72600 25.67700
H  33.84500 3.17900 25.81700
H  35.91800 3.08700 24.40300
H  37.32100 2.00200 24.68800
H  37.04700 3.33400 25.80200
H  32.81000 0.33400 25.83800
H  33.78800 0.76400 24.45400
H  32.23600 3.02400 24.42800
H  31.14800 1.78700 25.14500
H  31.96000 1.59400 23.52500
H  29.04500 3.74100 29.98800
H  29.68100 2.49500 28.93000
H  30.09400 4.14700 28.55100
H  31.98100 2.98400 34.59900
H  30.32300 6.63400 36.38700
H  31.90200 7.17400 36.01200
H  31.74500 5.99700 37.39500
Mg 40.16500 8.85200 30.11300
C  42.07100 10.17200 32.70600
C  37.75400 8.02900 32.37800
C  38.56200 7.25800 27.69300
C  42.72700 9.58800 27.91100
N  39.98900 9.10400 32.25500
C  40.87200 9.69100 33.11700
C  40.30500 9.80800 34.54800
C  39.00500 9.01100 34.42000
C  38.90300 8.64400 32.92300
C  38.95100 7.75300 35.34700
C  39.96000 11.34800 34.87400
C  39.59800 11.62800 36.33700
H  40.34500 12.60100 37.28400
N  38.41300 7.70600 30.02600
C  37.56800 7.47400 31.08200
C  36.43300 6.79500 30.59500
C  36.52200 6.73800 29.22000
C  37.88600 7.20600 28.90100
C  35.31700 6.30800 31.55300
C  35.54100 6.17800 28.24200
O  35.84000 6.05100 27.02100
C  34.17300 5.87200 28.68900
N  40.53300 8.48700 28.07700
C  39.80100 7.73800 27.31400
C  40.25000 7.68200 25.83800
C  41.52200 8.49900 25.85500
C  41.61600 8.89100 27.42200
C  40.46400 6.19300 25.41000
C  41.61700 9.70800 24.94800
C  40.81900 11.02900 25.32300
N  42.03300 9.71400 30.19600
C  42.95300 10.03400 29.18800
C  44.07800 10.71200 29.74600
C  43.75000 10.78500 31.13300
C  42.52000 10.16900 31.36100
C  45.29900 11.20400 28.99300
C  44.23600 11.17200 32.39000
O  45.30000 11.68900 32.67100
C  43.24000 10.73200 33.48700
C  43.94800 9.80300 34.44300
O  44.07200 8.56700 34.34900
O  44.36500 10.55400 35.47100
C  45.14000 9.83000 36.50000
H  36.95100 7.91500 33.11000
H  38.13800 6.83000 26.78200
H  43.58200 9.85000 27.28500
H  41.13200 9.44400 35.15900
H  38.14700 9.59900 34.74400
H  39.53200 7.93200 36.25100
H  39.32900 6.92900 34.74100
H  37.89200 7.58000 35.54100
H  39.09100 11.50100 34.23400
H  40.77200 11.97900 34.51200
H  39.42800 10.70300 36.88700
H  38.57200 11.99400 36.38600
H  35.56900 6.72400 32.52900
H  35.19400 5.22600 31.49400
H  34.33500 6.67700 31.25800
H  33.72000 5.40700 27.81400
H  33.62800 6.79400 28.89500
H  34.27200 5.20700 29.54700
H  39.54600 8.19800 25.18500
H  42.45200 7.93900 25.75100
H  40.09300 5.61800 26.25900
H  41.49100 5.84900 25.28400
H  39.78800 6.06500 24.56600
H  41.23100 9.32000 24.00500
H  42.67500 9.94800 24.84700
H  41.41200 11.93500 25.19500
H  40.39800 10.97000 26.32700
H  39.98800 11.14200 24.62700
H  45.27600 10.83100 27.96900
H  46.23300 10.81800 29.40100
H  45.32600 12.28600 29.12300
H  42.97400 11.62900 34.04600
H  44.91600 10.40100 37.40100
H  46.20100 9.89000 36.26100
H  44.85000 8.78700 36.62100

