158

Mg 47.30800 44.16800 42.37800
C  43.81000 43.77700 41.86800
C  47.58800 40.72800 42.07000
C  50.69000 44.45100 41.95600
C  46.85400 47.51100 42.36100
N  45.81700 42.39700 41.90300
C  44.47900 42.52700 41.86400
C  43.83600 41.12100 41.81800
C  45.01700 40.23200 42.38100
C  46.22400 41.13100 42.06200
C  44.93800 39.74500 43.84100
C  43.28200 40.74400 40.42900
C  43.95700 39.74300 39.46000
H  43.76500 39.90500 37.95300
N  48.89700 42.80700 41.94700
C  48.77100 41.43900 41.91500
C  50.10600 40.87800 41.82600
C  51.04300 41.93100 41.69800
C  50.19700 43.11700 41.80800
C  50.34800 39.45400 41.58900
C  52.54400 41.78200 41.51400
O  53.02600 40.66100 41.43500
C  53.46800 42.91800 41.67100
N  48.56400 45.72400 42.11200
C  49.92300 45.60800 42.06800
C  50.60700 47.04100 42.17900
C  49.31000 48.02800 42.25700
C  48.21500 47.05800 42.22500
C  51.66700 47.26000 43.36100
C  49.11600 48.96400 40.99100
C  49.05400 50.47800 41.27300
N  45.70100 45.45200 42.29300
C  45.65100 46.82100 42.30900
C  44.29500 47.26200 42.23700
C  43.52100 46.10000 42.12100
C  44.42800 45.02600 42.11500
C  43.73200 48.62600 42.25900
C  42.18600 45.53100 41.98400
O  41.08500 46.03700 42.00500
C  42.32900 44.00400 41.88800
C  41.65400 43.43100 43.16100
O  40.57800 42.88900 43.13000
O  42.31400 43.71500 44.33400
C  41.68100 43.62200 45.60300
H  47.74100 39.66000 42.23700
H  51.73800 44.73500 41.83700
H  46.71800 48.58200 42.53000
H  43.00700 41.09000 42.52600
H  45.07400 39.31500 41.79400
H  44.04200 40.12000 44.33700
H  45.74600 40.27100 44.35000
H  45.01200 38.65800 43.82500
H  43.22900 41.59300 39.74800
H  42.28500 40.47000 40.77400
H  43.67500 38.71900 39.70600
H  45.04500 39.73900 39.53400
H  50.90800 39.44400 40.65400
H  49.43100 38.88600 41.43000
H  50.97800 38.99800 42.35300
H  53.31400 43.67600 40.90200
H  54.42400 42.44300 41.45300
H  53.31500 43.28100 42.68700
H  51.16000 47.30000 41.27600
H  49.27300 48.59600 43.18600
H  51.45300 48.17400 43.91500
H  52.68100 47.38600 42.97900
H  51.71300 46.33400 43.93400
H  48.27500 48.77700 40.32400
H  49.98200 48.82200 40.34500
H  48.04200 50.85200 41.12200
H  49.60800 51.07900 40.55300
H  49.42800 50.67700 42.27800
H  42.98500 48.79700 41.48400
H  44.43600 49.36900 41.88400
H  43.27300 48.73500 43.24200
H  41.84300 43.51200 41.04500
H  41.68700 42.53800 45.71100
H  40.70000 44.09600 45.57200
H  42.36500 43.89100 46.40800
Mg 26.94000 49.89000 26.69300
C  24.63900 51.26400 29.03100
C  29.01500 48.96800 29.31500
C  29.23400 48.91400 24.48600
C  25.10300 51.56700 24.14100
N  26.78900 50.08400 28.83700
C  25.73900 50.60700 29.59600
C  25.97800 50.32000 31.12500
C  27.51600 49.88100 31.12900
C  27.78700 49.63200 29.65500
C  28.47600 50.96100 31.80300
C  24.93100 49.26500 31.60600
C  24.52300 49.22300 33.08300
H  25.28700 49.97000 34.23500
N  28.88000 49.07500 26.86800
C  29.55600 48.76900 28.03600
C  30.81500 48.11800 27.60400
C  30.96500 48.27800 26.19100
C  29.65000 48.78900 25.76500
C  31.79300 47.41400 28.58800
C  32.13800 48.01000 25.17600
O  32.14400 48.29100 24.01200
C  33.37100 47.27800 25.82500
N  27.13800 50.20800 24.69200
C  28.02400 49.43000 23.96500
C  27.61100 49.32200 22.43800
C  26.48700 50.47500 22.40200
C  26.19500 50.73300 23.84000
C  28.63200 49.55200 21.36100
C  25.24200 50.02300 21.53900
C  24.60900 51.10900 20.68700
N  25.21100 51.20000 26.53700
C  24.61500 51.70000 25.48000
C  23.51000 52.54600 25.91500
C  23.46400 52.39000 27.32500
C  24.50100 51.53500 27.64700
C  22.67500 53.46700 25.08700
C  22.80900 52.74100 28.59500
O  21.80700 53.38400 28.73200
C  23.45300 51.87900 29.69800
C  23.86400 52.85100 30.77800
O  24.71000 53.73600 30.71900
O  23.14700 52.52000 31.95400
C  23.53500 53.41900 33.14100
H  29.57100 48.52500 30.14400
H  29.89900 48.42100 23.77300
H  24.73200 52.22500 23.35300
H  25.82900 51.26500 31.64700
H  27.76000 48.91100 31.56300
H  27.93800 51.87100 32.06700
H  29.24500 51.15200 31.05400
H  28.87700 50.50300 32.70700
H  25.24600 48.24600 31.38200
H  24.01000 49.35600 31.03000
H  24.65000 48.17000 33.33400
H  23.46500 49.48300 33.10600
H  31.61500 46.34600 28.46400
H  31.51000 47.47600 29.63900
H  32.81400 47.78200 28.48400
H  33.72900 47.97000 26.58700
H  34.17100 47.23000 25.08600
H  33.10300 46.33800 26.30600
H  27.12100 48.38800 22.16700
H  26.87000 51.41400 22.00300
H  29.54200 49.81200 21.90200
H  28.43000 50.31200 20.60700
H  28.78000 48.57700 20.89600
H  24.52900 49.50800 22.18400
H  25.54800 49.24700 20.83800
H  23.57200 51.20600 21.00800
H  24.64000 50.89400 19.61900
H  25.12300 52.05000 20.88400
H  22.04300 52.89300 24.40900
H  23.32400 54.16900 24.56300
H  22.05800 54.08400 25.74000
H  22.80400 51.15100 30.18500
H  23.28500 54.42200 32.79700
H  24.50100 53.16400 33.57800
H  22.77000 53.45100 33.91700

