158

Mg 45.35900 5.51300 48.42700
C  43.03500 8.18000 47.44200
C  42.75900 3.33300 48.13300
C  47.63400 3.08500 48.58600
C  47.80400 7.97700 48.35200
N  43.21900 5.64700 47.69400
C  42.49100 6.86500 47.43300
C  41.05700 6.47300 47.08800
C  40.86700 5.11800 47.72400
C  42.33000 4.68000 48.04600
C  39.90500 4.95700 48.96200
C  40.79400 6.58100 45.51400
C  39.69900 7.57200 45.19000
H  38.77100 7.19000 43.98500
N  45.23700 3.54000 48.34300
C  44.06000 2.72300 48.29000
C  44.37500 1.31900 48.44500
C  45.81000 1.27000 48.60700
C  46.30800 2.65300 48.58900
C  43.34100 0.29300 48.26900
C  46.57100 0.02200 48.79400
O  45.95000 -1.02100 48.92800
C  48.04800 -0.05400 48.87300
N  47.43000 5.56200 48.31200
C  48.20000 4.40800 48.40700
C  49.73400 4.84800 48.56500
C  49.70300 6.42800 48.52000
C  48.24100 6.67400 48.43400
C  50.53300 4.20900 49.75300
C  50.52900 7.12300 47.39100
C  52.00500 7.39500 47.66000
N  45.35700 7.68100 48.15500
C  46.49900 8.51600 48.16600
C  46.22600 9.90700 47.77700
C  44.82400 9.84100 47.55500
C  44.37100 8.47400 47.75200
C  47.17100 11.08000 47.70500
C  43.63000 10.50900 47.22000
O  43.53900 11.67800 46.95200
C  42.39000 9.52700 47.16000
C  41.44400 9.89000 48.21500
O  41.63800 9.79500 49.44600
O  40.27700 10.27200 47.64400
C  39.21900 10.63400 48.59500
H  41.89600 2.66600 48.17500
H  48.40300 2.32000 48.70500
H  48.52200 8.79600 48.26600
H  40.53400 7.20900 47.69800
H  40.48900 4.63000 46.82600
H  39.58100 5.92100 49.35500
H  40.46500 4.41000 49.72100
H  38.97100 4.52900 48.59900
H  40.58300 5.69000 44.92300
H  41.67200 6.99600 45.02000
H  40.18900 8.50000 44.89800
H  39.08300 7.71200 46.07800
H  42.42200 0.57800 47.75800
H  43.08800 -0.13400 49.24000
H  43.76400 -0.52600 47.68700
H  48.27000 -1.10700 49.05000
H  48.27100 0.53400 49.76200
H  48.49900 0.20000 47.91300
H  50.23800 4.47100 47.67500
H  49.97100 6.84700 49.48900
H  50.94200 5.10100 50.22700
H  51.34500 3.60400 49.34900
H  50.07500 3.47600 50.41700
H  50.00100 8.00800 47.03500
H  50.52600 6.43900 46.54300
H  52.66200 6.83300 46.99600
H  52.33900 7.15400 48.66900
H  52.20200 8.46300 47.57200
H  46.77700 11.99900 47.27100
H  48.09000 10.89200 47.15100
H  47.35800 11.25800 48.76400
H  41.95400 9.51400 46.16100
H  38.65100 11.49700 48.24700
H  39.43800 10.70000 49.66100
H  38.45400 9.86200 48.50800
Mg -1.71500 34.08300 27.05100
C  -3.57900 32.28200 29.35600
C  -0.24600 35.86100 29.67300
C  -0.24500 36.21400 24.78200
C  -3.35900 32.61000 24.44200
N  -1.99700 34.24400 29.17300
C  -2.73000 33.25400 29.90100
C  -2.50400 33.41200 31.38600
C  -1.57400 34.65200 31.43000
C  -1.24600 34.92000 30.01300
C  -2.26600 35.81200 32.13000
C  -1.89300 32.06800 31.84400
C  -2.59900 31.41200 32.99000
H  -2.04200 31.41600 34.45600
N  -0.23300 35.70500 27.20000
C  0.27600 36.19400 28.39400
C  1.32300 37.13300 28.04500
C  1.25300 37.31200 26.58700
C  0.18900 36.44400 26.14800
C  2.21200 37.83000 29.14500
C  2.06600 38.29300 25.75100
O  1.86900 38.43600 24.57800
C  3.02100 39.11200 26.36200
N  -1.86300 34.46300 24.93200
C  -1.22700 35.40200 24.28700
C  -1.72100 35.56300 22.81100
C  -2.50400 34.25600 22.60000
C  -2.62300 33.74400 24.05500
C  -2.56400 36.83600 22.53500
C  -1.64500 33.22600 21.78000
C  -2.44000 32.65100 20.60000
N  -3.05500 32.65400 26.86000
C  -3.60800 32.10000 25.75200
C  -4.49400 31.02000 26.15200
C  -4.54800 31.13000 27.53900
C  -3.65500 32.09100 27.92800
C  -5.24400 30.14600 25.23500
C  -5.08200 30.47300 28.69000
O  -5.86800 29.51600 28.78000
C  -4.52000 31.25000 29.95800
C  -5.75700 31.81900 30.63400
O  -6.65800 32.36400 30.05600
O  -5.88200 31.39700 32.00800
C  -6.80900 32.14000 32.91500
H  0.17700 36.31700 30.57000
H  0.28900 36.88500 24.10600
H  -3.80100 32.20900 23.52800
H  -3.50900 33.56800 31.77900
H  -0.63100 34.61100 31.97500
H  -1.83100 36.74900 31.78200
H  -2.01300 35.67800 33.18100
H  -3.33500 35.74600 31.93000
H  -0.88700 32.21700 32.23600
H  -1.83300 31.28700 31.08600
H  -2.76900 30.37600 32.69600
H  -3.58000 31.87200 33.10700
H  2.00800 37.61700 30.19400
H  2.14200 38.91800 29.17200
H  3.26200 37.61000 28.95100
H  3.78900 38.53000 26.87100
H  2.39900 39.67300 27.05900
H  3.46500 39.86300 25.70700
H  -0.85400 35.66100 22.15800
H  -3.52800 34.35600 22.23900
H  -3.59700 36.63700 22.24800
H  -1.99100 37.30700 21.73600
H  -2.53400 37.49800 23.40000
H  -1.35800 32.37700 22.40100
H  -0.68500 33.67500 21.52800
H  -2.33900 33.30500 19.73400
H  -3.51600 32.60600 20.76800
H  -1.92100 31.70400 20.45500
H  -4.73100 29.71000 24.37800
H  -6.10700 30.67700 24.83400
H  -5.60000 29.21300 25.67200
H  -3.88200 30.58000 30.53400
H  -6.25000 32.79400 33.58500
H  -7.55900 31.55500 33.44700
H  -7.38700 32.91100 32.40500

