158

Mg 9.55400 48.04100 26.74500
C  7.61800 47.92300 29.59800
C  12.17000 49.49500 28.38200
C  11.32500 47.67600 23.88500
C  6.61800 47.20800 25.02800
N  9.72200 48.86800 28.71600
C  8.89000 48.47400 29.75900
C  9.63000 48.68900 31.08800
C  10.89600 49.48400 30.63300
C  10.97600 49.28200 29.13700
C  10.90300 50.93500 31.11800
C  9.93900 47.54600 32.11900
C  9.60400 47.86000 33.58900
H  9.61900 46.63200 34.54200
N  11.51300 48.54900 26.13500
C  12.40300 49.10200 27.01500
C  13.71400 49.13700 26.37000
C  13.45600 48.54900 25.07200
C  12.05800 48.23900 24.95800
C  14.95900 49.73800 26.98400
C  14.43300 48.31100 23.94500
O  14.08500 47.79700 22.87300
C  15.93400 48.53900 24.18500
N  9.02400 47.59600 24.76400
C  9.88800 47.48300 23.79200
C  9.34900 46.77900 22.62400
C  7.83300 46.87400 22.86200
C  7.78300 47.30400 24.34100
C  9.84800 47.30500 21.27000
C  7.06200 45.53600 22.58900
C  5.82600 45.82700 21.68700
N  7.46100 47.65900 27.15300
C  6.45500 47.26900 26.39000
C  5.26400 47.00800 27.13400
C  5.64200 47.32600 28.53000
C  7.01500 47.59100 28.39800
C  3.89100 46.63800 26.58900
C  5.21400 47.49700 29.86500
O  4.13200 47.31600 30.42200
C  6.55500 47.67900 30.68400
C  6.88600 46.37100 31.32000
O  7.47500 45.48400 30.80000
O  6.30400 46.29200 32.49800
C  6.30400 45.04300 33.24300
H  12.95000 50.03200 28.92600
H  11.83900 47.32100 22.99000
H  5.76200 46.97500 24.39200
H  8.93700 49.30400 31.66300
H  11.83600 49.03500 30.95200
H  10.83300 51.49100 30.18300
H  11.84100 51.10700 31.64600
H  10.03500 51.14900 31.74100
H  11.02800 47.53400 32.15000
H  9.72800 46.51800 31.82400
H  8.70300 48.43200 33.81200
H  10.54400 48.29900 33.92400
H  15.64400 48.93000 27.24300
H  14.70300 50.35800 27.84300
H  15.41700 50.37900 26.23000
H  16.18800 48.15100 25.17200
H  16.17500 49.60100 24.15700
H  16.52300 48.08400 23.38900
H  9.60600 45.73900 22.82900
H  7.41200 47.64200 22.21300
H  10.23300 48.30800 21.45600
H  9.05000 47.28300 20.52700
H  10.63900 46.66300 20.88300
H  6.77400 44.99100 23.48700
H  7.73300 44.91700 21.99300
H  5.74600 45.17100 20.82100
H  5.75900 46.84700 21.30800
H  4.89200 45.60500 22.20300
H  3.81500 46.36400 25.53600
H  3.26300 47.51900 26.72400
H  3.51700 45.79500 27.17000
H  6.42700 48.49700 31.39400
H  5.84000 45.03300 34.23000
H  7.35700 44.79200 33.36800
H  5.84700 44.24700 32.65500
Mg -5.46000 25.40600 25.54200
C  -3.55800 26.91100 28.19500
C  -6.64800 23.09400 27.82700
C  -6.93400 23.73600 23.08700
C  -3.80100 27.52000 23.30400
N  -5.00200 24.97000 27.67100
C  -4.34100 25.81100 28.55200
C  -4.68800 25.48300 30.02100
C  -5.38200 24.10600 29.96800
C  -5.71700 23.99300 28.40500
C  -4.44500 22.87400 30.29200
C  -5.66400 26.49900 30.68600
C  -5.23600 26.96100 32.07400
H  -4.50700 25.94400 32.91600
N  -6.62000 23.71700 25.44600
C  -7.07300 22.93000 26.52100
C  -8.09200 21.95000 26.05300
C  -8.14400 22.10400 24.70500
C  -7.19700 23.19700 24.33400
C  -8.90200 21.03200 27.09600
C  -9.20900 21.56400 23.74400
O  -9.29400 21.98700 22.60700
C  -10.12500 20.45600 24.21400
N  -5.30600 25.53500 23.45100
C  -6.10700 24.77400 22.61500
C  -5.96200 25.15900 21.18200
C  -5.10100 26.44800 21.28500
C  -4.65300 26.55900 22.78000
C  -5.26400 23.93600 20.47900
C  -5.72100 27.81600 20.76800
C  -5.16300 28.48200 19.53100
N  -3.93100 26.92000 25.70000
C  -3.42200 27.66800 24.66000
C  -2.56300 28.66000 25.28500
C  -2.61200 28.43400 26.67700
C  -3.40800 27.31800 26.85600
C  -1.74100 29.68700 24.50100
C  -2.16300 28.84600 28.02100
O  -1.34200 29.65300 28.30300
C  -2.84000 27.89900 29.06700
C  -1.78100 27.25800 29.81400
O  -0.99400 26.37500 29.39300
O  -1.85400 27.62700 31.14500
C  -0.78600 27.08400 32.00600
H  -7.05000 22.36300 28.53100
H  -7.34100 23.26000 22.19300
H  -3.46500 28.26600 22.58100
H  -3.79800 25.30400 30.62300
H  -6.28200 23.97600 30.57000
H  -4.68700 22.53300 31.29800
H  -3.39900 23.18100 30.32000
H  -4.43900 22.13700 29.48900
H  -6.61300 25.98900 30.85100
H  -5.64100 27.43500 30.12900
H  -6.01700 27.38200 32.70700
H  -4.55700 27.81300 32.04600
H  -9.11300 19.98600 26.87200
H  -9.80300 21.53100 27.45200
H  -8.40700 20.89900 28.05800
H  -10.81700 20.07300 23.46400
H  -10.78000 20.93500 24.94300
H  -9.58500 19.63400 24.68300
H  -6.92300 25.44400 20.75400
H  -4.14500 26.30500 20.78200
H  -6.00500 23.66100 19.72800
H  -5.10300 23.05300 21.09900
H  -4.35700 24.24400 19.95900
H  -5.58500 28.54400 21.56800
H  -6.79600 27.82600 20.59000
H  -4.23500 28.87700 19.94600
H  -5.88400 29.22700 19.19500
H  -4.93100 27.74800 18.76000
H  -0.93300 29.20600 23.95000
H  -1.22800 30.31000 25.23300
H  -2.33800 30.29900 23.82600
H  -3.41000 28.55600 29.72400
H  0.19800 27.26400 31.57200
H  -0.93500 26.03200 32.24900
H  -0.80200 27.62600 32.95200

