158

Mg 36.34900 49.48800 24.99100
C  36.59400 47.92000 28.06400
C  36.01100 52.47600 26.58200
C  36.07200 50.92000 22.02100
C  37.04600 46.41900 23.52400
N  36.34900 50.17400 27.13400
C  36.40000 49.31400 28.23300
C  36.09200 50.01100 29.61400
C  35.78700 51.47100 29.04500
C  36.10800 51.38200 27.46400
C  34.35300 52.03200 29.34800
C  37.30700 49.97300 30.65200
C  36.89600 50.16600 32.13100
H  35.34700 50.15300 32.50700
N  36.10300 51.40200 24.39900
C  35.95400 52.49700 25.13800
C  35.86700 53.68000 24.37700
C  35.80400 53.27700 23.02300
C  36.01700 51.80100 23.08900
C  35.72600 55.07300 24.96000
C  35.45100 54.02000 21.83700
O  35.45300 53.50300 20.71500
C  35.13900 55.45900 21.90100
N  36.36100 48.74400 23.00600
C  36.31900 49.54300 21.92600
C  36.48700 48.80600 20.57200
C  36.92600 47.34400 21.06700
C  36.75400 47.49400 22.59300
C  35.08000 48.85500 19.93800
C  38.23400 46.89500 20.53800
C  39.44500 46.83300 21.46100
N  36.74900 47.50900 25.56100
C  36.91400 46.37600 24.90100
C  37.16800 45.28300 25.80300
C  37.04100 45.86100 27.03100
C  36.76800 47.18000 26.82200
C  37.62700 43.90000 25.47800
C  37.11700 45.59100 28.45000
O  37.45500 44.55600 29.02500
C  36.75500 46.86400 29.18300
C  35.55200 46.50800 29.97800
O  34.41000 46.57200 29.50500
O  35.85500 46.04300 31.17400
C  34.78100 45.61900 32.00000
H  35.82800 53.42100 27.09800
H  35.87900 51.32600 21.02600
H  37.25900 45.42900 23.11500
H  35.23100 49.49300 30.03600
H  36.55700 52.12600 29.45300
H  33.81600 51.44000 30.08900
H  33.77300 51.88100 28.43800
H  34.50300 53.07300 29.63400
H  38.00200 50.76500 30.37400
H  37.92100 49.09900 30.43500
H  37.39300 51.07500 32.46900
H  37.37300 49.41800 32.76400
H  34.80900 55.64200 24.80500
H  36.54500 55.65300 24.53700
H  35.79000 55.03900 26.04800
H  35.96400 56.01100 22.35100
H  34.34900 55.61900 22.63500
H  34.85600 55.90800 20.94900
H  37.27500 49.27700 19.98500
H  36.16500 46.62500 20.76200
H  34.94200 47.90900 19.41400
H  34.98800 49.54000 19.09600
H  34.33100 48.86400 20.73100
H  38.42000 47.42500 19.60400
H  38.05200 45.83800 20.34700
H  39.37000 47.73800 22.06500
H  40.25700 47.00200 20.75400
H  39.64900 45.92000 22.02000
H  36.94400 43.15200 25.88100
H  38.57000 43.66900 25.97400
H  37.79300 43.79400 24.40600
H  37.53800 47.19100 29.86700
H  35.05700 45.70400 33.05100
H  34.52600 44.60500 31.69000
H  33.91800 46.26500 31.84200
Mg 6.20000 54.00600 40.34600
C  5.95500 50.45300 40.29900
C  9.53500 53.60500 39.32300
C  6.29200 57.23700 39.64100
C  2.75500 54.16900 40.96800
N  7.56300 52.21600 39.90800
C  7.22000 50.91000 39.99100
C  8.44200 50.06400 39.59100
C  9.61600 51.05900 39.55700
C  8.86400 52.39600 39.61300
C  10.80200 50.93900 40.59600
C  8.32300 49.15100 38.35800
C  7.81900 49.78400 37.07000
H  6.69300 49.02800 36.35800
N  7.72500 55.29200 39.64100
C  8.99500 54.92400 39.41100
C  9.79400 56.11400 39.12500
C  8.96400 57.23100 39.29300
C  7.60000 56.63900 39.48400
C  11.28900 56.12900 38.87000
C  9.41300 58.76400 39.17700
O  10.55600 59.02900 38.92800
C  8.38400 59.81700 39.34500
N  4.74300 55.43300 40.10800
C  5.02100 56.74300 39.91900
C  3.86000 57.64400 40.23200
C  2.66100 56.68200 40.43600
C  3.42900 55.35400 40.54600
C  4.13100 58.41800 41.53100
C  1.50900 56.82900 39.38400
C  0.11700 57.13900 39.84700
N  4.59800 52.64200 40.62800
C  3.26200 52.88700 41.01000
C  2.66900 51.60700 41.25200
C  3.64400 50.64500 41.06100
C  4.79400 51.31400 40.58300
C  1.33600 51.44100 41.82300
C  3.94000 49.31500 41.25500
O  3.36100 48.42600 41.84600
C  5.32900 49.07800 40.66800
C  5.09100 48.23100 39.50500
O  4.27700 48.37700 38.60500
O  5.86500 47.11000 39.61100
C  5.55100 45.92100 38.89100
H  10.61400 53.52700 39.17800
H  6.39600 58.30300 39.42800
H  1.72600 54.40900 41.24500
H  8.57400 49.38600 40.43400
H  9.99900 51.05600 38.53700
H  11.77400 50.95200 40.10400
H  10.69900 50.08900 41.27100
H  10.77900 51.76100 41.31000
H  7.96900 48.15700 38.63100
H  9.36900 48.97900 38.10300
H  8.54400 49.75000 36.25600
H  7.49700 50.80200 37.29200
H  11.47400 56.58200 37.89500
H  11.66700 55.10800 38.90400
H  11.74000 56.72600 39.66300
H  8.00600 59.77200 40.36600
H  7.56400 59.75800 38.63000
H  8.85400 60.78700 39.18500
H  3.72000 58.34200 39.40600
H  2.16000 56.87200 41.38500
H  3.48000 58.26100 42.39100
H  4.03300 59.47900 41.30000
H  5.17400 58.24500 41.79500
H  1.41900 55.81300 39.00000
H  1.77000 57.47000 38.54200
H  -0.59400 56.39800 39.48300
H  -0.20400 58.09900 39.44200
H  -0.10100 57.07600 40.91300
H  0.72100 51.15300 40.97100
H  1.12600 52.34100 42.40100
H  1.26100 50.61400 42.52900
H  5.86900 48.48700 41.40700
H  5.76500 45.91100 37.82200
H  4.50000 45.63400 38.91700
H  5.98600 45.09600 39.45500

