158

Mg -1.22500 17.60000 25.65600
C  -1.91300 15.49100 28.53200
C  -2.14500 20.25600 27.62900
C  -1.25500 19.45600 22.92600
C  -1.13100 14.61900 23.72900
N  -1.71900 17.85000 27.91200
C  -2.02800 16.91100 28.83600
C  -2.52800 17.50300 30.16700
C  -2.53200 18.99600 29.87800
C  -2.07100 19.06800 28.38800
C  -3.89600 19.65000 30.16000
C  -1.75100 17.00700 31.44600
C  -2.03200 17.78400 32.75800
H  -1.85700 16.91200 33.99700
N  -1.63800 19.54600 25.36300
C  -1.89400 20.51000 26.27600
C  -1.80200 21.84600 25.62000
C  -1.74400 21.59800 24.20500
C  -1.53100 20.15800 24.10200
C  -1.80800 23.02800 26.52900
C  -1.60500 22.57200 23.09900
O  -1.48400 22.31400 21.91200
C  -1.64600 24.05700 23.47000
N  -1.21800 17.14000 23.64500
C  -1.14500 18.09900 22.69900
C  -0.81700 17.54800 21.29100
C  -0.63700 16.06700 21.61400
C  -1.00500 15.93700 23.05400
C  -2.03700 17.73100 20.35300
C  0.80600 15.51200 21.30700
C  1.95500 15.49800 22.38100
N  -1.44400 15.50600 26.06000
C  -1.38600 14.45800 25.14200
C  -1.49100 13.18000 25.88000
C  -1.71900 13.54300 27.20800
C  -1.67300 14.97500 27.23200
C  -1.47100 11.74900 25.32200
C  -1.94800 13.06600 28.55000
O  -2.14300 11.94500 29.06100
C  -2.05000 14.32800 29.41900
C  -0.85400 14.23100 30.24900
O  0.26000 14.70000 30.03800
O  -1.18000 13.47800 31.37800
C  -0.13200 13.13400 32.33500
H  -2.54100 21.09600 28.20200
H  -1.20100 20.07800 22.03000
H  -0.97500 13.89700 22.92500
H  -3.52100 17.10700 30.37500
H  -1.78100 19.45800 30.51900
H  -4.52200 19.18200 30.91900
H  -4.52700 19.55800 29.27600
H  -3.77100 20.64100 30.59600
H  -0.70800 17.02100 31.12800
H  -1.96200 15.97000 31.70900
H  -3.06600 18.03200 32.51800
H  -1.47000 18.71800 32.71900
H  -0.99100 23.00600 27.24900
H  -2.70800 22.89600 27.13000
H  -1.97200 24.05100 26.19100
H  -1.74700 24.57200 22.51500
H  -0.67000 24.11700 23.95100
H  -2.44400 24.45200 24.09800
H  0.10600 17.96800 20.89300
H  -1.29200 15.34000 21.13400
H  -1.75300 18.40600 19.54500
H  -2.81700 18.11800 21.00800
H  -2.33800 16.74000 20.01500
H  1.15200 16.08800 20.44900
H  0.71800 14.47000 20.99700
H  2.42900 14.52000 22.46700
H  1.56900 15.80300 23.35400
H  2.68200 16.23000 22.03000
H  -0.65200 11.72700 24.60200
H  -2.36500 11.50700 24.74800
H  -1.41000 11.02800 26.13700
H  -2.85500 14.29500 30.15400
H  0.83200 13.60600 32.14800
H  0.04700 12.06000 32.38400
H  -0.43300 13.33400 33.36300
Mg 47.71100 44.26000 42.69000
C  44.08500 43.63300 42.83900
C  48.09300 40.80600 42.23200
C  50.94400 44.76200 42.66600
C  46.99600 47.62400 42.85800
N  46.27800 42.42700 42.59100
C  44.84900 42.48000 42.58700
C  44.36200 41.03200 42.51200
C  45.58800 40.09600 42.33300
C  46.74600 41.15700 42.41900
C  45.77900 38.92600 43.42400
C  43.46600 40.90000 41.22500
C  43.95100 41.61200 39.91400
H  44.35000 40.79000 38.78000
N  49.35200 42.97300 42.40000
C  49.26400 41.60500 42.30500
C  50.65800 41.16500 42.03600
C  51.57100 42.26500 42.28100
C  50.67100 43.42900 42.51800
C  51.04100 39.70700 41.69300
C  53.07700 42.16800 42.21400
O  53.71900 41.12100 41.95100
C  53.86000 43.43200 42.53400
N  48.83400 45.93000 42.57900
C  50.17200 45.93800 42.70600
C  50.70800 47.35800 42.79400
C  49.43000 48.26800 42.65800
C  48.37300 47.21900 42.67900
C  51.77000 47.64500 43.97200
C  49.25700 49.11200 41.36700
C  49.82300 50.52600 41.46100
N  45.90600 45.41400 42.78200
C  45.84000 46.81400 42.95000
C  44.47200 47.17200 43.12100
C  43.78300 45.93600 43.01100
C  44.68200 44.86300 42.92600
C  43.73700 48.45300 43.32400
C  42.46600 45.39600 43.22200
O  41.35200 45.86300 43.41600
C  42.57800 43.86800 43.02400
C  41.88700 43.23200 44.14900
O  40.95000 42.45200 44.02100
O  42.43600 43.64100 45.40200
C  41.78100 43.12300 46.60000
H  48.33700 39.76700 42.00200
H  51.99300 45.04000 42.78900
H  46.74400 48.66900 43.05200
H  43.62400 40.97700 43.31200
H  45.75900 39.67500 41.34200
H  44.84800 38.76600 43.96900
H  46.50800 39.34700 44.11600
H  46.16900 37.95300 43.12400
H  42.46500 41.26200 41.45900
H  43.34000 39.84900 40.96500
H  44.80100 42.24800 40.16200
H  43.05600 42.21600 39.77000
H  50.14600 39.14300 41.42800
H  51.60200 39.27400 42.52100
H  51.78900 39.72100 40.90000
H  53.65800 44.11500 41.70900
H  54.94500 43.37500 42.45400
H  53.51400 43.86300 43.47400
H  51.29700 47.61400 41.91400
H  49.19500 48.82100 43.56700
H  52.79400 47.61900 43.60000
H  51.68900 46.83800 44.70000
H  51.53600 48.56800 44.50300
H  48.21800 49.20000 41.04900
H  49.85700 48.58500 40.62600
H  50.70000 50.61100 40.81900
H  50.19500 50.76100 42.45800
H  49.13900 51.33200 41.19400
H  43.17000 48.42500 44.25400
H  43.14200 48.50400 42.41200
H  44.54300 49.18000 43.43000
H  41.97900 43.51000 42.18700
H  40.78000 42.72900 46.42200
H  41.81900 43.81900 47.43800
H  42.44200 42.29400 46.85200

