158

Mg 0.76600 -1.93000 44.45400
C  4.34900 -1.39700 43.99400
C  0.40300 0.91900 42.47200
C  -2.34600 -2.77700 44.27000
C  1.56400 -4.94600 45.95900
N  2.29500 -0.40000 43.46200
C  3.66000 -0.48000 43.32900
C  4.20300 0.64600 42.45600
C  2.88900 1.41800 42.04800
C  1.74900 0.62600 42.68100
C  2.88300 2.96900 42.38400
C  5.13800 -0.01000 41.31500
C  6.56000 0.66100 41.11300
H  6.91100 0.73000 39.56500
N  -0.76200 -1.04800 43.45000
C  -0.71600 0.10300 42.77100
C  -2.09100 0.48400 42.46000
C  -2.93400 -0.61200 42.83000
C  -2.08600 -1.57800 43.53000
C  -2.44300 1.82200 41.68100
C  -4.45300 -0.62600 42.68000
O  -4.98500 0.33500 42.13900
C  -5.29800 -1.72800 43.13400
N  -0.23800 -3.75600 44.91600
C  -1.55800 -3.67500 44.93800
C  -2.12700 -5.03400 45.46200
C  -0.81700 -5.84600 45.85800
C  0.22900 -4.79000 45.64900
C  -3.15600 -4.79000 46.59800
C  -0.54700 -7.19100 44.99300
C  -0.31200 -8.44000 45.86700
N  2.52100 -2.87000 45.05600
C  2.70900 -4.06700 45.75900
C  4.09700 -4.46300 45.86400
C  4.75100 -3.42100 45.14900
C  3.77100 -2.45000 44.67800
C  4.71300 -5.53300 46.53900
C  6.06400 -2.89100 44.79100
O  7.08700 -3.46500 45.04300
C  5.83400 -1.53200 44.11700
C  6.49100 -0.42000 44.96100
O  6.53700 -0.35400 46.14600
O  7.20100 0.43800 44.09700
C  7.95500 1.40300 44.78500
H  0.38100 1.75600 41.77200
H  -3.40000 -3.05700 44.30600
H  1.72700 -5.90900 46.44800
H  4.78900 1.18100 43.20300
H  2.80400 1.50700 40.96500
H  2.13000 3.07100 43.16600
H  2.77000 3.43600 41.40600
H  3.84300 3.21200 42.84000
H  4.53000 0.07300 40.41400
H  5.31000 -1.08600 41.29700
H  7.26700 0.10300 41.72600
H  6.53300 1.65600 41.55700
H  -1.57900 2.31100 41.23000
H  -3.03500 2.56500 42.21400
H  -2.99300 1.53400 40.78500
H  -5.28300 -1.83300 44.21800
H  -5.10100 -2.73900 42.77800
H  -6.31600 -1.50500 42.81600
H  -2.62300 -5.53400 44.63000
H  -0.69600 -6.10600 46.91000
H  -3.50400 -3.75700 46.58800
H  -2.72500 -4.93900 47.58800
H  -3.96700 -5.50300 46.44400
H  0.36400 -7.01400 44.42200
H  -1.37700 -7.45300 44.33600
H  0.41700 -9.03800 45.32000
H  -1.26700 -8.93500 46.04000
H  0.15500 -8.18200 46.81700
H  5.51100 -5.99200 45.95500
H  4.00900 -6.21700 47.01400
H  5.27900 -5.09600 47.36200
H  6.30700 -1.58700 43.13700
H  8.86600 0.87300 45.06300
H  7.56000 1.94900 45.64200
H  8.18800 2.14600 44.02200
Mg -6.15300 24.73600 27.09600
C  -5.13900 26.35500 30.17700
C  -8.14700 22.75300 29.20100
C  -7.13700 23.08800 24.38400
C  -4.02400 26.82800 25.36800
N  -6.57300 24.53900 29.43400
C  -5.99400 25.27700 30.43500
C  -6.44000 24.83000 31.88000
C  -7.14100 23.49600 31.46300
C  -7.37700 23.61500 29.95500
C  -6.44900 22.12200 31.66700
C  -7.33800 26.00900 32.54700
C  -7.16400 26.12100 34.07600
H  -6.60400 24.92300 34.82200
N  -7.49400 23.22300 26.76700
C  -8.19100 22.60200 27.78000
C  -9.10400 21.60600 27.19800
C  -8.78700 21.57200 25.83100
C  -7.75500 22.67500 25.59900
C  -10.00500 20.70800 27.94700
C  -9.39000 20.73700 24.72800
O  -8.96300 20.78300 23.58000
C  -10.37800 19.64600 25.03600
N  -5.57200 24.91000 25.17900
C  -6.16700 24.11900 24.21400
C  -5.64000 24.51100 22.83300
C  -4.75000 25.80500 23.15000
C  -4.71600 25.83900 24.66400
C  -4.94100 23.38400 22.00200
C  -5.37500 27.06700 22.45800
C  -4.53700 28.18600 21.74900
N  -4.91300 26.22600 27.61900
C  -4.07800 26.93600 26.77600
C  -3.23800 27.80900 27.60400
C  -3.61200 27.62800 28.89900
C  -4.68700 26.67500 28.83800
C  -2.10900 28.72000 27.18700
C  -3.28300 27.99600 30.27500
O  -2.40100 28.72200 30.70600
C  -4.31500 27.23000 31.15100
C  -3.45400 26.44600 32.07000
O  -2.50700 25.81500 31.78600
O  -3.88500 26.64700 33.33100
C  -3.01700 26.30700 34.44500
H  -8.82500 22.15200 29.81000
H  -7.29300 22.51200 23.46900
H  -3.48000 27.55900 24.76600
H  -5.51200 24.64800 32.42400
H  -8.07500 23.56200 32.02100
H  -5.51100 22.30200 32.19200
H  -6.28900 21.50600 30.78300
H  -7.10800 21.59900 32.36100
H  -8.38500 25.92400 32.25500
H  -6.90400 26.95500 32.22600
H  -8.07300 26.33500 34.63700
H  -6.41000 26.89700 34.20600
H  -10.93900 20.83000 27.39900
H  -10.25400 21.13700 28.91800
H  -9.63200 19.68400 27.95500
H  -9.90300 18.90500 25.68000
H  -10.62400 19.12800 24.10900
H  -11.27200 20.21200 25.29500
H  -6.57300 24.80600 22.35400
H  -3.72800 25.73000 22.78000
H  -3.87700 23.54800 22.17700
H  -5.14500 23.39400 20.93200
H  -5.27400 22.40800 22.35500
H  -5.98900 27.63500 23.15600
H  -6.00800 26.75800 21.62500
H  -5.28600 28.77300 21.21800
H  -3.92000 27.67400 21.01000
H  -3.95800 28.73800 22.48900
H  -1.57300 28.27000 26.35200
H  -1.40400 28.75000 28.01900
H  -2.42200 29.69500 26.81600
H  -4.91100 27.98600 31.66400
H  -2.52100 25.33800 34.40700
H  -3.61800 26.38400 35.35200
H  -2.19900 27.02300 34.53400

