158

Mg 31.26200 58.72600 39.81200
C  28.17600 57.00500 38.93100
C  32.93200 56.03400 38.61300
C  33.96000 60.64900 39.82000
C  29.26700 61.43800 40.64200
N  30.59200 56.80600 38.89300
C  29.35200 56.26100 38.62700
C  29.52700 54.91100 38.08700
C  30.99700 54.55600 38.26800
C  31.54500 55.86800 38.58100
C  31.36000 53.56100 39.42500
C  29.15600 54.81300 36.60500
C  28.09000 53.72400 36.19700
H  27.25000 54.18600 34.95900
N  33.23200 58.38000 39.37400
C  33.74700 57.19000 38.87100
C  35.13500 57.31200 38.66100
C  35.48300 58.63500 39.01500
C  34.22200 59.31500 39.41900
C  35.99600 56.23300 38.05100
C  36.90200 59.17600 38.83900
O  37.85900 58.47500 38.55100
C  37.21100 60.64700 38.91400
N  31.53400 60.79600 40.08500
C  32.78100 61.33200 40.23300
C  32.72400 62.72200 40.84600
C  31.17700 62.96600 41.00700
C  30.57600 61.62800 40.49700
C  33.68600 62.89800 42.07400
C  30.65200 64.28800 40.16400
C  29.87800 65.31100 41.04000
N  29.14800 59.18300 39.92900
C  28.49200 60.25800 40.31400
C  27.07900 60.08700 40.26400
C  26.95200 58.84600 39.76000
C  28.20300 58.28400 39.54400
C  26.06800 61.10800 40.61300
C  25.89800 57.85400 39.42700
O  24.68900 57.87800 39.43900
C  26.69200 56.59800 38.80400
C  26.30200 55.37300 39.60500
O  26.95800 54.96300 40.52800
O  25.20600 54.68300 38.99900
C  25.04900 53.38400 39.63700
H  33.52900 55.16200 38.34000
H  34.85100 61.27900 39.83000
H  28.62700 62.27800 40.91900
H  29.03500 54.12700 38.66300
H  31.45500 54.20800 37.34200
H  32.04500 54.06400 40.10700
H  31.80700 52.63000 39.07600
H  30.45400 53.29000 39.96800
H  30.03400 54.61400 35.99100
H  28.79400 55.78400 36.26800
H  27.42600 53.65100 37.05900
H  28.60600 52.79200 35.97000
H  36.18100 56.43400 36.99600
H  35.59400 55.23000 38.19900
H  36.86500 56.22700 38.70900
H  36.42400 61.24700 38.45600
H  38.09100 60.97900 38.36200
H  37.23500 60.72200 40.00100
H  33.14000 63.44600 40.14500
H  31.08900 63.03000 42.09100
H  33.25300 63.60900 42.77800
H  34.70400 63.20600 41.83700
H  33.71300 61.92500 42.56500
H  30.00800 63.85700 39.39900
H  31.48000 64.76600 39.63900
H  30.38400 66.25700 40.84300
H  29.88300 65.04400 42.09700
H  28.85000 65.39000 40.68800
H  26.15300 61.89100 39.85900
H  26.08300 61.43400 41.65300
H  25.10600 60.63500 40.41800
H  26.45800 56.43900 37.75200
H  25.86100 52.72000 39.34000
H  24.02000 53.06800 39.46300
H  25.20500 53.60400 40.69300
Mg 9.48000 48.03300 26.01900
C  7.44700 48.43900 28.87600
C  12.15700 49.20700 27.95100
C  11.39800 48.10900 23.24900
C  6.57300 47.69900 24.14100
N  9.67300 48.83400 28.12500
C  8.79000 48.74700 29.17700
C  9.49800 49.00500 30.55900
C  10.93900 49.58200 30.19500
C  10.95800 49.18300 28.66000
C  11.20400 51.15700 30.30200
C  9.55700 47.71900 31.42900
C  10.38800 47.77100 32.68000
H  9.83300 46.99200 33.86900
N  11.55700 48.35000 25.71000
C  12.45400 48.81800 26.60600
C  13.78100 48.83900 25.95900
C  13.59800 48.42400 24.60800
C  12.14600 48.31000 24.47200
C  15.07600 49.12100 26.68400
C  14.64900 48.15600 23.58300
O  14.30600 47.77800 22.46900
C  16.20000 48.24800 23.85900
N  9.10500 47.61300 24.09800
C  10.02500 47.80500 23.05300
C  9.38600 47.63000 21.62700
C  7.91400 47.33500 21.98700
C  7.84300 47.57100 23.52800
C  9.67400 48.60000 20.43600
C  7.38200 46.00300 21.47900
C  6.54300 46.07600 20.20300
N  7.42700 47.95200 26.38800
C  6.35800 47.78600 25.48000
C  5.07900 47.84900 26.19100
C  5.49000 48.07900 27.60000
C  6.88500 48.20400 27.58600
C  3.69800 47.61000 25.64700
C  5.00500 48.29100 28.91300
O  3.87300 48.22100 29.37400
C  6.29500 48.43300 29.88700
C  6.22700 47.21200 30.71100
O  6.51900 46.14100 30.30300
O  5.73200 47.40500 31.98700
C  5.22200 46.29300 32.78500
H  13.02400 49.60400 28.48400
H  11.87200 48.00200 22.27100
H  5.72600 47.54900 23.46800
H  8.89200 49.79200 31.00600
H  11.86400 49.17000 30.59800
H  11.54700 51.33100 31.32200
H  10.20700 51.56000 30.12200
H  11.85400 51.59800 29.54600
H  9.88000 46.98800 30.68800
H  8.54300 47.51000 31.77000
H  10.54500 48.82600 32.90100
H  11.32900 47.32200 32.36000
H  15.00900 49.69600 27.60800
H  15.63300 49.75100 25.99000
H  15.70100 48.27700 26.97500
H  16.36400 47.61400 24.73000
H  16.50700 49.27200 24.07200
H  16.85600 47.91700 23.05400
H  9.85400 46.67000 21.40800
H  7.35000 48.19400 21.62400
H  10.33300 48.18100 19.67600
H  10.17300 49.44900 20.90300
H  8.75300 48.99600 20.00900
H  6.64700 45.63200 22.19400
H  8.13000 45.21600 21.37800
H  6.75600 47.00600 19.67400
H  5.48300 46.03200 20.45200
H  6.85000 45.15500 19.70800
H  2.92200 47.75200 26.39900
H  3.78000 46.54100 25.45000
H  3.47500 48.03600 24.66900
H  6.33500 49.27500 30.57700
H  4.83500 46.74000 33.70100
H  6.07600 45.64600 32.98700
H  4.50000 45.62200 32.32000

