158

Mg 46.24000 24.81400 28.61800
C  47.10400 27.24000 31.14200
C  45.63300 22.58200 31.11100
C  45.52800 22.54600 26.32000
C  47.64100 26.87800 26.32000
N  46.15900 25.01300 30.85700
C  46.58200 26.06100 31.60100
C  46.33300 25.83000 33.07200
C  46.00200 24.26700 33.09500
C  45.97100 23.88000 31.61400
C  46.99000 23.45700 34.01800
C  45.16100 26.77600 33.56500
C  45.30600 27.49400 34.87700
H  45.73800 26.70600 36.15300
N  45.63900 22.87800 28.70700
C  45.41400 22.09800 29.80200
C  44.98400 20.87000 29.44800
C  44.67800 20.88300 28.11900
C  45.25200 22.16000 27.61000
C  44.95600 19.68900 30.46500
C  43.97900 19.87200 27.36900
O  43.55600 20.15500 26.25000
C  43.66500 18.53600 27.94200
N  46.66700 24.64900 26.60300
C  46.29800 23.63100 25.79000
C  46.54200 23.86000 24.36000
C  47.13400 25.32100 24.37200
C  47.21600 25.63500 25.88200
C  47.40100 22.73700 23.60800
C  46.25900 26.29900 23.49400
C  45.20900 27.20700 24.14100
N  47.07000 26.70600 28.63700
C  47.65000 27.39100 27.60900
C  48.07100 28.56700 28.13900
C  47.93900 28.55600 29.50600
C  47.27700 27.41500 29.77200
C  48.70100 29.71100 27.34100
C  48.25800 29.25400 30.74300
O  48.80500 30.32500 30.95800
C  47.59000 28.51000 31.85200
C  48.55700 28.30900 32.89700
O  49.52300 27.57000 32.87100
O  48.22800 29.22300 33.87700
C  48.95700 28.98200 35.17900
H  45.36500 21.87800 31.90100
H  45.08700 21.77000 25.69100
H  48.11000 27.50600 25.56000
H  47.32800 26.12500 33.40500
H  45.00200 24.01400 33.44800
H  47.62100 24.14500 34.58000
H  47.63200 22.90000 33.33500
H  46.47400 22.66500 34.56100
H  44.33900 26.12900 33.87200
H  44.90600 27.51100 32.80200
H  44.38600 28.05200 35.05000
H  46.19200 28.05400 34.58000
H  45.52500 18.87400 30.01700
H  43.93400 19.38700 30.69600
H  45.40800 19.81500 31.44900
H  43.22300 17.89100 27.18200
H  42.97200 18.66500 28.77400
H  44.52000 17.92200 28.22300
H  45.59200 23.89200 23.82600
H  48.19200 25.25300 24.11900
H  48.44900 22.99700 23.45900
H  47.03500 22.79400 22.58300
H  47.35900 21.73200 24.02700
H  45.89100 25.77000 22.61500
H  47.02700 26.99800 23.16500
H  45.16000 27.05800 25.21900
H  44.16900 27.11000 23.82800
H  45.52400 28.24000 23.99000
H  48.20200 29.65300 26.37400
H  49.76900 29.53500 27.21200
H  48.38200 30.67500 27.73700
H  46.73400 29.01900 32.29400
H  48.94500 29.89900 35.76700
H  50.02000 28.74200 35.16100
H  48.32500 28.27600 35.71700
Mg 41.70700 42.12700 26.00000
C  40.98700 44.36100 28.77100
C  42.71700 39.94100 28.38800
C  42.67300 40.22600 23.52300
C  40.90500 44.67400 23.84600
N  41.94300 42.19700 28.42400
C  41.49600 43.13200 29.27500
C  41.71000 42.68300 30.76300
C  42.06200 41.19000 30.57600
C  42.17100 41.06100 29.08100
C  43.25700 40.59500 31.44400
C  40.46900 43.15100 31.63700
C  40.13500 42.41100 32.94900
H  41.16800 42.67400 34.08300
N  42.47600 40.25100 25.94000
C  42.92100 39.58000 27.04800
C  43.52700 38.33300 26.62200
C  43.41100 38.35100 25.18900
C  42.83300 39.58200 24.77500
C  44.17500 37.23800 27.52800
C  43.82300 37.32700 24.12500
O  43.56800 37.52300 22.94300
C  44.51200 36.14300 24.56000
N  41.89100 42.50100 23.98900
C  42.07200 41.44400 23.10100
C  42.04600 41.88200 21.56200
C  41.14900 43.14100 21.81800
C  41.35500 43.48000 23.25900
C  43.38200 42.18400 20.84700
C  39.65300 43.03700 21.30300
C  38.85300 41.76700 21.50800
N  41.14200 44.11600 26.24500
C  40.81200 45.03100 25.22400
C  40.34900 46.30600 25.82400
C  40.42400 46.06400 27.20000
C  40.94400 44.73600 27.39300
C  39.98400 47.56000 25.08700
C  40.12600 46.69600 28.47800
O  39.60200 47.81300 28.70100
C  40.47200 45.56700 29.52400
C  41.35700 46.10600 30.57000
O  42.58600 46.24000 30.41800
O  40.64700 46.47700 31.64600
C  41.39300 46.68900 32.86900
H  42.93300 39.11200 29.06600
H  43.03900 39.68100 22.65000
H  40.58000 45.42600 23.12500
H  42.62400 43.22400 31.00600
H  41.13000 40.66600 30.78900
H  43.92700 40.01000 30.81500
H  42.83900 39.86400 32.13600
H  43.77400 41.43000 31.91700
H  39.56000 43.02500 31.04900
H  40.43900 44.19800 31.94100
H  40.00100 41.33000 32.91900
H  39.18000 42.87000 33.20500
H  45.16100 37.12500 27.07600
H  43.71600 36.26700 27.34100
H  44.10400 37.39000 28.60500
H  44.69000 35.53400 23.67400
H  43.88100 35.64800 25.29800
H  45.45100 36.47200 25.00700
H  41.47100 41.16500 20.97700
H  41.52900 44.06800 21.38800
H  43.73700 43.14300 21.22500
H  43.37700 42.12900 19.75900
H  44.14700 41.44700 21.09200
H  39.81400 43.13100 20.22900
H  39.20400 43.97400 21.63300
H  37.85500 42.10700 21.78500
H  39.37000 41.20500 22.28500
H  38.83700 41.28500 20.53000
H  39.31300 47.19300 24.31000
H  40.93900 47.92700 24.71200
H  39.64700 48.26100 25.85100
H  39.56600 45.29000 30.06400
H  41.14200 45.80800 33.45900
H  40.93000 47.50300 33.42700
H  42.45900 46.87500 32.73800

