158

Mg 17.19800 -2.42900 28.14300
C  16.39300 -0.19400 30.80600
C  19.16800 -4.08900 30.29000
C  18.59000 -3.86000 25.59900
C  15.69200 0.04400 26.02100
N  17.87900 -1.98600 30.28300
C  17.21400 -1.25300 31.24700
C  17.52500 -1.70500 32.64900
C  18.64400 -2.76300 32.36700
C  18.52100 -3.00600 30.85400
C  20.04800 -2.32900 32.81900
C  16.30300 -2.22000 33.48400
C  16.24200 -1.67200 34.92200
H  17.49200 -1.03900 35.58200
N  18.56800 -3.97500 27.97000
C  19.18100 -4.54500 28.96700
C  19.82600 -5.77200 28.48700
C  19.75700 -5.69000 27.06600
C  18.94600 -4.48000 26.83800
C  20.42300 -6.87000 29.35600
C  20.19800 -6.64000 25.98200
O  19.87700 -6.46600 24.81000
C  20.85600 -8.03400 26.33000
N  17.10800 -1.98500 26.14600
C  17.83400 -2.70400 25.26000
C  17.64200 -2.23800 23.74200
C  16.68100 -1.08400 23.96000
C  16.39800 -1.00600 25.44100
C  19.04700 -1.69300 23.13100
C  15.39200 -1.05200 23.08100
C  14.12500 -1.56900 23.63300
N  16.11700 -0.51400 28.31800
C  15.46000 0.29400 27.38400
C  14.85100 1.36200 28.03100
C  15.19700 1.23000 29.36500
C  15.99600 0.09500 29.48300
C  13.95000 2.52100 27.45500
C  15.05400 1.84000 30.63400
O  14.44800 2.90200 31.01100
C  15.67300 0.85000 31.65800
C  16.59500 1.69100 32.53700
O  17.69000 2.22900 32.31800
O  15.88100 1.98500 33.63600
C  16.30300 3.08600 34.44800
H  19.76200 -4.70100 30.97200
H  19.00300 -4.29100 24.68400
H  15.23600 0.76900 25.34400
H  17.78900 -0.79800 33.19300
H  18.43300 -3.69600 32.88900
H  20.20000 -1.30000 33.14400
H  20.70400 -2.57600 31.98400
H  20.40300 -3.01100 33.59200
H  16.27400 -3.30300 33.60600
H  15.44000 -2.03500 32.84400
H  16.00800 -2.44100 35.65800
H  15.43100 -0.94900 34.84800
H  20.56700 -6.59000 30.39900
H  21.40100 -7.06400 28.91300
H  19.71000 -7.69200 29.28500
H  20.17000 -8.62300 26.93900
H  21.84800 -7.86000 26.74800
H  20.98200 -8.61100 25.41400
H  17.15700 -3.03800 23.18300
H  17.19400 -0.13800 23.78400
H  18.92100 -0.76700 22.57100
H  19.36400 -2.35100 22.32200
H  19.93300 -1.62800 23.76200
H  15.54300 -1.72500 22.23700
H  15.18600 -0.07600 22.64100
H  14.34900 -2.45800 24.22300
H  13.39200 -1.81800 22.86600
H  13.70300 -0.91600 24.39800
H  12.93200 2.28400 27.14500
H  14.53300 3.02400 26.68400
H  13.86100 3.32200 28.18900
H  14.90700 0.40600 32.29400
H  15.99200 4.03500 34.01200
H  17.39300 3.09200 34.43800
H  15.80500 2.95300 35.40800
Mg -5.59600 25.29900 26.92800
C  -3.85200 27.10000 29.29600
C  -6.74500 23.21400 29.29800
C  -6.46700 23.06500 24.42700
C  -3.88200 27.03100 24.48300
N  -5.21900 25.06000 29.07400
C  -4.56000 25.98100 29.85600
C  -4.84100 25.73800 31.34600
C  -5.46400 24.29400 31.33000
C  -5.86200 24.18200 29.79500
C  -4.53500 23.19100 31.94400
C  -5.64600 26.83300 31.99400
C  -5.15700 27.24700 33.42800
H  -6.01100 26.84800 34.67900
N  -6.66000 23.45600 26.84000
C  -7.12800 22.78700 27.96600
C  -7.78000 21.61500 27.58200
C  -7.63400 21.52100 26.15300
C  -6.88700 22.72800 25.74700
C  -8.50500 20.69000 28.47800
C  -8.17800 20.40400 25.28500
O  -8.04900 20.38100 24.06800
C  -8.98900 19.22500 25.80900
N  -5.22000 25.04900 24.83900
C  -5.72500 24.08900 24.04000
C  -5.24900 24.25400 22.51800
C  -4.62100 25.60900 22.59100
C  -4.59000 25.95300 24.08200
C  -4.32800 23.12500 22.03900
C  -5.38200 26.78700 21.72500
C  -4.98400 26.94200 20.25000
N  -4.37100 26.96400 26.80600
C  -3.76100 27.58100 25.79000
C  -3.02300 28.77000 26.20500
C  -3.00400 28.61900 27.61800
C  -3.80500 27.45300 27.94800
C  -2.32800 29.75600 25.28500
C  -2.52000 29.19000 28.84100
O  -1.87500 30.20300 29.10100
C  -3.05500 28.21500 29.96500
C  -1.93100 27.82300 30.83000
O  -1.29600 26.77200 30.67500
O  -1.91200 28.61300 31.97300
C  -0.90300 28.12500 32.97000
H  -7.09300 22.52400 30.07000
H  -6.82600 22.35500 23.67800
H  -3.41500 27.62400 23.69400
H  -3.91900 25.62000 31.91400
H  -6.32000 24.33800 32.00400
H  -3.46800 23.40000 31.87500
H  -4.76200 22.31600 31.33400
H  -4.82200 22.95300 32.96800
H  -6.67500 26.53300 32.19000
H  -5.70500 27.66400 31.29200
H  -4.94500 28.31200 33.32800
H  -4.12400 26.93400 33.58700
H  -8.69200 21.25800 29.38900
H  -7.92900 19.80000 28.73200
H  -9.47500 20.53700 28.00500
H  -9.95600 19.58500 26.16100
H  -8.43700 18.55700 26.47000
H  -9.37200 18.61700 24.99000
H  -6.13600 24.40200 21.90300
H  -3.62600 25.58300 22.14700
H  -4.21700 22.39300 22.83900
H  -3.29900 23.40600 21.81300
H  -4.78900 22.70300 21.14600
H  -5.43800 27.80400 22.11300
H  -6.42900 26.49300 21.78800
H  -4.24800 27.73900 20.14000
H  -5.88800 27.07600 19.65500
H  -4.51700 26.04300 19.84800
H  -2.61000 29.67300 24.23500
H  -1.26200 29.90500 25.45700
H  -2.76200 30.71000 25.58400
H  -3.71200 28.65400 30.71600
H  -1.28000 27.21200 33.43100
H  -0.77800 28.90200 33.72300
H  0.06100 27.93300 32.49800

