158

Mg 35.47600 2.45000 29.19700
C  33.55800 3.80800 31.94700
C  38.20500 2.48200 31.15800
C  37.21500 1.77500 26.44700
C  32.56300 2.99900 27.22500
N  35.80600 3.10600 31.32900
C  34.85400 3.38900 32.27900
C  35.56700 3.41500 33.67200
C  37.09500 3.15200 33.38500
C  37.05400 2.91400 31.82000
C  38.14200 4.19700 33.77000
C  34.88800 2.59700 34.87200
C  35.66500 1.63400 35.78500
H  36.65300 2.19300 36.76300
N  37.48400 1.97500 28.91100
C  38.45300 2.03100 29.81300
C  39.67100 1.52100 29.24600
C  39.46000 1.32500 27.83600
C  38.00600 1.71300 27.65900
C  40.85500 1.25500 30.06200
C  40.27000 1.01000 26.66300
O  39.95100 0.99700 25.50100
C  41.66500 0.67900 26.96400
N  34.95900 2.43000 27.16000
C  35.81000 1.99700 26.24500
C  35.19100 1.90300 24.89100
C  33.68600 2.00000 25.16400
C  33.72300 2.48400 26.61700
C  35.76300 2.87900 23.86700
C  32.93900 0.62100 25.12700
C  32.99100 -0.36700 23.90800
N  33.41100 3.16000 29.50700
C  32.44800 3.42300 28.57600
C  31.25100 3.97700 29.27900
C  31.71000 4.13800 30.67000
C  32.99600 3.61900 30.73100
C  29.83700 4.33600 28.74100
C  31.26500 4.43100 31.96000
O  30.17000 4.77700 32.28800
C  32.42800 4.17300 32.88900
C  32.66000 5.39300 33.73000
O  33.44900 6.26200 33.53600
O  31.71500 5.39900 34.75100
C  31.58400 6.70400 35.40200
H  39.09000 2.32100 31.77800
H  37.66000 1.49000 25.49200
H  31.71700 3.04900 26.53600
H  35.57800 4.44700 34.02500
H  37.52900 2.28700 33.88500
H  38.51900 4.80400 32.94700
H  39.04200 3.66000 34.07100
H  37.76900 4.79400 34.60200
H  34.17800 1.97400 34.32700
H  34.21300 3.16700 35.51000
H  36.09300 0.84000 35.17300
H  34.94400 1.06400 36.37200
H  41.00600 0.17800 30.13200
H  40.76900 1.58200 31.09800
H  41.74800 1.71400 29.63600
H  41.79800 -0.10200 27.71300
H  42.21100 1.59600 27.18500
H  42.05200 0.24100 26.04400
H  35.40400 0.90700 24.50300
H  33.18200 2.81300 24.64000
H  36.74800 3.25200 24.14800
H  35.22600 3.82300 23.76500
H  35.99100 2.40900 22.91000
H  31.96000 1.06700 24.95300
H  33.10100 0.09900 26.07000
H  31.98900 -0.76500 23.74400
H  33.66700 -1.18600 24.15400
H  33.45400 0.15400 23.07100
H  29.28400 3.44500 28.44400
H  30.02200 4.94500 27.85700
H  29.21900 4.79000 29.51600
H  32.23400 3.27300 33.47300
H  31.12400 7.30100 34.61500
H  32.45500 7.10200 35.92300
H  30.86800 6.67500 36.22300
Mg 48.86400 35.98800 28.63500
C  46.69500 34.39900 30.91000
C  49.09100 38.68900 30.61400
C  50.54900 37.48000 26.18500
C  48.29900 33.33700 26.42900
N  47.97100 36.50900 30.60300
C  47.25300 35.63200 31.39900
C  47.09800 36.28600 32.78900
C  47.60200 37.77000 32.60400
C  48.24000 37.71400 31.18800
C  46.50200 38.80500 32.74800
C  47.68500 35.49500 33.93500
C  49.02600 34.81400 33.64100
H  50.31000 35.64900 33.74600
N  49.78300 37.78200 28.47300
C  49.75400 38.79900 29.38000
C  50.60800 39.87500 28.94500
C  51.16500 39.49300 27.73500
C  50.53500 38.16300 27.40000
C  50.80200 41.09500 29.80400
C  52.09700 40.27000 26.79200
O  52.48200 39.78800 25.75700
C  52.54600 41.62700 27.21300
N  49.38500 35.45200 26.55400
C  50.07500 36.22600 25.79200
C  50.37400 35.66400 24.39000
C  49.79300 34.18700 24.53500
C  49.14700 34.30700 25.97700
C  49.64600 36.43300 23.19900
C  50.71200 32.89400 24.49400
C  50.06200 31.59000 23.90300
N  47.81500 34.20600 28.69200
C  47.66800 33.25600 27.71000
C  46.88900 32.14900 28.24500
C  46.43800 32.58200 29.44800
C  46.98100 33.86000 29.66900
C  46.51700 30.78000 27.55600
C  45.64600 32.20600 30.51600
O  44.97200 31.16600 30.78200
C  45.63200 33.42700 31.44900
C  45.95300 32.93400 32.77800
O  46.90900 32.18400 33.10200
O  44.97600 33.23700 33.56100
C  44.85300 32.63400 34.90200
H  49.18700 39.53300 31.30100
H  50.96000 38.08300 25.37300
H  47.98400 32.51900 25.77800
H  46.04000 36.36300 33.03800
H  48.45800 37.91600 33.26300
H  46.69000 39.27600 33.71200
H  45.50100 38.38600 32.85900
H  46.46600 39.59100 31.99400
H  46.95900 34.87400 34.46000
H  47.99000 36.23400 34.67600
H  48.98400 34.52300 32.59100
H  49.16800 33.87800 34.18000
H  51.80800 41.31400 30.16000
H  50.22300 41.17500 30.72400
H  50.50800 41.93300 29.17200
H  51.71800 42.33100 27.30400
H  53.27900 42.03700 26.51800
H  52.94800 41.51500 28.21900
H  51.44700 35.70800 24.20600
H  48.98200 34.01900 23.82600
H  50.26700 36.71100 22.34700
H  49.01700 37.22200 23.61300
H  48.98500 35.71500 22.71300
H  50.97900 32.70000 25.53300
H  51.57500 33.13900 23.87500
H  50.53000 30.82100 24.51800
H  50.44400 31.52300 22.88400
H  48.97700 31.65700 23.98800
H  45.43500 30.66000 27.60800
H  46.87300 29.96100 28.18000
H  46.89000 30.65600 26.53900
H  44.66100 33.92200 31.46000
H  43.87200 32.15900 34.86700
H  45.00900 33.43500 35.62400
H  45.59100 31.85200 35.07900

