158

Mg 8.81000 2.70300 27.88100
C  10.17700 1.16700 30.80600
C  7.01300 4.77300 29.93100
C  7.64100 4.19900 25.14600
C  10.45400 0.32800 25.91700
N  8.70400 2.98500 30.18600
C  9.40000 2.32400 31.13400
C  9.04300 2.86100 32.50100
C  7.96300 3.91100 32.18200
C  7.73800 3.78600 30.67200
C  6.60600 3.65100 32.91400
C  10.27400 3.27600 33.30200
C  10.10200 4.11700 34.55800
H  10.94500 3.65400 35.77000
N  7.42200 4.25500 27.57500
C  6.79500 4.99400 28.52600
C  5.95900 6.06100 27.91500
C  6.09100 5.91200 26.51800
C  7.11100 4.76800 26.35100
C  5.25000 7.12200 28.70700
C  5.39400 6.71100 25.36400
O  5.68700 6.54500 24.17400
C  4.22300 7.51200 25.70700
N  9.05400 2.33100 25.83100
C  8.43700 3.14100 24.84900
C  8.88500 2.73600 23.41900
C  9.54700 1.33200 23.67900
C  9.78700 1.32900 25.21300
C  7.67000 2.51400 22.44500
C  10.95900 1.13300 22.93000
C  11.03100 0.34500 21.62300
N  9.95700 0.99800 28.23500
C  10.64900 0.21600 27.32900
C  11.27900 -0.89000 28.04800
C  11.20000 -0.46500 29.39800
C  10.37200 0.64500 29.52300
C  12.08300 -2.10500 27.55800
C  11.69400 -0.76800 30.74300
O  12.49600 -1.55600 31.16200
C  11.00400 0.25900 31.73000
C  10.00900 -0.48300 32.59100
O  9.11800 -1.29200 32.17500
O  10.39900 -0.45700 33.89600
C  9.74100 -1.34800 34.80300
H  6.69100 5.64800 30.50000
H  7.45900 4.83800 24.28000
H  10.79500 -0.41400 25.19200
H  8.57300 2.09900 33.12200
H  8.38100 4.87000 32.48800
H  5.80100 3.52800 32.19000
H  6.33600 4.51700 33.51900
H  6.65100 2.82100 33.61900
H  10.86700 3.84500 32.58500
H  10.95500 2.45900 33.53800
H  9.10400 4.34200 34.93600
H  10.50700 5.07800 34.24300
H  5.39600 8.11500 28.28200
H  5.40200 7.07100 29.78500
H  4.19900 6.85700 28.59100
H  4.48600 8.42000 26.24800
H  3.64000 6.90900 26.40300
H  3.54400 7.81700 24.91000
H  9.56800 3.43000 22.92900
H  8.97300 0.44700 23.40400
H  7.56000 1.45400 22.21700
H  7.68900 3.29600 21.68500
H  6.73700 2.75600 22.95600
H  11.62900 0.72600 23.68800
H  11.37500 2.10300 22.65500
H  10.07800 0.48900 21.11300
H  11.06700 -0.73300 21.78300
H  11.93000 0.48000 21.02200
H  13.12100 -1.80900 27.71200
H  11.89900 -2.00600 26.48800
H  11.72900 -3.03700 27.99800
H  11.73400 0.81800 32.31600
H  9.02000 -0.77600 35.38700
H  10.56500 -1.54300 35.48800
H  9.40200 -2.28300 34.35600
Mg 53.81500 22.68400 44.81000
C  51.51700 25.39600 44.02500
C  51.39200 20.51500 44.14000
C  56.31500 20.36500 44.56800
C  56.35300 25.19900 45.23600
N  51.75700 22.93200 44.07800
C  51.00000 24.09500 43.95100
C  49.46200 23.70300 43.81600
C  49.47900 22.21800 44.28500
C  50.94600 21.84600 44.10400
C  49.01700 21.94900 45.73300
C  48.88900 23.94400 42.34200
C  49.82600 23.47000 41.17700
H  49.24300 23.07100 39.81700
N  53.89700 20.65200 44.33400
C  52.74200 19.96500 44.09400
C  53.10900 18.56700 43.89900
C  54.55100 18.49500 44.06100
C  54.99000 19.85800 44.34400
C  52.26500 17.52700 43.43400
C  55.37200 17.17100 43.99500
O  54.87500 16.07600 43.83800
C  56.87900 17.26800 44.16400
N  56.08500 22.79700 44.92700
C  56.84400 21.64900 44.85100
C  58.28800 21.90100 45.25000
C  58.31700 23.52200 45.52900
C  56.84000 23.92600 45.23400
C  58.70500 20.95800 46.42300
C  59.35500 24.36700 44.70300
C  60.09500 25.44300 45.56800
N  53.94200 24.80300 44.66200
C  55.04400 25.65800 44.88800
C  54.62200 27.05800 44.81900
C  53.24200 26.98200 44.52500
C  52.87100 25.61500 44.39800
C  55.54200 28.25400 45.06900
C  52.10300 27.78600 44.18700
O  51.93400 28.98800 44.15100
C  50.98500 26.78800 43.85400
C  50.74200 26.93300 42.39100
O  51.49300 26.52700 41.46400
O  49.56200 27.57600 42.17400
C  49.11500 27.74000 40.80100
H  50.59200 19.77400 44.18300
H  57.19600 19.72000 44.58900
H  57.17800 25.89400 45.40600
H  49.00900 24.35300 44.56400
H  48.89000 21.62200 43.58800
H  48.78500 22.80600 46.36600
H  49.86800 21.53300 46.27200
H  48.26100 21.16300 45.70800
H  48.75400 25.01900 42.22700
H  47.90400 23.49200 42.22200
H  50.17300 22.47100 41.44100
H  50.61200 24.20900 41.02200
H  51.25600 17.81400 43.13700
H  52.07500 16.89100 44.29900
H  52.70700 16.98900 42.59500
H  56.90400 17.70500 45.16300
H  57.18200 17.91100 43.33800
H  57.35900 16.31500 43.93900
H  58.86500 21.72600 44.34200
H  58.59900 23.65800 46.57300
H  58.98500 19.99200 46.00100
H  57.82900 20.83000 47.05800
H  59.58200 21.32400 46.95600
H  58.84400 24.96900 43.95200
H  60.10600 23.74000 44.22200
H  60.13200 26.44300 45.13700
H  61.15800 25.20300 45.59500
H  59.77100 25.58800 46.59900
H  55.83500 28.12100 46.11000
H  55.03900 29.20600 44.90200
H  56.41800 28.19100 44.42300
H  50.10100 26.93700 44.47300
H  49.89400 28.00700 40.08600
H  48.36700 28.53200 40.78000
H  48.65000 26.83000 40.42200

