158

Mg 17.35600 51.04400 25.87800
C  19.31300 49.88100 28.46400
C  15.36700 52.65500 28.32300
C  15.88100 52.68900 23.49100
C  19.81300 49.83800 23.56900
N  17.28900 51.20200 28.13100
C  18.14800 50.53600 28.95300
C  17.88500 50.96900 30.45900
C  16.41600 51.54500 30.33100
C  16.36500 51.85200 28.90100
C  15.28400 50.53300 30.71300
C  18.92200 51.92400 31.23000
C  18.82900 51.87300 32.76900
H  17.86400 50.98700 33.50100
N  15.67500 52.24000 25.87000
C  15.04100 52.81800 26.94700
C  13.96600 53.65900 26.45600
C  14.08900 53.76800 25.07100
C  15.26300 52.84400 24.72800
C  12.98500 54.30200 27.31200
C  13.14700 54.46900 24.06200
O  13.16700 54.16700 22.87100
C  12.00900 55.47100 24.55700
N  17.96800 51.39000 23.88400
C  17.09400 52.09300 23.04100
C  17.45800 51.97500 21.56800
C  18.81700 51.27800 21.67200
C  18.88800 50.76900 23.09900
C  16.45600 51.41100 20.48000
C  19.98000 52.38900 21.44400
C  21.19500 51.74900 20.70100
N  19.07500 49.82700 25.98400
C  20.02700 49.47700 24.99300
C  21.13900 48.68500 25.60400
C  20.87000 48.78000 26.96500
C  19.64300 49.59900 27.13300
C  22.28700 47.96300 24.89900
C  21.37200 48.45100 28.29800
O  22.32300 47.86100 28.63300
C  20.32900 49.12800 29.32000
C  19.75200 48.18200 30.26000
O  18.93800 47.33000 29.89200
O  20.29400 48.33500 31.54700
C  19.69400 47.45000 32.51400
H  14.71000 53.11400 29.06500
H  15.38500 53.18200 22.65200
H  20.61900 49.45600 22.93900
H  17.91800 49.97900 30.91400
H  16.14200 52.49700 30.78400
H  14.80400 50.20300 29.79200
H  14.55500 50.95200 31.40700
H  15.71000 49.73200 31.31600
H  18.92600 52.98300 30.97000
H  19.94100 51.63700 30.97200
H  18.59900 52.87700 33.12500
H  19.81600 51.54300 33.09300
H  12.05000 54.01000 26.83400
H  13.12200 55.38200 27.25100
H  12.99700 53.93700 28.33900
H  11.16000 54.87600 24.89300
H  11.71700 56.16700 23.77000
H  12.54800 56.11000 25.25600
H  17.47900 53.03200 21.30400
H  18.85100 50.44100 20.97500
H  17.04800 50.84200 19.76400
H  15.89700 52.20200 19.98000
H  15.68200 50.79100 20.93300
H  20.37400 52.80300 22.37200
H  19.60800 53.15400 20.76200
H  21.42000 52.39800 19.85500
H  20.85400 50.82700 20.22900
H  22.03200 51.52900 21.36500
H  21.90500 47.26500 24.15400
H  22.83800 47.28000 25.54500
H  23.04300 48.62000 24.47000
H  20.91200 49.84700 29.89500
H  18.60700 47.50300 32.45400
H  19.90000 47.78000 33.53300
H  19.97700 46.40500 32.38800
Mg -2.39100 34.22900 26.62500
C  -3.94300 32.78500 29.45800
C  -1.37200 36.80600 28.69300
C  -1.37500 35.82600 23.85100
C  -3.96400 31.80600 24.63900
N  -2.73800 34.76900 28.80700
C  -3.27100 33.94200 29.77700
C  -3.05900 34.48000 31.23700
C  -2.38200 35.90900 30.95600
C  -2.16600 35.85700 29.41300
C  -3.25500 37.05700 31.44700
C  -2.21900 33.56200 32.15600
C  -2.88400 32.98800 33.39500
H  -1.97300 32.55100 34.54300
N  -1.39500 36.03000 26.28700
C  -1.06300 36.90800 27.25900
C  -0.25200 37.92700 26.61900
C  -0.20100 37.65000 25.26900
C  -0.99100 36.42300 25.08100
C  0.38700 39.03000 27.40700
C  0.51700 38.34200 24.13200
O  0.57900 37.99300 22.96600
C  1.41400 39.49800 24.50600
N  -2.79600 33.94900 24.54700
C  -2.22600 34.71600 23.55800
C  -2.87600 34.49500 22.18700
C  -3.47800 33.02600 22.45100
C  -3.43400 32.87000 23.97900
C  -3.98600 35.48700 21.63600
C  -2.92700 31.86000 21.69900
C  -1.44200 31.58000 21.60100
N  -3.63500 32.55300 26.95600
C  -4.05900 31.66700 26.02700
C  -4.88800 30.70600 26.73800
C  -4.86700 31.09400 28.05800
C  -4.07800 32.26900 28.20700
C  -5.74200 29.56800 26.22000
C  -5.27700 30.71100 29.39300
O  -5.96000 29.71400 29.62000
C  -4.79100 31.84700 30.37800
C  -5.93500 32.39600 31.15000
O  -6.56600 33.43600 30.89500
O  -6.17300 31.55100 32.26000
C  -7.01000 32.00100 33.28600
H  -0.96600 37.57700 29.35100
H  -1.21100 36.49200 23.00200
H  -4.42400 31.00100 24.06200
H  -4.05100 34.63200 31.66300
H  -1.41800 35.98500 31.45900
H  -4.33200 36.90400 31.51300
H  -3.12200 37.91300 30.78600
H  -2.89200 37.46400 32.39100
H  -1.36600 34.17200 32.45300
H  -1.78300 32.78100 31.53300
H  -3.40300 32.08700 33.06800
H  -3.68000 33.65300 33.72900
H  1.44800 38.87300 27.21400
H  0.12500 39.02800 28.46500
H  0.10000 39.99700 26.99400
H  2.17700 39.40000 25.27800
H  0.69900 40.24900 24.84100
H  1.78500 40.02100 23.62400
H  -2.03900 34.45000 21.49000
H  -4.49700 33.04700 22.06600
H  -3.45400 35.90600 20.78100
H  -4.30600 36.37000 22.18900
H  -4.86300 34.96100 21.26000
H  -3.25500 31.95000 20.66300
H  -3.43500 30.94300 21.99500
H  -1.17700 31.71000 20.55200
H  -1.06600 30.59000 21.86000
H  -0.84800 32.31000 22.15100
H  -5.33000 29.27600 25.25400
H  -6.78900 29.76500 25.98600
H  -5.83200 28.73000 26.91100
H  -4.19000 31.36600 31.15000
H  -7.45200 31.07000 33.64100
H  -7.89300 32.53900 32.94100
H  -6.34600 32.44300 34.02800

