158

Mg -2.67100 17.03600 27.06300
C  -3.01300 14.98300 29.86700
C  -2.79400 19.71700 29.12300
C  -2.16800 19.01300 24.44200
C  -2.65000 14.13900 25.00200
N  -2.81400 17.25500 29.31800
C  -2.81800 16.32100 30.31000
C  -2.94500 16.93200 31.69600
C  -2.87700 18.53300 31.36300
C  -2.86200 18.54500 29.82700
C  -4.08100 19.27100 32.04100
C  -1.89300 16.43400 32.78400
C  -1.53600 17.33500 33.96100
H  -1.02500 16.67600 35.25700
N  -2.57800 19.09000 26.74900
C  -2.72400 20.04500 27.78000
C  -2.58300 21.42500 27.25700
C  -2.44400 21.22200 25.84700
C  -2.36000 19.73800 25.62900
C  -2.74600 22.71700 28.09900
C  -2.38500 22.22000 24.69900
O  -2.20600 21.89100 23.54200
C  -2.18600 23.67600 25.02000
N  -2.48700 16.65400 25.02500
C  -2.24000 17.64200 24.16200
C  -2.07000 17.05800 22.70700
C  -1.96900 15.52400 22.91300
C  -2.39800 15.39500 24.39300
C  -3.36100 17.49300 21.87700
C  -0.52800 14.84200 22.62600
C  0.64100 15.63100 23.20000
N  -2.84900 14.99300 27.42200
C  -2.81700 13.92000 26.39200
C  -3.07200 12.74300 27.15900
C  -3.07600 13.10400 28.55000
C  -2.91200 14.42300 28.61900
C  -3.41700 11.41700 26.57100
C  -3.28100 12.56400 29.96800
O  -3.59900 11.51100 30.49500
C  -3.12600 13.88000 30.82600
C  -1.84400 13.60700 31.54700
O  -0.75700 13.89400 31.17200
O  -2.11500 13.04200 32.78000
C  -1.04200 12.76900 33.75500
H  -2.78200 20.61800 29.74000
H  -1.89800 19.59400 23.55800
H  -2.58500 13.30700 24.29700
H  -3.90000 16.69800 32.16500
H  -1.95100 18.84500 31.84700
H  -4.47800 18.68500 32.87000
H  -4.90800 19.60900 31.41700
H  -3.71500 20.18500 32.51100
H  -1.00900 16.14900 32.21400
H  -2.27600 15.53000 33.25800
H  -2.23300 18.10300 34.29600
H  -0.55600 17.79600 33.83700
H  -2.58900 22.67400 29.17700
H  -3.73200 23.10900 27.84900
H  -2.03300 23.49600 27.83300
H  -1.41000 23.86600 25.76100
H  -3.08200 24.06600 25.50400
H  -1.94400 24.34400 24.19400
H  -1.14300 17.48800 22.32500
H  -2.72200 15.02800 22.29900
H  -3.93800 18.23800 22.42500
H  -3.98400 16.65800 21.55600
H  -3.10000 17.97700 20.93500
H  -0.41400 14.81200 21.54300
H  -0.48900 13.78600 22.89500
H  1.22100 16.06500 22.38600
H  1.41400 15.01900 23.66500
H  0.38700 16.25100 24.06000
H  -3.86900 10.79600 27.34500
H  -2.50500 10.93600 26.21800
H  -4.14800 11.56700 25.77700
H  -3.95400 14.04500 31.51500
H  -1.39500 12.67400 34.78200
H  -0.18000 13.43700 33.73000
H  -0.74000 11.73900 33.56900
Mg 28.43300 57.42600 43.07600
C  26.06400 55.19300 41.66100
C  30.87900 55.48800 41.45800
C  30.66100 59.73400 43.97500
C  25.93800 59.22100 44.38900
N  28.42500 55.59500 41.56800
C  27.36700 54.88500 41.20000
C  27.74400 53.82800 40.07900
C  29.24400 53.61100 40.46500
C  29.55100 54.96800 41.20700
C  29.64900 52.45700 41.41700
C  27.59100 54.41700 38.72600
C  27.18900 53.57100 37.47100
H  28.11200 53.57300 36.23100
N  30.48500 57.59500 42.75000
C  31.27700 56.68600 42.09800
C  32.65600 57.23700 42.05000
C  32.62300 58.44000 42.83000
C  31.23000 58.59800 43.26500
C  33.68300 56.62100 41.15600
C  33.77300 59.45300 43.00000
O  34.92200 59.13700 42.54000
C  33.69000 60.68400 43.78600
N  28.26300 59.30400 43.93000
C  29.35300 60.06000 44.29400
C  28.88400 61.37700 44.97500
C  27.36600 61.23900 45.12100
C  27.18300 59.83100 44.44200
C  29.71200 61.73600 46.22500
C  26.58900 62.33800 44.45000
C  26.70500 62.46900 42.93500
N  26.46500 57.15500 43.20900
C  25.52500 57.96600 43.80900
C  24.20000 57.45500 43.71800
C  24.37800 56.35300 42.81600
C  25.74100 56.20500 42.55600
C  22.90500 58.06400 44.28000
C  23.70500 55.35400 42.05700
O  22.49300 55.15500 41.89100
C  24.79800 54.56800 41.28200
C  24.69200 53.12300 41.69300
O  24.82700 52.64600 42.80100
O  24.50400 52.30100 40.63000
C  24.68000 50.85000 40.75600
H  31.62700 54.88100 40.94400
H  31.29800 60.56100 44.29600
H  25.13900 59.79300 44.86600
H  27.16000 52.90800 40.10600
H  29.78500 53.60700 39.51800
H  28.81500 51.76700 41.54800
H  29.81000 52.88900 42.40500
H  30.46100 51.94100 40.90600
H  28.44300 55.02800 38.42900
H  26.80000 55.14200 38.91700
H  26.20200 53.77300 37.05500
H  27.00600 52.53900 37.76900
H  33.24500 56.51100 40.16400
H  33.97900 55.63000 41.50000
H  34.58700 57.22500 41.07300
H  33.16900 61.53800 43.35300
H  34.70100 61.01700 44.02200
H  33.28200 60.46500 44.77200
H  29.02800 62.25700 44.34900
H  27.09700 61.04200 46.15800
H  30.65400 61.20800 46.37200
H  29.25000 61.72600 47.21200
H  29.86800 62.80200 46.05700
H  27.01100 63.27700 44.81000
H  25.58200 62.17600 44.83600
H  27.55900 61.91200 42.54900
H  26.87200 63.52300 42.71300
H  25.82900 62.13400 42.38000
H  22.09800 57.35800 44.08100
H  22.58300 59.00100 43.82500
H  23.00300 58.30600 45.33800
H  24.74100 54.47500 40.19700
H  24.13100 50.41100 41.58900
H  25.72500 50.62200 40.96600
H  24.37300 50.28500 39.87600

