158

Mg 17.28700 -2.43800 27.49800
C  16.00800 -0.44000 30.10400
C  18.99800 -4.18700 29.92800
C  18.53300 -4.40500 25.06100
C  15.42100 -0.70500 25.21700
N  17.60500 -2.16000 29.71600
C  16.82100 -1.38700 30.56500
C  17.29400 -1.54500 32.10000
C  18.25800 -2.82700 32.07300
C  18.32900 -3.10600 30.46500
C  19.56900 -2.58300 32.85700
C  16.10200 -1.68100 33.08900
C  16.13200 -0.97100 34.43100
H  17.48900 -0.43500 35.03600
N  18.56800 -4.11900 27.49500
C  19.21700 -4.67400 28.61900
C  19.92600 -5.90200 28.19500
C  19.75800 -6.02400 26.82500
C  18.92900 -4.77600 26.37100
C  20.65500 -6.90000 29.14000
C  20.24500 -7.10300 25.81400
O  19.81900 -7.05300 24.64200
C  21.15500 -8.18900 26.30200
N  17.01300 -2.54400 25.39600
C  17.73700 -3.34600 24.65000
C  17.50600 -3.05700 23.19100
C  16.35000 -2.01300 23.19900
C  16.18700 -1.77100 24.70100
C  18.86700 -2.61600 22.45400
C  14.99500 -2.40500 22.50200
C  13.67800 -2.69600 23.32900
N  15.89700 -0.91800 27.57900
C  15.23000 -0.27800 26.56600
C  14.37300 0.76700 27.11400
C  14.72400 0.78200 28.49100
C  15.64800 -0.23600 28.71300
C  13.22300 1.59000 26.46900
C  14.40400 1.42000 29.73400
O  13.57300 2.24700 30.05900
C  15.24700 0.66700 30.85200
C  16.05300 1.61800 31.58800
O  16.90800 2.36000 31.08200
O  15.52000 1.81000 32.80800
C  15.99000 3.07700 33.44200
H  19.46000 -4.81100 30.69600
H  18.74600 -5.11700 24.26100
H  14.79900 -0.21900 24.46200
H  17.86300 -0.62600 32.23700
H  17.84600 -3.70400 32.57300
H  19.88900 -1.54500 32.77700
H  20.36100 -3.22900 32.48000
H  19.31100 -2.94400 33.85300
H  16.16100 -2.71200 33.43800
H  15.21400 -1.51200 32.48000
H  15.72900 -1.59300 35.23100
H  15.39700 -0.17600 34.30700
H  20.32000 -7.92600 28.98200
H  20.37800 -6.62100 30.15700
H  21.72800 -6.92200 28.95000
H  21.95800 -7.83000 26.94500
H  21.61500 -8.79000 25.51700
H  20.64200 -8.86600 26.98600
H  17.02700 -3.92900 22.74700
H  16.73300 -1.10200 22.74000
H  19.67700 -2.93500 23.11000
H  18.96900 -1.53100 22.44500
H  18.97900 -3.27300 21.59200
H  15.21200 -3.28100 21.89000
H  14.75700 -1.63000 21.77400
H  13.06400 -1.80100 23.23200
H  13.89200 -2.88700 24.38000
H  13.12100 -3.50700 22.85800
H  12.49100 1.39400 27.25100
H  12.96100 1.09100 25.53600
H  13.40000 2.63600 26.21600
H  14.50700 0.22400 31.51900
H  15.81000 3.84300 32.68800
H  17.04300 2.92700 33.67800
H  15.46200 3.46900 34.31100
Mg 46.93700 25.80400 28.76800
C  47.95200 27.80600 31.61200
C  46.01500 23.41900 31.08700
C  46.39500 23.68600 26.27500
C  48.32000 28.17700 26.77100
N  46.82600 25.71400 31.15900
C  47.24800 26.66900 32.00900
C  46.76200 26.32200 33.46100
C  46.30400 24.82500 33.27000
C  46.39200 24.59500 31.75400
C  47.18700 23.77500 34.09500
C  45.63500 27.28800 34.02500
C  45.85200 27.99900 35.36300
H  44.95600 27.67000 36.47800
N  46.29900 23.86400 28.70200
C  45.95200 23.03100 29.77600
C  45.45500 21.78900 29.27500
C  45.61400 21.80000 27.82900
C  46.19700 23.12400 27.52000
C  44.86600 20.74800 30.20400
C  45.27500 20.72100 26.86700
O  45.39200 20.77700 25.62200
C  44.64200 19.49100 27.31900
N  47.30000 25.87800 26.86600
C  46.96800 24.92200 25.91900
C  47.33000 25.36200 24.50900
C  47.72900 26.88500 24.77600
C  47.72200 27.02500 26.25400
C  48.50500 24.57100 23.86900
C  46.68800 27.89300 24.17100
C  47.29600 29.22600 23.64700
N  47.89900 27.70300 29.07100
C  48.38800 28.54500 28.11400
C  48.99800 29.71400 28.72700
C  48.79800 29.45800 30.15000
C  48.20600 28.21300 30.29400
C  49.72800 30.82400 28.03600
C  49.00200 30.02100 31.48300
O  49.59600 31.02800 31.92100
C  48.29300 28.93700 32.53700
C  49.20700 28.80400 33.66800
O  50.33900 28.44600 33.58700
O  48.58700 29.09200 34.84300
C  49.37700 28.78400 36.04100
H  45.51500 22.74300 31.78500
H  45.98300 23.06500 25.47600
H  48.75300 28.72000 25.92900
H  47.66500 26.51400 34.04100
H  45.25400 24.68800 33.52900
H  47.73900 24.12500 34.96700
H  47.78100 23.35700 33.28200
H  46.54600 22.99300 34.50300
H  44.76300 26.64600 34.14600
H  45.39000 28.03400 33.26900
H  45.75000 29.05500 35.11400
H  46.86200 27.87200 35.75400
H  45.10900 19.74300 29.85800
H  43.78700 20.90100 30.19600
H  45.24400 20.80100 31.22600
H  45.23900 18.89300 28.00900
H  44.22000 18.93500 26.48200
H  43.77300 19.84100 27.87600
H  46.43200 25.41700 23.89300
H  48.71200 27.15200 24.38900
H  49.26600 25.04200 23.24900
H  47.93700 23.92800 23.19600
H  48.95200 24.04100 24.71100
H  45.88700 28.13400 24.87100
H  46.13200 27.32800 23.42200
H  47.23900 29.38100 22.57000
H  48.35500 29.30300 23.89000
H  46.77100 29.99900 24.20900
H  49.89300 31.63000 28.75100
H  49.32700 31.21700 27.10200
H  50.67700 30.34700 27.79000
H  47.36300 29.41400 32.84600
H  49.84800 27.80100 36.02500
H  48.86600 28.86400 37.00000
H  50.13500 29.56300 36.11900

