158

Mg 23.34600 -6.39200 46.89800
C  25.73000 -3.95900 45.86100
C  21.07000 -4.84100 44.80200
C  21.51800 -9.20700 47.11800
C  25.94200 -7.97400 48.60700
N  23.45500 -4.55200 45.50400
C  24.49100 -3.67500 45.35000
C  24.07400 -2.60000 44.41500
C  22.48800 -2.73500 44.45600
C  22.32800 -4.14900 44.94100
C  21.72900 -1.73000 45.42200
C  24.69700 -2.73300 43.05900
C  25.01400 -1.45900 42.31400
H  24.23400 -1.28300 40.99700
N  21.48700 -6.88800 46.08300
C  20.68900 -6.11100 45.28100
C  19.48300 -6.86400 45.02800
C  19.53600 -8.09700 45.69300
C  20.91900 -8.09800 46.34900
C  18.35100 -6.30400 44.11300
C  18.47300 -9.13400 45.80900
O  17.43000 -8.91900 45.23700
C  18.66400 -10.38800 46.44200
N  23.72300 -8.25200 47.73800
C  22.73700 -9.28500 47.76400
C  23.15600 -10.50300 48.65000
C  24.57400 -10.07000 49.07900
C  24.81100 -8.67100 48.43300
C  22.21600 -10.64000 49.85700
C  25.60700 -11.19200 48.75200
C  26.14900 -11.25100 47.22900
N  25.44200 -5.97200 47.26200
C  26.29100 -6.73400 47.95600
C  27.56700 -6.02600 48.05600
C  27.40300 -4.89500 47.21300
C  26.09000 -5.01100 46.69500
C  28.77200 -6.55900 48.72000
C  28.07400 -3.74300 46.65900
O  29.19100 -3.29200 46.84400
C  26.96500 -3.09400 45.71500
C  26.66200 -1.66700 46.07700
O  26.43800 -1.20900 47.20700
O  26.71500 -0.86300 44.95100
C  26.44500 0.51600 45.26600
H  20.19500 -4.30000 44.43700
H  21.03300 -10.18300 47.05300
H  26.73500 -8.46100 49.17800
H  24.30700 -1.67000 44.93400
H  22.02800 -2.68700 43.46900
H  22.45200 -1.13400 45.97800
H  21.16700 -2.28700 46.17100
H  20.94200 -1.24000 44.84800
H  24.05000 -3.31800 42.40500
H  25.67600 -3.16900 43.25600
H  26.06600 -1.30000 42.07800
H  24.76400 -0.67500 43.02900
H  17.88700 -7.15400 43.61300
H  18.70700 -5.59700 43.36500
H  17.58700 -5.84300 44.73900
H  19.38000 -11.00100 45.89400
H  17.66600 -10.82700 46.45600
H  18.92300 -10.09500 47.45900
H  23.12600 -11.44600 48.10400
H  24.66100 -9.97600 50.16100
H  21.94100 -11.69200 49.93900
H  21.29100 -10.07900 49.72300
H  22.54900 -10.32100 50.84400
H  25.24300 -12.21300 48.86900
H  26.47800 -11.05400 49.39400
H  27.20900 -11.49600 47.16800
H  26.05500 -10.27800 46.74600
H  25.57900 -11.99100 46.66800
H  28.78100 -6.82700 49.77600
H  29.38800 -5.67400 48.55700
H  29.21400 -7.38300 48.16000
H  27.48400 -3.25000 44.76900
H  25.35900 0.60100 45.21200
H  26.97200 1.15200 44.55600
H  26.77000 1.07500 46.14300
Mg 54.07100 24.76100 44.61600
C  51.14800 26.54200 43.95800
C  52.31600 21.90800 43.84100
C  57.00300 23.35200 44.01100
C  55.66700 27.86100 45.26500
N  51.92600 24.26400 43.76800
C  50.91200 25.17200 43.75900
C  49.63500 24.47800 43.43700
C  49.98100 22.92700 43.69600
C  51.50800 22.97900 43.73200
C  49.25400 22.47000 45.00800
C  49.05600 24.67100 42.01200
C  50.02600 24.87100 40.79300
H  49.40900 25.08100 39.42700
N  54.56600 22.83500 44.00500
C  53.71900 21.75300 43.90300
C  54.43800 20.55200 43.84600
C  55.81600 20.98000 43.87700
C  55.89200 22.43900 43.95800
C  53.90800 19.22300 43.70600
C  56.91000 19.94800 43.89500
O  56.69500 18.76600 43.88100
C  58.34700 20.44900 43.96000
N  55.99500 25.55400 44.55100
C  57.07900 24.72500 44.32000
C  58.44000 25.43700 44.52400
C  57.98500 26.85000 44.93400
C  56.46600 26.81000 44.83300
C  59.43800 24.74400 45.52800
C  58.72300 27.98300 43.98900
C  57.95200 28.34300 42.75100
N  53.55500 26.82700 44.77600
C  54.24100 27.93500 45.14300
C  53.30500 29.02200 45.48200
C  52.09500 28.55100 44.86400
C  52.32400 27.20100 44.36000
C  53.64400 30.29100 46.22000
C  50.72200 28.92400 44.60100
O  50.05500 29.94900 44.72500
C  50.14100 27.62500 43.94700
C  49.60300 27.89400 42.63200
O  50.28400 28.09800 41.59200
O  48.23900 28.11700 42.71700
C  47.57700 28.26200 41.41300
H  51.69600 21.01200 43.90400
H  57.94300 22.80300 44.10300
H  56.20500 28.73100 45.64700
H  48.87600 24.77500 44.16100
H  49.52800 22.32800 42.90600
H  48.80800 23.24500 45.63200
H  50.07100 21.93200 45.48800
H  48.50500 21.68100 44.94000
H  48.32300 25.47400 42.09000
H  48.56400 23.72500 41.78600
H  50.63800 23.97000 40.80600
H  50.72500 25.69000 40.96100
H  54.21100 18.69700 44.61100
H  54.35800 18.64400 42.90000
H  52.84100 19.32500 43.50600
H  58.53000 21.13100 43.13000
H  58.97400 19.58100 43.75600
H  58.64000 20.93500 44.89100
H  58.75700 25.28900 43.49200
H  58.09500 27.00300 46.00800
H  60.35700 24.38800 45.06200
H  58.96300 23.89900 46.02600
H  59.72100 25.46900 46.29000
H  59.64800 27.44900 43.77300
H  58.89700 28.84300 44.63500
H  58.66900 28.26200 41.93300
H  57.70500 29.39300 42.90600
H  57.03900 27.77200 42.58000
H  54.68600 30.33500 46.53500
H  53.08000 30.28700 47.15300
H  53.42300 31.13900 45.57100
H  49.35600 27.25600 44.60700
H  47.80100 29.24400 40.99700
H  46.49600 28.25700 41.55800
H  47.78600 27.45400 40.71200

