158

Mg 31.39200 59.14100 40.55400
C  28.63900 57.18300 39.78700
C  33.43400 56.57300 39.49600
C  33.98800 61.12700 40.88900
C  29.23800 61.90700 41.07000
N  31.04500 57.15300 39.72800
C  29.82600 56.50000 39.54700
C  30.01700 55.10400 38.97200
C  31.50500 54.83300 39.25500
C  32.04000 56.24800 39.53100
C  31.73900 53.78400 40.39400
C  29.61600 55.12400 37.44600
C  28.48300 54.16700 36.97800
H  27.52500 54.74800 35.89600
N  33.44800 58.92400 40.29900
C  34.07900 57.80700 39.82600
C  35.43500 58.11100 39.65800
C  35.65000 59.37500 40.16200
C  34.34200 59.89100 40.44500
C  36.30800 57.15700 38.74500
C  37.04600 60.04800 40.22900
O  38.03700 59.35200 39.98200
C  37.38200 61.46900 40.53500
N  31.53300 61.40100 40.77000
C  32.80200 61.77300 41.17200
C  32.69500 63.20700 41.85800
C  31.11600 63.47700 41.72900
C  30.56000 62.17300 41.19000
C  33.27900 63.22800 43.28500
C  30.67500 64.59000 40.65000
C  29.45500 65.41500 40.96600
N  29.35400 59.49900 40.48600
C  28.63900 60.65300 40.73700
C  27.21500 60.31200 40.68200
C  27.11300 58.97800 40.36100
C  28.44800 58.52300 40.21800
C  26.08200 61.20900 40.86100
C  26.20600 57.86600 40.12600
O  24.98500 57.72800 40.20600
C  27.17600 56.58900 39.68400
C  27.09900 55.45600 40.59400
O  27.69200 55.33900 41.62400
O  26.29800 54.46100 40.05000
C  26.23100 53.24000 40.90900
H  34.05700 55.69400 39.31700
H  34.85600 61.70400 41.21600
H  28.59800 62.64400 41.55900
H  29.43500 54.46500 39.63600
H  31.85200 54.40600 38.31400
H  31.21500 54.30800 41.19300
H  32.82500 53.85600 40.46100
H  31.32400 52.78100 40.29600
H  30.55100 55.02200 36.89600
H  29.26800 56.13100 37.21900
H  27.97800 53.87100 37.89800
H  28.88600 53.26000 36.52800
H  35.61800 56.63000 38.08700
H  36.89700 56.49000 39.37600
H  37.01600 57.69100 38.11200
H  37.30500 61.56600 41.61800
H  36.68600 62.11900 40.00600
H  38.34900 61.69700 40.08600
H  33.11200 63.98000 41.21200
H  30.73300 63.83100 42.68600
H  33.81100 62.27700 43.32900
H  32.55700 63.25800 44.10100
H  33.94400 64.08500 43.38600
H  30.19000 63.99100 39.88000
H  31.47800 65.21900 40.26500
H  29.12500 65.27300 41.99600
H  28.55800 65.19000 40.39100
H  29.72700 66.45200 40.77200
H  25.30000 60.82700 40.20400
H  26.28400 62.26200 40.66800
H  25.76100 61.21500 41.90300
H  27.16500 56.24900 38.64900
H  25.20200 52.88300 40.96100
H  26.55600 53.37600 41.94000
H  26.87000 52.54800 40.36000
Mg 26.86000 50.43500 26.74600
C  24.76700 51.37900 29.32300
C  29.24100 49.80700 29.13700
C  29.01900 49.45700 24.23100
C  24.61800 51.38200 24.42500
N  26.96900 50.48900 28.94500
C  25.97800 50.96200 29.81300
C  26.42800 50.83600 31.27500
C  27.90000 50.59900 31.12200
C  28.07400 50.32100 29.62600
C  28.85100 51.79900 31.58000
C  25.60200 49.71000 32.10600
C  24.87400 50.24700 33.30900
H  24.78500 49.37900 34.54600
N  28.80800 49.66000 26.64300
C  29.64900 49.51900 27.76300
C  31.00000 49.04700 27.34700
C  30.90900 49.09600 25.90200
C  29.56000 49.37800 25.53700
C  31.97300 48.60100 28.34900
C  32.08000 48.95800 24.89600
O  32.01400 49.10300 23.67400
C  33.40600 48.74300 25.48400
N  26.82900 50.18200 24.62000
C  27.80300 49.83000 23.78700
C  27.26200 49.81200 22.31300
C  25.80100 50.37300 22.45000
C  25.72900 50.71700 23.93100
C  28.05900 50.50600 21.25600
C  24.65500 49.36300 21.96500
C  23.80300 49.80700 20.75900
N  25.09000 51.25300 26.82800
C  24.27000 51.61800 25.77400
C  23.14600 52.34100 26.38100
C  23.18700 52.18100 27.75000
C  24.43300 51.51300 27.93000
C  22.00400 53.01900 25.52300
C  22.52400 52.48200 29.04800
O  21.43900 53.05600 29.21500
C  23.58500 51.91200 30.13300
C  23.93800 53.13500 30.86000
O  24.65800 54.04600 30.45700
O  23.31800 53.03900 32.09600
C  23.76600 53.96700 33.16200
H  29.91100 49.59400 29.97300
H  29.66300 48.98600 23.48600
H  23.83900 51.58200 23.68700
H  26.23300 51.82000 31.70100
H  28.13900 49.79600 31.81900
H  29.28700 51.59800 32.55800
H  28.34600 52.75800 31.70200
H  29.67800 51.93000 30.88300
H  26.18800 48.88500 32.50900
H  24.87400 49.32300 31.39200
H  23.85800 50.44400 32.96500
H  25.32300 51.16900 33.67700
H  32.93300 49.11100 28.28300
H  32.21500 47.53800 28.34500
H  31.65600 48.82500 29.36800
H  33.84200 49.57000 26.04500
H  34.02600 48.45000 24.63700
H  33.30900 47.86300 26.12000
H  27.30300 48.75400 22.05200
H  25.62000 51.32100 21.94500
H  28.93900 50.92500 21.74500
H  27.50100 51.36800 20.89100
H  28.31200 49.83200 20.43700
H  24.10700 49.11900 22.87600
H  25.05700 48.42200 21.58900
H  24.04600 50.85300 20.57000
H  22.73700 49.80000 20.98500
H  24.06300 49.19700 19.89400
H  22.20200 52.79500 24.47500
H  22.06400 54.05300 25.86200
H  21.00700 52.66900 25.79200
H  23.05600 51.21500 30.78300
H  24.69700 53.69600 33.65900
H  23.03000 54.30100 33.89300
H  24.01300 54.97800 32.83800

