158

Mg 35.62200 2.17900 30.11300
C  33.22800 2.65900 32.72600
C  38.02800 2.69200 32.48500
C  37.92200 1.74300 27.77800
C  33.03400 1.73100 27.94600
N  35.65900 2.51100 32.44000
C  34.50000 2.64700 33.24400
C  34.95400 2.91800 34.71000
C  36.42700 3.28100 34.56300
C  36.74500 2.87200 33.06800
C  36.59300 4.80600 34.75200
C  34.60800 1.67100 35.65100
C  34.28200 1.96000 37.18300
H  35.02200 3.16300 37.82500
N  37.70000 2.15700 30.17500
C  38.51400 2.44200 31.24300
C  39.88600 2.23400 30.83700
C  39.89100 2.01200 29.43300
C  38.42000 1.99200 29.04000
C  41.04200 2.16700 31.84700
C  41.03500 1.78900 28.49700
O  40.96700 1.57100 27.32800
C  42.47000 2.00900 28.93800
N  35.51100 1.78200 28.22600
C  36.56900 1.69900 27.35300
C  36.17800 1.71400 25.94000
C  34.70200 1.31000 26.07300
C  34.36900 1.65300 27.53400
C  36.42700 3.02700 25.19600
C  34.38000 -0.21500 25.76100
C  33.47000 -0.42800 24.57500
N  33.58900 2.28200 30.17000
C  32.67800 2.10400 29.21100
C  31.35800 2.14800 29.73200
C  31.50200 2.37800 31.08900
C  32.87400 2.43800 31.33700
C  30.01700 2.11400 28.92000
C  30.74200 2.67600 32.33500
O  29.48600 2.69700 32.54100
C  31.88100 2.82000 33.46200
C  31.76500 4.17300 34.07600
O  31.55200 5.29200 33.62900
O  31.66800 3.95900 35.44000
C  31.52700 5.21700 36.28500
H  38.76300 2.92800 33.25700
H  38.57600 1.54400 26.92700
H  32.15100 1.65600 27.30700
H  34.46400 3.74400 35.22600
H  37.15200 2.68800 35.12000
H  35.65000 5.33600 34.61400
H  37.34100 5.19000 34.05900
H  36.98300 5.16100 35.70600
H  35.44400 0.99300 35.47600
H  33.70200 1.20700 35.26400
H  34.61500 1.10200 37.76700
H  33.19500 2.04400 37.19100
H  42.01500 2.54000 31.52600
H  41.09700 1.10400 32.08300
H  40.81000 2.61600 32.81200
H  42.72500 3.04300 29.16800
H  43.03400 1.75300 28.04100
H  42.70500 1.27100 29.70600
H  36.69300 0.98600 25.31400
H  33.97400 1.84200 25.46100
H  36.79100 2.73500 24.21100
H  37.16900 3.65800 25.68400
H  35.44700 3.50500 25.20500
H  33.89400 -0.83100 26.51800
H  35.30700 -0.73200 25.51400
H  33.07400 0.48800 24.13600
H  32.75000 -1.20500 24.83300
H  34.04700 -0.91000 23.78500
H  30.02200 3.05800 28.37500
H  29.05300 1.93900 29.39700
H  30.17800 1.23400 28.29700
H  31.80100 2.07000 34.24800
H  30.51900 5.63000 36.26800
H  32.24400 5.98300 35.99100
H  31.70800 5.03400 37.34500
Mg 1.08700 43.43500 26.25000
C  2.53200 43.46400 29.37900
C  -1.71000 41.99200 27.62100
C  0.01000 42.56300 23.15400
C  4.18600 44.32400 24.85800
N  0.47000 42.83100 28.34900
C  1.20800 43.03000 29.44300
C  0.40400 42.57500 30.66000
C  -0.93800 41.99700 30.01500
C  -0.72000 42.27300 28.57000
C  -1.37200 40.53100 30.45300
C  0.20600 43.56400 31.83600
C  1.13800 43.44200 33.02500
H  0.78200 42.38900 34.07600
N  -0.77200 42.68100 25.51000
C  -1.68900 41.95900 26.22000
C  -2.64300 41.36400 25.39200
C  -2.16400 41.60000 24.06800
C  -0.91500 42.33400 24.18800
C  -3.85000 40.50100 25.94600
C  -2.79400 41.20100 22.76400
O  -2.27200 41.27200 21.65400
C  -4.18300 40.55100 22.73100
N  2.04300 43.36800 24.19200
C  1.29600 43.07700 23.05600
C  2.17100 43.34300 21.82500
C  3.34600 44.18400 22.45300
C  3.25300 43.93800 23.91900
C  2.67900 42.08200 21.04100
C  3.18700 45.68100 22.19300
C  4.13400 46.34800 21.09600
N  2.99100 43.85600 26.90300
C  4.12600 44.21800 26.25500
C  5.14400 44.44600 27.22300
C  4.56900 44.17700 28.48300
C  3.23900 43.80200 28.23200
C  6.50800 44.91200 26.94500
C  4.90900 44.18700 29.91300
O  5.83100 44.49200 30.65400
C  3.61700 43.54200 30.46400
C  4.03600 42.20900 30.94800
O  4.19800 41.16000 30.26100
O  4.25800 42.24000 32.32800
C  4.40200 40.96800 33.00100
H  -2.59000 41.54300 28.08700
H  -0.24400 42.37300 22.10900
H  5.10200 44.76500 24.46000
H  0.96000 41.75100 31.10800
H  -1.74000 42.54300 30.51300
H  -2.45100 40.57100 30.60400
H  -0.97100 40.35100 31.45000
H  -1.11900 39.74700 29.73800
H  -0.75600 43.37600 32.31300
H  0.29700 44.57700 31.44500
H  1.25300 44.42000 33.49300
H  2.08200 43.07300 32.62200
H  -3.89200 40.59700 27.03100
H  -3.66000 39.46600 25.66300
H  -4.74600 40.90900 25.47600
H  -4.45900 40.33000 21.70000
H  -4.81500 41.31700 23.18000
H  -4.03500 39.70500 23.40300
H  1.61500 44.00000 21.15600
H  4.32300 43.77200 22.19700
H  3.56200 41.68600 21.54300
H  2.87700 42.33700 20.00000
H  1.94200 41.27900 21.01800
H  3.36600 46.23500 23.11400
H  2.11300 45.84400 22.10200
H  4.70400 47.12700 21.60400
H  3.37000 46.81100 20.47200
H  4.84000 45.67600 20.60800
H  6.44500 45.82000 26.34500
H  7.23300 44.33500 26.37000
H  6.98100 45.13000 27.90300
H  3.31600 44.08100 31.36200
H  5.40100 40.64300 32.70800
H  3.65400 40.20700 32.78000
H  4.38800 41.11000 34.08200

