158

Mg 1.66900 7.99800 27.04500
C  1.66400 10.33200 29.57500
C  2.25600 5.45400 29.28000
C  2.20300 5.89100 24.46500
C  1.59900 10.64900 24.70300
N  1.67600 7.91200 29.17900
C  1.65300 8.98100 30.05900
C  1.56600 8.50000 31.48500
C  1.86800 6.90500 31.35100
C  1.92700 6.69300 29.82400
C  3.15300 6.43500 32.08900
C  0.17600 8.83200 32.19900
C  0.29400 9.07600 33.67700
H  1.43800 8.39600 34.45700
N  2.20300 6.00300 26.92600
C  2.39900 5.11100 27.95500
C  2.95600 3.92800 27.41800
C  2.91100 3.99000 26.01500
C  2.43300 5.33200 25.73800
C  3.42300 2.82600 28.31600
C  3.26900 2.94300 24.97800
O  2.98700 3.18800 23.80000
C  3.79000 1.59400 25.34800
N  1.82300 8.28000 24.85100
C  1.89000 7.21100 24.07100
C  1.88200 7.63800 22.57700
C  1.47700 9.09000 22.61000
C  1.60000 9.38800 24.13900
C  3.22500 7.42800 21.82300
C  0.06800 9.39800 22.11800
C  -0.11600 10.58200 21.22000
N  1.72700 10.04100 27.06700
C  1.73800 11.01000 26.03900
C  1.86200 12.30400 26.66000
C  1.87000 12.05800 28.05900
C  1.66700 10.71400 28.23900
C  1.93300 13.68400 26.01400
C  1.88400 12.69700 29.35200
O  1.93400 13.82300 29.76200
C  1.80200 11.57900 30.42400
C  3.17200 11.65100 31.06200
O  4.20800 11.57500 30.46000
O  3.01800 11.80800 32.45100
C  4.28400 11.82400 33.15300
H  2.32400 4.65100 30.01700
H  2.28100 5.24500 23.58800
H  1.58200 11.45200 23.96400
H  2.42200 8.98700 31.95200
H  0.99400 6.41100 31.77500
H  3.61200 5.56100 31.62700
H  3.21800 6.26500 33.16400
H  3.97400 7.13500 31.93300
H  -0.58800 8.06100 32.10400
H  -0.26400 9.68500 31.68200
H  -0.57800 8.52600 34.03100
H  0.31600 10.14200 33.90600
H  4.49100 2.73500 28.11900
H  2.98300 1.83200 28.24100
H  3.41900 3.09700 29.37200
H  2.97200 1.07000 25.84200
H  4.74700 1.56000 25.86800
H  3.99000 1.09500 24.40000
H  1.12500 7.12300 21.98500
H  2.12700 9.68600 21.96900
H  3.87200 7.28500 22.68800
H  3.55000 8.32600 21.29700
H  3.31100 6.61400 21.10400
H  -0.45300 9.66800 23.03600
H  -0.41100 8.49500 21.73800
H  -0.40500 10.28100 20.21300
H  0.78100 11.20000 21.17800
H  -0.92300 11.18300 21.63900
H  0.96600 14.15100 25.82800
H  2.04000 13.47400 24.94900
H  2.72700 14.36200 26.32600
H  1.03600 11.74100 31.18300
H  4.63900 12.85400 33.20700
H  5.16800 11.30600 32.78200
H  4.00100 11.47500 34.14600
Mg 41.35800 7.96300 28.68500
C  42.87500 9.19500 31.72200
C  39.32200 5.95600 30.68100
C  40.28900 6.40100 25.85500
C  43.80400 9.69100 26.85900
N  41.09400 7.64800 31.00400
C  41.78700 8.32700 31.97200
C  41.23300 7.85300 33.34700
C  40.38800 6.58800 33.00700
C  40.20800 6.76200 31.49200
C  40.87500 5.21400 33.51000
C  40.45600 8.99700 34.14000
C  40.95200 9.34600 35.55500
H  41.34300 10.72400 35.78100
N  39.90100 6.46200 28.25300
C  39.12100 5.85900 29.22600
C  38.10500 5.05600 28.58600
C  38.40700 5.19700 27.17300
C  39.56000 6.02100 27.02600
C  37.07300 4.30800 29.41900
C  37.53700 4.68400 26.06300
O  37.71900 4.95700 24.90000
C  36.30400 3.85900 26.38300
N  41.97700 8.04300 26.59500
C  41.31300 7.34100 25.63000
C  41.89800 7.60400 24.25200
C  42.92800 8.84800 24.56400
C  42.83500 8.99000 26.11200
C  42.56700 6.34200 23.60000
C  42.47400 10.18900 23.90400
C  41.10500 10.75700 24.23000
N  42.95100 9.17200 29.07800
C  43.90000 9.73600 28.25100
C  44.91500 10.37700 29.04100
C  44.43700 10.22700 30.36900
C  43.29700 9.45800 30.34200
C  46.12500 11.12200 28.58200
C  44.81200 10.58500 31.76700
O  45.74400 11.29800 32.14800
C  43.81200 9.91000 32.67600
C  44.58300 8.95000 33.53800
O  44.72000 7.77600 33.25600
O  45.07300 9.60800 34.63800
C  45.69200 8.71500 35.60000
H  38.75800 5.29200 31.33900
H  39.85300 6.10300 24.89900
H  44.66100 10.13000 26.34300
H  42.04700 7.59300 34.02300
H  39.40700 6.75000 33.45500
H  41.67500 5.42800 34.21800
H  41.27500 4.51800 32.77300
H  40.07400 4.72900 34.06800
H  39.41700 8.69600 34.27100
H  40.52600 9.88900 33.51800
H  41.80600 8.72000 35.81500
H  40.10400 9.01000 36.15200
H  36.11600 4.53900 28.95200
H  37.10400 4.65700 30.45100
H  37.33200 3.25000 29.46000
H  36.61400 2.96700 26.92700
H  35.86200 3.44100 25.47800
H  35.53800 4.41100 26.92800
H  41.00100 7.81400 23.67000
H  43.95500 8.62000 24.27900
H  42.61300 5.53800 24.33400
H  43.44600 6.55500 22.99100
H  41.89100 5.85100 22.90100
H  42.50300 10.06800 22.82200
H  43.19100 10.89700 24.32000
H  40.59800 11.06400 23.31500
H  41.17500 11.62000 24.89300
H  40.43700 9.98700 24.61700
H  46.28700 10.92300 27.52300
H  46.98200 10.79100 29.16800
H  46.03300 12.18900 28.78800
H  43.27000 10.70600 33.18700
H  46.27000 7.91700 35.13500
H  44.84100 8.34000 36.16800
H  46.40500 9.30400 36.17700

