158

Mg 49.88400 45.11700 42.29100
C  46.66300 45.78600 40.98100
C  49.46000 41.83200 41.16800
C  53.27800 44.74000 42.24600
C  50.38800 48.62300 42.55100
N  48.20200 43.97600 41.33200
C  46.99200 44.43800 40.83000
C  46.24000 43.30900 40.08600
C  47.03700 42.06300 40.54300
C  48.28700 42.61700 41.11700
C  46.36000 41.21200 41.61300
C  46.30300 43.57700 38.53100
C  45.11500 43.00100 37.76600
H  44.82200 43.41700 36.36400
N  51.15300 43.52200 41.98000
C  50.79500 42.24700 41.55700
C  51.96900 41.34900 41.70400
C  53.08000 42.22600 42.06600
C  52.48900 43.58000 42.11300
C  51.77000 39.89600 41.67400
C  54.54200 41.71600 42.35200
O  54.78400 40.55900 42.19100
C  55.56000 42.60800 43.00800
N  51.61700 46.44900 42.68100
C  52.85200 46.05000 42.51700
C  53.86200 47.19800 42.55200
C  52.94800 48.47800 42.57800
C  51.54300 47.84100 42.62200
C  54.91900 47.03500 43.73400
C  53.19600 49.39300 41.32200
C  52.62800 48.92100 39.93000
N  48.78500 46.86300 41.97500
C  49.14500 48.18900 42.08700
C  47.99000 49.03000 41.66000
C  46.96600 48.15300 41.32400
C  47.52400 46.83800 41.51700
C  47.95200 50.50100 41.55100
C  45.66300 48.08500 40.73100
O  44.82200 48.94900 40.46500
C  45.49500 46.54100 40.38100
C  44.06300 46.21200 40.70600
O  43.16300 46.19200 39.86900
O  43.96900 45.78300 42.00000
C  42.58600 45.60200 42.51300
H  49.35500 40.78300 40.88300
H  54.36700 44.67500 42.20500
H  50.58800 49.69700 42.56200
H  45.20000 43.31700 40.41400
H  47.12500 41.44400 39.65000
H  45.34800 41.56300 41.81400
H  46.93300 41.20000 42.54000
H  46.39100 40.16700 41.30400
H  47.23800 43.11900 38.20800
H  46.59800 44.59600 38.27900
H  44.19300 43.08300 38.34100
H  45.16900 41.91400 37.70400
H  52.72200 39.42000 41.90700
H  51.35700 39.45900 40.76400
H  51.15600 39.76400 42.56500
H  55.03500 43.18700 43.76700
H  55.95100 43.18600 42.17100
H  56.24000 41.87100 43.43800
H  54.51800 47.24700 41.68300
H  53.09700 48.93900 43.55500
H  55.23500 46.01800 43.96400
H  54.52900 47.49100 44.64400
H  55.77000 47.59900 43.35300
H  54.27300 49.54300 41.25900
H  52.74300 50.36000 41.54000
H  51.77000 49.54600 39.68400
H  52.34300 47.87000 39.96400
H  53.34000 49.01700 39.11100
H  47.14200 50.82900 40.89900
H  48.84700 50.98600 41.16100
H  47.88900 51.04900 42.49100
H  45.60900 46.44800 39.30100
H  41.83900 45.17600 41.84300
H  42.15100 46.49900 42.95300
H  42.81900 45.03300 43.41300
Mg -9.61100 38.75900 39.80300
C  -8.73300 35.43800 39.22600
C  -6.41800 39.67700 38.55500
C  -10.71300 41.88100 39.38300
C  -12.71800 37.68200 40.77900
N  -7.87100 37.58900 38.83000
C  -7.65800 36.27300 38.90200
C  -6.20800 35.90400 38.51000
C  -5.44400 37.29200 38.71800
C  -6.64500 38.26200 38.74100
C  -4.44400 37.36900 39.92700
C  -6.18900 35.32100 37.01700
C  -6.50700 36.19000 35.83400
H  -7.73100 35.90500 34.99000
N  -8.66700 40.59100 39.12500
C  -7.41500 40.73200 38.62800
C  -7.19500 42.16000 38.44000
C  -8.36200 42.88700 38.81200
C  -9.34500 41.78100 39.14000
C  -5.88900 42.74500 38.07000
C  -8.45800 44.36000 38.82600
O  -7.48100 45.05400 38.54400
C  -9.75500 45.04200 39.24700
N  -11.49300 39.56900 39.90600
C  -11.63200 40.88400 39.77700
C  -13.05500 41.37500 40.15100
C  -13.68800 40.06600 40.78800
C  -12.62900 39.03800 40.41600
C  -13.16500 42.70600 41.00800
C  -15.02100 39.62200 40.34100
C  -16.14500 39.67200 41.40100
N  -10.58700 36.93100 40.14400
C  -11.82200 36.64200 40.60900
C  -11.92300 35.15900 40.84000
C  -10.81600 34.66100 40.19100
C  -9.95800 35.78400 39.81000
C  -13.08900 34.37400 41.51700
C  -10.09900 33.47500 39.74700
O  -10.36700 32.28600 39.88800
C  -8.74300 33.92300 39.11800
C  -7.59300 33.31200 39.91700
O  -7.63900 33.20800 41.13600
O  -6.71200 32.70700 39.09100
C  -5.45000 32.18200 39.69000
H  -5.42800 40.11600 38.41700
H  -11.20300 42.84200 39.21000
H  -13.65200 37.40600 41.27400
H  -5.78000 35.13800 39.15700
H  -4.93600 37.71900 37.85400
H  -4.87500 37.80300 40.82900
H  -3.51900 37.92700 39.78100
H  -4.06300 36.39900 40.24700
H  -6.82500 34.43700 36.97300
H  -5.16200 34.96900 36.92300
H  -5.70700 36.04100 35.10800
H  -6.45100 37.22700 36.16500
H  -5.57700 43.17700 39.02100
H  -5.92100 43.55500 37.34000
H  -5.12600 42.05700 37.70700
H  -9.90500 44.70500 40.27200
H  -10.59200 44.83400 38.58000
H  -9.54500 46.11200 39.23700
H  -13.55200 41.56800 39.20000
H  -13.67000 40.07900 41.87800
H  -12.16500 43.04400 41.28200
H  -13.71300 42.47100 41.92000
H  -13.59400 43.50800 40.40700
H  -14.96500 38.65200 39.84500
H  -15.36200 40.16600 39.46000
H  -16.84500 40.49400 41.25200
H  -15.92800 39.58000 42.46500
H  -16.78900 38.80000 41.28700
H  -14.03600 34.87700 41.32200
H  -12.90900 34.21500 42.58000
H  -13.01400 33.35600 41.13500
H  -8.69100 33.65500 38.06300
H  -4.81100 32.04600 38.81700
H  -5.52100 31.19700 40.15200
H  -5.00800 33.04700 40.18300

