158

Mg 0.14000 43.03300 26.46200
C  2.87000 42.89700 28.75700
C  -1.94200 42.64000 29.01300
C  -2.23200 42.94300 24.07200
C  2.55900 43.23100 23.87100
N  0.43400 42.80200 28.55400
C  1.62500 42.81300 29.27300
C  1.27000 42.73200 30.79400
C  -0.18200 42.19200 30.85000
C  -0.60500 42.51300 29.41000
C  -0.34700 40.62700 31.18600
C  1.45500 44.20400 31.48100
C  2.17400 44.13700 32.82800
H  1.71100 43.00900 33.78600
N  -1.80100 42.86400 26.56300
C  -2.52900 42.77900 27.71800
C  -3.91100 42.74500 27.34000
C  -4.06200 42.84600 25.91200
C  -2.68700 42.84300 25.45100
C  -5.02900 42.59800 28.33400
C  -5.30700 43.02200 25.01000
O  -5.32900 43.15000 23.73500
C  -6.62400 43.13200 25.70500
N  0.15200 43.08300 24.23100
C  -0.96100 42.98600 23.46900
C  -0.64700 42.86100 21.93400
C  0.91800 43.18600 21.94700
C  1.23800 43.27900 23.43700
C  -1.01800 41.48400 21.26100
C  1.40800 44.28000 21.05700
C  1.07800 45.67000 21.53700
N  2.28500 43.13500 26.28500
C  3.13500 43.20100 25.14000
C  4.50000 43.31900 25.58900
C  4.46800 43.07700 27.00100
C  3.08900 43.02200 27.35800
C  5.72600 43.33100 24.75600
C  5.24000 42.90500 28.16500
O  6.47900 42.83700 28.22000
C  4.28100 42.85100 29.39700
C  4.67200 41.67900 30.19300
O  4.34000 40.50800 29.92600
O  5.31500 42.03300 31.34600
C  5.66500 40.97300 32.27400
H  -2.58500 42.58300 29.89400
H  -3.03100 43.13200 23.35200
H  3.30700 43.07700 23.09100
H  1.95900 42.07900 31.33100
H  -0.68000 42.77800 31.62300
H  -0.72300 40.39400 32.18200
H  0.61500 40.11300 31.19700
H  -0.88900 40.08500 30.41100
H  0.54100 44.76800 31.66700
H  1.93100 44.86300 30.75500
H  2.13600 45.12100 33.29600
H  3.21000 43.93800 32.55400
H  -5.64100 41.75500 28.01300
H  -5.60700 43.52200 28.32600
H  -4.55800 42.43900 29.30500
H  -7.37300 43.47300 24.99100
H  -6.63400 43.97800 26.39200
H  -6.91300 42.28900 26.33400
H  -1.11300 43.66300 21.36100
H  1.40800 42.29700 21.54900
H  -0.28500 40.67800 21.21700
H  -1.41700 41.85600 20.31700
H  -1.84400 41.11300 21.86700
H  1.06500 44.16200 20.03000
H  2.49600 44.20900 21.07700
H  0.95700 46.28100 20.64200
H  1.85300 46.07700 22.18600
H  0.27200 45.60800 22.26800
H  5.47700 42.89600 23.78800
H  6.43700 42.65600 25.23300
H  6.19800 44.30000 24.59800
H  4.45200 43.72400 30.02700
H  6.18300 40.12100 31.83200
H  4.70200 40.68100 32.69200
H  6.19400 41.27000 33.18000
Mg -2.73700 35.25500 26.30300
C  -4.14700 33.64500 29.12300
C  -1.04700 37.41700 28.40800
C  -1.57900 36.95700 23.58800
C  -4.37300 33.04900 24.22400
N  -2.59800 35.44300 28.56600
C  -3.31200 34.73600 29.46500
C  -2.81600 35.14500 30.90700
C  -1.96900 36.45500 30.59700
C  -1.81700 36.42600 29.08200
C  -2.55600 37.76400 31.18100
C  -2.10000 33.97100 31.69800
C  -2.67000 33.60700 33.13000
H  -1.80600 33.66100 34.39800
N  -1.57800 36.94100 26.05500
C  -0.95500 37.67500 27.05700
C  -0.15200 38.64700 26.48200
C  -0.16100 38.46900 25.10200
C  -1.20800 37.47700 24.83800
C  0.52900 39.72000 27.35500
C  0.78500 39.10000 24.09800
O  0.66100 38.94800 22.89600
C  1.92100 39.89100 24.53800
N  -3.00200 35.06700 24.22800
C  -2.35000 35.86200 23.32600
C  -2.66300 35.46800 21.86900
C  -3.43900 34.06400 22.07200
C  -3.59700 34.02300 23.58700
C  -3.59800 36.62500 21.31600
C  -2.61100 32.85100 21.38000
C  -1.97300 31.71400 22.24600
N  -3.98600 33.72600 26.55300
C  -4.61300 32.87700 25.59500
C  -5.36800 31.90400 26.26300
C  -5.27700 32.23400 27.59600
C  -4.35100 33.27600 27.75600
C  -6.19300 30.77400 25.71400
C  -5.66100 31.73100 28.87000
O  -6.33500 30.71900 29.11500
C  -5.02000 32.69300 29.89200
C  -6.03200 33.35000 30.61300
O  -6.51700 34.42900 30.39100
O  -6.09300 32.71000 31.79900
C  -6.69300 33.41800 32.98400
H  -0.52500 38.05400 29.12600
H  -1.17600 37.52000 22.74400
H  -4.74800 32.26200 23.56600
H  -3.73500 35.27100 31.47900
H  -1.02800 36.30200 31.12600
H  -3.49200 37.64900 31.72700
H  -2.73400 38.37500 30.29700
H  -1.73500 38.10000 31.81500
H  -1.06400 34.23400 31.91100
H  -1.98200 33.03100 31.15800
H  -3.05100 32.58700 33.07000
H  -3.59400 34.13600 33.36100
H  0.15700 39.98800 28.34400
H  0.61600 40.64400 26.78300
H  1.48800 39.20100 27.35100
H  2.48200 39.51700 25.39400
H  1.54700 40.90400 24.68500
H  2.62300 39.96700 23.70700
H  -1.80500 35.32700 21.21200
H  -4.41300 34.10700 21.58400
H  -3.06300 37.52600 21.01600
H  -4.48900 36.77900 21.92500
H  -3.98700 36.21400 20.38500
H  -1.92900 33.38900 20.72000
H  -3.29200 32.34100 20.69800
H  -0.99700 31.60100 21.77300
H  -2.51400 30.77200 22.15900
H  -1.76400 32.02100 23.27100
H  -6.03100 29.86000 26.28500
H  -5.90200 30.56000 24.68600
H  -7.23700 31.05900 25.84200
H  -4.33300 32.08500 30.48000
H  -7.15200 34.38900 32.79600
H  -6.10600 33.48900 33.90000
H  -7.49300 32.70100 33.16700

