158

Mg 42.70500 41.46200 26.79100
C  42.21400 44.08000 29.18300
C  43.33800 39.46800 29.38700
C  43.42300 39.16100 24.56200
C  42.34000 43.91500 24.17800
N  42.83400 41.81800 29.06800
C  42.49100 42.85900 29.80600
C  42.69700 42.71500 31.35100
C  43.14300 41.20100 31.34100
C  43.18500 40.80300 29.83300
C  44.45200 40.83100 32.11300
C  41.36900 43.03300 32.08100
C  41.17600 42.33700 33.39800
H  41.45600 43.23300 34.58800
N  43.29000 39.55000 26.95500
C  43.35300 38.88800 28.11500
C  43.76100 37.51600 27.78200
C  43.90300 37.40100 26.33500
C  43.59400 38.72700 25.84200
C  44.13400 36.50800 28.91300
C  44.14800 36.21300 25.37400
O  44.20300 36.36100 24.10300
C  44.30300 34.86900 25.97100
N  43.06400 41.56800 24.67200
C  43.20200 40.40500 23.96600
C  43.14500 40.63400 22.38300
C  42.48600 42.04200 22.36800
C  42.61200 42.59200 23.82200
C  44.53200 40.53600 21.69800
C  40.98000 41.96000 22.01600
C  40.14600 40.86300 22.74300
N  42.33200 43.59200 26.62900
C  42.18600 44.41900 25.49800
C  41.82200 45.74200 25.95500
C  41.79000 45.62600 27.37400
C  42.15100 44.33000 27.73200
C  41.50000 46.90000 25.07300
C  41.55900 46.37300 28.60500
O  41.06900 47.50500 28.83000
C  41.89600 45.41600 29.78900
C  42.89700 46.13500 30.58100
O  44.11900 46.13700 30.41300
O  42.32900 46.73000 31.71200
C  43.16900 47.24000 32.78500
H  43.50300 38.92900 30.32200
H  43.46600 38.45800 23.72700
H  42.07000 44.61000 23.38000
H  43.45100 43.31800 31.85800
H  42.30000 40.59000 31.66400
H  45.27900 40.50600 31.48200
H  44.20800 39.98300 32.75200
H  44.78800 41.64600 32.75400
H  40.50400 42.94300 31.42400
H  41.40500 44.08700 32.35700
H  41.71400 41.39400 33.50300
H  40.11700 42.12000 33.53900
H  44.10400 36.97900 29.89500
H  45.17100 36.27900 28.66800
H  43.73600 35.49300 28.88200
H  43.31500 34.49100 26.23500
H  45.01400 34.90900 26.79600
H  44.58000 34.15000 25.20000
H  42.50000 39.85000 21.98600
H  43.01800 42.78200 21.77000
H  44.87100 41.39500 21.11900
H  44.34900 39.64500 21.09800
H  45.33200 40.25100 22.38000
H  41.00800 41.78400 20.94000
H  40.41800 42.88800 22.12200
H  39.40900 41.48500 23.25200
H  40.77100 40.29100 23.42900
H  39.64500 40.12700 22.11400
H  41.11100 47.63100 25.78100
H  40.66300 46.68300 24.41000
H  42.34700 47.26100 24.48900
H  41.10400 45.43700 30.53700
H  44.06800 47.72900 32.40800
H  43.52200 46.31900 33.24800
H  42.55900 47.86500 33.43800
Mg 6.89200 53.46400 40.92500
C  6.61500 49.93300 40.94500
C  10.28000 53.00700 40.13600
C  6.96100 56.65300 39.86400
C  3.37300 53.59000 40.80300
N  8.16900 51.63600 40.43000
C  7.90500 50.35600 40.67400
C  9.18700 49.48600 40.69300
C  10.36600 50.56500 40.72100
C  9.56100 51.83100 40.39900
C  11.18200 50.62600 42.04600
C  9.30900 48.47800 39.51200
C  9.11700 49.03000 38.08500
H  7.81400 48.76300 37.31100
N  8.47300 54.69700 40.20400
C  9.80100 54.35400 39.94400
C  10.54400 55.54800 39.65400
C  9.58300 56.62100 39.55300
C  8.26700 56.05600 39.87900
C  12.03500 55.57100 39.53800
C  9.90700 58.12700 39.36300
O  11.07400 58.41400 39.13600
C  8.93300 59.21400 39.58400
N  5.37800 54.93000 40.39600
C  5.69500 56.15000 40.08200
C  4.52100 57.10100 40.07900
C  3.33700 56.07000 40.30900
C  4.07400 54.79600 40.56600
C  4.63900 58.22800 41.16800
C  2.21800 55.92400 39.17400
C  0.75500 56.08600 39.64300
N  5.21800 52.11900 41.09200
C  3.89400 52.29200 41.09300
C  3.18200 51.14600 41.54700
C  4.21800 50.19900 41.45500
C  5.42400 50.82600 41.09900
C  1.71900 50.95500 41.97900
C  4.52400 48.76500 41.59700
O  3.83200 47.79200 41.92900
C  6.04800 48.63200 41.37100
C  6.09700 47.60800 40.31800
O  5.72300 47.78800 39.13600
O  6.57100 46.45300 40.88400
C  6.51100 45.29300 40.01200
H  11.33800 52.79200 40.29700
H  6.86900 57.67000 39.47800
H  2.28900 53.72400 40.79000
H  9.16600 49.00600 41.67200
H  11.16600 50.31000 40.02600
H  11.70600 49.68500 42.21700
H  10.58000 50.80100 42.93800
H  11.76300 51.54800 42.02900
H  8.71700 47.57000 39.62500
H  10.30500 48.03800 39.45700
H  9.90600 48.64200 37.44100
H  9.28400 50.08700 38.29600
H  12.44400 56.18800 40.33900
H  12.35000 56.04800 38.61000
H  12.41100 54.55600 39.66500
H  8.60600 59.04300 40.60900
H  8.06700 59.21200 38.92200
H  9.43000 60.18100 39.66000
H  4.43300 57.49000 39.06400
H  2.80200 56.43500 41.18600
H  4.04600 58.14000 42.07800
H  4.57600 59.19800 40.67600
H  5.67900 58.25100 41.49600
H  2.30900 54.96900 38.65700
H  2.36800 56.69700 38.42000
H  0.23600 55.14300 39.47100
H  0.26000 56.86700 39.06600
H  0.67300 56.31500 40.70600
H  1.30700 50.17100 41.34300
H  1.10900 51.84800 41.84600
H  1.75000 50.67800 43.03300
H  6.41300 48.31600 42.34800
H  7.20300 45.51600 39.20000
H  5.50800 45.15600 39.60900
H  6.77800 44.42100 40.60900

