158

Mg 41.13500 8.69000 29.86700
C  43.00600 9.73600 32.45200
C  39.06000 7.15300 31.96100
C  39.43800 7.50500 27.09200
C  43.77300 9.75000 27.67100
N  40.95800 8.62000 32.00600
C  41.92000 9.01800 32.87700
C  41.41700 8.80800 34.30500
C  40.21500 7.81800 34.10300
C  40.02700 7.86000 32.61200
C  40.48000 6.35400 34.64000
C  40.94300 10.19100 34.85500
C  40.58200 10.04100 36.33200
H  41.31500 11.03300 37.36700
N  39.33300 7.67100 29.62500
C  38.61900 6.98900 30.60900
C  37.43000 6.34000 29.99500
C  37.40900 6.70100 28.61200
C  38.80500 7.33700 28.38400
C  36.37200 5.54300 30.86300
C  36.23500 6.63300 27.51700
O  36.43300 7.00300 26.35600
C  34.87400 6.09800 27.92800
N  41.65200 8.54800 27.63100
C  40.70100 8.06100 26.73700
C  41.18600 8.26600 25.32500
C  42.52300 9.14700 25.48700
C  42.64700 9.18900 27.05100
C  41.50500 6.94700 24.50200
C  42.43000 10.62800 24.89800
C  41.64700 11.61700 25.79400
N  43.01600 9.59000 29.94800
C  43.96400 10.01400 29.02700
C  44.95800 10.77900 29.67700
C  44.64900 10.66500 31.00300
C  43.50600 9.92300 31.16000
C  46.05900 11.50000 28.96100
C  45.08600 11.06000 32.24100
O  45.96600 11.86300 32.48300
C  44.06800 10.46100 33.36300
C  44.71000 9.47400 34.28400
O  45.23600 8.42100 33.95900
O  44.60200 9.95500 35.60100
C  45.20400 9.24900 36.68200
H  38.38400 6.62000 32.63300
H  38.84700 7.17900 26.23300
H  44.38700 10.32500 26.97500
H  42.21900 8.43800 34.94300
H  39.33700 8.32000 34.51000
H  39.68700 6.16400 35.36400
H  41.48500 6.29800 35.05800
H  40.49600 5.63800 33.81800
H  40.04200 10.50900 34.33000
H  41.69600 10.97500 34.77700
H  40.80700 9.07000 36.77300
H  39.51000 10.09400 36.52300
H  36.47800 5.50800 31.94700
H  36.42100 4.50300 30.54100
H  35.39200 5.96900 30.64800
H  34.19600 6.00100 27.08000
H  34.51900 6.75500 28.72200
H  35.01800 5.15500 28.45500
H  40.44900 8.91100 24.84600
H  43.37200 8.60900 25.06400
H  41.42400 6.09100 25.17300
H  42.53400 7.00100 24.14700
H  40.67500 6.85900 23.80200
H  41.87200 10.68000 23.96300
H  43.45100 10.99400 24.78800
H  41.18800 11.22200 26.70000
H  40.83200 12.02900 25.19900
H  42.28100 12.48200 25.98700
H  45.71500 12.21100 28.20900
H  46.76200 10.77500 28.55100
H  46.44200 12.16400 29.73600
H  43.77600 11.37600 33.87800
H  44.63900 9.34000 37.60900
H  46.22400 9.60900 36.82300
H  45.22400 8.18400 36.45300
Mg 41.96700 41.23600 27.51500
C  41.14500 43.60600 30.04300
C  43.41800 39.35500 30.05800
C  42.58500 39.13100 25.34300
C  41.20800 43.76400 25.11100
N  42.32300 41.52700 29.80000
C  41.74300 42.47000 30.66200
C  41.93400 42.14300 32.13700
C  42.65100 40.76700 32.04200
C  42.79300 40.51900 30.48800
C  44.00100 40.64800 32.77800
C  40.66400 42.18400 32.99100
C  40.82500 41.49800 34.34400
H  39.87300 41.92500 35.46600
N  42.94900 39.51400 27.67900
C  43.46000 38.85400 28.77500
C  43.93700 37.55700 28.32800
C  43.60000 37.46700 26.97000
C  43.03500 38.73600 26.60400
C  44.48900 36.46800 29.19400
C  43.75800 36.27800 25.92500
O  43.73400 36.31600 24.71300
C  44.13900 34.95100 26.48100
N  42.06300 41.40300 25.56200
C  42.28400 40.35200 24.80900
C  42.25100 40.62600 23.29500
C  41.77000 42.07800 23.27000
C  41.57500 42.46800 24.77700
C  43.57000 40.23100 22.65600
C  40.73900 42.51800 22.22500
C  39.41600 41.74100 22.43600
N  41.41200 43.32500 27.45700
C  41.03600 44.19000 26.41900
C  40.68900 45.48100 26.89000
C  40.66700 45.28100 28.30500
C  41.08200 43.93600 28.59400
C  40.51200 46.77600 26.17100
C  40.52400 46.01900 29.53800
O  40.23900 47.22800 29.64800
C  40.81300 44.94400 30.74600
C  41.97800 45.53600 31.49800
O  43.07800 45.70100 31.02700
O  41.58000 45.87000 32.74300
C  42.60600 46.51800 33.58000
H  43.71800 38.62200 30.81000
H  42.80700 38.34700 24.61500
H  40.87000 44.50500 24.38500
H  42.60200 42.92100 32.50600
H  41.98200 40.00900 32.45100
H  43.90200 39.79900 33.45400
H  44.06000 41.45600 33.50800
H  44.88000 40.59300 32.13600
H  39.86700 41.80100 32.35400
H  40.39400 43.21100 33.23900
H  41.87400 41.54300 34.63900
H  40.66200 40.42400 34.25700
H  45.24300 35.87900 28.67200
H  43.65700 35.89000 29.59800
H  45.02800 36.96000 30.00400
H  43.50500 34.61900 27.30400
H  45.21000 34.95100 26.68500
H  43.87400 34.33800 25.61900
H  41.50900 40.00600 22.79200
H  42.66000 42.61100 22.93500
H  44.40500 40.65800 23.21200
H  43.64800 40.60600 21.63500
H  43.74200 39.15700 22.71600
H  41.07600 42.30100 21.21200
H  40.68600 43.59500 22.38300
H  39.59700 41.31900 23.42500
H  39.26600 40.98900 21.66100
H  38.65300 42.51900 22.42700
H  39.44700 46.96800 26.04100
H  40.95700 46.89500 25.18200
H  40.82000 47.60000 26.81400
H  40.00200 44.78400 31.45700
H  43.52000 46.79500 33.05500
H  43.00700 45.89000 34.37500
H  42.15900 47.38200 34.07200

