158

Mg -12.34000 17.33200 40.88300
C  -9.16100 15.70000 40.45300
C  -10.81700 20.21000 39.99100
C  -15.41300 18.70700 40.93000
C  -13.82100 14.13900 41.40200
N  -10.19700 17.75600 40.31600
C  -9.08700 17.05600 40.20700
C  -7.87600 17.83300 39.76000
C  -8.37600 19.28200 39.77800
C  -9.90000 19.10400 40.04900
C  -7.77200 20.34400 40.76600
C  -7.25900 17.28700 38.43200
C  -5.75200 17.02100 38.46400
H  -5.31100 15.71900 37.70300
N  -13.00900 19.15000 40.43100
C  -12.24200 20.25700 40.03800
C  -13.10700 21.40300 39.84600
C  -14.40000 20.99600 40.15300
C  -14.34500 19.56600 40.57100
C  -12.52400 22.76000 39.44200
C  -15.61000 21.91100 40.05000
O  -15.43500 23.12000 39.80700
C  -17.06600 21.47700 40.19400
N  -14.38300 16.56300 41.15500
C  -15.43500 17.35100 41.24500
C  -16.72700 16.57100 41.58900
C  -16.22000 15.11600 41.50500
C  -14.70000 15.24600 41.29200
C  -17.50300 16.94700 42.88200
C  -16.97900 14.03400 40.65400
C  -17.74800 12.89600 41.30600
N  -11.73900 15.37200 40.95500
C  -12.40300 14.19200 41.24600
C  -11.50500 13.08000 41.17400
C  -10.27000 13.64100 40.87100
C  -10.42300 15.02300 40.79500
C  -11.90800 11.59300 41.36200
C  -8.88400 13.27700 40.60000
O  -8.36400 12.14500 40.56500
C  -8.11400 14.56100 40.30400
C  -6.96900 14.77800 41.20500
O  -7.01600 15.49200 42.25600
O  -5.87200 14.04700 40.83700
C  -4.63600 14.47600 41.56300
H  -10.47600 21.23400 39.82100
H  -16.40000 19.17000 40.98800
H  -14.33800 13.17900 41.34500
H  -7.16500 17.69300 40.57500
H  -8.29200 19.69700 38.77300
H  -6.88100 20.08200 41.33600
H  -8.63300 20.66700 41.35200
H  -7.58200 21.23400 40.16600
H  -7.32100 18.00300 37.61300
H  -7.87300 16.46100 38.07400
H  -5.34500 16.97200 39.47400
H  -5.29100 17.91500 38.04600
H  -11.90800 22.79000 38.54300
H  -11.76700 23.00000 40.18800
H  -13.15700 23.64700 39.46000
H  -17.25300 20.55100 39.64900
H  -17.76900 22.18700 39.75900
H  -17.27900 21.38300 41.25800
H  -17.30800 16.88900 40.72300
H  -16.13900 14.81800 42.55000
H  -17.41400 16.25300 43.71900
H  -18.58500 17.00800 42.76700
H  -17.12800 17.88000 43.30400
H  -16.39300 13.63400 39.82700
H  -17.82200 14.55500 40.20000
H  -17.10000 12.03800 41.12500
H  -18.61100 12.56100 40.73100
H  -18.04600 12.87900 42.35400
H  -12.96100 11.51400 41.63500
H  -11.31300 10.98600 42.04300
H  -11.87300 11.07400 40.40400
H  -7.75400 14.45900 39.28000
H  -4.56900 15.56200 41.63700
H  -3.81700 14.11400 40.94300
H  -4.53400 14.01700 42.54600
Mg -6.00400 25.27300 26.58600
C  -4.53400 26.77200 29.38900
C  -8.02500 23.52500 28.56700
C  -6.93700 23.73700 23.82900
C  -3.36800 26.87200 24.62500
N  -6.12300 24.99900 28.75500
C  -5.53600 25.84500 29.67200
C  -6.09400 25.53000 31.05600
C  -7.20900 24.45500 30.82100
C  -7.12500 24.31700 29.30400
C  -6.96800 23.16700 31.53800
C  -6.64000 26.79500 31.74100
C  -6.54600 26.91900 33.25900
H  -5.89300 25.82700 34.13100
N  -7.47300 24.02300 26.19200
C  -8.21000 23.37200 27.15700
C  -9.22200 22.60300 26.52000
C  -8.87600 22.44600 25.15500
C  -7.73400 23.42000 24.94100
C  -10.47000 22.07700 27.29300
C  -9.45800 21.42300 24.18300
O  -9.02400 21.33000 23.04400
C  -10.48000 20.30500 24.63600
N  -5.19800 25.20900 24.52200
C  -5.81000 24.45700 23.60800
C  -5.19500 24.65300 22.17400
C  -4.07200 25.76200 22.42800
C  -4.24400 26.04500 23.99700
C  -4.73200 23.35100 21.51200
C  -4.16200 27.04700 21.45000
C  -3.11300 27.10200 20.35900
N  -4.25800 26.56600 26.88900
C  -3.33100 27.16400 26.01800
C  -2.43300 28.00600 26.75200
C  -2.92600 27.90800 28.07200
C  -3.97600 27.01500 28.09300
C  -1.41700 28.87900 26.20400
C  -2.65400 28.38600 29.49300
O  -1.76900 29.09900 29.99500
C  -3.71000 27.63300 30.35700
C  -2.96300 26.88300 31.36400
O  -2.24200 25.95900 31.11700
O  -3.00100 27.53400 32.55600
C  -2.11200 27.04400 33.61600
H  -8.82900 23.09200 29.16600
H  -7.46200 23.44800 22.91600
H  -2.63600 27.32500 23.95200
H  -5.29000 25.15700 31.69000
H  -8.20200 24.77500 31.13400
H  -7.83700 22.62000 31.90400
H  -6.29400 23.33600 32.37800
H  -6.38800 22.50700 30.89200
H  -7.70100 26.91900 31.52400
H  -6.22100 27.66500 31.23500
H  -7.48300 27.16500 33.75800
H  -5.87600 27.74400 33.50100
H  -11.36500 22.36400 26.74100
H  -10.61000 22.47400 28.29800
H  -10.48000 20.99200 27.40200
H  -9.93200 19.78900 25.42400
H  -10.61800 19.65100 23.77500
H  -11.48000 20.63400 24.91800
H  -5.87500 25.08800 21.44200
H  -3.12500 25.24000 22.29100
H  -3.65500 23.21200 21.59900
H  -5.07900 23.18100 20.49300
H  -5.08900 22.52600 22.12900
H  -4.16100 27.90600 22.12200
H  -5.15700 27.07500 21.00600
H  -2.31900 26.40000 20.61500
H  -2.81400 28.14000 20.21400
H  -3.63900 26.70900 19.48900
H  -1.27500 28.62100 25.15400
H  -0.51600 28.79400 26.81200
H  -1.82800 29.88800 26.20200
H  -4.31100 28.40000 30.84500
H  -1.87800 25.98700 33.49000
H  -2.52100 27.22300 34.61000
H  -1.12800 27.51300 33.58400

