158

Mg 35.07600 2.16200 30.42100
C  32.80300 3.10400 32.87600
C  37.60600 2.24800 32.77000
C  37.47900 1.77500 27.85200
C  32.62800 2.83600 27.93300
N  35.19900 2.59600 32.56800
C  34.11900 2.92700 33.40400
C  34.57000 2.86200 34.83600
C  36.09700 2.86900 34.76800
C  36.37900 2.59100 33.31000
C  36.79500 4.29500 35.22500
C  34.02900 1.54500 35.57000
C  33.41000 1.70000 36.98300
H  33.88100 2.70500 38.09200
N  37.17100 1.97100 30.36000
C  37.99500 2.02100 31.41400
C  39.38900 1.68700 30.97500
C  39.39200 1.40400 29.55300
C  37.96200 1.64900 29.20900
C  40.56700 1.61600 31.87700
C  40.47900 0.91800 28.62000
O  40.27000 0.99900 27.44800
C  41.84800 0.48800 29.04100
N  35.04400 2.21100 28.24500
C  36.16100 2.06200 27.37800
C  35.72800 2.43000 25.96000
C  34.16000 2.53500 25.97000
C  33.92200 2.59000 27.49400
C  36.48600 3.73500 25.43100
C  33.47000 1.29300 25.28100
C  32.52700 1.41700 24.05000
N  33.12900 2.77900 30.35300
C  32.24200 2.96500 29.28700
C  30.89100 3.31000 29.78900
C  31.10800 3.32600 31.20400
C  32.49700 3.09200 31.46000
C  29.65600 3.62900 28.98100
C  30.43800 3.66200 32.41300
O  29.31200 4.08100 32.64700
C  31.47400 3.38900 33.53600
C  31.63600 4.63700 34.41000
O  32.35100 5.60100 34.17300
O  30.70500 4.64800 35.44000
C  30.74500 5.80900 36.35800
H  38.41400 2.30300 33.50200
H  38.23500 1.75500 27.06400
H  31.93400 3.06800 27.12300
H  34.14500 3.69400 35.39800
H  36.54900 2.09700 35.39000
H  35.97400 4.91000 35.59400
H  37.43300 4.79300 34.49500
H  37.50000 4.01200 36.00700
H  34.91600 0.91800 35.65300
H  33.35700 0.99600 34.91100
H  33.41200 0.72500 37.47000
H  32.33800 1.80300 36.81000
H  40.77100 0.54700 31.82600
H  40.30400 1.90500 32.89500
H  41.44700 2.19400 31.59800
H  41.84400 -0.19800 29.88800
H  42.46700 1.36200 29.23900
H  42.46000 -0.02000 28.29500
H  36.10300 1.56600 25.41300
H  33.88500 3.47200 25.48700
H  37.27500 3.52500 24.70900
H  37.06000 4.17500 26.24500
H  35.76300 4.43700 25.01400
H  32.91200 0.72900 26.02800
H  34.23700 0.60400 24.92700
H  32.61500 2.41500 23.62100
H  31.54700 1.08900 24.39600
H  32.76200 0.60700 23.36000
H  29.71400 3.30900 27.94000
H  29.41700 4.69100 29.01200
H  28.80700 3.03600 29.32000
H  31.05900 2.63500 34.20500
H  30.52200 5.46100 37.36700
H  30.02100 6.50400 35.93200
H  31.64300 6.41800 36.24900
Mg 41.11400 41.02300 26.43500
C  40.19200 43.18100 29.09300
C  42.50500 39.00600 28.83000
C  42.01700 38.94200 23.95800
C  40.36200 43.56700 24.16500
N  41.50400 41.21000 28.80300
C  40.76700 42.02400 29.62900
C  40.83600 41.59900 31.08200
C  41.89400 40.45200 30.88200
C  41.99500 40.15400 29.40900
C  43.22700 40.58800 31.67400
C  39.38600 41.23800 31.61200
C  38.93100 41.94900 32.92500
H  38.50800 41.05900 34.12900
N  41.90900 39.14300 26.41800
C  42.44600 38.47100 27.49000
C  42.82900 37.12300 27.03600
C  42.51700 37.06400 25.60200
C  42.16900 38.42000 25.26600
C  43.28100 36.01800 27.91400
C  42.63100 35.92000 24.53500
O  42.31300 36.01300 23.41800
C  43.20800 34.63300 24.98100
N  41.13500 41.23800 24.36800
C  41.50400 40.16400 23.59800
C  41.37300 40.52300 22.09900
C  40.62000 41.90600 22.16500
C  40.71000 42.29200 23.64400
C  42.64500 40.33200 21.21500
C  39.01800 41.92600 21.85200
C  38.09600 41.01200 22.75900
N  40.43000 42.87800 26.61300
C  40.19600 43.87200 25.53900
C  39.61100 45.07200 26.15700
C  39.59300 44.74600 27.55400
C  40.07900 43.46000 27.75200
C  39.05200 46.33500 25.52400
C  39.26300 45.36100 28.79200
O  38.99700 46.55400 29.04900
C  39.47100 44.23500 29.86500
C  40.15100 44.88000 30.92400
O  41.32400 45.26500 30.86500
O  39.32200 45.05100 32.00700
C  39.88700 45.65200 33.23800
H  43.06600 38.27800 29.41900
H  42.24300 38.32200 23.08800
H  39.91400 44.21400 23.40800
H  41.34700 42.41900 31.58800
H  41.64400 39.52700 31.40100
H  43.31500 41.59400 32.08500
H  44.11800 40.41100 31.07100
H  43.19300 39.81900 32.44500
H  39.35900 40.15500 31.73400
H  38.72500 41.49500 30.78400
H  38.00200 42.38900 32.56300
H  39.58500 42.74200 33.28700
H  42.49900 35.25900 27.88300
H  43.53500 36.30400 28.93400
H  44.13000 35.50900 27.45600
H  44.27900 34.80500 25.09300
H  43.05900 33.79100 24.30500
H  42.68700 34.45100 25.92100
H  40.61100 39.83400 21.73500
H  41.04100 42.78900 21.68400
H  42.68600 41.24500 20.62100
H  42.52000 39.51900 20.50000
H  43.47500 40.24400 21.91600
H  38.86300 41.61100 20.82000
H  38.67000 42.95900 21.83500
H  37.94400 41.67000 23.61500
H  38.77500 40.23900 23.12000
H  37.30700 40.66700 22.09100
H  38.43900 46.82700 26.27900
H  38.53100 46.15400 24.58400
H  39.88500 46.99100 25.27100
H  38.50000 43.84700 30.17000
H  40.22900 44.87000 33.91600
H  39.16200 46.31900 33.70400
H  40.75600 46.22800 32.91700

