158

Mg 8.78400 3.61500 27.48000
C  9.97200 2.13800 30.36000
C  7.15000 6.03700 29.30900
C  7.69200 5.07700 24.60500
C  10.16700 1.01300 25.61800
N  8.47900 3.94100 29.61900
C  9.16800 3.28300 30.59100
C  8.97700 4.03600 31.97100
C  7.94200 5.14300 31.63100
C  7.82000 5.03300 30.05300
C  6.60800 5.08100 32.43800
C  10.32400 4.55500 32.55300
C  10.62100 4.11600 34.02500
H  11.08700 5.15400 35.10900
N  7.52900 5.35800 27.00500
C  7.05900 6.21500 27.91800
C  6.48600 7.30300 27.20900
C  6.53400 7.07500 25.83300
C  7.19600 5.77500 25.75800
C  5.85000 8.46900 27.93600
C  5.99300 7.73900 24.63800
O  6.16100 7.25400 23.53300
C  5.38400 9.03100 24.75100
N  8.76400 2.98000 25.45400
C  8.47800 3.90800 24.52100
C  8.75000 3.40200 23.06200
C  9.48900 2.08000 23.38600
C  9.49800 1.98900 24.90100
C  7.55900 3.30400 22.12800
C  10.82200 1.79300 22.70100
C  10.78200 1.36400 21.21500
N  9.78700 1.82000 27.84600
C  10.32100 0.85400 26.95400
C  11.05500 -0.10700 27.67800
C  10.93600 0.35300 29.05100
C  10.11400 1.48300 29.05800
C  11.71600 -1.36100 27.18900
C  11.37300 0.13400 30.37000
O  12.10400 -0.68300 30.82000
C  10.77600 1.25600 31.31900
C  9.93500 0.61700 32.33200
O  9.08400 -0.27500 32.08300
O  10.38700 0.92000 33.60900
C  9.87000 0.09700 34.69800
H  6.84000 6.85900 29.95800
H  7.46200 5.50700 23.62800
H  10.71800 0.30000 25.00100
H  8.62200 3.28800 32.67900
H  8.35900 6.13900 31.77800
H  5.81500 4.55100 31.91000
H  6.22600 6.09100 32.58500
H  6.84600 4.67600 33.42100
H  10.22500 5.64000 32.57600
H  11.18100 4.27400 31.94100
H  11.40000 3.39600 33.77500
H  9.72400 3.55300 34.28200
H  5.79800 8.31600 29.01400
H  4.78100 8.50700 27.72700
H  6.09600 9.51200 27.73700
H  5.22200 9.51800 23.78900
H  6.04500 9.71900 25.27800
H  4.49500 8.92500 25.37200
H  9.46000 4.12800 22.66600
H  8.74700 1.33600 23.09600
H  6.62900 3.54400 22.64300
H  7.34900 2.26800 21.86300
H  7.77800 3.95700 21.28200
H  11.54400 1.13100 23.17900
H  11.29300 2.77000 22.59900
H  9.72500 1.25800 20.97400
H  11.26400 0.40700 21.01700
H  11.22300 2.08500 20.52700
H  12.26400 -1.12800 26.27600
H  10.97700 -2.13800 26.99200
H  12.35400 -1.78200 27.96600
H  11.56100 1.82600 31.81700
H  10.11900 -0.96000 34.79100
H  8.78800 0.18700 34.79400
H  10.18900 0.48500 35.66500
Mg 24.55800 -7.20600 47.07900
C  26.61600 -4.69700 45.61700
C  22.17400 -6.36400 44.63500
C  23.14600 -10.14400 47.62500
C  27.54000 -8.29600 48.71800
N  24.49100 -5.63400 45.34300
C  25.41700 -4.83600 44.91900
C  24.94800 -4.04300 43.63600
C  23.40200 -4.34100 43.70100
C  23.32400 -5.53600 44.60300
C  22.56500 -3.11700 44.09500
C  25.64700 -4.17400 42.23400
C  26.19400 -2.85100 41.60200
H  25.65400 -2.58700 40.20600
N  22.80500 -7.98700 46.48300
C  22.00000 -7.53000 45.47100
C  20.83000 -8.49700 45.30900
C  21.06900 -9.52200 46.28800
C  22.39800 -9.24200 46.86400
C  19.70200 -8.42500 44.36200
C  20.20900 -10.70800 46.44900
O  19.21000 -10.78900 45.80900
C  20.43000 -11.73100 47.53400
N  25.24300 -8.93200 47.96500
C  24.44700 -10.03700 48.14100
C  25.22200 -11.13300 48.95000
C  26.61600 -10.59300 49.19600
C  26.43800 -9.16900 48.69700
C  24.51500 -11.71000 50.24200
C  27.76000 -11.45600 48.54800
C  28.87500 -12.01200 49.44200
N  26.60600 -6.56100 47.39000
C  27.58800 -7.10400 48.10600
C  28.76700 -6.21000 48.04500
C  28.41800 -5.28800 47.09700
C  27.11100 -5.55600 46.63900
C  30.10200 -6.36000 48.74800
C  28.90000 -4.17200 46.39500
O  30.04100 -3.67300 46.47100
C  27.76400 -3.68500 45.41800
C  27.23600 -2.30200 45.92400
O  26.86200 -2.06700 47.03000
O  27.47800 -1.39100 44.97400
C  27.34200 0.04400 45.35900
H  21.36300 -6.09700 43.95500
H  22.78800 -11.09200 48.03100
H  28.30900 -8.92000 49.17800
H  25.10200 -2.98400 43.84400
H  23.08700 -4.63400 42.70000
H  21.86900 -3.49500 44.84400
H  22.03900 -2.83400 43.18300
H  23.16200 -2.28800 44.47600
H  24.96500 -4.58600 41.49100
H  26.53700 -4.78100 42.40200
H  27.28000 -2.84800 41.69800
H  25.92400 -2.00300 42.23100
H  19.66700 -7.44100 43.89400
H  18.75900 -8.50100 44.90300
H  19.68200 -9.10300 43.50900
H  21.28300 -12.37800 47.32900
H  19.58600 -12.42000 47.51800
H  20.49600 -11.23400 48.50200
H  25.28500 -11.99900 48.29200
H  26.78100 -10.50500 50.27000
H  23.67600 -11.02900 50.38700
H  25.17700 -11.53300 51.08900
H  24.13800 -12.72700 50.13000
H  28.11700 -10.95200 47.65000
H  27.29500 -12.34000 48.11100
H  28.42800 -12.90600 49.87500
H  29.01200 -11.21700 50.17500
H  29.85200 -12.20300 48.99800
H  29.92700 -6.43000 49.82200
H  30.78400 -5.51800 48.63300
H  30.56900 -7.26900 48.36800
H  28.06400 -3.55900 44.37800
H  27.31100 0.65500 44.45700
H  28.19800 0.29500 45.98700
H  26.50600 0.20400 46.04000

