158

Mg 1.09100 7.39700 25.21000
C  1.96000 9.67600 27.94300
C  1.25400 4.94900 27.34100
C  0.49100 5.51800 22.61100
C  1.32100 10.36000 23.04900
N  1.68600 7.32700 27.36800
C  1.90000 8.29300 28.28900
C  1.91000 7.70300 29.72700
C  1.93500 6.19700 29.41000
C  1.57100 6.12600 27.95100
C  3.11900 5.40000 29.91700
C  0.60400 8.08100 30.49100
C  0.63600 8.38900 31.96000
H  1.71400 7.68100 32.86200
N  0.84900 5.49600 25.01300
C  0.96700 4.60900 25.97400
C  0.57500 3.32300 25.41700
C  0.35700 3.40100 24.02100
C  0.48600 4.88000 23.83800
C  0.57500 2.06700 26.25100
C  0.14200 2.29500 23.01000
O  -0.12300 2.53500 21.85100
C  0.04200 0.80900 23.58900
N  0.96100 7.82500 23.09700
C  0.65200 6.87200 22.25300
C  0.59700 7.38400 20.77600
C  0.61200 8.93100 21.01900
C  1.03500 9.08200 22.48800
C  1.71900 6.90800 19.73800
C  -0.80500 9.64100 20.92200
C  -0.95800 11.00500 20.09500
N  1.50900 9.60500 25.38600
C  1.51400 10.66500 24.43800
C  1.75600 11.97900 25.07300
C  1.91200 11.62800 26.45300
C  1.75600 10.18300 26.57600
C  1.81800 13.31700 24.36700
C  2.18800 12.17300 27.78400
O  2.35800 13.31500 28.17900
C  2.00400 10.87100 28.82800
C  3.09100 10.79700 29.88000
O  4.28000 10.40000 29.67900
O  2.57400 11.33000 31.00600
C  3.50200 11.21700 32.12100
H  1.18400 4.09700 28.02000
H  0.27100 4.83000 21.79200
H  1.35900 11.24100 22.40500
H  2.72400 8.15100 30.29700
H  1.11200 5.67300 29.89600
H  3.54900 4.94500 29.02500
H  2.90100 4.68900 30.71400
H  3.88500 6.04200 30.35400
H  -0.10700 7.26200 30.38300
H  0.06700 8.83300 29.91300
H  -0.33700 8.09400 32.35300
H  0.77400 9.46500 32.07000
H  0.50900 2.22700 27.32700
H  1.56200 1.62700 26.10700
H  -0.18700 1.33200 25.99000
H  -0.16400 0.20500 22.70500
H  -0.91300 0.84700 24.11300
H  0.95600 0.45300 24.06300
H  -0.31300 7.03400 20.29000
H  1.21900 9.30500 20.19400
H  1.39400 6.10300 19.07900
H  2.59100 6.63000 20.32900
H  1.93000 7.65100 18.96800
H  -1.12100 9.86700 21.94000
H  -1.44800 8.89200 20.45900
H  -1.86900 10.98600 19.49700
H  0.01800 11.18000 19.64300
H  -1.06400 11.80000 20.83400
H  2.64000 13.22900 23.65700
H  2.01400 14.15300 25.03800
H  0.81100 13.39800 23.95700
H  1.06700 11.04600 29.35600
H  4.42900 10.64400 32.10500
H  2.91300 10.73600 32.90200
H  3.64200 12.24300 32.46200
Mg 25.76200 0.04500 28.99100
C  27.65600 -0.51200 32.00600
C  23.15800 0.89500 31.03200
C  23.92400 0.24300 26.33700
C  28.53800 -0.90000 27.15400
N  25.43600 0.05000 31.31400
C  26.37600 -0.09800 32.23300
C  25.83800 0.20800 33.58100
C  24.30700 0.41600 33.32400
C  24.27600 0.49200 31.80000
C  23.30900 -0.70200 33.89000
C  26.53900 1.49200 34.28700
C  27.01500 1.26700 35.71400
H  26.70100 2.39600 36.70100
N  23.78400 0.51800 28.76700
C  22.85600 0.83000 29.68300
C  21.55000 1.04600 29.04200
C  21.78100 0.78400 27.65900
C  23.26800 0.54100 27.53100
C  20.30600 1.35600 29.86300
C  20.75400 0.89300 26.49600
O  21.06900 0.78900 25.28000
C  19.30500 0.97300 26.90100
N  26.17400 -0.45300 27.03400
C  25.26600 -0.10600 26.07200
C  25.82400 -0.25100 24.63100
C  27.32200 -0.50800 24.86200
C  27.34600 -0.66100 26.44300
C  25.09000 -1.32300 23.81100
C  28.34200 0.48900 24.31300
C  28.64400 1.66700 25.25200
N  27.69300 -0.56700 29.41500
C  28.70900 -0.97500 28.55800
C  29.89400 -1.26100 29.34700
C  29.48000 -1.11200 30.67300
C  28.15100 -0.68700 30.71900
C  31.21600 -1.67400 28.83300
C  30.01400 -1.19500 32.03300
O  31.11000 -1.57300 32.47200
C  28.83700 -0.67600 32.95000
C  28.58900 -1.80400 33.84300
O  28.01400 -2.82900 33.62500
O  29.20600 -1.47100 35.04300
C  28.98700 -2.44400 36.19100
H  22.36700 1.40200 31.58700
H  23.38500 0.49200 25.42000
H  29.48500 -1.09000 26.64400
H  25.99000 -0.57900 34.31900
H  23.92500 1.33600 33.76600
H  22.77300 -1.16400 33.06100
H  22.65200 -0.18300 34.58800
H  23.82600 -1.46100 34.47700
H  25.84100 2.32600 34.21400
H  27.38500 1.70800 33.63400
H  28.09700 1.13600 35.71800
H  26.61900 0.28700 35.97800
H  19.63100 0.50600 29.76100
H  19.75300 2.22200 29.49800
H  20.43000 1.57700 30.92300
H  18.96900 1.91100 27.34300
H  19.16000 0.10700 27.54800
H  18.69700 0.70000 26.03900
H  25.88500 0.68100 24.06800
H  27.64600 -1.42200 24.36500
H  25.81700 -1.96500 23.31300
H  24.52600 -0.82500 23.02200
H  24.44600 -1.89400 24.48000
H  27.91600 0.81300 23.36400
H  29.24000 -0.02400 23.96800
H  27.96100 1.65900 26.10100
H  28.46900 2.60800 24.73100
H  29.66800 1.63700 25.62500
H  31.55200 -0.87800 28.17000
H  31.09100 -2.55400 28.20300
H  31.91800 -1.91500 29.63200
H  29.10400 0.23600 33.48500
H  28.18200 -2.19700 36.88300
H  29.90800 -2.30800 36.75800
H  28.82500 -3.46400 35.84200

