158

Mg 36.79600 49.66500 25.67300
C  37.21200 47.48200 28.37700
C  35.41000 51.97700 27.87300
C  35.78700 51.52400 23.13800
C  38.07100 47.35900 23.52100
N  36.26900 49.58500 27.88000
C  36.67000 48.66300 28.81000
C  36.32300 49.14900 30.23400
C  35.65100 50.53800 30.00300
C  35.63300 50.71900 28.45600
C  34.18600 50.64700 30.61300
C  37.61800 49.23100 31.08300
C  37.57200 48.68700 32.51000
H  36.29200 49.13500 33.25700
N  35.79200 51.55000 25.50200
C  35.48900 52.38500 26.52000
C  35.15000 53.80100 25.97800
C  35.33700 53.64900 24.55800
C  35.63100 52.20600 24.32800
C  34.68400 54.92400 26.87400
C  35.13200 54.65600 23.49500
O  35.21600 54.47700 22.30400
C  34.78900 56.04800 23.81700
N  36.90400 49.43200 23.64800
C  36.21400 50.24000 22.79200
C  36.33200 49.77000 21.37500
C  37.39600 48.65400 21.42200
C  37.49800 48.47500 22.92500
C  34.97900 49.44700 20.61900
C  38.72100 48.94400 20.80700
C  39.55500 47.77100 20.07500
N  37.53100 47.81000 25.82500
C  38.01600 46.99600 24.85800
C  38.53200 45.82200 25.46100
C  38.25900 45.97000 26.82200
C  37.52900 47.15100 27.03100
C  39.14400 44.59400 24.82800
C  38.39200 45.32700 28.08600
O  38.96800 44.33100 28.53900
C  37.73200 46.31800 29.14500
C  36.65700 45.64900 29.90900
O  35.49300 45.51300 29.59400
O  37.19300 45.37300 31.13900
C  36.31100 45.07100 32.24100
H  34.98500 52.80000 28.45100
H  35.42300 52.13100 22.30600
H  38.51500 46.63200 22.83700
H  35.50700 48.53000 30.60700
H  36.28800 51.29200 30.46600
H  33.55500 50.18300 29.85500
H  33.97900 51.71400 30.70000
H  34.04900 50.20000 31.59700
H  38.06300 50.22400 31.02700
H  38.33400 48.68500 30.46800
H  38.43700 49.18900 32.94300
H  37.74500 47.61300 32.57500
H  35.46300 55.64400 27.12300
H  34.40800 54.61900 27.88400
H  33.90200 55.49900 26.37800
H  33.71200 56.18800 23.91200
H  35.06900 56.71000 22.99700
H  35.25500 56.42800 24.72600
H  36.80900 50.61400 20.87700
H  36.93100 47.78200 20.96200
H  34.90400 50.10900 19.75600
H  34.12500 49.66900 21.25900
H  34.93500 48.42700 20.23600
H  39.40800 49.23100 21.60300
H  38.69800 49.68700 20.00900
H  40.06500 47.13600 20.79800
H  40.38200 48.13900 19.46700
H  38.83600 47.14800 19.54200
H  38.53900 44.47500 23.92900
H  39.25900 43.74100 25.49700
H  40.14000 44.83400 24.45500
H  38.63200 46.61700 29.68300
H  35.46000 44.50600 31.85700
H  35.79600 45.94900 32.62900
H  36.80200 44.52500 33.04700
Mg -6.18700 25.09100 25.95900
C  -4.46200 25.99500 28.88000
C  -8.14200 22.95100 27.72800
C  -7.24300 23.95700 23.06600
C  -3.59600 26.75400 24.22900
N  -6.15900 24.48800 28.03700
C  -5.53600 25.20300 29.05900
C  -6.04900 24.68700 30.38300
C  -7.02400 23.51800 30.02800
C  -7.11500 23.59400 28.50400
C  -6.50800 22.17200 30.56400
C  -6.71200 25.86800 31.16600
C  -6.49500 26.05400 32.73100
H  -5.97500 24.91900 33.57200
N  -7.55900 23.64800 25.44300
C  -8.37200 22.92400 26.32400
C  -9.28200 22.08800 25.54100
C  -8.97300 22.42100 24.14700
C  -7.88200 23.40800 24.16200
C  -10.24400 21.14800 26.18500
C  -9.72800 21.95300 22.95700
O  -9.46800 22.35200 21.83700
C  -10.88300 21.02200 23.13200
N  -5.37300 25.24400 23.93700
C  -6.09600 24.69600 22.90500
C  -5.51100 24.98100 21.57500
C  -4.44100 26.04900 21.99200
C  -4.44400 26.00400 23.50200
C  -4.79200 23.71700 20.94400
C  -4.74000 27.51000 21.47200
C  -4.24500 27.74000 20.00800
N  -4.50200 26.31100 26.40400
C  -3.56900 26.94700 25.60400
C  -2.48300 27.60800 26.34900
C  -2.81500 27.30900 27.66900
C  -4.04100 26.53800 27.65400
C  -1.26500 28.39200 25.81000
C  -2.40300 27.36200 29.07200
O  -1.50100 27.87700 29.65700
C  -3.55200 26.67600 29.85900
C  -2.90800 25.84500 30.92400
O  -2.53500 24.71600 30.83000
O  -2.79100 26.44600 32.12700
C  -1.77800 26.01100 33.01300
H  -8.78400 22.25100 28.26700
H  -7.56100 23.73600 22.04500
H  -2.77600 27.24400 23.70000
H  -5.23400 24.32100 31.00700
H  -8.03400 23.71000 30.38800
H  -5.85400 22.24500 31.43300
H  -5.87300 21.90700 29.71800
H  -7.37800 21.52200 30.65400
H  -7.79700 25.90600 31.07400
H  -6.35400 26.72500 30.59700
H  -7.41600 26.50500 33.09900
H  -5.76900 26.84300 32.92700
H  -11.17500 21.69100 26.02300
H  -10.19200 20.97900 27.26000
H  -10.23700 20.16000 25.72300
H  -11.64700 21.40700 23.80600
H  -10.40200 20.14800 23.57100
H  -11.23900 20.72900 22.14400
H  -6.29100 25.45400 20.97800
H  -3.43300 25.75500 21.69800
H  -3.78600 24.05000 20.68900
H  -5.45100 23.39300 20.13900
H  -4.77100 22.98700 21.75300
H  -4.37400 28.30500 22.12100
H  -5.82100 27.65000 21.49200
H  -3.23600 28.15400 20.02900
H  -5.01300 28.34400 19.52600
H  -4.16500 26.76400 19.52800
H  -1.66600 29.32000 25.40200
H  -0.84100 27.76700 25.02400
H  -0.57000 28.57500 26.63100
H  -4.08700 27.46100 30.39300
H  -2.19000 25.15400 33.54500
H  -1.31600 26.76100 33.65600
H  -0.95600 25.79800 32.32900

