158

Mg 45.36300 5.48300 48.32300
C  43.44300 8.14500 47.45000
C  42.92700 3.30000 47.21400
C  47.60700 2.83400 48.43400
C  48.08400 7.58900 48.73700
N  43.56700 5.72700 47.27900
C  42.86800 6.90600 47.12800
C  41.59900 6.70200 46.41100
C  41.28900 5.19900 46.69000
C  42.67500 4.68400 47.11700
C  40.16100 4.91500 47.67500
C  41.60700 7.09200 44.86800
C  40.50100 7.94600 44.30800
H  39.90700 7.54700 43.00100
N  45.26100 3.35200 48.03200
C  44.09800 2.66300 47.64600
C  44.34600 1.22900 47.67200
C  45.67200 1.08500 48.15400
C  46.26300 2.48000 48.23400
C  43.33200 0.23800 47.48500
C  46.34000 -0.30600 48.50800
O  45.67200 -1.33000 48.44700
C  47.66700 -0.54200 49.01500
N  47.57100 5.27700 48.51700
C  48.20000 4.11900 48.57800
C  49.70900 4.20700 48.85000
C  49.86100 5.79200 48.91200
C  48.38000 6.29100 48.70900
C  50.18700 3.60400 50.22800
C  50.82900 6.37400 47.88400
C  51.58400 7.59500 48.48900
N  45.77200 7.52900 48.28600
C  46.89400 8.20400 48.40000
C  46.63500 9.61800 48.12900
C  45.25200 9.66400 47.84500
C  44.77300 8.32900 47.96200
C  47.62400 10.75100 48.06700
C  44.14100 10.49200 47.48800
O  44.02200 11.65900 47.36000
C  42.92600 9.50200 47.28700
C  41.73100 9.82400 48.13800
O  41.63400 9.41400 49.32100
O  40.85900 10.55700 47.44400
C  39.69000 11.00800 48.11700
H  42.21300 2.56600 46.83600
H  48.41600 2.10600 48.51400
H  48.80200 8.35800 49.03100
H  40.82200 7.26700 46.92600
H  41.03000 4.62800 45.79800
H  39.76700 5.80800 48.15900
H  40.56100 4.36000 48.52300
H  39.38100 4.33300 47.18400
H  41.65600 6.20900 44.23100
H  42.56700 7.60300 44.79900
H  40.82300 8.98600 44.26200
H  39.65800 7.91800 44.99800
H  43.48400 -0.40900 46.62100
H  42.34500 0.55800 47.15100
H  43.18400 -0.37100 48.37700
H  48.01200 -1.55000 49.24800
H  47.66800 -0.00000 49.96100
H  48.37000 -0.14200 48.28500
H  50.29300 3.75700 48.04800
H  50.02200 6.07100 49.95400
H  50.93700 4.26700 50.65700
H  50.51000 2.58200 50.03000
H  49.32700 3.43800 50.87700
H  50.26000 6.86000 47.09100
H  51.58300 5.65300 47.56700
H  52.29900 7.97000 47.75700
H  52.07700 7.10900 49.33100
H  50.83600 8.35000 48.73200
H  48.58200 10.39900 47.68500
H  47.68500 11.03500 49.11800
H  47.18500 11.50700 47.41500
H  42.65300 9.58400 46.23500
H  39.53700 12.03700 47.79300
H  39.77800 10.97300 49.20300
H  38.85400 10.35600 47.86500
Mg 57.21400 23.31500 45.16700
C  55.34100 25.96600 44.20600
C  54.98500 21.09400 43.66300
C  59.60000 20.74500 45.47400
C  59.74900 25.53200 46.22800
N  55.49400 23.52100 43.97000
C  54.85600 24.74100 43.71200
C  53.47700 24.51500 43.05600
C  53.21800 22.97500 43.34100
C  54.66300 22.48000 43.68500
C  52.16800 22.55500 44.38000
C  53.66700 24.91400 41.60800
C  52.65800 25.85500 40.98300
H  51.64600 25.36200 39.94200
N  57.28600 21.21700 44.71300
C  56.21500 20.55000 44.09000
C  56.58200 19.22600 44.04500
C  57.79600 19.06800 44.70400
C  58.28900 20.36000 45.03500
C  55.52900 18.20500 43.47700
C  58.42200 17.66500 44.95800
O  57.97400 16.73600 44.30400
C  59.66000 17.47500 45.81800
N  59.37300 23.13800 45.58900
C  60.07600 22.03800 45.78800
C  61.47500 22.19100 46.34900
C  61.59600 23.77500 46.33200
C  60.13800 24.20700 46.04700
C  61.68700 21.47800 47.65300
C  62.57100 24.37000 45.23400
C  64.08300 24.28500 45.60700
N  57.43900 25.34400 45.34800
C  58.47600 26.15200 45.83700
C  58.02500 27.50300 45.93900
C  56.78100 27.51100 45.27200
C  56.55100 26.16900 44.89700
C  58.72700 28.72200 46.61200
C  55.65700 28.31100 44.89300
O  55.52000 29.51800 45.04700
C  54.76000 27.34900 44.07100
C  54.63400 27.95500 42.73800
O  55.46400 27.89400 41.88800
O  53.42500 28.65700 42.61500
C  53.22800 29.33300 41.31300
H  54.15800 20.49400 43.27700
H  60.34000 19.97700 45.70900
H  60.46500 26.29200 46.54800
H  52.61800 25.03700 43.47700
H  52.91600 22.52000 42.39700
H  51.49200 21.80300 43.97300
H  51.57900 23.40500 44.72600
H  52.69200 22.16700 45.25400
H  53.65300 24.06700 40.92300
H  54.68200 25.27900 41.45200
H  53.32000 26.61300 40.56500
H  52.05400 26.40900 41.70100
H  55.45000 18.43600 42.41500
H  54.54600 18.33300 43.93200
H  55.76700 17.14200 43.46400
H  60.57100 17.76500 45.29500
H  59.77100 16.42800 46.09800
H  59.45500 18.09300 46.69200
H  61.99400 21.60700 45.58900
H  61.91500 24.18200 47.29200
H  62.74100 21.20100 47.69300
H  61.00100 20.63300 47.69800
H  61.47500 22.13900 48.49300
H  62.37600 25.40900 44.96700
H  62.45200 23.86700 44.27500
H  64.58400 23.34300 45.38500
H  64.14900 24.48300 46.67700
H  64.63900 25.02600 45.03300
H  59.78800 28.50600 46.73400
H  58.31400 28.78000 47.62000
H  58.61500 29.66000 46.06700
H  53.77600 27.36300 44.54000
H  54.20300 29.53600 40.87100
H  52.64400 30.25100 41.37800
H  52.63000 28.73900 40.62200

