158

Mg 24.83200 -5.20200 45.28900
C  26.22000 -2.22600 44.02800
C  21.93700 -4.35500 43.74100
C  23.86500 -8.37100 45.78500
C  28.07700 -6.02100 46.48700
N  24.18700 -3.51900 43.93300
C  24.89600 -2.38500 43.57600
C  24.10300 -1.47900 42.62600
C  22.61800 -1.98400 43.01600
C  22.89900 -3.40000 43.53400
C  21.86900 -1.12600 44.07100
C  24.59100 -1.67400 41.11600
C  25.06800 -0.39800 40.43600
H  26.15100 -0.51200 39.43500
N  23.12900 -6.17100 44.99600
C  22.03700 -5.61700 44.40000
C  20.97400 -6.61600 44.46200
C  21.44800 -7.76200 45.18100
C  22.85400 -7.50200 45.35800
C  19.51800 -6.46300 43.86800
C  20.58800 -8.99100 45.50500
O  19.35800 -9.07100 45.35500
C  21.24000 -10.24500 46.09200
N  25.79900 -6.96300 46.10000
C  25.16600 -8.15300 46.22000
C  26.13400 -9.21100 46.88700
C  27.35000 -8.32300 47.38300
C  27.08800 -7.02600 46.60400
C  25.58600 -10.15300 47.98900
C  28.76200 -8.94900 47.05300
C  29.65400 -9.12000 48.25900
N  26.84500 -4.35900 45.29900
C  27.99700 -4.73000 45.90500
C  29.01500 -3.65600 45.73700
C  28.30600 -2.69600 45.01100
C  27.03800 -3.15500 44.73200
C  30.42200 -3.54000 46.31500
C  28.54700 -1.40900 44.42000
O  29.53200 -0.70900 44.42400
C  27.17100 -1.08900 43.71600
C  26.68600 0.21900 44.26700
O  26.34500 0.52200 45.41100
O  26.67200 1.17900 43.25200
C  26.34700 2.57600 43.60800
H  20.95600 -4.02400 43.39300
H  23.56800 -9.41900 45.86700
H  28.95400 -6.44800 46.97900
H  24.33400 -0.49000 43.02100
H  22.06800 -2.17100 42.09300
H  22.12000 -0.07500 43.92400
H  22.06900 -1.47900 45.08200
H  20.79800 -1.30500 43.97700
H  23.64300 -1.95000 40.65400
H  25.36900 -2.43700 41.08100
H  25.45300 0.16500 41.28600
H  24.29300 0.08600 39.84200
H  18.82000 -6.27400 44.68300
H  19.06400 -7.39100 43.51800
H  19.42800 -5.65500 43.14200
H  20.51900 -11.06100 46.12900
H  21.65200 -9.96900 47.06300
H  21.98400 -10.61200 45.38500
H  26.59300 -9.86900 46.14900
H  27.15500 -8.07300 48.42600
H  25.72100 -11.19100 47.68500
H  24.52300 -9.92000 48.04900
H  25.99100 -10.08700 48.99900
H  29.32100 -8.32700 46.35300
H  28.71700 -9.97200 46.68100
H  29.83900 -10.19400 48.29600
H  29.04500 -8.82300 49.11200
H  30.56400 -8.55500 48.05500
H  30.76700 -4.52600 46.62700
H  30.27100 -3.06200 47.28300
H  31.16600 -3.03900 45.69500
H  27.24700 -1.18000 42.63200
H  27.25400 2.84800 44.14800
H  25.50500 2.73000 44.28400
H  26.18100 3.08100 42.65700
Mg 35.27900 3.71800 29.57200
C  32.85700 4.39800 31.96000
C  37.75100 3.68900 31.95400
C  37.49800 2.96900 27.13000
C  32.66100 3.85000 27.20900
N  35.31800 3.98500 31.76000
C  34.18600 4.25300 32.52200
C  34.66900 4.32800 33.93800
C  36.22200 4.46900 33.88700
C  36.51400 3.99800 32.46300
C  36.67200 5.94100 34.02200
C  34.09700 3.13500 34.75600
C  34.07100 3.15700 36.29100
H  34.69000 4.32700 36.97600
N  37.31000 3.39500 29.57000
C  38.11700 3.34000 30.59300
C  39.42500 2.84600 30.27300
C  39.46400 2.65000 28.89300
C  38.07200 3.01600 28.44000
C  40.48800 2.55600 31.33700
C  40.61900 2.12200 27.96300
O  40.48000 2.13600 26.76900
C  41.83500 1.53100 28.57600
N  35.08800 3.69500 27.51600
C  36.15100 3.28100 26.68400
C  35.62500 2.99400 25.23300
C  34.06800 3.25400 25.31600
C  33.90400 3.59000 26.81400
C  36.39600 3.75700 24.14600
C  33.14200 2.14500 24.65000
C  32.81200 1.01000 25.55100
N  33.21700 4.10700 29.52300
C  32.30000 4.21600 28.46600
C  30.98200 4.47400 28.93400
C  31.21200 4.63800 30.34700
C  32.56900 4.40300 30.63800
C  29.71900 4.57200 28.11800
C  30.51700 4.88200 31.61800
O  29.28600 4.89500 31.78300
C  31.59700 4.83000 32.67000
C  31.71100 6.18000 33.22900
O  32.51200 6.99600 32.91600
O  30.76200 6.30900 34.22700
C  30.82300 7.52500 35.04100
H  38.52600 3.66600 32.72400
H  38.26900 2.70200 26.40400
H  31.85900 3.86700 26.46800
H  34.18900 5.23600 34.30300
H  36.71400 3.82100 34.61200
H  35.79100 6.57900 33.94100
H  37.42900 6.13600 33.26300
H  37.18100 6.08400 34.97500
H  34.74000 2.30100 34.47400
H  33.09200 2.91000 34.39700
H  34.47300 2.20500 36.63500
H  33.00200 3.16300 36.50700
H  40.86500 1.54700 31.16700
H  40.01400 2.52900 32.31800
H  41.26300 3.32200 31.35100
H  42.20200 2.30300 29.25200
H  42.52700 1.32500 27.75900
H  41.63300 0.66700 29.20900
H  35.64700 1.92100 25.03900
H  33.76100 4.15100 24.77800
H  36.55200 3.14700 23.25600
H  37.33500 4.05400 24.61400
H  35.86100 4.65800 23.84800
H  33.76000 1.64700 23.90300
H  32.36100 2.56900 24.01900
H  32.51500 1.27300 26.56600
H  33.73500 0.45500 25.71900
H  32.07700 0.33600 25.11200
H  28.89300 4.26100 28.75800
H  29.76100 3.86700 27.28800
H  29.66600 5.58400 27.71900
H  31.34200 4.13000 33.46500
H  31.78600 7.97800 35.28000
H  30.51800 7.15900 36.02100
H  30.22000 8.36900 34.70700

