158

Mg 53.93000 22.43200 44.52200
C  51.51900 24.83500 43.49400
C  51.76600 19.98400 43.48400
C  56.46400 20.24000 44.76400
C  56.06300 24.97500 45.28400
N  51.91100 22.50300 43.56700
C  51.09300 23.56900 43.13200
C  49.88800 23.03600 42.38000
C  49.89200 21.55100 42.63700
C  51.23600 21.33600 43.39200
C  48.67200 21.00800 43.47600
C  49.89300 23.36100 40.87400
C  48.50000 23.45400 40.17000
H  48.15800 22.73400 38.81000
N  54.09900 20.37400 44.12600
C  53.08500 19.52200 43.75200
C  53.56800 18.16300 43.65500
C  54.92700 18.18200 44.16200
C  55.21000 19.66500 44.39000
C  52.77000 16.97200 43.20600
C  55.86900 16.90400 44.29900
O  55.50600 15.77600 44.01100
C  57.32600 17.09600 44.67200
N  56.01900 22.58900 44.69400
C  56.84900 21.55100 44.90700
C  58.27200 21.94700 45.20100
C  58.06000 23.38100 45.59800
C  56.60200 23.71500 45.13800
C  58.95800 21.13400 46.34000
C  59.13500 24.51800 45.09500
C  60.10600 25.01700 46.22900
N  53.79200 24.51200 44.51200
C  54.76300 25.42300 44.92300
C  54.11300 26.74400 45.00400
C  52.88300 26.54500 44.37600
C  52.73800 25.17300 44.14800
C  54.77300 28.00300 45.56600
C  51.65100 27.22700 43.97700
O  51.26500 28.36500 44.13500
C  50.70400 26.10400 43.37400
C  50.48800 26.51600 41.90400
O  51.44100 26.55900 41.11300
O  49.22200 26.90100 41.65800
C  48.93900 27.37600 40.30000
H  51.05300 19.15800 43.45200
H  57.21900 19.55800 45.15900
H  56.69600 25.72700 45.76200
H  49.02900 23.43600 42.91800
H  49.83900 21.06600 41.66200
H  48.93900 20.50400 44.40500
H  48.13800 20.31900 42.82100
H  47.93300 21.77800 43.69800
H  50.40100 22.60600 40.27300
H  50.43500 24.29400 40.71800
H  48.20900 24.48200 39.95100
H  47.75900 23.10100 40.88600
H  53.37900 16.51400 42.42600
H  51.78200 17.16800 42.78900
H  52.63100 16.40900 44.12900
H  57.67100 17.74600 43.86800
H  57.80500 16.11700 44.68200
H  57.48800 17.52300 45.66200
H  58.88900 21.90000 44.30400
H  57.92400 23.50500 46.67300
H  59.62400 20.35700 45.96500
H  58.09700 20.67000 46.82100
H  59.49900 21.72500 47.07900
H  58.65100 25.25700 44.45500
H  59.73800 23.98800 44.35800
H  61.05700 24.63400 45.85700
H  59.90600 24.46200 47.14500
H  59.97600 26.08900 46.37500
H  55.85500 27.98300 45.44200
H  54.48400 28.19900 46.59900
H  54.41500 28.79300 44.90600
H  49.73600 26.08900 43.87500
H  48.79500 28.45600 40.33400
H  47.99400 26.96400 39.94600
H  49.68000 27.21200 39.51800
Mg -0.72600 34.58700 26.73500
C  -2.58600 32.86900 29.28900
C  0.26100 36.78000 29.24100
C  0.41000 36.62400 24.41600
C  -2.48100 32.64500 24.42800
N  -0.98700 34.62800 28.98500
C  -1.74800 33.83500 29.77100
C  -1.57600 34.06900 31.23100
C  -0.74900 35.41200 31.29700
C  -0.36200 35.59200 29.81100
C  -1.31800 36.61200 31.97000
C  -0.79400 32.87200 31.97100
C  -1.29900 32.49500 33.28200
H  -0.19400 32.25400 34.43000
N  0.32000 36.42700 26.77300
C  0.64700 37.11100 27.90200
C  1.45300 38.30200 27.46300
C  1.46800 38.32400 26.06500
C  0.77600 37.05200 25.71500
C  2.03000 39.19400 28.54000
C  2.05200 39.37500 25.04700
O  2.10800 39.22800 23.88200
C  2.50400 40.60000 25.63300
N  -1.33000 34.83400 24.65800
C  -0.50900 35.66400 23.91600
C  -0.64200 35.35300 22.38400
C  -1.19300 33.88900 22.51600
C  -1.76500 33.75200 23.95600
C  -1.49000 36.31900 21.58600
C  -0.24700 32.69000 22.08600
C  0.73500 32.07600 23.17400
N  -2.23900 33.17600 26.76000
C  -2.76400 32.39800 25.75700
C  -3.56900 31.31100 26.26300
C  -3.55900 31.51900 27.66100
C  -2.72400 32.61300 27.90700
C  -4.43900 30.28400 25.56000
C  -4.13200 31.01200 28.86300
O  -4.93000 30.15500 29.11000
C  -3.43100 31.84600 30.01600
C  -4.55400 32.37200 30.79400
O  -5.18000 33.40200 30.54100
O  -4.85300 31.50000 31.84900
C  -5.77500 32.06100 32.90800
H  0.58600 37.50800 29.98700
H  0.84400 37.15700 23.56800
H  -2.81300 32.02400 23.59300
H  -2.50600 34.23700 31.77400
H  0.18000 35.34400 31.86300
H  -2.04400 36.41000 32.75700
H  -1.79800 37.34100 31.31600
H  -0.48500 37.09000 32.48600
H  0.25600 33.13700 32.09400
H  -0.75600 31.96500 31.36800
H  -1.68500 31.49500 33.08600
H  -2.05300 33.18600 33.65800
H  2.54100 40.08600 28.17700
H  2.74500 38.68000 29.18300
H  1.23600 39.70800 29.08200
H  3.47800 40.39300 26.07700
H  1.87800 41.07700 26.38700
H  2.59300 41.29700 24.80000
H  0.38300 35.48600 22.03600
H  -2.02900 33.78300 21.82500
H  -1.92800 37.06600 22.24900
H  -2.32900 35.77900 21.14800
H  -1.00900 36.83900 20.75700
H  0.28100 33.20500 21.28300
H  -0.78300 31.87700 21.59700
H  0.47800 32.48600 24.15100
H  1.79200 32.26800 22.99000
H  0.63300 30.99400 23.26100
H  -5.45000 30.67100 25.68500
H  -4.36300 29.29200 26.00500
H  -4.20700 30.28800 24.49500
H  -2.98200 31.13000 30.70500
H  -6.64900 32.60400 32.54700
H  -5.09700 32.68000 33.49400
H  -6.06600 31.23900 33.56200

