158

Mg 34.56900 2.37600 29.45200
C  32.72900 3.41700 32.18900
C  37.30300 1.86300 31.53300
C  36.37600 1.82700 26.62600
C  31.81500 3.17200 27.33600
N  34.94700 2.69600 31.50200
C  33.97600 3.00400 32.53100
C  34.49800 2.72500 33.95200
C  36.03300 2.72500 33.63700
C  36.13100 2.33300 32.11700
C  36.90600 3.91000 33.83000
C  33.90000 1.36000 34.53900
C  33.48000 1.41700 36.00500
H  34.31700 2.22700 36.95100
N  36.48000 1.84800 29.14500
C  37.48700 1.72700 30.09400
C  38.73900 1.36900 29.43700
C  38.51500 1.34900 28.01100
C  37.03700 1.67900 27.84700
C  39.94500 1.18800 30.17100
C  39.48000 0.98300 26.89700
O  39.06100 0.84600 25.76300
C  40.89400 0.56600 27.14600
N  34.11400 2.33000 27.30800
C  35.05000 2.18100 26.38200
C  34.47600 2.31900 24.96200
C  33.03700 2.73000 25.23200
C  32.93800 2.79200 26.69700
C  35.24700 3.43500 24.12200
C  31.96300 1.74100 24.61000
C  32.20400 0.23000 24.87800
N  32.71200 3.17600 29.66100
C  31.66400 3.29100 28.73300
C  30.46500 3.67600 29.43200
C  30.76100 3.67400 30.76500
C  32.18900 3.45800 30.85800
C  29.09600 4.04300 28.82500
C  30.21400 3.83800 32.06300
O  28.98400 3.83100 32.39800
C  31.50600 3.77000 33.05100
C  31.58200 5.04300 33.80700
O  32.13800 6.10300 33.53000
O  30.88100 4.80100 34.94900
C  30.61200 6.02100 35.78900
H  38.15700 1.60900 32.16400
H  36.95700 1.82000 25.70200
H  30.94300 3.50000 26.76600
H  34.30800 3.65400 34.49100
H  36.49000 1.86800 34.13300
H  37.09100 4.34800 32.84900
H  37.83700 3.69200 34.35300
H  36.36600 4.61300 34.46300
H  34.58900 0.52000 34.44800
H  33.00400 1.22700 33.93300
H  33.47000 0.37800 36.33600
H  32.46500 1.79800 35.89000
H  40.28800 0.20300 29.85600
H  39.89400 1.49400 31.21600
H  40.66700 1.89800 29.76600
H  41.40300 1.49000 27.42100
H  41.31700 0.24900 26.19300
H  41.11300 -0.25300 27.83000
H  34.50100 1.42500 24.34000
H  32.77200 3.69900 24.80900
H  35.71200 2.92300 23.27900
H  36.13600 3.82800 24.61600
H  34.66200 4.28700 23.77700
H  31.90700 1.95600 23.54200
H  30.93800 1.92000 24.93500
H  33.04000 0.12800 25.57000
H  32.49900 -0.22500 23.93200
H  31.28400 -0.21800 25.25400
H  29.27900 4.18600 27.76000
H  28.70500 4.92400 29.33400
H  28.55100 3.10000 28.85400
H  31.33000 2.97500 33.77600
H  30.51400 6.90000 35.15300
H  31.51400 6.13600 36.39000
H  29.66200 5.85900 36.29900
Mg 0.48400 42.98200 25.40300
C  1.78300 43.01300 28.63700
C  -2.40100 41.67800 26.79000
C  -0.63400 42.03200 22.32300
C  3.61400 43.54800 24.10300
N  -0.25700 42.38000 27.55000
C  0.37900 42.70100 28.71600
C  -0.51200 42.41500 29.94200
C  -1.85900 41.96000 29.32300
C  -1.49600 42.01800 27.77600
C  -2.43200 40.59900 29.82200
C  -0.62000 43.77200 30.84300
C  0.09500 43.74100 32.13000
H  -0.75200 43.68400 33.43500
N  -1.31300 42.10600 24.65100
C  -2.36800 41.64900 25.34100
C  -3.42600 41.36800 24.40600
C  -2.90900 41.41500 23.08500
C  -1.54800 41.88100 23.32000
C  -4.76400 41.01200 24.88200
C  -3.56100 41.15700 21.73100
O  -3.02400 41.32200 20.59200
C  -4.99000 40.80900 21.55600
N  1.33400 42.83200 23.52800
C  0.68400 42.39200 22.40100
C  1.55400 42.48300 21.11000
C  2.88400 43.13900 21.60100
C  2.60500 43.16300 23.16700
C  1.83300 41.12300 20.41400
C  3.07700 44.46600 20.86500
C  2.22100 45.64900 21.34300
N  2.27600 43.32100 26.17900
C  3.47500 43.58200 25.50100
C  4.53600 43.79700 26.46900
C  3.88800 43.61500 27.69900
C  2.50700 43.24600 27.47000
C  5.96300 44.10900 26.17900
C  4.12000 43.61600 29.21700
O  5.05500 43.88000 29.89100
C  2.73600 43.21100 29.80500
C  2.93000 42.02800 30.62300
O  2.44700 40.92900 30.40500
O  3.32500 42.38300 31.89400
C  2.91600 41.47900 33.04300
H  -3.38400 41.35400 27.13600
H  -0.95000 41.87200 21.29000
H  4.61600 43.72300 23.70600
H  -0.09900 41.57100 30.49600
H  -2.62000 42.69100 29.59800
H  -2.56700 40.02400 28.90600
H  -3.33900 40.74600 30.40900
H  -1.66300 40.11500 30.42500
H  -1.65300 44.09100 30.98200
H  -0.23700 44.55500 30.18800
H  0.60800 44.70200 32.16600
H  0.93300 43.04300 32.14700
H  -5.56000 41.29100 24.19100
H  -4.87700 41.49900 25.85100
H  -4.79500 39.92900 24.99900
H  -5.53200 41.71000 21.84200
H  -5.17700 39.99800 22.26100
H  -5.34000 40.47000 20.58200
H  0.99000 43.10100 20.41200
H  3.76400 42.50900 21.47400
H  1.89100 40.32600 21.15600
H  2.79000 41.15900 19.89200
H  1.12200 40.87900 19.62400
H  2.73900 44.30300 19.84200
H  4.13600 44.72100 20.82100
H  1.48800 45.31200 22.07600
H  1.65300 46.07800 20.51800
H  2.83100 46.49500 21.66100
H  6.17500 45.17700 26.20900
H  6.22000 43.94500 25.13300
H  6.68000 43.71000 26.89700
H  2.40200 44.08400 30.36600
H  3.90600 41.05500 33.21100
H  2.13800 40.76600 32.77200
H  2.67900 41.99000 33.97700

