158

Mg 48.43400 14.81800 28.38000
C  46.29700 14.34300 31.05700
C  50.10000 17.24900 30.30000
C  50.59900 15.16600 25.92200
C  46.22800 13.22700 26.30900
N  48.30100 15.67300 30.50600
C  47.39000 15.20400 31.46200
C  47.66700 15.75800 32.81800
C  48.63900 16.97900 32.41000
C  49.01900 16.62900 30.95400
C  47.87500 18.27400 32.52900
C  48.17500 14.64500 33.87100
C  47.98100 15.13500 35.28400
H  49.19900 15.02900 36.22900
N  50.30300 15.81700 28.23400
C  50.76500 16.85100 29.08200
C  51.99500 17.32300 28.55400
C  52.13600 16.73500 27.26000
C  51.00600 15.83300 27.07600
C  52.89700 18.39800 29.27900
C  53.28000 16.86800 26.33300
O  53.41100 16.17900 25.33000
C  54.51400 17.68700 26.67700
N  48.48600 14.02100 26.41100
C  49.47200 14.39400 25.58300
C  49.20700 14.00900 24.08900
C  47.77600 13.37900 24.19600
C  47.46500 13.56600 25.72900
C  49.15500 15.31400 23.18600
C  47.57600 11.86800 23.81500
C  46.29400 11.51400 23.07600
N  46.63600 14.00500 28.53500
C  45.85000 13.33800 27.59600
C  44.58400 12.97900 28.16300
C  44.75300 13.31300 29.56300
C  45.96400 13.94800 29.69000
C  43.27000 12.47900 27.50300
C  44.14000 13.29100 30.85500
O  43.05200 12.88100 31.22200
C  45.09800 13.92900 31.80000
C  44.31000 15.10700 32.34500
O  44.28300 16.17700 31.76500
O  44.00300 14.89300 33.65800
C  43.64600 16.05600 34.44600
H  50.56400 18.09400 30.81300
H  51.21700 15.40100 25.05300
H  45.57500 12.82200 25.53300
H  46.74000 16.12000 33.26400
H  49.51800 16.88900 33.04800
H  47.12900 18.16100 33.31600
H  47.40400 18.41500 31.55600
H  48.56600 19.07200 32.80100
H  49.17200 14.29500 33.60300
H  47.63700 13.70900 33.72300
H  47.19300 14.47300 35.64000
H  47.65800 16.17600 35.24900
H  52.87700 19.30900 28.68100
H  53.90500 18.12100 29.58600
H  52.44100 18.75900 30.20100
H  54.33000 18.76100 26.71900
H  55.30500 17.56900 25.93700
H  55.02600 17.49700 27.62000
H  49.94900 13.35100 23.63700
H  47.08500 13.95000 23.57600
H  49.40400 16.16500 23.82100
H  48.15900 15.36200 22.74600
H  49.97200 15.27600 22.46600
H  47.74100 11.23900 24.68900
H  48.34800 11.54200 23.11800
H  46.46700 10.97800 22.14200
H  45.65500 12.35700 22.81600
H  45.71000 10.92900 23.78700
H  42.40900 13.00300 27.91600
H  43.25700 11.41900 27.75800
H  43.45400 12.67600 26.44700
H  45.40500 13.26900 32.61200
H  44.29400 16.37900 35.26100
H  42.67700 15.94600 34.93400
H  43.42100 16.93100 33.83800
Mg 0.11100 43.21500 27.01500
C  2.51400 42.86300 29.42600
C  -2.34200 42.20900 29.41800
C  -2.35000 43.45900 24.66700
C  2.50900 43.53500 24.52400
N  0.09200 42.61800 29.15000
C  1.18400 42.67000 29.96700
C  0.81900 42.56300 31.45100
C  -0.59100 41.89000 31.37000
C  -0.98900 42.30900 29.87100
C  -0.59100 40.39300 31.57100
C  0.92800 43.86200 32.14200
C  0.90100 43.80300 33.65900
H  0.26800 42.63300 34.41500
N  -2.03500 42.91300 27.04600
C  -2.77500 42.57900 28.13500
C  -4.19100 42.63600 27.80900
C  -4.24200 43.07000 26.43100
C  -2.88700 43.24600 25.97000
C  -5.30900 42.27000 28.78000
C  -5.49500 43.31000 25.40100
O  -5.40100 43.72800 24.25300
C  -6.84300 42.86200 25.89100
N  0.05700 43.25900 24.86700
C  -1.05700 43.47800 24.17600
C  -0.73000 43.72500 22.64500
C  0.77600 43.76800 22.56600
C  1.16200 43.58500 24.07600
C  -1.35500 42.67000 21.71500
C  1.41500 44.91800 21.82900
C  1.92600 46.09000 22.73900
N  2.09600 43.19700 26.92000
C  2.94900 43.32500 25.84200
C  4.35200 43.32200 26.32100
C  4.20000 43.05500 27.68300
C  2.77100 43.01300 28.04700
C  5.71900 43.43700 25.55500
C  5.00600 42.86200 28.89100
O  6.19000 42.57900 29.18600
C  3.95800 42.84400 30.09600
C  4.25200 41.71900 31.03300
O  4.33000 40.52300 30.75000
O  4.39200 42.19400 32.24800
C  4.47500 41.19100 33.30500
H  -3.07300 41.87600 30.15800
H  -3.07200 43.68000 23.87800
H  3.33500 43.66000 23.82100
H  1.47900 41.86200 31.96200
H  -1.27900 42.31400 32.10200
H  0.36500 39.93300 31.82100
H  -0.80600 39.97000 30.59000
H  -1.36400 40.20800 32.31700
H  0.21700 44.58300 31.73900
H  1.90100 44.29600 31.90900
H  0.50600 44.76800 33.97800
H  1.90500 43.88000 34.07700
H  -6.13900 42.91300 28.48800
H  -5.13600 42.60600 29.80300
H  -5.58200 41.21500 28.74600
H  -6.78900 41.83000 26.23800
H  -7.63100 43.08400 25.17200
H  -7.09800 43.47300 26.75700
H  -1.14700 44.70000 22.39400
H  1.16000 42.84100 22.13900
H  -0.56800 42.31500 21.05000
H  -2.25300 43.11800 21.29000
H  -1.59300 41.80000 22.32600
H  0.90000 45.26800 20.93500
H  2.36900 44.48400 21.53000
H  1.22600 46.25500 23.55900
H  2.04300 46.98600 22.12900
H  2.93800 46.00200 23.13300
H  6.51300 43.15100 26.24500
H  5.83900 44.43200 25.12600
H  5.79500 42.73200 24.72800
H  4.12500 43.82600 30.53800
H  5.49500 41.23900 33.68600
H  4.04400 40.19800 33.17800
H  3.85500 41.62400 34.09100

