158

Mg 44.31800 3.22400 47.39000
C  41.58000 5.12100 46.33600
C  42.17200 0.43100 47.46200
C  46.96500 1.19300 47.42000
C  46.33000 6.02700 47.15400
N  42.08400 2.87300 46.95400
C  41.15700 3.79800 46.60000
C  39.76100 3.19000 46.38600
C  39.95000 1.76100 47.13900
C  41.48700 1.62700 47.12300
C  39.16300 1.74600 48.50300
C  39.39100 3.06800 44.89100
C  37.93700 3.42700 44.40300
H  37.96000 4.52100 43.26000
N  44.56600 1.16900 47.51900
C  43.57800 0.17800 47.55200
C  44.12700 -1.13100 47.71800
C  45.54000 -0.88200 47.84600
C  45.77600 0.52100 47.50400
C  43.35600 -2.41400 48.00200
C  46.60200 -1.90200 48.26100
O  46.26900 -3.05600 48.53600
C  48.04300 -1.62000 48.41300
N  46.33700 3.54000 47.51900
C  47.27900 2.54800 47.42200
C  48.70900 3.20900 47.41000
C  48.40900 4.68500 47.67800
C  46.92900 4.78800 47.39700
C  49.69800 2.54700 48.44000
C  49.29400 5.68500 46.84600
C  49.57900 7.00600 47.57300
N  44.05200 5.18800 46.92500
C  44.97100 6.18100 46.79400
C  44.35100 7.40400 46.38500
C  42.97900 7.06300 46.18600
C  42.85000 5.68600 46.49600
C  45.02500 8.73500 46.14400
C  41.69900 7.55100 45.79800
O  41.34100 8.68900 45.44700
C  40.74200 6.34700 45.94700
C  39.71700 6.64000 46.97600
O  40.07700 6.83000 48.13800
O  38.45500 6.48400 46.40700
C  37.47100 6.42900 47.50900
H  41.56700 -0.41600 47.79200
H  47.90100 0.65500 47.25800
H  46.92000 6.94400 47.08000
H  39.04400 3.80400 46.93100
H  39.51500 0.95400 46.54900
H  39.85700 1.56700 49.32400
H  38.48900 0.89700 48.39800
H  38.57600 2.63900 48.72100
H  39.52800 2.01500 44.64700
H  40.12500 3.68800 44.37700
H  37.24800 3.74100 45.18700
H  37.53400 2.49000 44.01800
H  42.31100 -2.60400 47.75600
H  43.47800 -2.68500 49.05100
H  43.95600 -3.09400 47.39700
H  48.60100 -1.60900 47.47600
H  48.52800 -2.42300 48.96800
H  48.24400 -0.77300 49.07000
H  49.01800 3.10400 46.37000
H  48.51200 4.90900 48.74000
H  50.53100 2.08900 47.90800
H  49.20800 1.66900 48.86000
H  50.12100 3.22500 49.18200
H  48.77200 5.98400 45.93700
H  50.20500 5.14300 46.59200
H  49.65900 7.79300 46.82300
H  50.49500 6.90400 48.15600
H  48.74500 7.21800 48.24200
H  44.45000 9.36700 45.46800
H  46.01500 8.53700 45.73300
H  45.24700 9.12700 47.13700
H  40.16200 6.06000 45.07000
H  37.46400 7.45900 47.86700
H  37.84000 5.77200 48.29600
H  36.44900 6.12500 47.28100
Mg 35.86400 0.77700 29.93100
C  33.33800 1.69400 32.19800
C  38.20400 1.26000 32.42000
C  38.25500 0.70200 27.51200
C  33.37900 1.16400 27.28300
N  35.82600 1.24500 32.06000
C  34.62700 1.57100 32.75500
C  34.92800 1.72400 34.24900
C  36.49300 1.94700 34.25200
C  36.92100 1.50800 32.84600
C  36.79200 3.48900 34.46800
C  34.32500 0.47200 35.00200
C  33.94100 0.41100 36.47400
H  34.83200 1.42200 37.29500
N  37.92000 0.68000 29.97500
C  38.65800 0.86300 31.12500
C  39.98700 0.36200 30.74700
C  40.09800 0.33300 29.36200
C  38.69500 0.57700 28.87900
C  41.15400 0.33300 31.75100
C  41.25500 0.12400 28.42100
O  41.21900 0.23100 27.16900
C  42.60800 -0.13000 28.92600
N  35.79500 0.89200 27.76400
C  36.95800 0.91100 26.99800
C  36.68700 0.77400 25.51700
C  35.11000 0.86200 25.40600
C  34.71300 0.87600 26.91400
C  37.47200 1.67700 24.49300
C  34.28900 -0.07900 24.49500
C  33.15900 0.63800 23.75100
N  33.76600 1.27800 29.68600
C  32.89300 1.37000 28.60200
C  31.56200 1.60200 29.02000
C  31.72700 1.75300 30.39200
C  33.08800 1.55300 30.76700
C  30.37400 1.79000 28.21000
C  30.98100 2.04100 31.65500
O  29.79900 2.18400 31.81400
C  32.02700 2.11000 32.86700
C  32.05400 3.46100 33.46200
O  32.35000 4.47000 32.83000
O  31.55500 3.50500 34.72100
C  31.49700 4.76700 35.35700
H  38.97100 1.34000 33.19300
H  39.02600 0.52200 26.76000
H  32.59300 1.10500 26.52700
H  34.36700 2.58400 34.61600
H  36.92300 1.32600 35.03800
H  37.41500 3.53400 35.36200
H  35.90800 4.07000 34.73200
H  37.38200 3.91700 33.65800
H  35.12700 -0.26500 35.05100
H  33.47500 -0.01200 34.52200
H  34.00600 -0.61900 36.82300
H  32.91000 0.76000 36.52000
H  42.03600 0.82400 31.34100
H  41.52200 -0.66000 32.01000
H  40.94100 0.89900 32.65800
H  43.35000 -0.47700 28.20700
H  42.52700 -0.85700 29.73500
H  43.00200 0.82400 29.27400
H  36.98600 -0.25900 25.33600
H  34.86000 1.89300 25.15700
H  38.12400 2.30400 25.10100
H  36.79200 2.26700 23.87900
H  37.94200 0.91100 23.87600
H  33.86500 -0.91300 25.05300
H  34.95900 -0.41900 23.70500
H  33.56600 1.30300 22.98900
H  32.47100 1.24300 24.34200
H  32.62300 -0.16300 23.24100
H  30.61900 2.20600 27.23300
H  29.73700 2.57300 28.62100
H  29.80300 0.89100 27.97600
H  31.78000 1.38000 33.63700
H  32.28400 4.68700 36.10600
H  30.55100 4.82500 35.89600
H  31.56700 5.54900 34.60100

