158

Mg 36.00100 49.33500 25.69600
C  36.10000 47.60300 28.75100
C  35.01100 52.12400 27.24900
C  35.84300 50.76700 22.73100
C  36.90600 46.17000 24.04900
N  35.61200 49.71600 27.75800
C  35.76300 48.92100 28.89000
C  35.55400 49.72300 30.16000
C  34.99900 51.10700 29.65900
C  35.28400 50.99500 28.14400
C  33.53900 51.46700 30.09600
C  36.75400 49.73100 31.24400
C  36.42800 49.61000 32.73800
H  34.98400 49.45100 33.14200
N  35.53400 51.27400 25.07800
C  35.11100 52.26000 25.87900
C  34.87600 53.48900 25.08300
C  35.07500 53.05600 23.66900
C  35.54300 51.64200 23.77300
C  34.66400 54.90200 25.68800
C  34.86400 53.88300 22.41100
O  35.21700 53.35300 21.33600
C  34.19300 55.24100 22.36000
N  36.40400 48.56900 23.64400
C  36.21900 49.39900 22.57200
C  36.43100 48.64500 21.24800
C  37.06900 47.31300 21.76800
C  36.77100 47.33200 23.27000
C  35.16300 48.54200 20.31100
C  38.52900 47.14000 21.41300
C  39.22300 45.76400 21.23900
N  36.44100 47.29100 26.23300
C  36.91700 46.18600 25.46200
C  37.13800 45.13200 26.40800
C  36.84600 45.63100 27.71700
C  36.35400 46.90600 27.53200
C  37.53200 43.77000 26.01100
C  36.77700 45.29000 29.08200
O  36.95400 44.17700 29.61800
C  36.38200 46.55100 29.83500
C  35.17700 46.19200 30.59900
O  34.05300 46.44800 30.28800
O  35.63900 45.55400 31.71500
C  34.70900 45.00500 32.68800
H  34.98900 53.07400 27.78700
H  35.50000 51.00300 21.72200
H  37.32700 45.26700 23.60200
H  34.68800 49.29000 30.66000
H  35.72500 51.85000 29.99100
H  33.20000 50.89000 30.95600
H  32.87800 51.36900 29.23500
H  33.42700 52.51500 30.37200
H  37.29100 50.66500 31.07500
H  37.53200 49.05600 30.88700
H  36.85400 50.51700 33.16600
H  36.99800 48.75600 33.10300
H  33.73000 55.25200 25.24900
H  35.30400 55.70000 25.31300
H  34.72900 54.95400 26.77500
H  34.04400 55.48500 21.30800
H  34.82500 55.84300 23.01300
H  33.22200 55.07100 22.82400
H  37.23400 49.13300 20.69500
H  36.45400 46.51300 21.35500
H  34.27800 48.67000 20.93300
H  35.15100 47.51600 19.94300
H  35.24300 49.16800 19.42200
H  39.01300 47.57500 22.28800
H  38.71800 47.69100 20.49200
H  38.58100 44.91700 21.47800
H  40.09500 45.72800 21.89200
H  39.58600 45.44500 20.26200
H  38.50000 43.69600 25.51500
H  36.85700 43.28300 25.30700
H  37.62200 43.22300 26.94900
H  37.22900 46.81000 30.47000
H  34.59700 45.76900 33.45700
H  34.92000 44.03100 33.12900
H  33.70600 44.89100 32.27700
Mg 17.09900 52.72500 26.30800
C  18.69800 51.03100 28.99900
C  14.66700 53.85900 28.50000
C  15.68200 54.05600 23.65100
C  19.61200 51.43800 24.19800
N  16.72500 52.42500 28.46600
C  17.52000 51.65800 29.35800
C  16.94200 51.79100 30.81400
C  15.53600 52.38700 30.50400
C  15.66500 53.05500 29.11300
C  14.37100 51.43400 30.50100
C  17.84200 52.63800 31.75600
C  17.99600 51.96400 33.14600
H  17.14000 52.35500 34.34600
N  15.44100 53.86200 26.07800
C  14.58600 54.28800 27.07800
C  13.57500 55.10000 26.54100
C  13.90200 55.25700 25.14200
C  15.06600 54.35400 24.88000
C  12.46800 55.72500 27.32700
C  13.15200 55.98400 24.06800
O  13.38200 55.94900 22.87200
C  11.98300 56.83600 24.44000
N  17.57400 52.72400 24.18800
C  16.73300 53.32400 23.29600
C  17.19100 53.01100 21.82100
C  18.61900 52.40100 22.05800
C  18.60100 52.12100 23.51200
C  16.26500 52.12300 21.00100
C  19.83200 53.36500 21.68500
C  20.58300 53.01400 20.34000
N  18.75000 51.45100 26.48600
C  19.70400 51.12800 25.54300
C  20.69600 50.22300 26.18100
C  20.35000 50.24600 27.57900
C  19.18900 50.96200 27.71200
C  21.96100 49.64300 25.50000
C  20.73700 49.67500 28.92600
O  21.66700 48.97400 29.22800
C  19.69600 50.26800 29.88200
C  19.05400 49.17000 30.56000
O  18.19200 48.44600 30.04400
O  19.51800 49.06800 31.88600
C  18.96500 48.10000 32.78800
H  13.90700 54.21900 29.19700
H  15.06000 54.39800 22.82100
H  20.32600 50.94900 23.53200
H  16.74600 50.78900 31.19800
H  15.33300 53.26000 31.12500
H  13.62400 51.73200 31.23700
H  14.67400 50.41300 30.73300
H  13.77700 51.31400 29.59500
H  17.40900 53.63100 31.87200
H  18.78200 52.84900 31.24500
H  19.06800 51.96300 33.34600
H  17.77700 50.89700 33.09400
H  11.48300 55.44500 26.95400
H  12.62000 56.80400 27.31800
H  12.44700 55.34900 28.35000
H  11.12200 56.23100 24.72300
H  11.69000 57.46600 23.60000
H  12.17100 57.42400 25.33800
H  17.26900 53.92700 21.23500
H  18.74900 51.45400 21.53400
H  15.78500 51.41900 21.68000
H  16.87200 51.59900 20.26200
H  15.54100 52.76900 20.50400
H  20.58000 53.46600 22.47100
H  19.36800 54.33000 21.47900
H  20.89300 53.98600 19.95600
H  19.84900 52.47600 19.74000
H  21.47000 52.39900 20.49100
H  22.28200 50.42400 24.81100
H  21.73000 48.72000 24.96700
H  22.65600 49.37300 26.29400
H  20.22100 50.91700 30.58200
H  19.45100 47.12500 32.75100
H  17.87600 48.10500 32.73800
H  19.18100 48.36400 33.82300

