158

Mg 7.94900 3.57900 27.27500
C  9.37500 2.04300 30.17100
C  5.67000 5.16000 29.29700
C  6.75600 4.82300 24.55500
C  9.94800 1.40500 25.37200
N  7.50800 3.56000 29.53700
C  8.25400 2.95400 30.49200
C  7.72100 3.21400 31.90800
C  6.51500 4.16700 31.56300
C  6.61500 4.40300 30.08500
C  5.10000 3.68400 32.01500
C  8.78300 3.88500 32.83700
C  8.25100 4.44500 34.17600
H  9.22200 4.36100 35.38300
N  6.47400 4.88200 27.04400
C  5.59600 5.37800 27.96000
C  4.66000 6.22500 27.25500
C  4.95900 6.09200 25.86200
C  6.12600 5.26100 25.74200
C  3.52200 6.98100 27.94900
C  4.43600 6.74700 24.74100
O  4.48500 6.39400 23.56100
C  3.73800 8.13700 24.90900
N  8.32300 3.22400 25.26900
C  7.66300 3.87900 24.30200
C  7.95600 3.37100 22.82600
C  9.14500 2.34000 23.16900
C  9.10200 2.25000 24.69800
C  6.75900 2.93600 21.96000
C  10.53000 2.62000 22.54400
C  11.56200 3.44200 23.44100
N  9.45500 2.12700 27.64000
C  10.15600 1.32700 26.73500
C  10.99500 0.34000 27.43800
C  10.68400 0.68800 28.77000
C  9.75900 1.73100 28.82500
C  11.72500 -0.79200 26.90400
C  11.05400 0.29600 30.09600
O  11.78800 -0.58300 30.46700
C  10.23000 1.22000 31.04100
C  9.44100 0.33400 31.93300
O  8.73500 -0.66800 31.59800
O  9.66400 0.68400 33.16600
C  8.58400 0.25800 34.07100
H  4.93000 5.72300 29.86900
H  6.38600 5.10500 23.56700
H  10.60900 0.76100 24.78800
H  7.55300 2.32200 32.51100
H  6.60400 5.17400 31.97000
H  4.55300 4.45700 32.55400
H  5.19200 2.76800 32.59900
H  4.45000 3.58200 31.14500
H  9.24800 4.65100 32.21600
H  9.52600 3.19700 33.24100
H  7.39200 3.79300 34.33400
H  7.93900 5.48000 34.03800
H  3.98500 7.81200 28.48000
H  3.17200 6.26500 28.69200
H  2.67800 7.29400 27.33400
H  2.75000 7.93200 25.32000
H  3.72900 8.61500 23.92900
H  4.38300 8.65200 25.62000
H  8.22700 4.28600 22.30000
H  8.80700 1.44200 22.65200
H  6.00500 2.34000 22.47400
H  7.12000 2.41900 21.07200
H  6.26100 3.83000 21.58300
H  10.40000 3.09300 21.57100
H  10.97300 1.68400 22.20400
H  11.13700 4.01600 24.26500
H  11.87000 4.33600 22.89900
H  12.41200 2.83300 23.74900
H  11.88000 -0.76900 25.82500
H  11.34300 -1.76300 27.22000
H  12.74500 -0.67700 27.27100
H  11.00000 1.77900 31.57300
H  8.77900 -0.68700 34.57700
H  7.56500 0.21000 33.68600
H  8.56000 0.89100 34.95800
Mg 44.33700 4.74100 46.40500
C  42.31300 7.73300 46.02300
C  41.38700 3.00000 45.73200
C  46.27000 2.22100 45.99400
C  47.15200 6.90200 46.59500
N  42.07500 5.36400 45.95800
C  41.53200 6.57400 45.89600
C  40.01200 6.45700 45.69900
C  39.70700 4.90400 45.78500
C  41.13000 4.39100 45.81400
C  38.86600 4.39400 47.04200
C  39.54500 7.25300 44.48400
C  40.48400 7.07900 43.23800
H  39.79700 7.14400 41.78600
N  43.87300 2.87100 45.97000
C  42.62000 2.36800 45.72400
C  42.82700 0.94700 45.38400
C  44.18900 0.58700 45.47000
C  44.88600 1.87600 45.87600
C  41.75000 -0.00500 44.91400
C  44.83600 -0.79000 45.07400
O  44.15800 -1.73200 44.78600
C  46.24500 -1.01600 44.85600
N  46.41300 4.56500 46.40800
C  47.01300 3.38000 46.09200
C  48.56000 3.44400 46.19100
C  48.79400 4.98300 46.38400
C  47.37900 5.56000 46.45500
C  49.19700 2.60000 47.33100
C  49.73400 5.59800 45.32400
C  51.21500 5.46200 45.72400
N  44.72200 6.83400 46.36100
C  45.90000 7.54900 46.53900
C  45.66100 8.96600 46.59400
C  44.23800 9.05600 46.52600
C  43.71000 7.70300 46.30700
C  46.70200 10.16700 46.60000
C  43.17900 9.97700 46.49300
O  43.15900 11.19800 46.54100
C  41.90400 9.20700 46.08300
C  40.83000 9.49000 47.03900
O  40.65700 8.85800 48.09200
O  39.88700 10.32200 46.54000
C  38.58200 10.49200 47.18300
H  40.50600 2.38500 45.53700
H  46.98000 1.39300 45.92900
H  47.94400 7.63500 46.76200
H  39.55800 6.91500 46.57700
H  39.43900 4.52000 44.80100
H  39.58200 3.84700 47.65400
H  38.06800 3.76500 46.64700
H  38.39800 5.21100 47.59100
H  39.34300 8.25800 44.85500
H  38.55700 6.83700 44.28800
H  40.91700 6.08200 43.31700
H  41.21900 7.88400 43.25100
H  40.76400 0.38000 45.17500
H  41.88000 -0.87000 45.56400
H  41.84500 -0.24200 43.85400
H  46.68000 -0.99800 45.85500
H  46.66200 -0.19800 44.26900
H  46.43300 -1.94100 44.31100
H  48.88100 3.23400 45.17100
H  49.26300 5.04500 47.36600
H  48.51100 1.98100 47.90800
H  49.68800 3.12400 48.15100
H  49.88900 1.89200 46.87500
H  49.47100 6.65500 45.31100
H  49.57000 5.25800 44.30100
H  51.37800 4.96000 46.67800
H  51.57400 6.49100 45.71200
H  51.74000 4.83800 45.00100
H  46.41800 10.87900 47.37500
H  46.62100 10.50000 45.56500
H  47.68800 9.83300 46.92100
H  41.60300 9.57500 45.10200
H  37.96000 9.61300 47.35500
H  38.01100 11.15300 46.53100
H  38.69900 10.99300 48.14300

