158

Mg 47.53400 35.44100 26.61800
C  46.04300 33.75800 29.17900
C  48.09000 38.12700 28.60400
C  49.15000 37.00600 24.06900
C  46.74400 32.76900 24.54100
N  47.07600 35.90500 28.67800
C  46.53500 35.01900 29.57400
C  46.66000 35.60500 31.02300
C  47.14800 37.11900 30.77900
C  47.49600 37.03300 29.25700
C  46.12500 38.25000 31.10700
C  47.72200 34.77900 31.76200
C  47.58400 34.84100 33.28800
H  46.73100 35.92500 33.98000
N  48.55400 37.30200 26.37400
C  48.67500 38.29700 27.31800
C  49.28800 39.45200 26.80800
C  49.65800 39.16900 25.42300
C  49.14000 37.77400 25.22400
C  49.47400 40.76700 27.52800
C  50.35200 40.07400 24.44300
O  50.63800 39.64800 23.32600
C  50.56400 41.59300 24.63900
N  47.71100 34.98600 24.54300
C  48.58400 35.70600 23.78800
C  48.78000 35.09400 22.41100
C  48.12200 33.71700 22.62300
C  47.42800 33.77800 23.94100
C  48.11200 35.95700 21.29300
C  49.13600 32.48500 22.45700
C  49.10700 31.68600 21.13000
N  46.41000 33.70600 26.76200
C  46.17000 32.75000 25.82500
C  45.59700 31.58400 26.45500
C  45.39800 31.89300 27.78000
C  46.01700 33.21000 27.93300
C  45.30900 30.24900 25.81500
C  44.94900 31.47100 29.10600
O  44.25000 30.53600 29.45200
C  45.20000 32.76400 30.02000
C  45.58400 32.28200 31.30800
O  46.48000 31.41500 31.48500
O  44.78000 32.80000 32.29800
C  44.75400 32.13400 33.55100
H  48.12000 39.01000 29.24600
H  49.72600 37.35900 23.21100
H  46.56000 31.94200 23.85200
H  45.69800 35.47100 31.51700
H  48.06100 37.33000 31.33600
H  45.76900 38.86300 30.27900
H  46.65900 38.99700 31.69400
H  45.36100 37.83400 31.76400
H  48.70400 35.15000 31.46900
H  47.81300 33.78800 31.31800
H  48.59500 34.85600 33.69500
H  47.30000 33.84500 33.62900
H  49.24600 41.65900 26.94400
H  50.50800 40.76200 27.87400
H  48.89800 40.85300 28.45000
H  50.77700 42.10900 23.70300
H  51.27500 41.92800 25.39500
H  49.61100 41.98700 24.99000
H  49.81700 34.94600 22.10900
H  47.25000 33.51400 22.00100
H  47.26400 35.43800 20.84500
H  48.80700 36.24900 20.50600
H  47.57100 36.78900 21.74200
H  48.94700 31.68300 23.17100
H  50.15600 32.84200 22.59700
H  48.13300 31.79600 20.65300
H  49.23700 30.62500 21.34600
H  49.93400 31.94800 20.46900
H  44.69400 30.38300 24.92500
H  44.93700 29.63000 26.63100
H  46.23300 29.80300 25.44600
H  44.20600 33.19200 30.14500
H  44.84500 32.76000 34.43900
H  45.47600 31.33300 33.71200
H  43.76600 31.67600 33.60100
Mg -1.99600 34.91400 26.23100
C  -4.07400 33.20700 28.38600
C  -1.39000 37.15700 28.56100
C  -0.19700 36.67100 23.90100
C  -3.22600 32.82200 23.64700
N  -2.74300 35.08700 28.18500
C  -3.44500 34.24600 28.99500
C  -3.31400 34.55900 30.50100
C  -2.74900 36.00600 30.45800
C  -2.22500 36.06800 29.03400
C  -3.74300 37.11800 30.77400
C  -2.39400 33.55200 31.33400
C  -3.00500 33.14900 32.74600
H  -3.35300 34.25400 33.78900
N  -0.83100 36.56600 26.28900
C  -0.72300 37.38400 27.32900
C  0.03900 38.57100 26.97400
C  0.46600 38.43200 25.66100
C  -0.12400 37.16600 25.26200
C  0.38100 39.64100 28.05100
C  1.40600 39.30300 24.85600
O  1.65400 38.98300 23.69300
C  1.98700 40.45900 25.42200
N  -1.61900 34.67300 24.21300
C  -0.88000 35.54500 23.42600
C  -0.77500 34.96700 22.01500
C  -1.39400 33.57800 22.08600
C  -2.16200 33.72100 23.38700
C  -1.45900 35.84900 20.78700
C  -0.39500 32.38700 22.14900
C  0.50700 32.12200 23.36500
N  -3.50000 33.44700 25.98000
C  -3.87900 32.64800 24.88500
C  -4.74700 31.61300 25.33600
C  -4.92000 31.83200 26.69800
C  -4.10200 32.89300 27.03500
C  -5.50700 30.61800 24.45500
C  -5.63400 31.44900 27.92100
O  -6.41200 30.59100 28.08000
C  -5.02800 32.15300 29.02200
C  -6.06500 32.96800 29.80800
O  -6.44800 34.03600 29.50200
O  -6.42900 32.24700 30.94500
C  -7.43900 32.85900 31.85400
H  -1.25200 37.85200 29.39200
H  0.27500 37.27100 23.11900
H  -3.41000 32.12100 22.83000
H  -4.31000 34.65600 30.93400
H  -1.97800 36.00300 31.22900
H  -4.69700 36.83600 30.32800
H  -3.53500 38.07100 30.28800
H  -3.92500 37.15100 31.84800
H  -1.34600 33.80300 31.50000
H  -2.45600 32.56100 30.88400
H  -2.29000 32.48200 33.22800
H  -3.96300 32.62900 32.71900
H  -0.42200 40.35700 28.22600
H  1.26100 40.25300 27.85400
H  0.52700 39.21200 29.04200
H  2.75900 40.72700 24.70200
H  2.60100 40.05100 26.22500
H  1.30600 41.22900 25.78400
H  0.28600 34.85300 21.79000
H  -2.06900 33.36800 21.25600
H  -0.56600 36.08500 20.20800
H  -1.93500 36.72700 21.22300
H  -2.16700 35.26200 20.20100
H  0.23500 32.46300 21.26300
H  -0.93500 31.45700 21.97200
H  0.19900 32.84400 24.12100
H  1.55700 32.37100 23.21500
H  0.45300 31.07300 23.65800
H  -5.16700 29.59900 24.64100
H  -5.35900 30.75100 23.38300
H  -6.58900 30.67500 24.56900
H  -4.53100 31.43800 29.67700
H  -8.29100 33.14100 31.23600
H  -7.14900 33.74200 32.42300
H  -7.80900 32.05700 32.49300

