158

Mg 24.83300 1.43500 29.54700
C  26.84900 0.97200 32.38200
C  22.08600 1.13500 31.58500
C  22.78400 1.50300 26.84200
C  27.63400 1.28900 27.57800
N  24.51000 0.81700 31.74900
C  25.47200 0.89900 32.73900
C  24.83400 0.95000 34.08100
C  23.30600 0.59300 33.80800
C  23.23200 0.97100 32.26800
C  22.90700 -0.84100 34.10400
C  25.04600 2.27300 34.85400
C  25.66300 2.04900 36.21800
H  25.68900 3.25200 37.22300
N  22.74900 1.34800 29.25400
C  21.78800 1.19200 30.23400
C  20.48800 1.18600 29.68300
C  20.71700 1.13800 28.29100
C  22.10200 1.30900 28.04100
C  19.22800 0.97100 30.53500
C  19.70300 0.86500 27.19500
O  20.08600 0.77400 26.06100
C  18.20600 0.59400 27.39200
N  25.17700 1.35400 27.51400
C  24.17000 1.55000 26.55200
C  24.78000 1.58400 25.08900
C  26.25400 1.86400 25.44800
C  26.39600 1.51200 26.91900
C  24.56200 0.25400 24.33500
C  26.78100 3.27400 24.99800
C  26.49000 4.44200 25.88200
N  26.85500 1.09300 29.87600
C  27.83900 1.04900 28.93000
C  29.13500 0.90900 29.64600
C  28.74300 0.89400 31.04100
C  27.36900 0.97900 31.07400
C  30.48500 0.91100 29.07800
C  29.30200 0.87400 32.35000
O  30.47800 0.84700 32.66400
C  28.09100 1.08600 33.28800
C  28.11300 0.17000 34.39800
O  27.61000 -0.97600 34.42600
O  28.94000 0.64800 35.39200
C  28.93600 -0.21100 36.60400
H  21.25400 1.20900 32.28800
H  22.14800 1.63100 25.96300
H  28.40800 1.37700 26.81300
H  25.13300 0.10900 34.70800
H  22.63400 1.28600 34.31400
H  22.72500 -1.35600 33.16000
H  21.95700 -0.74000 34.62800
H  23.53400 -1.50800 34.69500
H  24.09600 2.80500 34.90700
H  25.71400 2.89800 34.26200
H  26.63500 1.56000 36.28100
H  24.93000 1.35700 36.63100
H  18.39000 1.60000 30.23600
H  19.33300 1.09200 31.61400
H  18.84900 -0.03700 30.37400
H  18.08900 -0.41900 27.00500
H  17.59300 1.13800 26.67300
H  17.84900 0.69700 28.41600
H  24.42900 2.42300 24.48900
H  26.83300 1.06800 24.98000
H  23.95500 0.47900 23.45800
H  24.15900 -0.41400 25.09600
H  25.51700 -0.16300 24.01200
H  26.34000 3.49500 24.02600
H  27.85400 3.23800 24.80900
H  25.73900 5.09100 25.43200
H  27.42800 4.93200 26.14500
H  26.19700 4.07800 26.86700
H  30.72600 -0.12200 28.82600
H  31.27100 1.28900 29.73200
H  30.50000 1.48600 28.15300
H  28.08400 2.12700 33.61100
H  29.18900 -1.26600 36.49400
H  27.98700 -0.15500 37.13800
H  29.77400 0.19100 37.17400
Mg 6.34900 55.52200 41.25000
C  3.54100 53.46100 40.83600
C  8.33600 53.18900 40.12200
C  8.76100 57.94800 41.13100
C  4.06700 57.93300 42.31500
N  5.88100 53.64100 40.47900
C  4.70600 52.97900 40.27600
C  5.05000 51.66100 39.56200
C  6.54100 51.43100 39.89900
C  7.02700 52.81400 40.21700
C  6.93500 50.42400 40.97000
C  4.71800 51.83300 38.05300
C  3.93400 50.64300 37.49800
H  4.74100 49.95500 36.35500
N  8.26400 55.58400 40.58800
C  8.92800 54.50500 40.14300
C  10.25300 54.87600 39.87000
C  10.42800 56.22200 40.15900
C  9.10100 56.65400 40.66100
C  11.28200 53.99500 39.38700
C  11.73500 57.06600 39.94100
O  12.86600 56.59400 39.70200
C  11.76000 58.59800 40.04600
N  6.38200 57.69000 41.49100
C  7.57900 58.40400 41.58500
C  7.37600 59.80100 42.33900
C  5.76000 59.80600 42.47200
C  5.34700 58.36300 42.06000
C  8.07900 59.85600 43.68200
C  5.05700 60.92500 41.60300
C  3.87000 61.63800 42.31000
N  4.29500 55.64800 41.71600
C  3.51900 56.68700 42.20200
C  2.15500 56.23800 42.45500
C  2.13600 55.00700 41.90000
C  3.41300 54.70900 41.42500
C  0.96000 57.01700 42.97400
C  1.19800 53.92200 41.64600
O  -0.03500 53.76400 41.75900
C  2.15900 52.84700 40.88400
C  1.51300 52.64400 39.50100
O  1.43500 53.45300 38.59800
O  0.96100 51.35500 39.61300
C  0.26100 50.85000 38.45600
H  9.12100 52.47100 39.87500
H  9.60900 58.60000 41.35000
H  3.38100 58.72100 42.63300
H  4.50300 50.77800 39.89100
H  7.11200 51.14800 39.01400
H  6.03700 50.10500 41.50000
H  7.57500 50.85900 41.73700
H  7.52400 49.57000 40.63500
H  5.60500 51.88900 37.42200
H  4.14800 52.75400 37.93100
H  2.99700 51.04100 37.10900
H  3.61400 49.89200 38.22100
H  10.84600 53.07200 39.00500
H  12.03100 53.64400 40.09700
H  11.80900 54.38400 38.51700
H  12.50500 59.07600 39.41100
H  12.01700 58.71700 41.09900
H  10.80000 59.05200 39.80000
H  7.67000 60.61500 41.67700
H  5.53200 60.00400 43.51900
H  7.99700 58.81300 43.98900
H  7.50600 60.49000 44.35800
H  9.06200 60.28700 43.49200
H  4.66900 60.39300 40.73400
H  5.85500 61.62100 41.34400
H  3.78400 61.29900 43.34200
H  2.95500 61.43000 41.75500
H  4.09800 62.70200 42.25100
H  1.41500 57.96300 43.26500
H  0.59700 56.51300 43.86900
H  0.27900 57.09900 42.12700
H  2.07400 51.88500 41.39000
H  -0.65700 50.49100 38.92100
H  0.78800 50.03000 37.96800
H  0.13500 51.65000 37.72700

