158

Mg 41.25900 40.95600 27.33600
C  40.95000 43.51600 29.67600
C  42.52200 38.94300 29.88100
C  42.24500 38.70100 24.96600
C  40.42600 43.16100 24.79500
N  41.82200 41.31200 29.53500
C  41.45600 42.36700 30.26600
C  41.55400 42.12800 31.74800
C  42.25500 40.68800 31.85700
C  42.19900 40.27700 30.37200
C  43.66300 40.65000 32.44500
C  40.20500 42.11100 32.48300
C  40.11200 43.12000 33.73900
H  39.45400 42.62600 35.01600
N  42.33300 39.13800 27.36600
C  42.67100 38.46900 28.53400
C  43.27400 37.21100 28.21900
C  43.12800 37.08500 26.80600
C  42.52300 38.35200 26.30200
C  43.81400 36.22100 29.27500
C  43.54800 35.97700 25.91500
O  43.43400 36.06700 24.72400
C  44.07200 34.69200 26.43500
N  41.58200 41.03800 25.20400
C  42.00000 39.98600 24.40600
C  41.68100 40.12600 22.92200
C  40.93500 41.49800 22.95800
C  40.87800 41.89400 24.45400
C  42.96900 39.99500 21.94500
C  39.61300 41.42900 22.29000
C  38.38800 41.14200 23.19500
N  40.83200 42.90800 27.15200
C  40.45900 43.67300 26.10900
C  40.17000 44.98300 26.55900
C  40.25100 44.94000 27.98400
C  40.78100 43.68200 28.29100
C  40.00400 46.16000 25.52200
C  40.19200 45.74000 29.12800
O  39.86200 46.88700 29.27300
C  40.62200 44.79300 30.31500
C  41.70400 45.59800 31.02000
O  42.56300 46.26200 30.41900
O  41.46800 45.76100 32.35200
C  41.97500 47.02000 32.93300
H  42.82100 38.40200 30.78100
H  42.32800 38.00100 24.13100
H  40.02900 43.82100 24.02100
H  42.26600 42.89300 32.05900
H  41.72900 39.92300 32.42800
H  43.77700 39.76700 33.07400
H  43.80000 41.56300 33.02400
H  44.41600 40.69100 31.65700
H  39.89300 41.13600 32.85700
H  39.39800 42.38500 31.80400
H  39.52000 43.96800 33.39300
H  41.11200 43.48700 33.96800
H  43.60100 35.15900 29.15600
H  43.55500 36.43300 30.31200
H  44.90100 36.28500 29.23100
H  43.96300 33.89100 25.70300
H  43.42500 34.26500 27.20100
H  45.08900 34.82600 26.80300
H  41.03500 39.27300 22.71100
H  41.58100 42.24600 22.49900
H  42.77800 40.59100 21.05300
H  42.92600 38.92300 21.75400
H  43.86300 40.38900 22.42900
H  39.58600 40.66800 21.51100
H  39.44800 42.43000 21.89300
H  37.87300 40.26300 22.80800
H  37.75400 42.02100 23.07300
H  38.64300 40.92800 24.23300
H  39.46500 46.99600 25.96900
H  39.72600 45.67200 24.58800
H  41.04900 46.41400 25.34600
H  39.85700 44.72900 31.08900
H  43.02800 46.91400 33.19400
H  41.48700 47.25400 33.87900
H  41.88400 47.81300 32.19100
Mg 17.11700 52.67200 25.64500
C  19.06300 51.22100 28.36500
C  14.75300 53.44800 28.20000
C  15.17700 53.96100 23.31300
C  19.35400 51.51100 23.49100
N  16.94000 52.34600 27.97800
C  17.88400 51.75100 28.82300
C  17.56600 52.06300 30.27000
C  15.99000 52.48700 30.14800
C  15.88100 52.75500 28.66700
C  14.95500 51.40400 30.56100
C  18.42300 53.16000 31.01500
C  18.67400 52.85100 32.50300
H  17.75900 53.50200 33.55100
N  15.21700 53.64500 25.74200
C  14.48200 53.95400 26.85900
C  13.30100 54.69100 26.44200
C  13.36300 54.87100 24.99100
C  14.61000 54.09100 24.60300
C  12.31500 55.23300 27.46600
C  12.50200 55.44600 23.98200
O  12.84300 55.75900 22.85500
C  11.05400 55.79000 24.43500
N  17.12800 52.52800 23.72200
C  16.26600 53.17300 22.92400
C  16.64200 52.90700 21.46800
C  18.02900 52.28000 21.53300
C  18.21200 52.10600 23.02500
C  15.50000 52.09100 20.85500
C  19.22000 53.18100 21.03800
C  19.27400 54.71300 21.45800
N  18.88800 51.57600 25.87600
C  19.71300 51.24300 24.83500
C  20.81700 50.58600 25.41300
C  20.59400 50.53200 26.75600
C  19.45500 51.17700 27.01900
C  21.89800 49.94800 24.75600
C  21.09400 50.01100 28.06200
O  22.05300 49.26700 28.32800
C  20.16300 50.72800 29.17100
C  19.71500 49.77900 30.24600
O  18.86900 48.90600 30.09300
O  20.46600 50.08000 31.30600
C  20.13900 49.18800 32.47100
H  13.95300 53.76900 28.87000
H  14.61600 54.39600 22.48300
H  20.22300 51.36300 22.84700
H  17.61100 51.11800 30.81200
H  15.73600 53.42600 30.64100
H  15.37800 50.55700 31.10100
H  14.38100 50.97700 29.73900
H  14.14600 51.78500 31.18400
H  17.88600 54.09900 30.88300
H  19.39800 53.23300 30.53400
H  19.73700 53.03000 32.66400
H  18.48800 51.78400 32.62800
H  11.35300 54.98600 27.01800
H  12.52100 56.30100 27.53000
H  12.34400 54.69100 28.41100
H  11.00600 56.44500 25.30500
H  10.36200 54.97600 24.65400
H  10.49800 56.29000 23.64200
H  16.66300 53.86600 20.95100
H  18.05500 51.26600 21.13500
H  15.05400 51.45000 21.61500
H  15.85400 51.46400 20.03700
H  14.70700 52.77500 20.55100
H  19.27600 53.31100 19.95700
H  20.15600 52.63800 21.16700
H  19.31600 55.37600 20.59400
H  20.24300 54.79700 21.94900
H  18.59100 55.21100 22.14600
H  22.76500 49.80300 25.40100
H  22.35100 50.54500 23.96500
H  21.59700 48.99400 24.32500
H  20.75800 51.57700 29.50800
H  19.06900 49.07400 32.64700
H  20.58200 49.55100 33.39800
H  20.67900 48.25600 32.30400

