158

Mg 1.12600 7.91400 24.99500
C  1.76000 10.02600 27.95200
C  1.41400 5.28100 26.84600
C  0.87200 6.26000 22.21800
C  1.52200 10.97300 23.16900
N  1.52700 7.68000 27.22600
C  1.55600 8.63200 28.27800
C  1.58800 7.94200 29.63000
C  1.62000 6.41000 29.25900
C  1.56300 6.42400 27.65300
C  2.77700 5.56000 29.92600
C  0.36900 8.57200 30.41000
C  0.19500 8.06500 31.79700
H  1.46500 7.79700 32.60000
N  0.98900 6.02400 24.53900
C  1.06800 5.01100 25.46900
C  1.03500 3.72900 24.79200
C  0.92400 3.98200 23.44900
C  0.92600 5.45400 23.37400
C  1.06400 2.49200 25.64300
C  0.91600 2.96400 22.27400
O  0.97400 3.30800 21.09000
C  0.81200 1.46700 22.56400
N  1.21300 8.49100 23.01900
C  1.12200 7.63400 21.99200
C  1.10900 8.29200 20.58000
C  0.72500 9.76800 20.98300
C  1.18400 9.80300 22.42800
C  2.35600 8.03600 19.64500
C  -0.76000 10.08000 20.78700
C  -1.06400 11.19000 19.84500
N  1.50800 10.09700 25.39000
C  1.63600 11.14800 24.57600
C  1.97300 12.35800 25.34300
C  1.97500 11.88900 26.60100
C  1.75900 10.53100 26.60900
C  2.19700 13.71700 24.73800
C  2.25100 12.38900 27.95200
O  2.57300 13.49500 28.41900
C  2.13400 11.13100 28.81800
C  3.31300 10.84200 29.58500
O  4.41800 10.53400 29.09400
O  3.13100 11.36700 30.84400
C  4.27700 11.10800 31.74100
H  1.53000 4.44400 27.53800
H  0.85400 5.71200 21.27400
H  1.64900 11.90700 22.61800
H  2.55300 8.20700 30.06300
H  0.64100 6.13100 29.64800
H  3.31300 4.92100 29.22500
H  2.39200 4.87900 30.68500
H  3.48600 6.12800 30.52700
H  -0.57000 8.53700 29.85800
H  0.42300 9.66100 30.39300
H  -0.34700 7.12200 31.73200
H  -0.38900 8.85000 32.27800
H  2.05500 2.04300 25.57500
H  0.19900 1.92500 25.30000
H  0.99900 2.64200 26.72000
H  -0.00900 1.30800 23.26300
H  1.74100 1.21000 23.07400
H  0.65700 0.89700 21.64900
H  0.22200 7.80400 20.17600
H  1.29600 10.48300 20.39000
H  2.95200 8.93300 19.47400
H  1.94900 7.76400 18.67100
H  2.89500 7.18800 20.06700
H  -1.12100 10.19300 21.81000
H  -1.31700 9.20700 20.44800
H  -1.75900 11.90000 20.29200
H  -1.55700 10.76800 18.96900
H  -0.20800 11.81500 19.58900
H  1.38300 13.99000 24.06700
H  3.16300 13.63800 24.23800
H  2.57400 14.46500 25.43500
H  1.30900 11.34300 29.49900
H  3.94900 11.40600 32.73700
H  5.11000 11.74800 31.44800
H  4.47600 10.03700 31.77700
Mg 36.46400 48.83300 24.41600
C  36.38400 47.00900 27.36100
C  35.44600 51.54500 26.32000
C  35.82400 50.37200 21.46300
C  37.76100 46.12400 22.72800
N  35.82300 49.19200 26.63500
C  36.02100 48.31300 27.65600
C  36.02100 48.96800 29.03200
C  35.51400 50.41300 28.64900
C  35.65600 50.39800 27.11700
C  34.10600 50.69900 29.14500
C  37.45900 49.07800 29.76300
C  37.50700 48.83900 31.31800
H  36.07700 48.78000 32.00400
N  35.80900 50.68000 23.97200
C  35.37200 51.62700 24.87000
C  35.01300 52.81900 24.05400
C  34.96600 52.48600 22.65700
C  35.51800 51.10300 22.65600
C  34.70500 54.16600 24.65800
C  34.71100 53.34600 21.36200
O  34.69100 52.89600 20.20200
C  34.36500 54.83200 21.49100
N  36.74100 48.35100 22.34100
C  36.41200 49.13700 21.26500
C  36.86200 48.48100 19.89900
C  37.72000 47.19800 20.35600
C  37.42900 47.20600 21.90100
C  35.63500 48.16000 18.99100
C  39.31200 47.54000 20.20800
C  40.25800 46.39700 19.77600
N  36.90600 46.93300 24.88200
C  37.40800 45.86800 24.04900
C  37.51100 44.71300 24.82500
C  37.14800 45.08100 26.15300
C  36.80800 46.45700 26.12200
C  38.19700 43.34700 24.37300
C  37.03100 44.61300 27.50200
O  37.24500 43.51500 28.03600
C  36.58300 45.95200 28.33800
C  35.34200 45.61700 29.03700
O  34.19900 45.76200 28.57000
O  35.55700 45.07800 30.27200
C  34.34300 44.76600 31.06300
H  35.25900 52.40300 26.96900
H  35.54000 50.75500 20.48100
H  38.20800 45.25800 22.23500
H  35.39900 48.22000 29.52500
H  36.22200 51.14100 29.04400
H  33.83500 49.89600 29.83100
H  33.28900 50.68400 28.42300
H  34.02200 51.69300 29.58400
H  37.91200 50.05400 29.58800
H  38.11400 48.38200 29.24000
H  38.07300 49.65300 31.77100
H  38.03900 47.90000 31.47100
H  33.79700 54.56800 24.20800
H  35.58500 54.79100 24.50900
H  34.46100 54.08000 25.71700
H  33.38300 54.84100 21.96300
H  34.29300 55.28700 20.50300
H  35.07200 55.41600 22.08200
H  37.41700 49.20300 19.30000
H  37.46500 46.27300 19.83900
H  35.94800 47.29200 18.41000
H  35.49900 48.95400 18.25700
H  34.70000 48.06200 19.54200
H  39.70000 47.81200 21.18900
H  39.47500 48.36900 19.51900
H  39.63800 45.53300 19.53500
H  40.89800 46.02600 20.57600
H  40.88000 46.64100 18.91600
H  38.98900 43.07300 25.07100
H  38.60500 43.58500 23.39100
H  37.58600 42.44400 24.36800
H  37.42700 46.21400 28.97500
H  34.53100 43.78000 31.48800
H  33.43100 44.61600 30.48500
H  34.14100 45.50600 31.83700

