158

Mg 15.76400 -2.11500 27.64300
C  14.60600 0.13700 30.19400
C  17.78500 -3.42100 30.04000
C  17.08700 -3.93800 25.19400
C  13.81500 -0.25900 25.39000
N  16.33800 -1.50200 29.79100
C  15.60800 -0.74200 30.64000
C  16.10900 -0.85400 32.04900
C  17.22700 -1.90000 31.96900
C  17.19200 -2.24900 30.49600
C  18.62800 -1.55000 32.53400
C  15.08200 -1.26500 33.16900
C  15.15100 -0.64700 34.56000
H  16.43200 0.09900 34.99700
N  17.11800 -3.56600 27.65400
C  17.73900 -4.06200 28.78200
C  18.50400 -5.19300 28.41200
C  18.27100 -5.39400 27.00700
C  17.41200 -4.29200 26.56000
C  19.33200 -5.89800 29.43600
C  18.98500 -6.36300 26.01700
O  18.84000 -6.29000 24.79300
C  19.93500 -7.49100 26.47200
N  15.68500 -1.95900 25.52600
C  16.32500 -2.81800 24.72600
C  16.11800 -2.53200 23.30000
C  14.86400 -1.54100 23.36700
C  14.70100 -1.23900 24.83200
C  17.27500 -2.11500 22.39300
C  13.51900 -2.07500 22.76600
C  13.02600 -1.32100 21.44200
N  14.50000 -0.42500 27.70700
C  13.71900 0.11600 26.72600
C  12.90300 1.24300 27.31300
C  13.22300 1.21800 28.63400
C  14.13900 0.20400 28.85900
C  11.96500 2.08600 26.54700
C  13.04100 1.91500 29.88800
O  12.36500 2.85400 30.21500
C  13.84200 1.17100 31.01400
C  14.83900 2.07300 31.76300
O  15.98600 2.37400 31.44900
O  14.17800 2.65200 32.85700
C  14.96300 3.60800 33.66100
H  18.09500 -3.95800 30.93900
H  17.40400 -4.58400 24.37300
H  13.10700 0.21900 24.70900
H  16.58300 0.12000 32.17200
H  16.89100 -2.81600 32.45500
H  18.87100 -2.14300 33.41500
H  18.69600 -0.48100 32.73900
H  19.42800 -1.79200 31.83400
H  15.05500 -2.34800 33.29100
H  14.09600 -0.93800 32.83900
H  14.93100 -1.45200 35.26200
H  14.34000 0.08000 34.50900
H  18.74200 -6.18100 30.30700
H  20.05600 -5.19000 29.83900
H  19.82800 -6.82500 29.14300
H  20.31700 -7.89400 25.53500
H  19.65600 -8.29100 27.15800
H  20.80400 -7.04600 26.95800
H  15.73400 -3.43600 22.82700
H  15.11900 -0.58800 22.90300
H  17.14900 -1.06100 22.14700
H  17.50300 -2.79400 21.57100
H  18.02800 -2.23400 23.17200
H  12.74900 -1.96100 23.52800
H  13.65800 -3.14800 22.63300
H  12.59600 -2.04900 20.75400
H  13.84700 -0.73000 21.03700
H  12.26900 -0.57200 21.67500
H  11.01600 1.91900 27.05800
H  11.81200 1.61900 25.57400
H  12.19000 3.14100 26.39200
H  13.05400 0.89100 31.71300
H  15.89600 4.04800 33.30800
H  15.12500 3.20200 34.66000
H  14.42200 4.53700 33.84100
Mg -6.14600 24.95900 25.86800
C  -4.26000 26.25700 28.54900
C  -8.09600 23.24400 28.25500
C  -7.38800 23.37500 23.35700
C  -3.82600 26.52000 23.63800
N  -5.89900 24.50600 28.13900
C  -5.32100 25.41300 28.97100
C  -5.72300 25.15900 30.48300
C  -6.58200 23.87700 30.32500
C  -6.87900 23.80900 28.83800
C  -5.99000 22.59300 30.84800
C  -6.46500 26.44600 31.05300
C  -6.47000 26.52200 32.62100
H  -5.77200 25.42200 33.49900
N  -7.73600 23.66700 25.78000
C  -8.40100 23.07200 26.79800
C  -9.49300 22.27600 26.23300
C  -9.24600 22.21500 24.80200
C  -8.08300 23.10900 24.55000
C  -10.35000 21.35000 27.09000
C  -9.92900 21.36500 23.74700
O  -9.52000 21.38500 22.61300
C  -11.11400 20.51200 23.97700
N  -5.57200 24.90900 23.73700
C  -6.31000 24.14800 22.89600
C  -5.75600 24.26800 21.41900
C  -4.74700 25.44400 21.56200
C  -4.68100 25.66900 23.04400
C  -5.03100 23.03700 20.78000
C  -5.17700 26.76500 20.75100
C  -4.34200 27.06900 19.52100
N  -4.39200 26.21600 25.99100
C  -3.61200 26.76000 25.02000
C  -2.59600 27.56900 25.67900
C  -2.77400 27.40700 27.02800
C  -3.90900 26.59200 27.19200
C  -1.49700 28.31700 24.93000
C  -2.24300 27.73500 28.35500
O  -1.25300 28.41900 28.71200
C  -3.14400 26.95400 29.34900
C  -2.34500 26.03500 30.29800
O  -1.66300 25.07000 29.97500
O  -2.42800 26.53100 31.62800
C  -1.49000 26.04800 32.69200
H  -8.74600 22.81500 29.02100
H  -7.81400 22.83400 22.50900
H  -3.06400 26.95200 22.98600
H  -4.82200 24.94400 31.05700
H  -7.54700 24.07700 30.79000
H  -4.96000 22.69100 31.19200
H  -6.15300 21.80500 30.11300
H  -6.56100 22.16300 31.67100
H  -7.50500 26.28400 30.76800
H  -6.00200 27.29300 30.54700
H  -7.49600 26.55900 32.98700
H  -6.07600 27.50300 32.88700
H  -10.49100 20.37200 26.63000
H  -11.33400 21.81000 27.18200
H  -10.07600 21.18900 28.13200
H  -10.69000 19.52400 24.16000
H  -11.76600 20.43300 23.10700
H  -11.59700 20.97600 24.83600
H  -6.65700 24.65000 20.94100
H  -3.71900 25.25800 21.25000
H  -5.16200 22.13400 21.37600
H  -3.97600 23.18900 20.55200
H  -5.64400 22.76200 19.92200
H  -5.20500 27.70900 21.29600
H  -6.23400 26.76700 20.48400
H  -3.84400 26.20600 19.07900
H  -3.59200 27.85100 19.64300
H  -4.94800 27.55700 18.75800
H  -0.73400 27.57500 24.69500
H  -1.14400 29.13300 25.56000
H  -2.02600 28.86600 24.15100
H  -3.76200 27.57000 30.00200
H  -0.52600 25.73800 32.29000
H  -1.86000 25.24000 33.32200
H  -1.34500 26.88500 33.37600

