158

Mg 26.39400 49.78200 26.90200
C  24.48500 51.35000 29.47100
C  28.83600 49.24000 29.39200
C  28.37400 48.76600 24.52500
C  24.17800 51.35200 24.55800
N  26.50600 50.11000 29.20000
C  25.48700 50.59400 29.97700
C  25.85800 50.38900 31.45700
C  27.36600 49.99700 31.39000
C  27.67100 49.80400 29.89800
C  28.37400 50.98700 32.12700
C  24.95000 49.26300 32.24600
C  24.16100 49.80400 33.35800
H  24.06000 49.02100 34.72700
N  28.20000 48.92800 26.98300
C  29.14100 48.87400 28.04500
C  30.30500 48.27700 27.55300
C  30.20600 48.11000 26.14700
C  28.87000 48.55800 25.84000
C  31.53400 48.03000 28.40400
C  31.29900 47.84000 25.07200
O  31.16600 47.76700 23.83700
C  32.77300 47.57500 25.47300
N  26.31500 49.95000 24.82800
C  27.20800 49.30900 24.04800
C  26.90200 49.55800 22.55700
C  25.57500 50.35600 22.60400
C  25.33700 50.62200 24.12500
C  28.09100 50.29600 21.69900
C  24.39400 49.55400 22.02300
C  23.11900 50.26900 21.52400
N  24.62500 51.05500 26.93600
C  23.91100 51.67400 25.92700
C  22.69600 52.33600 26.51500
C  23.01500 52.25700 27.93600
C  24.16400 51.49300 28.10500
C  21.50800 52.83000 25.74400
C  22.52200 52.60400 29.20200
O  21.50900 53.17000 29.42600
C  23.44600 52.07700 30.31800
C  24.03700 53.18500 31.11100
O  24.68900 54.06900 30.60200
O  23.65700 53.08000 32.41500
C  24.21400 54.10600 33.36500
H  29.70700 49.22300 30.05000
H  28.95700 48.45200 23.65700
H  23.54500 51.74400 23.76000
H  25.80800 51.34500 31.97800
H  27.48600 49.02500 31.86900
H  29.08900 51.36200 31.39500
H  28.82200 50.41500 32.93900
H  27.84000 51.80700 32.60700
H  25.61600 48.51100 32.66900
H  24.41800 48.82400 31.40300
H  23.15200 49.96200 32.97700
H  24.58600 50.77400 33.61600
H  31.90000 47.03300 28.15700
H  31.32400 48.05900 29.47300
H  32.26200 48.79300 28.12900
H  33.49500 47.55200 24.65700
H  33.03700 46.74600 26.13000
H  33.03100 48.53100 25.92900
H  26.72800 48.54000 22.20900
H  25.59800 51.34400 22.14600
H  28.61400 51.06100 22.27300
H  27.57300 50.82000 20.89500
H  28.84600 49.62500 21.28900
H  24.19600 48.88500 22.86100
H  24.67100 48.89000 21.20500
H  22.79800 49.88600 20.55600
H  23.29700 51.33600 21.39000
H  22.33000 50.15200 22.26700
H  20.65500 52.43000 26.29200
H  21.42400 52.55400 24.69300
H  21.43300 53.91500 25.82400
H  22.90400 51.33100 30.89900
H  24.51800 55.03200 32.87600
H  25.11500 53.79000 33.89100
H  23.48600 54.38700 34.12700
Mg 16.74700 52.30500 26.70500
C  18.73100 50.80600 29.18600
C  14.50600 53.39800 29.12600
C  14.80100 53.37800 24.26800
C  18.66700 50.61300 24.31400
N  16.60900 51.98100 28.94900
C  17.57900 51.42700 29.70500
C  17.28200 51.68700 31.18200
C  15.80100 52.35900 31.12500
C  15.52500 52.52500 29.66000
C  14.70000 51.62600 31.86000
C  18.35600 52.76200 31.79000
C  18.83600 52.62100 33.22800
H  17.78900 52.20100 34.20300
N  14.95300 53.40100 26.71700
C  14.20400 53.79900 27.80700
C  13.17900 54.64100 27.36100
C  13.14900 54.55900 25.96600
C  14.31600 53.76000 25.57400
C  12.21200 55.27100 28.41700
C  12.06500 55.18800 24.98700
O  12.21000 54.91900 23.77800
C  10.97600 56.11300 25.44300
N  16.77900 52.08000 24.50000
C  15.89700 52.70000 23.77000
C  16.38300 52.59900 22.26500
C  17.69400 51.78800 22.31600
C  17.79500 51.51200 23.82800
C  15.40000 52.07200 21.30600
C  18.86500 52.64600 21.80000
C  19.03700 52.61700 20.24000
N  18.35900 50.97300 26.65000
C  19.01800 50.36000 25.57800
C  20.05300 49.55300 26.10300
C  19.98900 49.70000 27.51500
C  18.92900 50.56500 27.76800
C  21.20300 48.81000 25.53400
C  20.66300 49.27700 28.73000
O  21.63700 48.60100 28.97200
C  19.84800 49.96500 29.87000
C  19.41700 49.00400 30.91100
O  18.79600 48.00200 30.59200
O  19.86400 49.35900 32.17600
C  19.73800 48.48000 33.30800
H  13.85100 53.85600 29.87100
H  14.20300 53.71800 23.42100
H  19.40300 50.17700 23.63500
H  17.31800 50.73100 31.70600
H  15.91700 53.34100 31.58200
H  13.85300 51.38400 31.21900
H  14.23800 52.16400 32.68800
H  15.08200 50.66600 32.20700
H  18.05300 53.77400 31.52200
H  19.24600 52.47300 31.23100
H  19.27300 53.60400 33.40200
H  19.72000 51.98400 33.23000
H  11.49000 55.88300 27.87700
H  12.71400 55.88300 29.16700
H  11.72000 54.51600 29.03100
H  11.40200 57.02400 25.86300
H  10.27900 55.56200 26.07500
H  10.42400 56.37100 24.53900
H  16.56100 53.60900 21.89500
H  17.75200 50.82800 21.80200
H  15.72000 51.18400 20.76100
H  15.21300 52.89000 20.61000
H  14.39200 51.87100 21.66900
H  19.83700 52.29600 22.15000
H  18.74900 53.64400 22.22300
H  19.92600 52.07300 19.92100
H  19.17400 53.64000 19.88700
H  18.22000 52.07900 19.75900
H  22.07400 49.44800 25.39000
H  20.92100 48.49100 24.53000
H  21.48100 47.99600 26.20400
H  20.56900 50.66900 30.28600
H  20.73000 48.60700 33.74100
H  19.67100 47.41200 33.09800
H  19.07300 48.84800 34.08900

