158

Mg 1.37600 7.55600 25.85600
C  2.28600 9.43700 28.59300
C  1.96500 4.66200 27.78200
C  0.64700 5.66300 23.16800
C  1.42200 10.43200 23.88200
N  2.22100 7.09700 27.89600
C  2.33500 8.06200 28.84600
C  2.53000 7.40100 30.21500
C  2.76200 5.91500 29.87100
C  2.28200 5.87800 28.43300
C  4.20100 5.35400 30.02800
C  1.26300 7.56600 31.18200
C  1.41900 8.15600 32.57100
H  2.35500 7.30900 33.55000
N  1.44100 5.47100 25.49900
C  1.57500 4.47500 26.40700
C  1.19900 3.16400 25.82900
C  0.85500 3.43700 24.47800
C  0.98700 4.91700 24.32900
C  1.35400 1.93500 26.52100
C  0.14000 2.50300 23.52300
O  -0.19700 2.88900 22.39300
C  -0.15000 1.06100 23.77200
N  1.30100 7.96700 23.78000
C  0.79000 7.03600 22.91800
C  0.49500 7.69800 21.50200
C  0.43700 9.17100 21.88900
C  1.05400 9.22300 23.30000
C  1.47200 7.21900 20.36500
C  -0.90900 9.94000 21.76700
C  -1.05300 11.10600 20.69400
N  1.85100 9.53700 26.09500
C  1.84100 10.66400 25.22700
C  2.22500 11.87100 25.92400
C  2.45100 11.46300 27.22500
C  2.14200 10.06700 27.29700
C  2.20300 13.26600 25.38800
C  2.75700 11.85400 28.56400
O  3.11000 12.92400 28.95900
C  2.40100 10.62200 29.55400
C  3.57000 10.53100 30.46800
O  4.68600 10.22400 30.16800
O  3.21900 11.00000 31.72900
C  4.26000 11.35400 32.74500
H  2.04000 3.76500 28.40100
H  0.15400 5.12100 22.35800
H  1.41300 11.39900 23.37600
H  3.42000 7.85600 30.65000
H  2.14100 5.36500 30.57900
H  4.58000 5.28800 29.00800
H  4.36200 4.38900 30.50800
H  4.71100 6.13800 30.58800
H  0.79800 6.58900 31.31400
H  0.50800 8.17000 30.67900
H  0.39500 8.22700 32.94000
H  1.90700 9.13000 32.54200
H  1.95000 2.03600 27.42800
H  1.86100 1.24300 25.84900
H  0.32700 1.63500 26.73200
H  -0.82900 0.60300 23.05400
H  -0.75600 1.21400 24.66500
H  0.72300 0.43900 23.97300
H  -0.51600 7.43400 21.19300
H  1.18100 9.57300 21.20200
H  1.90500 8.07800 19.85100
H  0.91600 6.63300 19.63300
H  2.20500 6.58400 20.86300
H  -1.01000 10.33900 22.77600
H  -1.83600 9.37100 21.69700
H  -1.81700 11.02000 19.92100
H  -0.12500 11.18000 20.12800
H  -1.19700 12.07400 21.17400
H  3.21900 13.62900 25.23400
H  1.63400 13.96900 25.99700
H  1.65300 13.15900 24.45400
H  1.48800 10.79400 30.12300
H  4.16600 10.65800 33.57800
H  3.90800 12.31400 33.12300
H  5.29900 11.40400 32.41900
Mg 47.37100 34.56200 27.12100
C  45.81800 32.84600 29.79800
C  47.58400 37.27300 29.34300
C  48.59100 36.42400 24.55100
C  46.83900 31.96300 25.03300
N  47.07300 34.96000 29.44500
C  46.38000 34.08600 30.25000
C  46.34500 34.55900 31.72900
C  46.49400 36.13400 31.49600
C  47.14500 36.15800 30.01200
C  45.25500 37.04900 31.66800
C  47.59300 33.92600 32.56500
C  47.34900 33.35100 33.87000
H  48.13800 34.04900 34.97800
N  48.12300 36.56100 27.02600
C  48.10500 37.48700 28.04200
C  48.66700 38.72800 27.49100
C  48.95100 38.54600 26.15200
C  48.60800 37.14000 25.81800
C  49.10300 39.90700 28.44500
C  49.56000 39.56100 25.22600
O  50.05200 39.27800 24.11600
C  49.91000 41.03200 25.76300
N  47.67300 34.27800 25.07400
C  48.13600 35.15000 24.17800
C  48.15000 34.69500 22.72400
C  47.62000 33.20700 22.97900
C  47.41800 33.10300 24.49300
C  47.15700 35.60000 21.90500
C  48.57400 32.16400 22.43600
C  49.65500 31.72000 23.39100
N  46.52600 32.77800 27.31300
C  46.41200 31.81400 26.35300
C  45.68500 30.67300 26.95200
C  45.40800 31.05500 28.30000
C  46.01400 32.33300 28.44900
C  45.34200 29.39000 26.29300
C  44.68900 30.66500 29.49600
O  44.12900 29.56600 29.74700
C  44.78200 31.92600 30.45200
C  45.13000 31.28600 31.74900
O  46.18800 30.87600 32.12400
O  43.98900 31.27500 32.42700
C  44.07900 30.57900 33.75000
H  47.60200 38.17800 29.95500
H  49.09800 37.00300 23.77600
H  46.66100 31.02900 24.49500
H  45.43100 34.30200 32.26500
H  47.26900 36.60600 32.10000
H  45.20000 37.70600 32.53600
H  44.37200 36.41200 31.61400
H  45.23600 37.73100 30.81800
H  48.36200 34.69800 32.57400
H  47.98600 33.15600 31.90000
H  47.67500 32.31600 33.96600
H  46.28200 33.36600 34.09400
H  49.25000 39.58400 29.47600
H  48.50000 40.80100 28.28800
H  50.11600 40.16200 28.13600
H  49.02500 41.48000 26.21500
H  50.22900 41.52500 24.84400
H  50.75800 41.05500 26.44700
H  49.14700 34.75500 22.28800
H  46.59600 33.12600 22.61500
H  46.86800 36.42000 22.56200
H  46.31300 35.07400 21.46100
H  47.78800 36.11500 21.18000
H  49.00000 32.58900 21.52700
H  48.00900 31.26900 22.17400
H  50.52600 31.54200 22.76100
H  49.44500 30.79600 23.92900
H  49.90400 32.58100 24.01300
H  44.75600 28.68700 26.88500
H  46.22100 28.87200 25.90700
H  44.69900 29.59300 25.43700
H  43.83300 32.46100 30.43500
H  44.51900 29.59800 33.57100
H  43.11300 30.56300 34.25700
H  44.73000 31.10900 34.44500

