158

Mg 1.26700 42.09100 24.52800
C  3.03300 42.12100 27.62400
C  -1.40800 40.87200 26.33900
C  -0.11700 41.46200 21.71100
C  4.49600 42.23100 22.89200
N  0.80500 41.63600 26.75600
C  1.67000 41.92000 27.81700
C  0.94900 41.77600 29.19900
C  -0.49100 41.40500 28.71500
C  -0.38000 41.25500 27.18200
C  -1.11500 40.24400 29.53900
C  1.06500 43.02700 30.03600
C  1.47300 42.79000 31.45900
H  1.18900 41.36200 32.19200
N  -0.59500 41.52400 24.06400
C  -1.52200 40.91200 24.96600
C  -2.64600 40.41000 24.19400
C  -2.37700 40.68800 22.83500
C  -1.00700 41.26100 22.80400
C  -3.91900 39.81600 24.80200
C  -3.21400 40.41800 21.59100
O  -2.78400 40.59600 20.45400
C  -4.58100 39.75300 21.64600
N  2.11100 41.82200 22.59000
C  1.19600 41.78100 21.61200
C  1.83300 41.97100 20.24000
C  3.30800 42.29200 20.60000
C  3.30900 42.10500 22.07700
C  1.64400 40.75100 19.33900
C  3.83500 43.58200 20.16000
C  3.14900 44.82700 20.69300
N  3.35500 42.29000 25.10100
C  4.52000 42.39400 24.33200
C  5.67900 42.47700 25.26600
C  5.14600 42.35700 26.51800
C  3.75000 42.29000 26.38000
C  7.08300 42.79200 24.85800
C  5.41800 42.35300 27.97000
O  6.51500 42.31000 28.50000
C  4.06400 42.23100 28.71400
C  4.32200 40.98500 29.55800
O  4.65400 39.88200 29.15300
O  4.39900 41.26300 30.87300
C  4.96500 40.28200 31.85400
H  -2.24200 40.43600 26.89300
H  -0.59200 41.31400 20.73900
H  5.40500 42.18100 22.28800
H  1.53400 41.01000 29.71000
H  -0.98500 42.37300 28.79600
H  -1.94300 40.56500 30.17100
H  -0.47400 39.83900 30.32300
H  -1.34700 39.42500 28.85900
H  0.15200 43.61600 30.11800
H  1.75700 43.70200 29.53300
H  1.12700 43.62900 32.06300
H  2.55100 42.92100 31.55200
H  -4.16300 38.82100 24.42900
H  -4.74700 40.43800 24.46200
H  -3.93700 39.69800 25.88500
H  -4.64800 38.80500 22.18000
H  -4.87200 39.51400 20.62300
H  -5.36500 40.38200 22.06700
H  1.24900 42.80300 19.84700
H  4.03100 41.57400 20.21100
H  0.71700 40.74900 18.76400
H  1.83200 39.91100 20.00800
H  2.44600 41.06300 18.67100
H  3.70000 43.58800 19.07800
H  4.88700 43.65000 20.43800
H  3.96200 45.50800 20.94400
H  2.30500 44.78100 21.38200
H  2.74000 45.30400 19.80300
H  7.18100 43.64900 24.19100
H  7.52400 41.89100 24.43300
H  7.61800 42.93200 25.79800
H  3.83800 43.10300 29.32800
H  5.04700 40.86900 32.76900
H  6.02200 40.08500 31.67300
H  4.43100 39.34300 32.00300
Mg -6.23600 25.37500 25.68400
C  -4.80100 26.45000 28.62500
C  -8.30300 23.29800 27.48100
C  -7.27700 24.00700 22.81800
C  -3.68400 27.01700 23.93000
N  -6.37900 24.79000 27.74200
C  -5.78500 25.46000 28.81400
C  -6.44700 25.18900 30.18700
C  -7.19800 23.89400 29.81400
C  -7.37100 23.98100 28.25900
C  -6.63300 22.56700 30.19900
C  -7.40700 26.28800 30.77600
C  -7.62500 26.28000 32.31400
H  -6.84500 25.26800 33.19000
N  -7.61900 24.03600 25.22300
C  -8.47700 23.34800 26.10000
C  -9.55100 22.72400 25.35900
C  -9.15500 22.76600 23.98100
C  -8.00900 23.62200 23.97600
C  -10.75100 21.99800 25.98800
C  -9.87400 22.05300 22.79600
O  -9.44800 22.14300 21.63700
C  -11.02500 21.14300 23.04800
N  -5.58500 25.48800 23.64900
C  -6.12000 24.79000 22.63800
C  -5.40000 25.04100 21.27700
C  -4.35100 26.11800 21.65400
C  -4.54100 26.23900 23.18300
C  -4.90900 23.83500 20.43300
C  -4.59900 27.53300 21.02800
C  -3.67800 27.79000 19.86600
N  -4.51800 26.45500 26.14300
C  -3.61800 27.07100 25.31000
C  -2.70100 27.82800 26.08800
C  -3.17200 27.76400 27.45100
C  -4.23500 26.87600 27.40600
C  -1.54900 28.66900 25.60800
C  -2.93700 28.19700 28.75900
O  -2.15600 29.04800 29.20500
C  -3.96000 27.31900 29.65100
C  -3.23400 26.53900 30.67300
O  -2.65400 25.52600 30.37900
O  -3.14900 27.17500 31.87900
C  -2.14300 26.72500 32.86800
H  -9.15900 23.01600 28.09800
H  -7.69800 23.59500 21.89800
H  -2.88400 27.64100 23.52600
H  -5.56100 25.09800 30.81500
H  -8.18400 23.83000 30.27400
H  -6.28100 21.98400 29.34700
H  -7.34900 21.90400 30.68400
H  -5.83900 22.64200 30.94200
H  -8.40600 26.31000 30.34100
H  -6.98000 27.27400 30.59500
H  -8.66900 26.23400 32.62500
H  -7.29600 27.27000 32.62800
H  -10.80200 20.92600 25.79500
H  -11.65600 22.40600 25.53700
H  -10.90400 22.25800 27.03500
H  -11.49700 20.63300 22.20800
H  -11.83500 21.77300 23.41400
H  -10.76500 20.31900 23.71200
H  -6.05800 25.48500 20.53000
H  -3.36200 25.69000 21.49100
H  -5.44900 23.65100 19.50400
H  -4.95100 22.88100 20.95800
H  -3.85700 23.97300 20.18300
H  -4.36500 28.28500 21.78200
H  -5.64100 27.74800 20.79300
H  -4.34500 27.94100 19.01800
H  -2.94900 27.02900 19.59100
H  -2.97600 28.60800 20.03300
H  -1.88400 29.66400 25.31400
H  -0.99700 28.23900 24.77300
H  -0.88900 28.91200 26.44100
H  -4.69900 27.92500 30.17500
H  -2.52300 25.96500 33.55100
H  -1.92200 27.54500 33.55100
H  -1.26500 26.29500 32.38700

