158

Mg -0.34900 7.96400 26.24000
C  0.58400 10.01100 28.87500
C  -0.20000 5.30700 28.30500
C  -0.84700 6.02400 23.59000
C  0.16300 10.77300 24.00100
N  0.27400 7.71600 28.30000
C  0.32400 8.67200 29.22300
C  0.26000 8.12400 30.65300
C  0.40700 6.59000 30.45700
C  0.20400 6.52200 28.89300
C  1.68100 6.05200 31.00600
C  -1.16600 8.55900 31.17800
C  -1.25800 8.87200 32.68400
H  -0.10400 8.33000 33.54400
N  -0.44700 5.93900 25.97400
C  -0.54900 5.01000 26.95700
C  -1.00700 3.77000 26.38400
C  -1.16800 3.95600 25.01600
C  -0.75900 5.34200 24.82100
C  -1.14600 2.50100 27.24300
C  -1.65100 2.98400 23.79600
O  -1.63700 3.27300 22.62200
C  -1.83400 1.58300 24.17500
N  -0.26300 8.36700 24.15600
C  -0.70400 7.42300 23.28300
C  -0.91700 7.91000 21.86000
C  -0.55200 9.45700 22.03200
C  -0.22600 9.56000 23.49300
C  -0.02300 7.13000 20.84800
C  -1.80000 10.34600 21.69800
C  -2.76700 10.98400 22.80200
N  0.19800 9.96800 26.35200
C  0.42000 10.96400 25.40300
C  0.92100 12.16500 26.09100
C  1.00300 11.81700 27.46100
C  0.48900 10.55900 27.58000
C  1.30700 13.42800 25.44800
C  1.22700 12.34300 28.76700
O  1.63700 13.42800 29.17200
C  0.97600 11.21000 29.75400
C  2.25000 11.10600 30.52500
O  3.24400 10.58200 30.06900
O  2.12500 11.56600 31.77000
C  3.31800 11.57100 32.56900
H  -0.14500 4.43600 28.96100
H  -1.34200 5.52100 22.75700
H  0.09200 11.66600 23.37700
H  0.97400 8.74900 31.19100
H  -0.43700 6.08800 30.93000
H  2.17500 6.72000 31.71200
H  2.31300 5.71000 30.18700
H  1.35900 5.14700 31.52000
H  -1.82100 7.70100 31.02600
H  -1.61700 9.43600 30.71300
H  -2.27200 8.57200 32.94800
H  -1.16300 9.95400 32.76700
H  -2.20200 2.23100 27.22200
H  -0.89900 2.60900 28.29900
H  -0.67200 1.61200 26.82800
H  -0.90200 1.08900 23.90100
H  -2.61700 1.12800 23.56800
H  -2.09400 1.50200 25.23100
H  -1.96700 7.66100 21.70300
H  0.38800 9.73500 21.55400
H  0.32300 6.27900 21.43400
H  0.88600 7.67900 20.60200
H  -0.55700 6.87000 19.93300
H  -2.46800 9.89200 20.96600
H  -1.39100 11.09300 21.01700
H  -3.80400 10.80900 22.51500
H  -2.75800 12.07400 22.81800
H  -2.68700 10.59400 23.81700
H  0.62100 14.25600 25.63200
H  1.45900 13.27900 24.37900
H  2.29200 13.73600 25.79800
H  0.14600 11.44400 30.42100
H  3.82700 12.53500 32.56400
H  4.09300 10.87300 32.25200
H  3.01400 11.35400 33.59300
Mg 48.61000 35.89000 28.36500
C  46.71800 34.49100 30.86600
C  48.71000 38.93300 30.20400
C  49.86900 37.63400 25.63500
C  47.95400 33.11500 26.31700
N  47.96400 36.54700 30.29500
C  47.29600 35.73200 31.18400
C  47.45400 36.43100 32.60800
C  47.68800 37.96900 32.26100
C  48.16800 37.80900 30.79200
C  46.31300 38.70600 32.28300
C  48.55900 35.73500 33.45400
C  49.48500 36.63700 34.29100
H  48.80900 37.66100 35.28200
N  49.43800 37.94200 28.12700
C  49.24600 39.04400 28.94300
C  49.90400 40.19600 28.37200
C  50.18600 39.87000 26.96800
C  49.83000 38.42900 26.84700
C  50.18500 41.51300 29.14500
C  50.82300 40.68800 25.88000
O  50.81200 40.32400 24.71800
C  51.36500 42.02600 26.25100
N  48.90800 35.50300 26.33500
C  49.48700 36.32700 25.40400
C  49.59700 35.66400 24.02500
C  49.19900 34.19600 24.31500
C  48.61900 34.26000 25.74700
C  48.60700 36.22100 22.97000
C  50.36200 33.15500 24.30900
C  50.21700 32.01700 23.22400
N  47.71600 34.05300 28.51000
C  47.53900 33.03800 27.64300
C  46.81800 31.92200 28.29400
C  46.48400 32.48600 29.55600
C  46.99300 33.82100 29.62000
C  46.52900 30.49000 27.81300
C  45.76500 32.17100 30.71800
O  45.18000 31.15200 31.00600
C  45.76400 33.49200 31.62000
C  46.05100 33.09500 33.05500
O  46.99300 32.41400 33.41800
O  45.11600 33.62300 33.87700
C  45.00300 33.12100 35.24000
H  48.66300 39.85800 30.78300
H  50.17300 38.13500 24.71300
H  47.77700 32.31400 25.59600
H  46.45500 36.30000 33.02400
H  48.32600 38.49200 32.97300
H  46.53800 39.66500 32.75100
H  45.56700 38.14100 32.84200
H  45.93700 38.74700 31.26100
H  49.23100 35.14300 32.83300
H  48.15300 34.96000 34.10400
H  50.06500 37.14400 33.52000
H  50.11800 35.91400 34.80500
H  49.22400 41.96700 29.38700
H  50.76500 42.30700 28.67500
H  50.74000 41.18400 30.02400
H  51.74600 42.51100 25.35200
H  52.19800 41.81300 26.92100
H  50.57500 42.65500 26.66100
H  50.62300 35.83800 23.70200
H  48.30900 33.79800 23.82800
H  49.14000 36.91200 22.31600
H  47.74500 36.69600 23.43800
H  48.26500 35.44600 22.28400
H  50.43900 32.68600 25.29000
H  51.24700 33.75000 24.08400
H  50.06900 31.11200 23.81300
H  51.11500 31.86800 22.62500
H  49.41300 32.28500 22.53800
H  46.88600 30.50400 26.78300
H  45.49000 30.16200 27.76600
H  46.98300 29.71800 28.43400
H  44.76300 33.92500 31.61900
H  43.91900 33.05000 35.33100
H  45.45900 33.67600 36.06000
H  45.41600 32.11400 35.18600

