158

Mg 35.80300 49.35300 24.09900
C  35.93800 47.62000 27.28200
C  34.49500 51.98100 25.71500
C  35.45900 50.63400 21.15200
C  37.01500 46.26200 22.66600
N  35.29700 49.73000 26.26800
C  35.48200 48.98300 27.37800
C  35.14700 49.74200 28.64200
C  34.54700 51.06700 28.09900
C  34.80400 50.94700 26.54100
C  32.97400 51.23600 28.53800
C  36.31100 49.94500 29.68000
C  36.19500 49.13400 31.05600
H  34.75600 49.10400 31.63900
N  35.25400 51.20900 23.52200
C  34.69000 52.15300 24.32600
C  34.45900 53.35400 23.56700
C  34.74500 52.96100 22.23000
C  35.16800 51.53200 22.24800
C  34.10400 54.66200 24.13800
C  34.80300 53.79800 21.01600
O  35.08600 53.37500 19.87200
C  34.59100 55.28600 21.15300
N  36.07300 48.50900 22.25200
C  35.88800 49.29900 21.16400
C  36.28100 48.56100 19.90100
C  37.28100 47.55900 20.53800
C  36.69500 47.34700 21.85300
C  35.08100 48.00600 19.11100
C  38.64200 48.26600 20.84000
C  39.81500 47.38800 20.41100
N  36.32600 47.29800 24.78000
C  36.86000 46.27100 24.04400
C  37.17900 45.23000 24.94900
C  36.84500 45.70500 26.23000
C  36.25200 46.95600 26.05400
C  37.72500 43.86300 24.54800
C  36.95400 45.43900 27.64300
O  37.37700 44.40200 28.12300
C  36.27800 46.64500 28.43500
C  35.12800 46.27200 29.32400
O  33.96300 46.48000 29.08200
O  35.58500 45.66200 30.39100
C  34.60900 44.97900 31.27100
H  34.07400 52.84100 26.24100
H  35.28600 50.97400 20.12900
H  37.44700 45.35300 22.24300
H  34.33700 49.13800 29.05100
H  35.12600 51.92300 28.44300
H  32.85900 52.04300 29.26100
H  32.65400 50.30900 29.01300
H  32.20500 51.52500 27.82100
H  36.44600 50.99100 29.95500
H  37.22000 49.54100 29.23400
H  36.80300 49.72700 31.73900
H  36.70500 48.19300 30.85000
H  34.99700 55.07200 24.61000
H  33.39700 54.48400 24.94900
H  33.60700 55.24900 23.36600
H  34.79900 55.74000 20.18400
H  35.25800 55.68600 21.91700
H  33.54300 55.45800 21.39600
H  36.77800 49.13600 19.12000
H  37.37500 46.59200 20.04400
H  34.10800 48.27300 19.52400
H  35.12400 46.91700 19.11700
H  35.04000 48.30100 18.06300
H  38.89600 48.30000 21.89900
H  38.82600 49.24500 20.39700
H  39.64900 46.78000 19.52100
H  39.96800 46.59800 21.14600
H  40.70700 47.99400 20.25300
H  38.52400 44.06300 23.83300
H  36.92100 43.29500 24.08100
H  38.03800 43.14000 25.30000
H  37.11300 47.05200 29.00600
H  34.23200 45.46800 32.16900
H  34.99100 44.04000 31.67100
H  33.70200 44.71100 30.72900
Mg -9.77100 38.71700 41.17500
C  -9.12700 35.28900 40.68500
C  -6.68600 39.44900 39.91100
C  -10.83300 41.90700 40.73000
C  -13.13700 37.82200 42.20500
N  -8.07700 37.46900 40.47400
C  -7.92000 36.05100 40.33000
C  -6.57500 35.58900 39.78500
C  -5.82000 36.98700 39.71000
C  -6.89200 38.00700 40.08800
C  -4.56000 37.14300 40.61500
C  -6.75600 34.85900 38.48900
C  -5.46700 34.12300 38.09700
H  -4.79300 34.59600 36.73200
N  -8.86100 40.36400 40.48700
C  -7.60700 40.51700 40.10000
C  -7.32500 41.87500 39.66000
C  -8.57100 42.57000 39.67400
C  -9.48500 41.59600 40.29900
C  -5.97200 42.22700 39.16100
C  -8.86800 43.95600 39.07900
O  -7.97400 44.77600 38.68000
C  -10.24900 44.56400 39.10500
N  -11.90100 39.66900 41.23300
C  -11.86100 41.05700 41.14500
C  -13.16900 41.58300 41.86300
C  -13.90000 40.32900 42.32700
C  -13.02300 39.19100 41.82500
C  -12.95800 42.65300 43.01200
C  -15.37800 40.12300 41.80100
C  -16.50300 39.79000 42.81900
N  -10.88300 37.00900 41.46700
C  -12.22800 36.80000 41.81400
C  -12.48800 35.37000 41.98700
C  -11.26000 34.76900 41.53900
C  -10.35600 35.82200 41.12000
C  -13.78700 34.71500 42.56800
C  -10.71700 33.49900 41.39600
O  -11.16700 32.41300 41.70200
C  -9.35300 33.78500 40.71400
C  -8.34000 32.94500 41.36500
O  -7.64000 32.07200 40.82000
O  -8.18000 33.34600 42.66900
C  -7.09200 32.65000 43.39000
H  -5.70800 39.56600 39.43900
H  -11.17100 42.94500 40.73800
H  -14.05700 37.58400 42.74300
H  -6.23500 34.90800 40.56500
H  -5.51400 37.16100 38.67800
H  -4.04700 36.24600 40.96300
H  -4.66600 37.80400 41.47500
H  -3.84800 37.63700 39.95400
H  -7.06400 35.49700 37.66100
H  -7.56500 34.13300 38.56600
H  -5.76100 33.09200 37.90200
H  -4.78500 34.11900 38.94700
H  -5.37900 41.87300 40.00400
H  -5.74600 43.29200 39.10900
H  -5.71200 41.77000 38.20600
H  -10.95700 43.88500 38.62900
H  -10.19700 45.50100 38.55000
H  -10.72100 44.83000 40.05000
H  -13.81100 42.13800 41.17900
H  -13.82100 40.31800 43.41400
H  -11.90700 42.76700 43.27600
H  -13.58500 42.51900 43.89300
H  -13.39500 43.55700 42.58600
H  -15.41100 39.32000 41.06500
H  -15.69600 40.99200 41.22600
H  -16.84000 38.77400 42.61400
H  -17.37800 40.43700 42.87900
H  -16.07500 39.82300 43.82100
H  -14.71800 34.80400 42.00800
H  -13.97500 35.08300 43.57600
H  -13.69400 33.62900 42.54800
H  -9.39300 33.38800 39.69900
H  -7.26800 31.57700 43.32000
H  -7.13500 32.97500 44.42900
H  -6.15500 32.91000 42.89700

