158

Mg 16.52900 51.18000 25.92100
C  18.55000 49.63000 28.47000
C  14.20300 51.80400 28.14800
C  14.56500 52.39000 23.27100
C  18.78300 49.87500 23.56400
N  16.42300 50.63700 28.09100
C  17.37100 50.24900 28.94700
C  16.97600 50.53000 30.38600
C  15.46900 50.93800 30.27800
C  15.37900 51.18100 28.73900
C  14.37200 50.00800 30.82400
C  17.93100 51.59000 30.97100
C  17.71200 52.07000 32.42100
H  16.68900 51.32800 33.35000
N  14.70500 51.95800 25.72400
C  13.91300 52.17300 26.80600
C  12.76400 52.94200 26.38900
C  12.75800 53.04000 24.92300
C  14.05900 52.42500 24.59900
C  11.76100 53.38600 27.38300
C  11.78300 53.79000 24.06000
O  11.86300 53.74400 22.82500
C  10.61200 54.53400 24.61100
N  16.69900 51.12100 23.72200
C  15.87200 51.83000 22.92100
C  16.40600 51.77800 21.38500
C  17.76200 51.05100 21.48000
C  17.72800 50.62600 22.97400
C  15.41300 51.33700 20.23700
C  18.93800 51.97000 21.05800
C  19.42600 53.07700 21.99200
N  18.31700 50.05800 25.98800
C  19.15500 49.68200 24.90900
C  20.33300 49.11000 25.46000
C  20.18500 49.04000 26.85600
C  18.91700 49.57400 27.12900
C  21.47400 48.64100 24.67700
C  20.76600 48.59200 28.06800
O  21.75100 47.96600 28.29800
C  19.65600 48.94200 29.13400
C  19.16500 47.90100 30.05900
O  18.59300 46.84900 29.73700
O  19.54600 48.29100 31.35200
C  19.21000 47.47200 32.44400
H  13.52200 51.91500 28.99500
H  14.05200 52.74000 22.37300
H  19.52500 49.49500 22.85900
H  17.20400 49.64100 30.97400
H  15.28900 51.80700 30.91200
H  14.35200 49.10300 30.21700
H  13.40400 50.47900 30.65300
H  14.41500 49.76400 31.88500
H  17.80500 52.47200 30.34400
H  18.92800 51.14900 30.94800
H  17.49800 53.13500 32.32500
H  18.63500 51.96900 32.99200
H  11.89600 53.05400 28.41200
H  10.74400 53.15500 27.06500
H  11.75800 54.46900 27.50300
H  10.95600 55.13100 25.45500
H  10.08500 53.62100 24.88700
H  10.13400 55.14500 23.84400
H  16.58300 52.84500 21.24900
H  17.83700 50.10800 20.93700
H  15.11500 52.13200 19.55300
H  14.50600 50.97700 20.72200
H  15.71000 50.53200 19.56400
H  18.54800 52.59600 20.25500
H  19.74600 51.28700 20.79600
H  18.73500 53.14500 22.83200
H  19.66100 54.05300 21.56600
H  20.37600 52.75500 22.41800
H  21.85700 49.36000 23.95200
H  21.02100 47.79700 24.15600
H  22.24800 48.20400 25.30700
H  20.08400 49.80300 29.64700
H  19.14100 48.02700 33.38000
H  19.97200 46.72900 32.68100
H  18.31200 46.86900 32.30700
Mg 8.78800 48.23400 25.94700
C  6.81900 48.21000 28.73200
C  11.48400 48.75200 27.90000
C  10.53500 47.57800 23.18700
C  5.84600 48.24200 23.91200
N  9.03500 48.59600 28.12100
C  8.11000 48.48700 29.05500
C  8.75200 48.77200 30.46400
C  10.14400 49.44000 30.11600
C  10.26900 48.91200 28.65200
C  10.23600 50.97200 30.07800
C  8.91000 47.44300 31.31800
C  8.50200 47.60800 32.85400
H  8.73700 46.33500 33.72900
N  10.77300 48.29800 25.59800
C  11.74600 48.42800 26.55900
C  13.07400 48.21200 25.83800
C  12.80700 47.80800 24.51100
C  11.30800 47.87700 24.37700
C  14.47700 48.22500 26.56900
C  13.76000 47.46800 23.35800
O  13.39000 47.29600 22.20000
C  15.24200 47.53200 23.56200
N  8.19800 48.21600 23.72900
C  9.13900 47.73400 22.86700
C  8.52200 47.49200 21.45300
C  7.06100 47.81800 21.66200
C  7.00500 48.21400 23.12400
C  9.24900 48.05900 20.26400
C  6.01600 46.82600 21.17100
C  5.25800 47.13800 19.82500
N  6.79500 48.18000 26.20600
C  5.68300 48.22600 25.32100
C  4.46900 48.11600 26.09300
C  4.89500 48.00400 27.47000
C  6.27800 48.03200 27.43200
C  3.10700 48.16700 25.53300
C  4.36500 47.95800 28.85400
O  3.18800 47.81600 29.28000
C  5.66300 48.09800 29.75300
C  5.66000 46.84600 30.47000
O  6.06200 45.80500 30.01500
O  5.06800 46.89700 31.69700
C  5.08600 45.68000 32.54800
H  12.35200 48.99600 28.51600
H  11.16100 47.20900 22.37200
H  4.92200 48.35600 23.34100
H  8.12900 49.48000 31.00900
H  10.93300 49.15400 30.81200
H  10.76500 51.40700 30.92600
H  9.22800 51.38000 30.00700
H  10.57200 51.32900 29.10500
H  9.92200 47.05100 31.21400
H  8.27900 46.62200 30.97900
H  7.48100 47.97300 32.96900
H  9.18000 48.38700 33.20100
H  14.35800 48.18100 27.65200
H  15.03000 49.10400 26.23900
H  14.98600 47.29500 26.31600
H  15.97000 47.47400 22.75300
H  15.53000 46.74200 24.25600
H  15.34900 48.47700 24.09500
H  8.68300 46.46000 21.14200
H  6.93000 48.68100 21.00800
H  9.49000 47.32500 19.49500
H  10.16700 48.46500 20.69000
H  8.67300 48.83900 19.76700
H  5.19000 46.61700 21.85000
H  6.62900 46.00500 20.79800
H  4.18500 47.04000 19.99200
H  5.66600 46.50000 19.04100
H  5.48600 48.16200 19.52900
H  2.86200 49.05500 24.95200
H  2.37100 48.19300 26.33700
H  2.95900 47.31100 24.87500
H  5.64400 48.93100 30.45600
H  5.77600 44.92200 32.17800
H  4.08500 45.27100 32.68500
H  5.53100 45.99300 33.49200

