158

Mg 26.75700 0.82800 29.31300
C  28.45900 1.01700 32.35100
C  23.82700 1.73700 31.09300
C  24.98900 0.62500 26.43100
C  29.55000 -0.21800 27.74300
N  26.20500 1.40200 31.51500
C  27.04100 1.34700 32.61600
C  26.34900 1.65800 34.02500
C  24.87300 1.69000 33.49100
C  24.98800 1.58900 31.91000
C  24.01700 0.54700 34.08900
C  26.82700 3.02200 34.53900
C  27.50300 3.00500 35.90000
H  26.82600 3.67100 37.04400
N  24.65000 1.07900 28.86600
C  23.63400 1.41900 29.69700
C  22.43300 1.58900 28.99100
C  22.75800 1.33300 27.63200
C  24.18100 0.90400 27.57300
C  21.06400 1.85400 29.69900
C  21.88600 1.43100 26.35900
O  22.27200 1.20900 25.17200
C  20.44500 1.91900 26.54800
N  27.22700 0.38800 27.40100
C  26.34400 0.32200 26.35200
C  27.01800 0.09800 25.03100
C  28.54200 -0.22400 25.41200
C  28.49300 0.04900 26.90900
C  26.33500 -0.94500 24.12300
C  29.55700 0.64300 24.55400
C  30.53900 -0.21000 23.71700
N  28.56700 0.36900 29.93700
C  29.65000 -0.00600 29.12100
C  30.84100 0.01800 29.92600
C  30.49400 0.36600 31.16200
C  29.03100 0.57000 31.14300
C  32.13200 -0.27500 29.42700
C  30.92100 0.77200 32.47500
O  32.05000 0.89800 32.98900
C  29.65000 0.95300 33.35300
C  29.69200 -0.13500 34.41200
O  29.35600 -1.29500 34.19800
O  30.16500 0.32600 35.64700
C  29.88100 -0.51600 36.79000
H  23.01300 2.05100 31.75000
H  24.41700 0.64600 25.50100
H  30.52500 -0.38500 27.28100
H  26.63400 0.88500 34.73900
H  24.32500 2.60200 33.73000
H  23.27500 1.08400 34.68000
H  24.75700 -0.13200 34.51300
H  23.61800 -0.04900 33.26900
H  26.07000 3.80300 34.60200
H  27.60500 3.29900 33.82800
H  28.46700 3.49400 35.76300
H  27.72000 1.97700 36.19000
H  20.51500 2.61300 29.14100
H  21.12400 2.06500 30.76600
H  20.55700 0.90300 29.53800
H  20.01700 1.82200 25.55100
H  20.54000 2.96800 26.82500
H  19.83800 1.43300 27.31200
H  26.97500 1.07500 24.54800
H  28.71100 -1.28900 25.25000
H  25.58900 -1.46600 24.72300
H  27.12400 -1.58500 23.72700
H  25.83800 -0.38600 23.33000
H  30.06000 1.26300 25.29600
H  28.97700 1.15400 23.78600
H  31.54500 0.15100 23.93000
H  30.38800 0.01900 22.66200
H  30.46500 -1.28800 23.85900
H  32.56200 0.57600 28.89900
H  31.98900 -1.10300 28.73100
H  32.82500 -0.59700 30.20400
H  29.91400 1.85600 33.90400
H  29.48600 0.06300 37.62400
H  30.79300 -0.94500 37.20400
H  29.09700 -1.23900 36.56900
Mg -10.57400 17.37200 41.26700
C  -7.15500 17.39400 41.52700
C  -10.32100 20.62000 40.08700
C  -13.79400 17.38700 40.35200
C  -10.59600 13.85400 41.62800
N  -8.89700 18.67200 40.69100
C  -7.56700 18.49400 40.81100
C  -6.73400 19.66900 40.34400
C  -7.83000 20.78700 40.39700
C  -9.14800 20.01400 40.28300
C  -7.74500 21.65100 41.71200
C  -6.13100 19.46700 38.97900
C  -4.61100 19.18900 38.86300
H  -4.19200 17.99400 38.06900
N  -11.83300 18.82800 40.44500
C  -11.58700 20.07900 40.07900
C  -12.77600 20.78600 39.87800
C  -13.81600 19.90400 40.15800
C  -13.17600 18.61300 40.39100
C  -12.86300 22.24400 39.56100
C  -15.34100 20.25700 40.21100
O  -15.70500 21.37500 39.96500
C  -16.43200 19.28300 40.70700
N  -12.02000 15.81600 41.01900
C  -13.25600 16.07500 40.48200
C  -14.13800 14.81400 40.61400
C  -13.09100 13.63900 40.96600
C  -11.86000 14.44300 41.22500
C  -15.29900 15.10900 41.62000
C  -12.98200 12.61900 39.83800
C  -13.63200 11.23600 40.07500
N  -9.31600 15.92700 41.75500
C  -9.40900 14.55100 41.90100
C  -8.13700 13.94600 42.21700
C  -7.25000 15.04400 42.08300
C  -8.01900 16.22600 41.74800
C  -8.00500 12.49300 42.54100
C  -5.84900 15.45600 42.17900
O  -4.84000 14.80000 42.37400
C  -5.71900 16.96600 41.83300
C  -5.14000 17.68000 43.00800
O  -3.96300 17.48200 43.43000
O  -6.03700 18.56100 43.59600
C  -5.60100 19.01500 44.87100
H  -10.30000 21.70200 39.94000
H  -14.88100 17.38700 40.24000
H  -10.54200 12.76500 41.56700
H  -5.87500 19.88300 40.97900
H  -7.75900 21.47100 39.55200
H  -7.83000 22.67000 41.33500
H  -6.77800 21.70400 42.21200
H  -8.64100 21.46500 42.30400
H  -6.29200 20.44600 38.52700
H  -6.82100 18.79500 38.46900
H  -4.09100 19.04600 39.81100
H  -4.13100 20.05000 38.39800
H  -12.39700 22.58600 38.63700
H  -12.36600 22.74600 40.39100
H  -13.86100 22.65500 39.40800
H  -16.60700 18.55800 39.91200
H  -17.34600 19.85600 40.86600
H  -16.08100 18.80900 41.62300
H  -14.59100 14.70300 39.62900
H  -13.43400 13.09900 41.84900
H  -15.12800 16.02700 42.18200
H  -15.34700 14.31700 42.36800
H  -16.27400 15.05900 41.13600
H  -11.92300 12.49700 39.60900
H  -13.51000 13.06300 38.99400
H  -13.97500 10.97400 41.07500
H  -12.88900 10.49300 39.78300
H  -14.43900 11.14600 39.34800
H  -8.79500 12.25900 43.25500
H  -7.01400 12.19500 42.88400
H  -8.16700 11.89500 41.64400
H  -5.10500 17.02900 40.93500
H  -6.38100 19.67200 45.25500
H  -4.70500 19.63300 44.80700
H  -5.35000 18.18000 45.52500

