158

Mg 47.32600 25.20600 27.93800
C  48.45400 27.40200 30.43100
C  46.39300 22.99800 30.45100
C  46.63800 23.00700 25.50600
C  48.53500 27.48100 25.56900
N  47.57800 25.13400 30.17400
C  47.93200 26.22600 30.94000
C  47.55500 26.02200 32.39800
C  47.03400 24.50900 32.37200
C  47.00700 24.19900 30.90200
C  47.90400 23.57200 33.30800
C  46.36900 27.00000 32.88500
C  46.55300 27.75000 34.18300
H  47.27600 27.04400 35.36600
N  46.66500 23.27400 27.94700
C  46.24800 22.52000 29.06700
C  45.84200 21.19300 28.63200
C  45.76400 21.21400 27.22900
C  46.41400 22.49900 26.81900
C  45.58700 20.09800 29.62400
C  45.20400 20.19000 26.34000
O  45.26000 20.25500 25.11100
C  44.41400 19.06300 26.92900
N  47.59500 25.22600 25.90900
C  47.14900 24.20900 25.11100
C  47.42200 24.55700 23.62300
C  47.89700 26.03200 23.62300
C  48.04400 26.26500 25.12100
C  48.40600 23.50600 22.99500
C  46.75800 27.00400 22.98600
C  47.17300 28.28000 22.20300
N  48.12900 27.10900 27.90000
C  48.59200 27.91600 26.90800
C  49.01400 29.15900 27.34500
C  48.95400 29.01900 28.71500
C  48.51400 27.74900 29.02200
C  49.57100 30.33100 26.47600
C  49.24100 29.63500 29.91400
O  49.72600 30.69500 30.10800
C  48.87500 28.71800 31.09200
C  50.06000 28.55000 31.93100
O  51.19100 28.14600 31.65400
O  49.63600 28.61600 33.20900
C  50.73600 28.58400 34.17400
H  46.05800 22.33600 31.25300
H  46.33300 22.34900 24.69000
H  48.87800 28.25400 24.87900
H  48.48400 26.13400 32.95700
H  45.99600 24.54000 32.70300
H  48.52000 23.04700 32.57800
H  47.23200 23.02800 33.97100
H  48.54700 24.17400 33.95000
H  45.38400 26.54400 32.78500
H  46.35700 27.74900 32.09400
H  45.61600 28.11000 34.60800
H  47.12700 28.63800 33.92000
H  45.83600 19.08100 29.32100
H  44.56900 20.09100 30.01300
H  46.20100 20.36500 30.48300
H  43.78100 19.26300 27.79400
H  45.19700 18.31400 27.05100
H  43.85200 18.52600 26.16500
H  46.48500 24.46700 23.07300
H  48.90000 26.19600 23.23000
H  48.70000 22.76500 23.73900
H  49.29900 24.09900 22.79800
H  47.97300 22.99200 22.13700
H  46.14700 27.34600 23.82100
H  46.10100 26.35400 22.40800
H  48.24700 28.23400 22.02100
H  46.77100 29.18800 22.65300
H  46.50200 28.19500 21.34800
H  48.90100 30.30100 25.61600
H  50.64000 30.14200 26.38000
H  49.40000 31.31600 26.91100
H  48.07600 29.21000 31.64800
H  50.33400 29.08000 35.05700
H  51.65200 29.13400 33.95800
H  50.92400 27.55200 34.47000
Mg 48.38700 35.11400 26.93000
C  46.37400 33.69300 29.44000
C  49.09200 37.72000 29.06800
C  49.90000 36.60600 24.42200
C  47.29300 32.49600 24.70100
N  47.77600 35.61900 29.00700
C  47.00300 34.90000 29.88900
C  47.17300 35.43200 31.37100
C  47.53500 36.93500 30.99500
C  48.18800 36.78200 29.54800
C  46.38900 37.96100 31.01400
C  48.27500 34.67100 32.14500
C  47.92600 34.23800 33.52900
H  47.13400 35.20500 34.34400
N  49.33400 36.99100 26.76500
C  49.66000 37.84700 27.78300
C  50.52600 38.83100 27.23800
C  50.61500 38.68000 25.85300
C  49.92500 37.40100 25.63000
C  51.11200 39.88400 28.20300
C  51.33400 39.48800 24.78700
O  51.23300 39.28000 23.56500
C  52.13400 40.53700 25.16700
N  48.47000 34.66600 24.78000
C  49.23900 35.43400 23.97800
C  49.31400 34.87800 22.52400
C  48.74100 33.34700 22.76900
C  48.11600 33.51000 24.18000
C  48.70500 35.79300 21.44700
C  49.80000 32.18900 22.78500
C  49.44800 30.94000 21.99000
N  47.11900 33.44900 26.99400
C  46.82600 32.47000 26.01100
C  45.94200 31.56900 26.60800
C  45.73300 31.97300 27.93200
C  46.44600 33.15100 28.10300
C  45.41200 30.30100 25.89400
C  45.03600 31.67000 29.14000
O  44.17700 30.82900 29.38900
C  45.29200 32.91500 30.07800
C  45.64800 32.35500 31.43400
O  46.59900 31.65100 31.64700
O  44.57500 32.60000 32.27500
C  44.64000 31.88300 33.58200
H  49.45800 38.50500 29.73400
H  50.44000 37.08300 23.60100
H  47.19300 31.70600 23.95300
H  46.23700 35.24500 31.89700
H  48.31800 37.34900 31.63200
H  45.39900 37.59200 31.28000
H  46.41700 38.26200 29.96700
H  46.59600 38.79800 31.68000
H  49.22200 35.19300 32.27700
H  48.36200 33.71500 31.62800
H  48.92400 34.13300 33.95300
H  47.40900 33.28100 33.59800
H  52.08600 40.24600 27.87300
H  51.18300 39.37500 29.16500
H  50.42300 40.72500 28.27600
H  52.42900 41.02000 24.23600
H  53.00200 40.20000 25.73300
H  51.49000 41.24600 25.68800
H  50.36600 34.84500 22.24000
H  47.92000 33.05200 22.11600
H  48.06300 35.18900 20.80600
H  49.55000 36.20700 20.89700
H  48.05100 36.61100 21.74800
H  50.06800 31.95200 23.81500
H  50.68300 32.64400 22.33700
H  50.25100 30.92100 21.25400
H  48.46100 31.02400 21.53500
H  49.44600 30.07600 22.65500
H  45.32500 30.60500 24.85100
H  44.47800 29.91900 26.30500
H  46.17600 29.52900 25.98800
H  44.35600 33.46900 30.14900
H  45.47700 31.22600 33.81600
H  43.67300 31.40500 33.73700
H  44.61900 32.66000 34.34600

