158

Mg 6.78500 54.20500 41.25400
C  6.37100 50.85200 40.86700
C  10.05600 53.84800 40.29900
C  6.95000 57.59100 40.98700
C  3.23800 54.53100 42.03400
N  7.98400 52.57400 40.35100
C  7.57300 51.24100 40.33700
C  8.65300 50.32600 39.80200
C  9.95900 51.21800 40.00400
C  9.35500 52.66200 40.26000
C  11.03200 50.78500 41.02200
C  8.36500 49.97900 38.30100
C  7.70800 51.07400 37.42300
H  7.24000 50.74200 35.95900
N  8.22900 55.52500 40.79600
C  9.54400 55.20000 40.37900
C  10.30300 56.43300 40.18100
C  9.44300 57.47700 40.32900
C  8.09600 56.85000 40.74200
C  11.81300 56.37600 39.80400
C  9.85600 58.94300 40.21200
O  10.93900 59.29400 39.71700
C  8.94300 59.98800 40.72400
N  5.24100 55.81600 41.51700
C  5.66600 57.14000 41.39500
C  4.49900 58.05400 41.61400
C  3.28800 57.14100 41.90400
C  3.93700 55.74700 41.85600
C  4.95800 59.04100 42.76300
C  2.03600 57.39600 40.94400
C  0.87500 58.29100 41.43400
N  5.15500 52.98700 41.47700
C  3.80500 53.24000 41.82100
C  3.18100 51.99500 42.08700
C  4.12800 51.07000 41.75100
C  5.28100 51.69100 41.36000
C  1.76200 51.75600 42.45900
C  4.31800 49.64400 41.52100
O  3.56600 48.66200 41.70600
C  5.82400 49.51900 41.05800
C  5.62400 48.74200 39.87200
O  5.07100 49.11500 38.82000
O  6.19800 47.54900 39.97300
C  5.87400 46.53100 38.93400
H  11.08500 53.71200 39.95900
H  6.99500 58.67000 40.82500
H  2.20400 54.58000 42.38200
H  8.57200 49.40800 40.38500
H  10.41000 51.40900 39.03100
H  11.43900 51.66000 41.52900
H  11.82900 50.35500 40.41500
H  10.62200 50.05000 41.71500
H  7.77400 49.06300 38.31500
H  9.30300 49.70500 37.81900
H  8.41900 51.90000 37.39200
H  6.82600 51.37900 37.98600
H  12.45500 55.57400 40.16800
H  12.26400 57.35200 39.98000
H  11.81700 56.13600 38.74100
H  8.16000 60.27400 40.02100
H  9.40100 60.96800 40.59200
H  8.70600 59.84500 41.77800
H  4.28700 58.55200 40.66700
H  3.04100 57.30600 42.95300
H  4.92200 60.04200 42.33400
H  5.98700 58.83000 43.05500
H  4.32000 58.87200 43.63100
H  1.50400 56.47000 40.72500
H  2.28400 57.78400 39.95600
H  0.06100 57.61700 41.70200
H  0.63300 59.00000 40.64200
H  1.18800 58.79300 42.34900
H  1.42800 50.89900 41.87500
H  1.10900 52.62700 42.39400
H  1.84300 51.39000 43.48200
H  6.35700 48.87900 41.76100
H  5.82500 45.59400 39.48900
H  6.68900 46.60600 38.21500
H  4.99800 46.71700 38.31200
Mg -6.59900 25.08300 25.11800
C  -5.08100 26.50600 27.96700
C  -8.29000 22.99200 27.24500
C  -7.54400 23.24900 22.42400
C  -5.03300 27.40100 23.22700
N  -6.51900 24.70100 27.30200
C  -5.93500 25.47900 28.30700
C  -6.46200 25.02600 29.74600
C  -7.15000 23.69700 29.38300
C  -7.34200 23.75500 27.88000
C  -6.36500 22.45300 29.90400
C  -7.62400 26.11200 30.23200
C  -7.37200 26.70600 31.68500
H  -6.85800 25.67600 32.73400
N  -7.72900 23.33200 24.86900
C  -8.46800 22.75400 25.88000
C  -9.33400 21.73100 25.30400
C  -9.03400 21.69700 23.85400
C  -8.04900 22.77600 23.59600
C  -10.17800 20.88000 26.20400
C  -9.67700 20.89700 22.76100
O  -9.45400 21.15300 21.59000
C  -10.74100 19.90000 23.05500
N  -6.54400 25.38900 23.09700
C  -6.94000 24.49200 22.17400
C  -6.38500 24.93400 20.85000
C  -6.04700 26.39000 21.07100
C  -5.81600 26.44400 22.55100
C  -5.24000 24.04600 20.37800
C  -7.09100 27.45700 20.49600
C  -6.46700 28.31500 19.40100
N  -5.33100 26.71800 25.41900
C  -4.75500 27.56200 24.58700
C  -3.94300 28.56900 25.33800
C  -4.06800 28.12800 26.71600
C  -4.93500 26.99100 26.66900
C  -3.20400 29.74300 24.84700
C  -3.66800 28.51100 28.05700
O  -2.89700 29.33000 28.50200
C  -4.34800 27.34100 28.96900
C  -3.31000 26.62800 29.63800
O  -2.42400 25.94000 29.21100
O  -3.21100 27.10200 30.93200
C  -2.29700 26.54700 31.97300
H  -8.97400 22.45800 27.90800
H  -7.89300 22.78100 21.50100
H  -4.58000 28.09600 22.51700
H  -5.66600 24.92000 30.48300
H  -8.11300 23.56600 29.87600
H  -5.41000 22.70100 30.36700
H  -6.16500 21.78000 29.07100
H  -7.02900 21.90600 30.57300
H  -8.60900 25.64700 30.28500
H  -7.69200 26.96400 29.55500
H  -8.27100 27.07600 32.17700
H  -6.81700 27.64200 31.62200
H  -10.95700 20.36800 25.63800
H  -10.67100 21.43800 27.00000
H  -9.42500 20.24400 26.66800
H  -10.38300 19.16200 23.77300
H  -11.12000 19.47500 22.12700
H  -11.56800 20.52500 23.39200
H  -6.94700 24.84100 19.92100
H  -5.07200 26.57200 20.61800
H  -4.53300 24.69000 19.85400
H  -5.58600 23.40600 19.56700
H  -4.63900 23.51100 21.11300
H  -7.34400 28.14200 21.30500
H  -8.03700 27.01900 20.17900
H  -6.82900 28.05700 18.40600
H  -5.37800 28.34000 19.35600
H  -6.71400 29.37500 19.46000
H  -3.64600 29.98500 23.88000
H  -2.14500 29.48700 24.84900
H  -3.29100 30.59000 25.52700
H  -4.89600 27.76800 29.80900
H  -1.31000 26.48200 31.51400
H  -2.72500 25.60600 32.32000
H  -2.20600 27.27400 32.78000

