158

Mg 5.48000 53.50400 41.47200
C  5.06100 50.19200 40.80700
C  8.70500 53.32100 40.02500
C  5.67900 56.84600 41.35900
C  2.14900 53.77500 42.26400
N  6.78000 51.88000 40.43300
C  6.40400 50.61600 40.32500
C  7.52300 49.72900 39.71400
C  8.76300 50.73500 39.80500
C  8.08600 52.09000 40.07500
C  9.65100 50.39200 41.04900
C  7.29500 49.11700 38.29400
C  6.49900 50.02700 37.31000
H  5.76300 49.29300 36.16100
N  7.07000 54.90500 41.03800
C  8.26900 54.56100 40.48000
C  9.06600 55.80500 40.43500
C  8.18700 56.88500 40.77000
C  6.88200 56.27100 40.98100
C  10.50100 55.82000 40.06400
C  8.55700 58.31300 40.66400
O  9.70200 58.68900 40.31000
C  7.71900 59.33200 41.18700
N  4.13300 55.11500 41.76000
C  4.40100 56.43300 41.71900
C  3.33000 57.37200 42.27200
C  2.18200 56.39300 42.51900
C  2.85500 55.00400 42.12800
C  3.90200 58.19800 43.54100
C  0.95100 56.89100 41.60500
C  1.11300 56.63200 40.15200
N  3.85000 52.26500 41.59300
C  2.58500 52.44700 41.99100
C  1.85100 51.18300 42.02700
C  2.81400 50.26700 41.64300
C  4.00400 51.01000 41.30100
C  0.42100 51.00600 42.53800
C  3.06100 48.93400 41.48900
O  2.42500 47.92600 41.76600
C  4.52700 48.76300 40.91700
C  4.41200 47.97300 39.65100
O  3.65700 48.23200 38.67500
O  5.06000 46.82600 39.76400
C  4.67800 45.78900 38.76300
H  9.73200 53.35800 39.65500
H  5.67000 57.92500 41.19300
H  1.07900 53.85500 42.46600
H  7.72200 48.88200 40.37100
H  9.45500 50.74000 38.96200
H  9.80000 51.28400 41.65700
H  10.59600 49.95200 40.73100
H  9.07000 49.71700 41.67700
H  6.73400 48.18300 38.25600
H  8.20800 48.90100 37.73900
H  7.04600 50.84900 36.85000
H  5.77600 50.55600 37.93200
H  10.63200 56.07700 39.01300
H  11.05700 54.88800 40.16500
H  10.98600 56.62600 40.61400
H  8.17400 60.27700 41.48300
H  7.33500 58.82100 42.07000
H  6.91300 59.37900 40.45600
H  3.09600 58.00900 41.41900
H  1.94300 56.37500 43.58200
H  4.89100 57.82800 43.80900
H  3.27600 58.02200 44.41600
H  3.94600 59.26700 43.32900
H  0.79100 57.95200 41.79900
H  0.03700 56.38300 41.91400
H  0.88400 57.53500 39.58700
H  0.43800 55.80200 39.94300
H  2.11900 56.32700 39.86600
H  0.44200 51.02900 43.62700
H  0.17700 49.96700 42.31600
H  -0.36400 51.61900 42.09600
H  5.03700 48.09700 41.61300
H  5.53700 45.68700 38.10100
H  3.80000 46.11500 38.20400
H  4.38900 44.86400 39.26300
Mg -5.34900 24.95300 26.12400
C  -3.98900 26.29300 29.12400
C  -6.93000 22.69100 28.06800
C  -6.48100 23.63700 23.34900
C  -3.02900 26.76400 24.34400
N  -5.53200 24.61200 28.40000
C  -4.91200 25.24000 29.38200
C  -5.41700 24.84400 30.73600
C  -6.18700 23.52200 30.42800
C  -6.26700 23.56300 28.88600
C  -5.62900 22.19700 31.06200
C  -6.25500 25.92700 31.47900
C  -5.86400 26.31500 32.86600
H  -5.01600 25.30100 33.76700
N  -6.64000 23.47100 25.74100
C  -7.24300 22.73700 26.70100
C  -8.37100 21.99000 26.12100
C  -8.18400 22.11700 24.72200
C  -7.04500 23.09500 24.53600
C  -9.35900 21.29300 27.03500
C  -8.95100 21.36600 23.63400
O  -8.84100 21.69700 22.45400
C  -9.63400 20.10900 23.99700
N  -4.74900 25.06500 24.06300
C  -5.36900 24.40700 23.08200
C  -4.84000 24.70700 21.63800
C  -3.62100 25.69000 22.04600
C  -3.86200 25.92600 23.56500
C  -4.37900 23.44200 20.91300
C  -3.72400 27.00600 21.14600
C  -2.54500 27.39800 20.13900
N  -3.85500 26.28200 26.63800
C  -2.95100 27.01500 25.75700
C  -2.13300 27.91100 26.53900
C  -2.50600 27.64200 27.87100
C  -3.49700 26.63500 27.90000
C  -1.09100 28.82700 26.02300
C  -2.23500 28.05500 29.26900
O  -1.48600 28.95400 29.74500
C  -3.11200 27.09500 30.17800
C  -2.05200 26.24700 30.81800
O  -1.57900 25.20500 30.43600
O  -1.67800 26.82900 31.95300
C  -0.47200 26.23900 32.61700
H  -7.34900 21.86800 28.65100
H  -6.97200 23.25500 22.45200
H  -2.27500 27.32600 23.78800
H  -4.54800 24.66200 31.36800
H  -7.18900 23.68700 30.82500
H  -5.26700 21.60000 30.22500
H  -6.31800 21.56900 31.62700
H  -4.79700 22.36400 31.74500
H  -7.20800 25.42000 31.62400
H  -6.36700 26.73100 30.75100
H  -6.78000 26.51200 33.42300
H  -5.25300 27.21600 32.81400
H  -9.55400 21.74300 28.00800
H  -9.22800 20.21400 26.95100
H  -10.27000 21.50200 26.47300
H  -10.64500 20.09400 24.40300
H  -8.90200 19.68200 24.68200
H  -9.72700 19.48500 23.10800
H  -5.59800 25.32300 21.15500
H  -2.68200 25.15900 21.88900
H  -3.32700 23.20600 21.07400
H  -4.55000 23.50800 19.83900
H  -4.90300 22.54900 21.25500
H  -3.79400 27.75500 21.93400
H  -4.65600 26.95300 20.58300
H  -2.87800 27.10700 19.14300
H  -1.64800 26.80500 20.32000
H  -2.34900 28.45700 20.31000
H  -1.50100 29.51400 25.28300
H  -0.39000 28.19200 25.48000
H  -0.74800 29.42600 26.86600
H  -3.71800 27.55300 30.96000
H  0.40700 26.73900 32.21100
H  -0.47900 25.15700 32.48000
H  -0.47700 26.40500 33.69400

