158

Mg -2.10800 17.58600 26.94000
C  -2.48300 15.29900 29.55600
C  -2.89100 20.19200 28.94000
C  -2.22000 19.50400 24.19200
C  -2.11200 14.65300 24.74800
N  -2.60100 17.72000 28.95300
C  -2.51600 16.65500 29.89200
C  -2.79100 17.04600 31.30300
C  -3.24200 18.49400 31.04700
C  -2.97600 18.89600 29.50700
C  -4.62000 19.01100 31.58300
C  -1.71900 16.66400 32.37300
C  -1.46300 17.56000 33.61900
H  -1.35500 16.86600 35.01400
N  -2.35300 19.67500 26.60600
C  -2.56500 20.55000 27.60900
C  -2.38000 21.87900 27.02700
C  -2.25300 21.74100 25.59800
C  -2.31200 20.29100 25.39400
C  -2.57400 23.12500 27.91500
C  -2.12700 22.78600 24.44400
O  -2.14200 22.47300 23.25800
C  -1.97200 24.21000 24.76900
N  -2.44200 17.15600 24.78500
C  -2.28900 18.16500 23.92900
C  -2.21300 17.69000 22.50800
C  -2.32100 16.16300 22.65100
C  -2.20200 15.98200 24.16800
C  -3.24700 18.31800 21.46900
C  -1.24600 15.30100 21.84400
C  0.22800 15.46900 22.17900
N  -2.18200 15.40000 27.03700
C  -2.15700 14.35800 26.07100
C  -2.36500 13.07400 26.72400
C  -2.40000 13.36600 28.13400
C  -2.30400 14.76300 28.24700
C  -2.43500 11.77600 26.09300
C  -2.52600 12.83800 29.47100
O  -2.55000 11.66400 29.81400
C  -2.63700 14.02500 30.46600
C  -1.47700 13.77800 31.29500
O  -0.30600 14.16900 31.15700
O  -1.94200 12.99900 32.28800
C  -0.91800 12.73900 33.32700
H  -3.01100 20.94100 29.72600
H  -2.02000 20.13000 23.31900
H  -2.05500 13.76600 24.11400
H  -3.71800 16.58300 31.64200
H  -2.47400 19.12100 31.50000
H  -5.26500 19.26800 30.74200
H  -4.54100 19.95400 32.12400
H  -5.03300 18.34200 32.33800
H  -0.77800 16.56800 31.83100
H  -1.89900 15.69600 32.84100
H  -2.31300 18.24200 33.61600
H  -0.51600 18.07600 33.46700
H  -3.18100 22.82100 28.76800
H  -3.16300 23.81000 27.30500
H  -1.74000 23.74500 28.24500
H  -1.13500 24.46600 25.41900
H  -2.82600 24.47700 25.39200
H  -1.81400 24.83100 23.88800
H  -1.20700 17.80900 22.10500
H  -3.29600 15.75800 22.38100
H  -3.90000 17.51500 21.12900
H  -2.66300 18.53200 20.57400
H  -3.79800 19.21400 21.75500
H  -1.46900 15.52700 20.80100
H  -1.50900 14.26400 22.05100
H  0.51800 16.09100 21.33200
H  0.83600 14.57900 22.01700
H  0.45000 15.95200 23.13000
H  -3.50900 11.65600 25.95500
H  -2.07900 11.09100 26.86200
H  -1.78900 11.85900 25.21900
H  -3.58800 14.00800 30.99800
H  0.03900 13.19700 33.08000
H  -0.78800 11.66200 33.43500
H  -1.32000 13.23900 34.20800
Mg 41.85200 40.74300 26.51800
C  41.05200 43.16400 29.11600
C  43.04500 38.78500 28.98400
C  42.56300 38.64900 24.06000
C  41.33600 43.34000 24.17800
N  41.93300 41.02700 28.77800
C  41.43400 41.92800 29.64100
C  41.42800 41.46800 31.08100
C  42.30100 40.22300 31.03000
C  42.40600 39.93000 29.47600
C  43.71600 40.32900 31.69000
C  40.00300 41.35700 31.71200
C  39.87600 42.12500 33.07700
H  38.92600 41.59400 34.17100
N  42.59600 38.97900 26.50600
C  43.20500 38.36000 27.62500
C  43.68100 37.10900 27.24000
C  43.33200 36.93900 25.88200
C  42.78500 38.17100 25.38600
C  44.35600 36.15600 28.22100
C  43.53800 35.73400 24.89800
O  43.23700 35.76500 23.74100
C  44.36000 34.47800 25.43800
N  42.13000 41.07300 24.43700
C  42.31900 39.95900 23.64000
C  42.24900 40.36100 22.19900
C  41.78000 41.83600 22.20500
C  41.76000 42.13100 23.73400
C  43.49700 40.14400 21.32600
C  40.35300 42.13500 21.55700
C  40.08500 43.64800 20.98000
N  41.36300 42.83100 26.52200
C  41.16900 43.67800 25.52800
C  40.79800 44.96900 26.08700
C  40.72000 44.77500 27.45900
C  41.12000 43.46900 27.75100
C  40.44600 46.15700 25.31100
C  40.29600 45.43100 28.67100
O  39.87800 46.52600 28.75700
C  40.52900 44.41700 29.77300
C  41.57500 44.94300 30.71700
O  42.76900 45.06000 30.39400
O  41.05100 45.14000 32.01200
C  42.03900 45.55800 33.04400
H  43.28900 38.08200 29.78300
H  42.81700 37.98300 23.23200
H  41.05300 44.14900 23.50100
H  42.11200 42.08600 31.66300
H  41.72900 39.41400 31.48600
H  43.93300 39.33700 32.08800
H  43.64700 41.05000 32.50500
H  44.55800 40.53900 31.03100
H  39.63900 40.34700 31.89900
H  39.27300 41.75800 31.00800
H  39.57500 43.14300 32.82900
H  40.88100 42.15900 33.49600
H  44.47200 36.64200 29.19000
H  45.33800 35.77900 27.93600
H  43.70900 35.29400 28.38400
H  43.85400 33.87500 26.19200
H  45.16300 34.89700 26.04300
H  44.65800 33.87400 24.58100
H  41.41100 39.76400 21.83900
H  42.50000 42.53900 21.78600
H  44.08100 41.06200 21.39800
H  43.23600 39.99200 20.27800
H  44.02200 39.31300 21.79700
H  39.66500 41.77500 22.32300
H  40.18500 41.39900 20.77000
H  39.50900 44.29300 21.64400
H  39.39700 43.61400 20.13500
H  41.05800 43.93300 20.57900
H  40.77000 46.06200 24.27400
H  41.09500 46.97200 25.63300
H  39.43400 46.44600 25.59400
H  39.59000 44.21000 30.28500
H  41.98200 44.76800 33.79300
H  41.56600 46.43800 33.48000
H  43.07400 45.65300 32.71700

