158

Mg 41.97500 40.81900 26.63200
C  41.61500 43.56000 28.88100
C  42.86900 38.87200 29.39100
C  43.07500 38.46800 24.50600
C  41.67000 43.11600 24.08200
N  42.01500 41.15200 28.91900
C  41.72600 42.30800 29.54700
C  41.84800 42.06400 31.08000
C  42.70000 40.68000 31.18200
C  42.51200 40.15000 29.81400
C  44.15000 40.69400 31.70600
C  40.39200 41.96000 31.70600
C  40.15700 43.02500 32.82800
H  39.69700 42.49500 34.21800
N  42.67900 38.85200 26.90200
C  42.90900 38.19800 28.13100
C  43.42500 36.91000 27.81800
C  43.56400 36.78300 26.41900
C  43.17600 38.09500 25.87500
C  43.76500 35.88500 28.91500
C  44.13100 35.57500 25.55500
O  44.35600 35.86900 24.38000
C  44.43100 34.28100 26.04400
N  42.51500 40.88700 24.53900
C  42.72200 39.70700 23.89400
C  42.51900 39.95400 22.40900
C  42.02900 41.45500 22.24500
C  42.01100 41.83800 23.71800
C  43.87800 39.61600 21.62200
C  40.65100 41.51500 21.52400
C  39.39200 41.37000 22.47500
N  41.67200 42.90300 26.45300
C  41.56400 43.67600 25.35900
C  41.26300 45.03100 25.66100
C  41.28600 45.01600 27.05900
C  41.54400 43.74200 27.50400
C  40.93100 46.10600 24.67100
C  41.04500 45.87700 28.21100
O  40.71700 47.06100 28.28500
C  41.22700 44.94600 29.46400
C  42.27700 45.56400 30.31400
O  43.48400 45.58700 30.08800
O  41.68300 46.16200 31.38800
C  42.58800 46.77700 32.33100
H  43.38200 38.24300 30.12200
H  43.11700 37.71900 23.71300
H  41.33000 43.78900 23.29200
H  42.38300 42.89700 31.53500
H  42.13100 40.03700 31.85400
H  44.80500 39.99700 31.18400
H  44.09800 40.65900 32.79400
H  44.56500 41.67300 31.46300
H  40.19000 40.99900 32.18000
H  39.59200 41.96200 30.96600
H  39.35700 43.66500 32.45800
H  41.04900 43.63500 32.97000
H  43.16800 34.99700 28.70900
H  43.48200 36.33200 29.86800
H  44.81500 35.62100 29.03900
H  45.20700 33.88700 25.38900
H  43.53900 33.79000 25.65600
H  44.61200 34.24100 27.11900
H  41.69600 39.27200 22.19300
H  42.74800 42.09100 21.73000
H  43.84100 39.86800 20.56300
H  44.06000 38.54100 21.64000
H  44.67900 40.19900 22.07700
H  40.62900 40.74100 20.75800
H  40.60500 42.46100 20.98400
H  38.64800 40.71100 22.02700
H  38.94700 42.35500 22.61000
H  39.62700 40.98900 23.46900
H  41.23400 45.78000 23.67600
H  41.51500 46.97100 24.98300
H  39.86800 46.31600 24.78600
H  40.28800 44.77600 29.99200
H  42.00200 47.17700 33.15800
H  43.04200 47.59700 31.77500
H  43.36100 46.07500 32.64300
Mg -11.38800 16.85600 42.12200
C  -7.96800 16.98000 42.65500
C  -11.30600 20.33000 41.69600
C  -14.50200 16.68500 40.88700
C  -11.07400 13.40400 41.75900
N  -9.81500 18.45600 42.18100
C  -8.52700 18.22000 42.36100
C  -7.73500 19.51400 42.22900
C  -8.89900 20.57000 42.39800
C  -10.07800 19.72600 42.05100
C  -8.92800 21.15200 43.76100
C  -7.03300 19.72600 40.83700
C  -5.50900 19.93000 40.93400
H  -4.90300 20.74400 39.78900
N  -12.79600 18.33100 41.38900
C  -12.56100 19.69700 41.32200
C  -13.87700 20.40200 41.07500
C  -14.76200 19.35400 40.65400
C  -14.06200 18.01100 40.99600
C  -13.97500 21.88900 41.09600
C  -16.09600 19.48300 39.91100
O  -16.28100 20.63800 39.43600
C  -17.14000 18.46500 39.68200
N  -12.62700 15.32800 41.53000
C  -13.91700 15.45000 41.12100
C  -14.57100 14.07700 40.88900
C  -13.39200 13.06600 40.98500
C  -12.26500 13.98200 41.47800
C  -15.89200 13.80900 41.73800
C  -13.14600 12.30800 39.62600
C  -14.03100 11.03900 39.41200
N  -9.88800 15.41800 42.40000
C  -9.95800 14.05300 42.20200
C  -8.66700 13.51900 42.42200
C  -7.79400 14.56600 42.65400
C  -8.60700 15.70600 42.60700
C  -8.28300 12.07300 42.21600
C  -6.41900 15.01400 42.82400
O  -5.34800 14.36200 42.93600
C  -6.47500 16.59100 42.85300
C  -6.03900 17.03200 44.23700
O  -6.50000 16.59000 45.29900
O  -5.25400 18.12900 44.17500
C  -4.65600 18.76500 45.32900
H  -11.28300 21.42100 41.74100
H  -15.53500 16.48800 40.59300
H  -11.01200 12.33100 41.56800
H  -7.25000 19.56700 43.20300
H  -8.81300 21.36800 41.66100
H  -9.85900 20.86400 44.25000
H  -8.92700 22.24000 43.69500
H  -8.04000 21.04200 44.38300
H  -7.51800 20.42900 40.16000
H  -7.14500 18.73900 40.38800
H  -5.00300 18.96600 40.86700
H  -5.29800 20.44400 41.87200
H  -15.03600 22.11200 41.21400
H  -13.58300 22.29600 40.16400
H  -13.46700 22.29500 41.97100
H  -16.89100 17.71100 38.93500
H  -18.16400 18.83400 39.62700
H  -17.30700 17.83700 40.55700
H  -14.90900 14.07100 39.85300
H  -13.59700 12.48600 41.88500
H  -15.83800 12.86300 42.27600
H  -16.78600 13.83200 41.11500
H  -16.04400 14.53800 42.53400
H  -12.10500 11.98700 39.58200
H  -13.21900 12.96900 38.76200
H  -14.24600 10.50000 40.33500
H  -13.36900 10.31000 38.94500
H  -14.81800 11.11500 38.66200
H  -8.22300 11.77500 41.16900
H  -9.12400 11.56400 42.68800
H  -7.32100 11.82400 42.66300
H  -5.75700 16.89100 42.09000
H  -5.21900 18.56600 46.24000
H  -4.62300 19.85100 45.25000
H  -3.63400 18.39700 45.42400

