158

Mg 24.61400 2.20500 29.67200
C  26.86100 2.01100 32.33700
C  22.03500 2.62400 32.02200
C  22.41400 2.37100 27.14700
C  27.12200 1.21800 27.59500
N  24.51700 2.24000 31.92900
C  25.54800 2.19300 32.85000
C  25.11700 2.46700 34.31700
C  23.48100 2.60200 34.10300
C  23.27700 2.49100 32.59400
C  22.61100 1.60300 35.02100
C  25.86200 3.58600 35.06400
C  25.19000 4.53800 36.21300
H  25.76800 4.57300 37.57800
N  22.48900 2.44500 29.60500
C  21.63100 2.49600 30.66700
C  20.26700 2.50900 30.18800
C  20.27200 2.46700 28.75600
C  21.73600 2.33800 28.43700
C  19.10100 2.42200 31.16400
C  19.17800 2.44100 27.75800
O  19.31700 2.48400 26.54300
C  17.84300 2.30900 28.28600
N  24.75000 1.86000 27.67600
C  23.73800 2.15700 26.83000
C  24.23100 2.06300 25.42800
C  25.71800 1.69200 25.51700
C  25.91700 1.60100 27.05100
C  23.47600 1.07900 24.48400
C  26.69800 2.79300 24.81900
C  26.51400 4.27500 25.24700
N  26.62700 1.76700 29.80000
C  27.53900 1.34100 28.95300
C  28.88400 1.05400 29.60600
C  28.60600 1.33800 30.92000
C  27.23800 1.72700 31.00900
C  30.13100 0.74500 28.97000
C  29.19300 1.31300 32.20900
O  30.25500 0.96300 32.64300
C  28.10500 1.80400 33.24100
C  28.04100 0.76400 34.21900
O  27.53300 -0.33200 34.15000
O  28.61200 1.24200 35.37700
C  28.86800 0.17900 36.33800
H  21.21600 2.90700 32.68600
H  21.68400 2.59600 26.36600
H  27.86700 0.80100 26.91400
H  25.32900 1.52700 34.82700
H  23.07400 3.57400 34.38000
H  21.69500 2.12500 35.29500
H  23.17700 1.26900 35.89000
H  22.27300 0.71300 34.48900
H  26.36200 4.25200 34.36100
H  26.69300 3.05900 35.53200
H  24.17000 4.17400 36.33500
H  25.02300 5.55400 35.85500
H  18.57000 3.35000 30.95100
H  19.42600 2.54500 32.19700
H  18.45700 1.54300 31.19100
H  17.71500 1.27300 28.60000
H  17.09900 2.38700 27.49400
H  17.61200 3.14000 28.95300
H  23.96900 2.97600 24.89500
H  26.01600 0.72300 25.11700
H  22.66000 0.60300 25.02800
H  24.10100 0.27500 24.09500
H  23.05600 1.65600 23.66000
H  26.83900 2.56000 23.76400
H  27.69200 2.58100 25.21300
H  27.28400 4.56200 25.96300
H  25.52400 4.44600 25.67000
H  26.60400 4.90000 24.35800
H  30.88900 1.35800 29.45800
H  29.91600 0.91900 27.91600
H  30.33300 -0.32700 28.97200
H  28.44800 2.76000 33.63500
H  29.40900 -0.65800 35.89700
H  28.01100 -0.17900 36.90900
H  29.63700 0.57700 37.00000
Mg 36.62800 49.44200 25.12300
C  36.39200 47.63400 28.11600
C  35.15200 52.15900 26.75100
C  36.15500 51.05300 22.21000
C  37.77000 46.69100 23.55900
N  35.80700 49.77900 27.23500
C  35.92100 48.94300 28.29000
C  35.53400 49.62700 29.60200
C  35.12000 51.05000 29.15900
C  35.34000 51.00100 27.57200
C  33.59100 51.43700 29.55200
C  36.76800 49.72300 30.61400
C  36.51900 49.21000 32.05100
H  35.03600 49.15700 32.47800
N  35.79500 51.33500 24.64000
C  35.38100 52.31400 25.41900
C  35.30900 53.61900 24.70700
C  35.41700 53.26900 23.32200
C  35.76800 51.82300 23.35100
C  34.97100 54.92700 25.33700
C  35.30000 54.12200 22.05600
O  35.48900 53.71700 20.93400
C  35.08100 55.69200 22.17700
N  36.83700 48.92300 23.19900
C  36.63300 49.75700 22.14900
C  37.02300 49.09700 20.83400
C  37.82700 47.83000 21.33100
C  37.54700 47.82000 22.79200
C  35.82600 48.81900 19.84000
C  39.34800 47.78800 20.87200
C  40.25700 48.66600 21.68700
N  37.12400 47.61800 25.72700
C  37.64900 46.61100 24.95800
C  37.94400 45.41700 25.85100
C  37.48500 45.83300 27.06000
C  36.98100 47.13900 26.92500
C  38.61600 44.08500 25.54500
C  37.33100 45.31400 28.42300
O  37.70900 44.30200 29.00000
C  36.62000 46.50500 29.17500
C  35.33900 46.06100 29.81600
O  34.24900 46.09200 29.28500
O  35.59000 45.58400 31.06100
C  34.58100 44.66200 31.50500
H  34.74000 53.06700 27.19700
H  36.13700 51.49100 21.21000
H  38.24800 45.86900 23.02200
H  34.75300 48.93300 29.91300
H  35.74600 51.80300 29.63700
H  33.05900 50.64300 30.07400
H  32.93500 51.70100 28.72200
H  33.65200 52.18400 30.34300
H  37.12600 50.73900 30.77800
H  37.57200 49.17300 30.12500
H  37.00800 49.82200 32.80900
H  36.84500 48.17300 32.12200
H  34.00800 55.19800 24.90500
H  35.82700 55.55500 25.09000
H  34.95800 54.93200 26.42700
H  34.08400 55.78100 22.60700
H  35.01000 56.11900 21.17700
H  35.74100 56.26400 22.82800
H  37.72500 49.84200 20.45900
H  37.37900 46.91000 20.95600
H  34.87500 49.30400 20.06100
H  35.57100 47.76100 19.88400
H  36.17900 49.04700 18.83500
H  39.32800 48.07700 19.82100
H  39.70000 46.75700 20.92300
H  40.76100 49.33200 20.98700
H  41.11100 48.09600 22.05300
H  39.79500 49.26500 22.47200
H  37.99100 43.39200 24.98100
H  39.01900 43.54200 26.40000
H  39.45600 44.34200 24.89900
H  37.40400 46.73400 29.89700
H  33.91900 44.21500 30.76300
H  34.04700 45.22200 32.27200
H  35.17600 43.95200 32.08100

