158

Mg 0.17700 -2.57200 44.39500
C  3.68900 -2.23200 44.30300
C  -0.02800 0.24100 42.48700
C  -3.06000 -3.21900 44.11100
C  0.61900 -5.69500 45.85200
N  1.78400 -1.20000 43.35100
C  3.09800 -1.16500 43.53000
C  3.76700 0.02200 42.75500
C  2.50600 0.88100 42.41500
C  1.32000 -0.08800 42.73000
C  2.39300 2.18700 43.18700
C  4.64400 -0.43100 41.55100
C  5.62400 0.61500 40.97100
H  5.25500 1.09800 39.60500
N  -1.26100 -1.60800 43.43000
C  -1.20000 -0.46600 42.72500
C  -2.51000 -0.03000 42.31700
C  -3.41700 -1.08700 42.62000
C  -2.59400 -2.01400 43.49200
C  -2.69100 1.07900 41.33200
C  -4.77200 -1.17600 42.05500
O  -5.26000 -0.32300 41.31000
C  -5.53900 -2.42400 42.24900
N  -1.06800 -4.10100 45.00400
C  -2.36300 -4.15100 44.82400
C  -3.03200 -5.43800 45.23400
C  -1.85300 -6.27900 45.80500
C  -0.68000 -5.32200 45.48500
C  -4.23800 -5.28100 46.19000
C  -1.77400 -7.76600 45.28500
C  -1.55900 -8.87400 46.33600
N  1.74500 -3.69300 45.07300
C  1.75400 -4.92800 45.67000
C  3.15400 -5.29400 45.94400
C  3.89400 -4.21600 45.42200
C  3.02000 -3.31800 44.82200
C  3.65100 -6.43900 46.66200
C  5.28500 -3.70600 45.28700
O  6.34600 -4.12500 45.74500
C  5.15900 -2.52200 44.35000
C  5.98500 -1.34900 44.85500
O  5.74400 -0.59300 45.76800
O  7.03800 -1.07400 43.90800
C  8.02000 -0.05000 44.29400
H  -0.14000 1.19100 41.96000
H  -4.11600 -3.48600 44.18700
H  0.74800 -6.65800 46.35000
H  4.38400 0.54100 43.48800
H  2.53700 1.32900 41.42200
H  3.33600 2.69600 43.38600
H  1.77500 2.15400 44.08400
H  1.95800 2.91800 42.50600
H  3.91700 -0.63000 40.76400
H  5.23600 -1.29000 41.86600
H  6.60700 0.14500 40.97800
H  5.72800 1.42900 41.68800
H  -2.33500 0.79800 40.34100
H  -2.18000 1.98800 41.64900
H  -3.72000 1.40700 41.18300
H  -4.94900 -3.30400 41.99300
H  -6.35700 -2.33800 41.53300
H  -5.94500 -2.32000 43.25600
H  -3.26700 -5.94500 44.29800
H  -1.96100 -6.48100 46.87100
H  -4.01100 -5.59800 47.20800
H  -4.88200 -6.03800 45.74200
H  -4.55100 -4.24200 46.29100
H  -0.94500 -7.76300 44.57700
H  -2.70900 -8.04500 44.80000
H  -0.59000 -9.35900 46.22300
H  -2.26700 -9.68800 46.17600
H  -1.58800 -8.50600 47.36100
H  3.12800 -6.56700 47.60900
H  4.70000 -6.22400 46.86800
H  3.48800 -7.33600 46.06400
H  5.48600 -3.02800 43.44200
H  7.42600 0.64100 44.89300
H  8.33600 0.47800 43.39400
H  8.79100 -0.57500 44.85700
Mg 36.19600 48.95300 26.18400
C  36.86700 46.66500 28.84900
C  34.54000 50.87600 28.37000
C  35.29800 50.86700 23.62500
C  37.34200 46.55300 23.99000
N  35.90000 48.81900 28.35400
C  36.40500 47.94400 29.21300
C  36.05900 48.33400 30.63200
C  35.18500 49.51200 30.42000
C  35.13600 49.72700 28.92700
C  33.67100 49.39300 30.90300
C  37.37900 48.70100 31.36200
C  37.27700 48.79000 32.92000
H  35.94500 48.76200 33.56600
N  35.26400 50.70200 26.02300
C  34.58300 51.37500 27.00700
C  34.10100 52.66800 26.52800
C  34.44300 52.72900 25.11000
C  35.00600 51.42800 24.85300
C  33.55500 53.78600 27.44800
C  34.18400 53.86000 24.06600
O  34.53900 53.80400 22.85700
C  33.47600 55.14800 24.45300
N  36.27300 48.71900 24.11800
C  35.86000 49.60500 23.23100
C  36.00700 49.23700 21.74200
C  36.68200 47.84500 21.87400
C  36.83300 47.73300 23.44000
C  34.63100 49.20200 20.97000
C  37.92700 47.63800 20.95300
C  39.41300 47.94400 21.51700
N  36.94900 46.92800 26.35800
C  37.40100 46.14800 25.35000
C  37.90100 44.86200 25.91400
C  37.71800 44.96200 27.36100
C  37.14100 46.26200 27.56200
C  38.51800 43.85100 25.00700
C  37.76300 44.31700 28.65000
O  38.20800 43.21800 29.04900
C  37.34000 45.51800 29.62600
C  36.23900 44.85000 30.45600
O  35.09300 44.73200 30.02100
O  36.72900 44.52400 31.72900
C  35.63500 44.24200 32.63000
H  33.87100 51.44200 29.02200
H  35.02500 51.48700 22.76800
H  37.71000 45.90000 23.19600
H  35.58900 47.54200 31.21600
H  35.60800 50.38600 30.91600
H  32.97100 49.79200 30.16900
H  33.58400 49.94400 31.83900
H  33.51900 48.32400 31.05000
H  37.73000 49.66500 30.99300
H  38.09400 47.95700 31.01200
H  37.94100 49.61000 33.19000
H  37.90100 47.92500 33.14300
H  33.90400 54.76400 27.11700
H  33.97500 53.59900 28.43700
H  32.49400 53.86500 27.68400
H  32.52700 54.75000 24.81400
H  33.23400 55.73700 23.56800
H  34.13300 55.57900 25.20800
H  36.65900 49.93100 21.21100
H  36.04100 47.00700 21.59900
H  34.66300 49.99900 20.22700
H  33.73400 49.49900 21.51300
H  34.43300 48.27700 20.42800
H  37.73100 48.10200 19.98600
H  38.04000 46.56500 20.79700
H  39.85100 48.57200 20.74100
H  39.95300 47.05800 21.85400
H  39.29700 48.62100 22.36300
H  38.93600 44.17800 24.05500
H  37.69000 43.18500 24.76300
H  39.29000 43.40100 25.63100
H  38.17700 45.82900 30.25200
H  35.07800 45.16200 32.81100
H  36.12700 43.86800 33.52800
H  35.03700 43.41400 32.24900

