158

Mg 17.59900 -1.76300 27.30800
C  16.26800 0.34300 29.78000
C  19.30400 -3.52100 29.63500
C  19.03000 -3.48400 24.79400
C  15.87500 0.27100 24.94200
N  17.91100 -1.40700 29.43800
C  17.16100 -0.61400 30.26800
C  17.40800 -1.01600 31.72600
C  18.62200 -2.09100 31.65400
C  18.63100 -2.38300 30.11600
C  20.02900 -1.66300 32.22800
C  16.07700 -1.54800 32.48500
C  15.84600 -0.88400 33.85200
H  17.02000 -0.14000 34.53400
N  18.92000 -3.40100 27.23000
C  19.46800 -3.98900 28.28000
C  20.21000 -5.22800 27.81600
C  20.20200 -5.16700 26.46300
C  19.39600 -3.98900 26.06700
C  20.99800 -6.21400 28.79700
C  20.86900 -6.06200 25.48100
O  20.96200 -5.84100 24.30700
C  21.44700 -7.32600 25.93400
N  17.46500 -1.65500 25.27200
C  18.19800 -2.44000 24.41200
C  18.03000 -1.95400 22.96400
C  16.99900 -0.87000 23.04600
C  16.70500 -0.76100 24.49800
C  19.38900 -1.51200 22.30100
C  15.76800 -1.01200 22.13600
C  14.35700 -1.43500 22.62700
N  16.26000 0.00900 27.26500
C  15.50800 0.61600 26.27700
C  14.64000 1.56000 26.79100
C  14.91500 1.53000 28.16500
C  15.89800 0.53300 28.40600
C  13.54200 2.28300 25.94800
C  14.56000 2.10200 29.46000
O  13.76400 3.02300 29.76700
C  15.36300 1.30800 30.52500
C  16.05200 2.27900 31.43700
O  17.04100 2.90300 31.15400
O  15.37000 2.39000 32.56600
C  15.83200 3.49200 33.47600
H  19.65000 -4.19300 30.42300
H  19.48100 -4.01500 23.95300
H  15.24000 0.83600 24.25700
H  17.68000 -0.01400 32.05800
H  18.24500 -2.94100 32.22300
H  20.53200 -2.41800 32.83200
H  19.99300 -0.65200 32.63600
H  20.66300 -1.73100 31.34500
H  16.11100 -2.58400 32.82200
H  15.19900 -1.39300 31.85800
H  15.55400 -1.63400 34.58700
H  15.02200 -0.18900 33.68600
H  22.07900 -6.21300 28.66100
H  20.70800 -7.26500 28.78000
H  20.80400 -5.92200 29.82900
H  22.48600 -7.24700 26.25300
H  21.40200 -8.03200 25.10500
H  20.76700 -7.91200 26.55300
H  17.71600 -2.81600 22.37500
H  17.39600 0.12300 22.83600
H  20.21500 -2.01200 22.80500
H  19.40900 -0.43900 22.49200
H  19.45200 -1.67300 21.22500
H  16.03800 -1.71300 21.34600
H  15.59600 -0.01900 21.72200
H  13.77200 -0.55900 22.90700
H  14.49400 -1.96200 23.57200
H  13.96500 -2.19000 21.94500
H  13.22500 1.57500 25.18300
H  13.99900 3.15200 25.47500
H  12.74500 2.65400 26.59300
H  14.64000 0.70500 31.07400
H  16.11400 4.41700 32.97400
H  16.65600 3.17000 34.11200
H  14.94900 3.60900 34.10500
Mg 9.61400 47.65400 26.20800
C  7.58200 47.66800 29.12700
C  12.18800 48.44200 28.18600
C  11.24300 48.27100 23.47100
C  6.53600 47.51700 24.32500
N  9.80300 47.83800 28.42800
C  8.89900 47.81300 29.44700
C  9.52300 48.20200 30.85300
C  10.93000 48.71700 30.40300
C  10.99200 48.31900 28.93100
C  11.24900 50.22300 30.66200
C  9.70100 47.00600 31.85300
C  9.52600 47.29100 33.37400
H  9.71500 46.15700 34.33800
N  11.48700 47.88700 25.86800
C  12.40800 48.28200 26.82500
C  13.68800 48.39700 26.22500
C  13.49000 48.18300 24.83000
C  12.03600 48.16700 24.63200
C  14.99000 48.60500 26.93500
C  14.46200 48.07300 23.71200
O  14.22300 47.90800 22.56200
C  15.93900 48.10800 24.13000
N  8.97400 47.91100 24.18000
C  9.85800 48.11200 23.19000
C  9.22800 48.09400 21.75100
C  7.73700 47.72800 22.02800
C  7.71600 47.69700 23.59500
C  9.47600 49.41900 21.04200
C  7.42800 46.32700 21.34300
C  6.04600 46.24000 20.65700
N  7.44900 47.63300 26.59200
C  6.39100 47.53300 25.75100
C  5.14700 47.36100 26.49000
C  5.59900 47.37000 27.79100
C  6.98800 47.60300 27.82300
C  3.76600 47.46900 25.97300
C  5.05100 47.34000 29.11300
O  3.93000 47.15400 29.52800
C  6.36000 47.66800 30.04600
C  6.42300 46.81900 31.25800
O  6.67600 45.62800 31.30400
O  6.06600 47.59000 32.33300
C  5.89500 46.79500 33.59700
H  12.99600 48.91900 28.74500
H  11.75700 48.29400 22.50700
H  5.64800 47.31200 23.72300
H  8.89500 49.01600 31.21400
H  11.76200 48.19000 30.86900
H  10.44500 50.75900 31.16700
H  11.36500 50.75200 29.71600
H  12.15900 50.25400 31.26100
H  10.75200 46.71800 31.87900
H  9.20100 46.08900 31.54200
H  8.55600 47.78700 33.42000
H  10.27200 48.03200 33.66000
H  15.54900 47.67000 26.88900
H  14.93200 48.78900 28.00700
H  15.54700 49.38100 26.41000
H  16.19500 47.41700 24.93300
H  16.09000 49.11800 24.51300
H  16.52200 48.04300 23.21100
H  9.71500 47.28600 21.20500
H  6.98600 48.45200 21.71300
H  10.12400 49.35700 20.16800
H  9.89400 50.19600 21.68200
H  8.48700 49.73900 20.71200
H  7.44700 45.55200 22.10900
H  8.18800 45.96300 20.65200
H  5.35700 45.88000 21.42100
H  6.12600 45.60100 19.77700
H  5.79000 47.28100 20.46300
H  3.78600 47.67100 24.90200
H  3.28700 48.32900 26.44100
H  3.25000 46.60000 26.38000
H  6.33100 48.70700 30.37600
H  6.84500 46.27800 33.73300
H  5.24600 45.97700 33.28600
H  5.49800 47.48100 34.34500

