158

Mg 29.71200 58.66300 40.59600
C  26.96900 56.62200 39.72900
C  31.79200 56.16700 39.30200
C  32.26500 60.83800 40.55200
C  27.45200 61.39400 41.01000
N  29.38200 56.49200 39.87900
C  28.19300 55.94700 39.53600
C  28.40300 54.65400 38.61800
C  29.93700 54.40500 38.72000
C  30.45300 55.72700 39.43200
C  30.36200 53.09900 39.42200
C  28.00300 54.82300 37.15100
C  27.16600 53.80200 36.37400
H  27.18100 53.74200 34.79400
N  31.79200 58.45900 40.11400
C  32.44000 57.37900 39.58500
C  33.90500 57.70300 39.45200
C  34.04300 58.99200 39.99200
C  32.66500 59.47900 40.28600
C  35.00000 56.73300 39.12600
C  35.37200 59.76300 40.12100
O  36.42700 59.23000 39.87900
C  35.43700 61.24400 40.51500
N  29.86100 60.80800 40.70700
C  31.05400 61.42200 40.71700
C  30.91000 62.95600 40.96600
C  29.35400 63.15200 41.18000
C  28.81800 61.67200 41.00200
C  31.72200 63.59700 42.07400
C  28.83200 64.29600 40.21800
C  27.56700 64.99900 40.81900
N  27.63800 58.90900 40.65300
C  26.89900 60.08200 40.72600
C  25.47700 59.74300 40.72300
C  25.47700 58.43600 40.19500
C  26.79300 57.96700 40.27600
C  24.34700 60.71300 41.02300
C  24.63900 57.37600 39.58300
O  23.44500 57.40600 39.29800
C  25.54000 56.13100 39.29300
C  25.01500 54.92700 39.99900
O  25.30100 54.61500 41.18300
O  24.16300 54.27200 39.07500
C  23.68600 52.90200 39.49900
H  32.42700 55.52900 38.68400
H  32.99200 61.64600 40.45000
H  26.80500 62.25500 41.18800
H  27.89300 53.89600 39.21200
H  30.48900 54.40300 37.78000
H  31.06200 53.43100 40.18800
H  30.90500 52.32800 38.87500
H  29.58200 52.65400 40.04000
H  28.89900 55.13700 36.61700
H  27.37900 55.71400 37.21600
H  26.13300 53.89500 36.71000
H  27.52400 52.82400 36.69700
H  35.32200 56.34700 40.09400
H  35.87100 57.19900 38.66700
H  34.71400 55.97300 38.39900
H  35.08300 61.37700 41.53700
H  34.87200 61.70300 39.70400
H  36.49600 61.50100 40.48600
H  31.12800 63.45700 40.02300
H  29.14900 63.46600 42.20400
H  32.53100 64.21800 41.69100
H  32.16100 62.79200 42.66300
H  31.19100 64.26200 42.75600
H  28.56400 63.84200 39.26400
H  29.58600 65.06000 40.03300
H  27.75400 66.05300 40.61400
H  27.44400 64.85400 41.89300
H  26.69900 64.57400 40.31600
H  24.21900 61.34100 40.14100
H  24.54200 61.32400 41.90500
H  23.38900 60.26800 41.29300
H  25.53800 55.92400 38.22300
H  22.60400 52.76500 39.49000
H  24.20700 52.60100 40.40700
H  24.02500 52.42200 38.58100
Mg 1.19100 41.97100 24.79800
C  3.32100 41.65600 27.60000
C  -1.47800 41.44500 26.85300
C  -0.59900 41.77300 22.08600
C  4.18800 42.31500 22.74800
N  0.98100 41.52000 26.91400
C  2.00000 41.56200 27.95500
C  1.46300 41.56100 29.33100
C  -0.05100 41.44700 29.04100
C  -0.25400 41.49300 27.48200
C  -0.90600 40.30500 29.72600
C  1.83700 42.85000 30.17900
C  2.12300 42.58200 31.69200
H  1.72400 41.15100 32.34500
N  -0.73900 41.66800 24.53000
C  -1.71800 41.47900 25.46300
C  -3.00500 41.26000 24.83300
C  -2.78400 41.25500 23.43600
C  -1.32300 41.63800 23.29500
C  -4.29600 40.93600 25.68400
C  -3.79800 40.93700 22.33100
O  -3.41600 41.09000 21.18200
C  -5.18600 40.63800 22.62300
N  1.71100 42.11900 22.70900
C  0.75200 42.05300 21.72200
C  1.28800 42.18400 20.32900
C  2.74300 42.64000 20.56300
C  2.89900 42.27500 22.09900
C  1.26500 40.90300 19.40200
C  2.97700 44.19900 20.37400
C  3.24500 44.60300 18.97100
N  3.35600 41.95100 25.00900
C  4.41300 42.10900 24.09000
C  5.65800 42.03000 24.84500
C  5.30700 41.81300 26.18300
C  3.88100 41.76700 26.26600
C  7.05500 41.96700 24.27200
C  5.81400 41.71800 27.54700
O  6.91000 41.72100 28.03000
C  4.46500 41.65300 28.43600
C  4.63000 40.49300 29.45500
O  4.12000 39.40900 29.37100
O  5.30000 41.04900 30.52300
C  5.38700 40.38900 31.78200
H  -2.38300 41.38100 27.46000
H  -1.27300 41.86800 21.23200
H  5.11700 42.53300 22.21700
H  1.87100 40.64000 29.74700
H  -0.47000 42.42900 29.25800
H  -1.53100 40.75300 30.49800
H  -0.16500 39.71400 30.26300
H  -1.58300 39.80800 29.03100
H  0.98200 43.52500 30.21800
H  2.61500 43.41200 29.66200
H  1.51600 43.28600 32.26100
H  3.16600 42.77900 31.94000
H  -4.78500 40.01800 25.35800
H  -5.05200 41.71900 25.72400
H  -4.09600 40.74000 26.73800
H  -5.18100 39.77800 23.29300
H  -5.75700 40.54700 21.70000
H  -5.60900 41.46700 23.19100
H  0.83400 42.97000 19.72600
H  3.50400 42.01800 20.09400
H  2.18200 40.70000 18.84900
H  0.55000 41.14100 18.61400
H  1.00600 40.12500 20.12100
H  3.76000 44.58400 21.02800
H  2.01300 44.64800 20.61100
H  4.21200 45.10200 19.03600
H  2.61600 45.37800 18.53400
H  3.34300 43.78200 18.26100
H  7.18000 41.29200 23.42600
H  7.77000 41.79500 25.07600
H  7.07000 42.98800 23.89000
H  4.52300 42.58500 29.00000
H  4.95800 41.10000 32.48800
H  6.43800 40.16200 31.96000
H  5.00000 39.37000 31.80500

