158

Mg 53.77000 24.18300 44.65400
C  51.22000 26.38400 43.75900
C  51.97500 21.61900 43.36600
C  56.57200 22.26600 44.73800
C  55.59100 26.90400 45.77800
N  51.75100 23.98700 43.91900
C  50.97500 25.01500 43.46600
C  49.76600 24.37400 42.62300
C  49.77000 22.87700 43.06800
C  51.23300 22.78200 43.44800
C  48.83600 22.52800 44.18600
C  50.05700 24.63000 41.12000
C  51.43000 24.73800 40.56400
H  52.31600 23.45900 40.42300
N  54.19200 22.12400 44.20300
C  53.29200 21.28400 43.69400
C  53.92500 20.01100 43.38800
C  55.26500 20.10000 43.78100
C  55.38700 21.51900 44.33600
C  53.24400 18.83000 42.84500
C  56.32400 19.06100 43.76400
O  56.08400 18.00700 43.24500
C  57.66400 19.28300 44.45600
N  55.94800 24.59100 44.92800
C  56.78200 23.54700 45.13100
C  58.08300 24.04700 45.76600
C  57.74300 25.53300 46.00100
C  56.31800 25.74400 45.52600
C  58.62200 23.34400 47.06100
C  58.71600 26.54000 45.31300
C  58.55700 26.83700 43.77700
N  53.46900 26.17100 44.94200
C  54.25700 27.13500 45.47000
C  53.57300 28.46700 45.45700
C  52.38200 28.25200 44.76800
C  52.37400 26.80800 44.43800
C  54.19700 29.76700 45.83200
C  51.21400 28.89200 44.20900
O  50.76500 30.01000 44.29800
C  50.45400 27.70500 43.54100
C  50.30600 28.10600 42.09800
O  51.31600 28.40500 41.39300
O  49.01200 27.99600 41.68500
C  48.83200 28.50500 40.36800
H  51.54500 20.77300 42.82700
H  57.51900 21.72300 44.73900
H  56.26300 27.63500 46.23200
H  48.84900 24.95200 42.74100
H  49.64000 22.20800 42.21700
H  48.24200 23.39300 44.48000
H  49.42400 22.23100 45.05400
H  48.20000 21.69600 43.88200
H  49.31100 25.36000 40.80500
H  49.71700 23.77100 40.54200
H  51.94900 25.48700 41.16100
H  51.23700 25.28600 39.64200
H  53.82100 18.37600 42.04000
H  52.21300 19.01400 42.54200
H  53.20800 18.15100 43.69700
H  58.33100 19.87200 43.82600
H  58.12800 18.35300 44.78600
H  57.52500 19.73500 45.43800
H  58.81400 23.99900 44.95900
H  57.72700 25.75300 47.06800
H  59.61700 23.02500 46.75100
H  58.08000 22.41300 47.22600
H  58.79000 23.93700 47.96000
H  59.75900 26.26400 45.47200
H  58.61500 27.51800 45.78300
H  57.88300 26.07000 43.39700
H  59.52200 26.65800 43.30400
H  58.15200 27.84400 43.67500
H  53.87100 30.56800 45.16900
H  55.26200 29.60700 45.66400
H  54.05100 30.07400 46.86800
H  49.42700 27.68700 43.90500
H  49.64500 28.27900 39.67800
H  48.94700 29.58300 40.48000
H  47.81700 28.38900 39.98800
Mg 5.79000 53.64000 40.65400
C  4.90000 50.26900 40.64500
C  9.08700 52.46000 39.95200
C  6.69000 56.86000 39.79500
C  2.51800 54.52000 40.86500
N  6.81600 51.60500 40.39500
C  6.23700 50.35600 40.32800
C  7.19300 49.26100 39.80000
C  8.57500 49.97500 40.08800
C  8.15700 51.43600 40.18600
C  9.24300 49.57200 41.39400
C  6.93200 48.85200 38.33000
C  6.91400 49.94200 37.26700
H  5.89400 49.87500 36.19800
N  7.62400 54.55600 40.06400
C  8.86000 53.88100 39.92900
C  9.79200 54.88300 39.59800
C  9.17600 56.10800 39.48000
C  7.77800 55.93100 39.77700
C  11.31900 54.53900 39.51800
C  9.93100 57.36400 39.21900
O  11.07800 57.33500 38.79500
C  9.29900 58.77300 39.39200
N  4.77600 55.39900 40.28300
C  5.33600 56.62100 40.07600
C  4.29500 57.80800 40.16700
C  2.94600 57.00100 40.41500
C  3.41400 55.53200 40.50700
C  4.72600 58.79500 41.39200
C  1.87200 57.41300 39.26800
C  1.83200 56.58300 38.00900
N  4.04200 52.66900 41.11300
C  2.71700 53.07600 41.07300
C  1.80600 52.03300 41.41800
C  2.60100 50.87100 41.35600
C  3.96700 51.32100 41.07300
C  0.34900 52.26800 41.85500
C  2.64800 49.43400 41.44300
O  1.82000 48.68500 41.75900
C  4.08500 48.98600 40.95700
C  3.92200 48.11400 39.78400
O  3.54600 48.48400 38.66700
O  4.40700 46.83600 40.02100
C  4.29600 45.86500 38.93200
H  10.08800 52.07200 39.75400
H  7.00700 57.90200 39.88000
H  1.47700 54.76900 41.08200
H  7.12000 48.43300 40.50500
H  9.20200 49.77000 39.22100
H  8.90300 48.60000 41.75200
H  8.93200 50.27400 42.16800
H  10.30700 49.55000 41.16100
H  5.97000 48.35800 38.19300
H  7.69500 48.10700 38.10400
H  7.91200 49.91100 36.83000
H  6.79400 50.88500 37.80000
H  11.75500 53.74000 40.11700
H  11.98500 55.31300 39.90000
H  11.67900 54.34900 38.50700
H  9.99500 59.55500 39.08800
H  8.97000 59.04700 40.39400
H  8.50000 58.80700 38.65100
H  4.24700 58.41100 39.26000
H  2.44700 57.34000 41.32400
H  3.85200 58.92800 42.03000
H  5.10900 59.73500 40.99600
H  5.57700 58.47300 41.99300
H  1.93400 58.43900 38.90500
H  0.90000 57.21300 39.71900
H  2.56300 55.77700 37.94900
H  1.94100 57.13400 37.07600
H  0.90700 56.00800 38.06200
H  -0.14400 53.02200 41.24200
H  0.36700 52.76700 42.82300
H  -0.10800 51.27900 41.90000
H  4.58600 48.42500 41.74600
H  5.25400 45.34700 38.87000
H  3.87900 46.33000 38.03900
H  3.49100 45.19900 39.24200

