158

Mg 48.21800 24.84300 29.70600
C  49.32000 27.33200 31.96600
C  46.52800 23.23100 32.35300
C  47.70500 22.30800 27.64200
C  50.04100 26.52300 27.26800
N  48.16500 25.18000 31.92200
C  48.55700 26.33700 32.56500
C  48.14000 26.26600 34.03700
C  47.54500 24.83100 34.17000
C  47.34100 24.37200 32.75000
C  48.45200 23.81000 34.87200
C  47.15200 27.44200 34.44900
C  47.72800 28.36000 35.50600
H  46.87100 28.57300 36.73000
N  47.11800 23.05300 29.93600
C  46.50500 22.60700 31.05400
C  45.74600 21.40100 30.67300
C  46.09000 21.06300 29.32500
C  47.05800 22.15800 28.91100
C  44.99100 20.53000 31.70100
C  45.67500 19.90700 28.52900
O  46.14700 19.70200 27.43400
C  44.63800 19.10000 28.98300
N  48.96000 24.43000 27.79100
C  48.45000 23.32400 27.14300
C  48.82900 23.41700 25.63200
C  49.27300 24.93100 25.42700
C  49.43600 25.32400 26.88100
C  49.90400 22.34300 25.26800
C  48.20400 25.86600 24.88600
C  48.77700 27.04100 23.98000
N  49.31000 26.60400 29.53800
C  49.98000 27.11200 28.49900
C  50.71500 28.33400 28.86200
C  50.39700 28.50600 30.26600
C  49.54000 27.38900 30.57600
C  51.58300 29.12700 28.00500
C  50.72300 29.33900 31.44100
O  51.37500 30.36800 31.53100
C  50.04200 28.52500 32.63200
C  51.07100 28.22100 33.69500
O  51.89000 27.33700 33.63200
O  51.01700 29.10700 34.74100
C  51.99600 29.01300 35.82100
H  45.99200 22.74600 33.17100
H  47.40100 21.47700 27.00200
H  50.53200 27.07300 26.46200
H  49.05000 26.33300 34.63400
H  46.55400 24.79000 34.62200
H  48.65200 22.97600 34.19900
H  47.88200 23.26800 35.62700
H  49.40700 24.19500 35.23000
H  46.24300 26.91800 34.74300
H  46.93400 27.99200 33.53300
H  47.88900 29.35500 35.09100
H  48.75300 28.18000 35.83200
H  45.23600 20.74900 32.74000
H  45.31900 19.49100 31.73700
H  43.91400 20.52800 31.53100
H  43.80500 19.75500 29.23900
H  45.03800 18.60900 29.87000
H  44.30200 18.40000 28.21700
H  47.95800 23.23900 25.00000
H  50.21000 25.10600 24.89800
H  49.42300 21.36500 25.26500
H  50.59100 22.00500 26.04400
H  50.36900 22.41200 24.28500
H  47.73700 26.43000 25.69400
H  47.51600 25.25100 24.30500
H  49.58400 26.58900 23.40200
H  49.12500 27.83100 24.64600
H  47.96300 27.30900 23.30700
H  51.29000 28.97700 26.96600
H  52.62500 28.87700 28.20200
H  51.38700 30.14900 28.32900
H  49.39800 29.28700 33.07000
H  52.01000 29.98300 36.31800
H  52.98800 28.76900 35.43900
H  51.58300 28.28800 36.52200
Mg 36.62400 49.67700 25.43400
C  36.80300 47.68300 28.40800
C  35.06800 52.07000 27.29600
C  36.12000 51.29700 22.59100
C  38.24200 47.12800 23.71000
N  36.00200 49.85500 27.61400
C  36.23900 48.96200 28.62100
C  35.95100 49.61100 29.98800
C  35.17900 50.90800 29.64200
C  35.46300 50.98600 28.12300
C  33.66600 50.89100 30.01000
C  37.22100 49.88500 30.85500
C  37.10100 49.84200 32.43100
H  35.68600 49.88400 33.08900
N  35.80100 51.45600 24.96200
C  35.22300 52.27100 25.89600
C  34.76300 53.46400 25.17000
C  34.96200 53.29900 23.73300
C  35.64700 51.98600 23.69900
C  34.22700 54.68600 25.88000
C  34.64400 54.21900 22.60500
O  34.85400 53.96400 21.43800
C  33.97600 55.54100 22.78100
N  37.08600 49.23300 23.42400
C  36.75600 50.05100 22.38600
C  37.16300 49.42100 20.98300
C  38.12000 48.25200 21.43800
C  37.85400 48.18600 22.93400
C  36.00500 49.03900 20.03900
C  39.52800 48.40600 20.91300
C  40.54100 48.92400 21.86400
N  37.30800 47.78800 25.86500
C  37.93600 46.93500 25.11900
C  38.24900 45.69300 25.86900
C  37.86000 46.01600 27.12400
C  37.24800 47.25700 27.11600
C  38.77600 44.43000 25.22800
C  37.77300 45.48600 28.42400
O  38.25700 44.41800 28.86400
C  37.19900 46.58100 29.29800
C  36.22700 45.96400 30.23500
O  35.05600 45.79800 30.06100
O  36.86400 45.55500 31.40200
C  36.01800 44.98900 32.45300
H  34.45900 52.78300 27.85700
H  35.97500 51.84300 21.65600
H  38.76700 46.34500 23.15900
H  35.32300 48.89000 30.51200
H  35.59500 51.78300 30.14200
H  33.14100 50.97100 29.05800
H  33.35000 51.76000 30.58800
H  33.34400 49.93800 30.43000
H  37.59100 50.88200 30.61500
H  38.02600 49.17900 30.65400
H  37.74400 50.61800 32.84700
H  37.69800 49.00000 32.78200
H  33.34500 55.07000 25.36800
H  34.97900 55.44600 26.09400
H  33.75200 54.37500 26.81000
H  33.74600 55.92800 21.78900
H  34.55200 56.28600 23.33000
H  32.98300 55.32900 23.17800
H  37.70500 50.23900 20.50900
H  37.65100 47.36200 21.01700
H  35.40900 48.26800 20.52700
H  36.43500 48.55800 19.16100
H  35.31700 49.83800 19.76600
H  39.58100 49.00500 20.00400
H  39.88100 47.40100 20.68200
H  40.15100 49.74300 22.46700
H  41.41300 49.32800 21.34900
H  40.80000 48.06600 22.48400
H  38.17700 44.17300 24.35400
H  38.58400 43.68200 25.99700
H  39.82700 44.63700 25.02100
H  38.03900 46.91000 29.91000
H  35.47200 44.08000 32.20000
H  35.21400 45.68100 32.70300
H  36.61200 44.85000 33.35700

