158

Mg 48.98800 34.94600 26.70400
C  47.01400 33.50100 29.23000
C  49.16400 37.88700 28.53900
C  50.18900 36.57400 23.96200
C  47.73700 32.27300 24.55500
N  48.08100 35.64500 28.67300
C  47.51100 34.80200 29.56800
C  47.69900 35.41800 30.98700
C  47.86800 36.88700 30.59300
C  48.40400 36.81300 29.18800
C  46.62000 37.75800 30.84000
C  48.95300 34.76200 31.69700
C  48.81200 34.21500 33.14900
H  47.82500 34.87700 34.19500
N  49.78300 36.84000 26.40500
C  49.79100 37.90300 27.30400
C  50.47700 38.98900 26.68700
C  50.85200 38.63600 25.36100
C  50.33900 37.30100 25.16000
C  50.59600 40.40600 27.29600
C  51.45400 39.48000 24.26400
O  51.63000 39.01100 23.21700
C  51.95200 40.85800 24.57200
N  48.74900 34.64200 24.57100
C  49.42000 35.43900 23.68300
C  49.18800 34.82800 22.26700
C  48.75400 33.39800 22.53200
C  48.34200 33.41000 23.96500
C  48.17500 35.75200 21.46300
C  49.92500 32.36200 22.38000
C  50.12800 31.94600 20.88200
N  47.76400 33.12300 26.85600
C  47.40500 32.13100 25.90900
C  46.63200 31.17900 26.57700
C  46.39500 31.62100 27.87600
C  47.04500 32.84700 27.97600
C  46.15400 29.93300 25.97600
C  45.79600 31.40700 29.16300
O  45.10800 30.51100 29.61200
C  46.12900 32.63100 30.07900
C  46.79800 31.99400 31.26500
O  47.87000 31.40800 31.33100
O  45.94600 32.02400 32.34100
C  46.17700 31.17500 33.51500
H  49.20200 38.71800 29.24700
H  50.78700 36.90700 23.11100
H  47.50100 31.43300 23.89800
H  46.79400 35.42100 31.59500
H  48.54100 37.38100 31.29400
H  47.03200 38.68500 31.23900
H  45.87300 37.23000 31.43200
H  46.17700 38.11200 29.90900
H  49.68000 35.56700 31.59100
H  49.18000 33.86700 31.11800
H  49.81000 34.30300 33.57900
H  48.50100 33.17400 33.22900
H  51.61000 40.80200 27.23400
H  50.23500 40.52100 28.31800
H  49.84700 40.97100 26.74100
H  52.83800 40.74200 25.19600
H  51.19800 41.57000 24.90900
H  52.41000 41.25900 23.66800
H  50.12800 34.92200 21.72300
H  48.00200 33.19600 21.77000
H  48.09000 36.70400 21.98800
H  47.20000 35.28800 21.31600
H  48.45100 35.84700 20.41300
H  49.66800 31.48400 22.97100
H  50.82600 32.82800 22.77900
H  49.38100 32.33600 20.19100
H  50.05000 30.85900 20.90300
H  51.17800 32.18900 20.71800
H  45.20300 29.53300 26.33000
H  46.87600 29.15100 26.21200
H  46.14700 30.07600 24.89600
H  45.17000 33.05600 30.37300
H  45.57200 31.44700 34.38000
H  47.22300 31.21200 33.81800
H  45.92300 30.15200 33.23900
Mg -11.06200 38.76200 41.36100
C  -9.19800 36.10000 40.07800
C  -8.93800 40.87400 39.65900
C  -13.28600 41.32000 41.72700
C  -13.46300 36.50700 42.36300
N  -9.23300 38.49900 39.98300
C  -8.66000 37.33700 39.64500
C  -7.40700 37.52600 38.84700
C  -7.20500 39.12100 38.91700
C  -8.50700 39.53300 39.58500
C  -5.92300 39.62700 39.52100
C  -7.42700 36.88400 37.37800
C  -6.19400 35.98600 37.05200
H  -5.42100 36.21600 35.69700
N  -11.16900 40.74200 40.75300
C  -10.12000 41.45000 40.15800
C  -10.44600 42.81100 40.09300
C  -11.75100 42.96400 40.58500
C  -12.10700 41.66200 41.05300
C  -9.54100 43.95100 39.56500
C  -12.50900 44.30100 40.53500
O  -12.03300 45.33700 40.07500
C  -13.95700 44.32500 40.88100
N  -13.22500 38.86600 41.84900
C  -13.71200 40.09200 42.16800
C  -15.03000 39.93100 42.87900
C  -15.03400 38.41300 43.28500
C  -13.83100 37.87100 42.46900
C  -15.11700 41.07800 43.98100
C  -16.38800 37.68000 42.92900
C  -17.49300 37.63200 43.95900
N  -11.30400 36.62700 41.34600
C  -12.35800 35.88800 41.83900
C  -11.96500 34.55600 41.71300
C  -10.74700 34.58400 40.99600
C  -10.41500 35.88000 40.79100
C  -12.68100 33.35400 42.33300
C  -9.69200 33.68900 40.43600
O  -9.58100 32.48900 40.49300
C  -8.61800 34.65200 39.70900
C  -7.28700 34.46800 40.36800
O  -6.37700 33.87400 39.83700
O  -7.15900 35.02500 41.59800
C  -5.90700 34.80400 42.27400
H  -8.13600 41.46700 39.21600
H  -13.97400 42.10100 42.05800
H  -14.28200 35.92900 42.79700
H  -6.63200 37.09300 39.47900
H  -7.13500 39.35600 37.85500
H  -6.26100 39.85300 40.53200
H  -5.55400 40.53300 39.04000
H  -5.11800 38.90200 39.63800
H  -7.37700 37.58100 36.54100
H  -8.28000 36.21200 37.28900
H  -6.47300 34.93400 36.99500
H  -5.47200 36.03000 37.86800
H  -9.82900 44.30700 38.57500
H  -8.50400 43.62100 39.51200
H  -9.61800 44.77300 40.27600
H  -13.98000 44.31000 41.97100
H  -14.54800 43.54500 40.40300
H  -14.38500 45.27000 40.54500
H  -15.70400 40.17400 42.05800
H  -14.88100 38.36300 44.36300
H  -14.08100 41.19700 44.29900
H  -15.69900 40.81500 44.86400
H  -15.47100 42.03500 43.59900
H  -16.27100 36.64800 42.59900
H  -16.78300 38.14400 42.02500
H  -17.62400 36.58500 44.23000
H  -18.35500 38.07500 43.46000
H  -17.25900 38.14900 44.89000
H  -12.47800 32.50700 41.67700
H  -13.75700 33.50700 42.41800
H  -12.37700 33.11100 43.35200
H  -8.58700 34.54500 38.62500
H  -5.00400 34.69300 41.67400
H  -6.08900 33.88300 42.82900
H  -5.78900 35.55400 43.05600

