158

Mg -9.65300 40.78300 41.46500
C  -8.62100 37.40400 40.96700
C  -6.80500 41.74900 39.83500
C  -10.73800 43.98300 41.62800
C  -12.55600 39.58600 42.74400
N  -7.95400 39.66700 40.49900
C  -7.76800 38.27300 40.40800
C  -6.42300 37.97700 39.72000
C  -5.70800 39.37800 39.72400
C  -6.88300 40.35400 40.01800
C  -4.54200 39.54300 40.65800
C  -6.74200 37.48800 38.26700
C  -5.92300 36.18500 37.84900
H  -4.95900 36.42000 36.75700
N  -8.96800 42.63200 40.67100
C  -7.64000 42.85100 40.21600
C  -7.34800 44.25000 40.10600
C  -8.58400 44.91700 40.57900
C  -9.51400 43.82500 40.96100
C  -5.98100 44.78800 39.70500
C  -8.68300 46.40200 40.57100
O  -7.77900 47.18200 40.24700
C  -9.94100 47.06200 41.12100
N  -11.50300 41.57600 41.92900
C  -11.67500 43.00200 42.03500
C  -13.09000 43.33000 42.53300
C  -13.71700 41.91900 42.65300
C  -12.52100 40.95300 42.48800
C  -13.12100 44.22900 43.75500
C  -14.95800 41.57500 41.70700
C  -16.19600 41.05400 42.37600
N  -10.41400 38.88200 41.91000
C  -11.62400 38.53400 42.45500
C  -11.68300 37.18900 42.76300
C  -10.49800 36.68300 42.20000
C  -9.80300 37.74200 41.65900
C  -12.82500 36.51500 43.43600
C  -9.69500 35.45400 42.06400
O  -9.82300 34.23900 42.45300
C  -8.50700 35.89800 41.09500
C  -7.20600 35.53400 41.76600
O  -6.92600 35.70300 42.92200
O  -6.45600 34.80400 40.83800
C  -5.26300 34.24100 41.47400
H  -5.83600 42.02500 39.41300
H  -11.03500 45.00600 41.87100
H  -13.56000 39.32000 43.08100
H  -5.73900 37.39400 40.33700
H  -5.37500 39.63400 38.71900
H  -3.68900 39.12300 40.12400
H  -4.72400 38.77200 41.40700
H  -4.39300 40.56000 41.02000
H  -6.59000 38.25300 37.50600
H  -7.75000 37.07500 38.25200
H  -6.63400 35.40300 37.58300
H  -5.33700 35.78600 38.67600
H  -5.54500 45.30200 40.56200
H  -6.14100 45.50000 38.89500
H  -5.38200 43.92900 39.40300
H  -9.99100 46.95500 42.20500
H  -10.90400 46.69900 40.76400
H  -9.83500 48.13600 40.96900
H  -13.50700 43.78000 41.63200
H  -14.01100 41.77700 43.69300
H  -13.60900 45.16400 43.47900
H  -12.12800 44.35500 44.18500
H  -13.74100 43.73100 44.50000
H  -14.73000 40.97600 40.82500
H  -15.31100 42.56400 41.41500
H  -15.85200 40.46400 43.22600
H  -16.81400 40.53500 41.64400
H  -16.85600 41.79100 42.83200
H  -12.47300 35.61200 43.93400
H  -13.54000 36.36400 42.62700
H  -13.28500 37.15500 44.18900
H  -8.61000 35.43700 40.11300
H  -4.70100 33.71800 40.70000
H  -5.41500 33.61000 42.35000
H  -4.62100 35.03000 41.86500
Mg -0.15200 43.43400 25.74500
C  2.09800 42.82800 28.37600
C  -2.75100 42.63100 28.01500
C  -2.25600 43.11400 23.18000
C  2.50300 43.64400 23.54200
N  -0.30600 42.78800 27.99600
C  0.76900 42.67400 28.88200
C  0.29500 42.67800 30.37900
C  -1.22000 42.40700 30.18200
C  -1.50500 42.58800 28.64600
C  -1.78100 41.05700 30.70300
C  0.68500 44.05900 31.01500
C  1.06000 44.06400 32.50400
H  0.75800 42.87800 33.35200
N  -2.14600 43.10800 25.65200
C  -3.01200 42.80300 26.67100
C  -4.38500 42.58400 26.10900
C  -4.26900 42.84500 24.73500
C  -2.84200 43.00400 24.49400
C  -5.62000 42.29200 26.86400
C  -5.36900 42.88800 23.68200
O  -5.09900 43.29500 22.52800
C  -6.83600 42.44500 23.88900
N  0.07700 43.80400 23.56800
C  -0.89000 43.35000 22.72200
C  -0.36000 43.31500 21.23100
C  1.16800 43.65600 21.43000
C  1.24200 43.66600 22.99600
C  -0.50900 41.90000 20.45900
C  1.53400 44.98700 20.72200
C  1.44500 46.28500 21.52100
N  1.92400 43.22400 25.81900
C  2.92500 43.39700 24.87600
C  4.19800 43.23800 25.46900
C  3.92500 43.05300 26.81000
C  2.48100 42.98700 26.97200
C  5.59100 43.28900 24.84100
C  4.56000 42.90400 28.05400
O  5.74800 42.82600 28.35300
C  3.41400 42.74800 29.14600
C  3.65600 41.53800 29.97800
O  3.49400 40.39300 29.65500
O  4.30900 41.94500 31.10400
C  4.81900 40.93300 31.96100
H  -3.55500 42.48000 28.73800
H  -2.94800 42.87700 22.37000
H  3.33600 43.66900 22.83500
H  0.85000 41.89800 30.89900
H  -1.85600 43.16000 30.64700
H  -1.09600 40.24400 30.46200
H  -2.79400 40.81900 30.37800
H  -1.87000 41.17200 31.78400
H  -0.15600 44.72000 30.80500
H  1.55300 44.45400 30.48700
H  0.47400 44.86100 32.96100
H  2.09500 44.38700 32.61200
H  -6.38800 43.06500 26.83500
H  -5.41200 42.19500 27.93000
H  -6.11400 41.40000 26.47900
H  -7.30000 43.28200 24.41000
H  -6.88700 41.47500 24.38300
H  -7.44100 42.33400 22.98900
H  -0.77900 44.09800 20.59900
H  1.86200 42.86800 21.13600
H  -0.86600 41.05300 21.04500
H  0.46500 41.67200 20.02700
H  -1.25500 42.12100 19.69500
H  1.09200 45.16300 19.74100
H  2.60100 44.84500 20.55100
H  0.58900 46.46800 22.17100
H  1.34900 47.02600 20.72700
H  2.37200 46.52500 22.04100
H  5.57400 42.79700 23.86800
H  6.43000 42.86800 25.39600
H  5.95900 44.29500 24.64000
H  3.45900 43.71300 29.65000
H  5.82400 41.29400 32.18000
H  4.79000 39.95700 31.47700
H  4.24700 40.80000 32.88000

