158

Mg 54.10700 25.80100 44.54700
C  51.51400 28.10000 43.77900
C  52.28700 23.30000 43.13500
C  56.90500 23.98900 44.67100
C  55.97700 28.66500 45.58900
N  52.23500 25.76900 43.55800
C  51.34200 26.82800 43.25400
C  50.21000 26.27100 42.35400
C  50.23900 24.76300 42.77500
C  51.68100 24.56400 43.18000
C  49.35300 24.32100 44.04300
C  50.50800 26.58100 40.81800
C  49.36700 27.07000 39.94100
H  49.06400 26.19200 38.80000
N  54.51900 23.82000 44.11200
C  53.55100 22.93500 43.55100
C  54.19800 21.62100 43.47100
C  55.61600 21.79500 43.84800
C  55.76500 23.24600 44.19200
C  53.43100 20.29800 43.15000
C  56.62000 20.61200 44.08200
O  56.32700 19.46800 43.69500
C  57.95400 20.91000 44.66200
N  56.18500 26.27800 44.84100
C  57.08800 25.31600 44.98700
C  58.33900 25.79200 45.59000
C  58.14500 27.34000 45.63500
C  56.68200 27.47600 45.42100
C  58.66200 25.04100 46.90800
C  58.97300 28.18600 44.59200
C  59.42400 29.55100 45.25600
N  53.79700 27.91400 44.80500
C  54.61300 28.94800 45.29900
C  53.87900 30.18600 45.40700
C  52.68200 29.95200 44.74400
C  52.66400 28.53100 44.43000
C  54.40100 31.48700 45.89500
C  51.47400 30.52800 44.30700
O  51.05000 31.68100 44.33700
C  50.67100 29.34500 43.73100
C  50.18700 29.77300 42.37900
O  50.92100 29.92200 41.41100
O  48.86400 29.75000 42.43400
C  48.23700 30.34000 41.22800
H  51.66300 22.53300 42.67100
H  57.81100 23.40800 44.85500
H  56.58400 29.47700 45.99500
H  49.19100 26.60200 42.55500
H  49.88500 24.10800 41.97800
H  48.45400 24.91000 44.22500
H  49.89100 23.99400 44.93300
H  48.89600 23.36400 43.79300
H  50.96400 25.65900 40.45900
H  51.23300 27.39500 40.81500
H  49.61700 28.08900 39.64400
H  48.46800 27.13100 40.55300
H  53.78600 20.06300 42.14600
H  52.34400 20.33500 43.08000
H  53.84800 19.62900 43.90300
H  58.51800 19.99300 44.83100
H  57.90500 21.37900 45.64600
H  58.51100 21.53000 43.96000
H  59.08800 25.54200 44.83800
H  58.36700 27.65700 46.65400
H  57.79600 24.85100 47.54200
H  59.43600 25.53300 47.49700
H  58.94000 24.01300 46.67800
H  58.40800 28.55700 43.73700
H  59.80800 27.52400 44.36000
H  60.51200 29.52200 45.20000
H  59.05600 29.58700 46.28100
H  59.13500 30.44200 44.69800
H  54.83000 32.11300 45.11300
H  55.17000 31.37400 46.66000
H  53.56300 32.01400 46.35000
H  49.82700 29.22800 44.41100
H  47.91800 29.53800 40.56300
H  48.95800 30.89300 40.62400
H  47.40800 31.02500 41.40500
Mg 27.03800 49.76600 26.63600
C  25.09100 50.66300 29.42400
C  29.66700 49.21600 28.81800
C  28.89300 49.04200 23.99300
C  24.37100 50.58400 24.57700
N  27.31400 50.00600 28.84700
C  26.33000 50.27200 29.82700
C  26.78300 49.97400 31.21600
C  28.33200 49.73000 30.95500
C  28.45500 49.57200 29.45900
C  29.35700 50.73600 31.55800
C  25.96500 48.80900 31.94300
C  25.40300 49.24400 33.31600
H  26.34700 49.98600 34.31400
N  29.02200 49.19600 26.48200
C  29.95000 49.03200 27.48600
C  31.25300 48.68100 26.93300
C  31.03000 48.58100 25.52500
C  29.58400 48.97800 25.26500
C  32.46300 48.23500 27.74800
C  32.05200 48.33100 24.37500
O  31.84200 48.58600 23.17600
C  33.35100 47.77200 24.81400
N  26.77600 49.74500 24.65000
C  27.63400 49.39800 23.69900
C  27.04100 49.27700 22.29400
C  25.56400 49.63600 22.53700
C  25.56600 50.08400 24.04600
C  27.64100 50.13500 21.18500
C  24.61600 48.43900 22.17700
C  23.28500 48.81100 21.39200
N  25.21600 50.59500 26.89200
C  24.24500 50.93100 25.90600
C  23.10500 51.50100 26.61900
C  23.41300 51.39600 27.98400
C  24.64200 50.80800 28.09100
C  21.87300 51.98200 25.93900
C  22.75000 51.51200 29.34700
O  21.64400 51.83600 29.64900
C  23.93200 51.14400 30.34300
C  24.34600 52.32900 31.07600
O  25.22000 53.20000 30.76000
O  23.71700 52.24000 32.26900
C  23.80900 53.39200 33.25600
H  30.47400 48.89500 29.47900
H  29.48400 48.82700 23.10000
H  23.56600 50.75100 23.85900
H  26.75300 50.92300 31.75100
H  28.53200 48.78700 31.46400
H  30.11100 51.11300 30.86700
H  29.97600 50.26100 32.31900
H  28.92500 51.57900 32.09900
H  26.54100 47.88900 32.04300
H  25.18300 48.54100 31.23300
H  25.03800 48.36300 33.84400
H  24.54000 49.87000 33.09300
H  32.70800 47.17400 27.80700
H  32.30000 48.45200 28.80400
H  33.31200 48.86100 27.47500
H  33.94700 48.54000 25.30700
H  33.78000 47.34900 23.90600
H  33.12100 46.90800 25.43800
H  27.11900 48.22000 22.03800
H  25.28400 50.60600 22.12700
H  28.34600 49.58000 20.56700
H  28.29900 50.77900 21.76700
H  26.97500 50.72200 20.55300
H  24.36500 47.85300 23.06200
H  25.15300 47.78900 21.48600
H  23.37300 49.84300 21.05300
H  22.37000 48.76000 21.98300
H  23.10700 48.23100 20.48700
H  21.75500 51.85400 24.86300
H  21.91600 53.05300 26.13600
H  20.93000 51.63900 26.36500
H  23.56400 50.34300 30.98300
H  24.56200 53.17700 34.01400
H  22.85500 53.43400 33.78200
H  23.99600 54.34000 32.75300

