158

Mg 2.05700 -1.50700 44.27000
C  5.47300 -0.93200 43.23800
C  1.08700 0.90600 42.13200
C  -1.13800 -2.68400 44.51500
C  3.07800 -4.03700 46.30900
N  3.17400 -0.28400 42.76900
C  4.51800 -0.14800 42.55300
C  4.84200 0.95700 41.51600
C  3.41200 1.60600 41.36900
C  2.47900 0.73200 42.24500
C  3.39200 3.12700 41.74000
C  5.41500 0.43600 40.16400
C  6.57100 1.13000 39.39800
H  6.29700 1.57700 37.89300
N  0.19500 -0.94900 43.46400
C  0.00100 0.13600 42.67600
C  -1.40900 0.29500 42.45400
C  -2.08000 -0.77700 43.10000
C  -1.03800 -1.48300 43.76200
C  -1.97400 1.49500 41.60800
C  -3.62600 -1.09500 43.09300
O  -4.35800 -0.31000 42.50200
C  -4.23700 -2.28900 43.70500
N  1.09500 -3.28700 45.12200
C  -0.21400 -3.52500 45.16200
C  -0.58600 -4.72600 46.10200
C  0.85600 -5.05200 46.67100
C  1.75300 -4.06800 46.00300
C  -1.66300 -4.37200 47.21400
C  1.25100 -6.52000 46.38800
C  2.18100 -7.16700 47.34000
N  3.91400 -2.25900 44.89600
C  4.13900 -3.27100 45.71200
C  5.55500 -3.47400 45.84900
C  6.08700 -2.57900 44.86900
C  5.04300 -1.87400 44.28900
C  6.29700 -4.50800 46.78000
C  7.35900 -2.01200 44.31700
O  8.52400 -2.21000 44.64100
C  6.90700 -0.99500 43.19600
C  7.59100 0.32900 43.44300
O  8.61700 0.53700 42.77100
O  7.21700 1.12500 44.52200
C  8.31600 1.87200 45.15600
H  0.86100 1.80400 41.55200
H  -2.06500 -3.23800 44.67000
H  3.27200 -4.83400 47.03000
H  5.44200 1.69300 42.05200
H  3.13900 1.56600 40.31500
H  2.57400 3.36700 42.41900
H  3.23100 3.80500 40.90200
H  4.19300 3.50700 42.37500
H  4.61100 0.33500 39.43400
H  5.74500 -0.57200 40.41400
H  7.44900 0.50200 39.24900
H  7.00000 1.90300 40.03500
H  -2.87800 1.25100 41.05100
H  -1.20400 1.74900 40.87900
H  -2.27200 2.27700 42.30700
H  -3.90200 -2.42400 44.73400
H  -4.05800 -3.07100 42.96700
H  -5.32700 -2.31400 43.71600
H  -1.02900 -5.47200 45.44200
H  0.85700 -4.98100 47.75900
H  -2.37600 -5.18500 47.34900
H  -2.24600 -3.52200 46.85800
H  -1.29000 -4.24800 48.23000
H  1.65900 -6.55400 45.37700
H  0.29600 -7.04500 46.41800
H  1.73500 -8.13500 47.56800
H  2.39700 -6.64200 48.27000
H  3.05400 -7.33800 46.71000
H  7.16100 -3.98400 47.18600
H  6.57800 -5.39500 46.21200
H  5.56200 -4.77700 47.53800
H  7.19900 -1.46000 42.25500
H  8.69200 2.61800 44.45600
H  9.14900 1.18100 45.29200
H  8.06100 2.34200 46.10600
Mg 43.00000 41.81700 26.51400
C  42.07300 44.21000 28.84200
C  44.16000 39.91800 28.95700
C  43.95700 39.66900 24.14300
C  42.95400 44.43700 24.13300
N  42.87100 41.99200 28.66300
C  42.46200 43.05800 29.43600
C  42.51500 42.67500 30.91600
C  43.47700 41.43900 30.85500
C  43.49700 41.10200 29.40500
C  44.91700 41.71300 31.47500
C  41.12000 42.35700 31.48300
C  40.59600 43.02200 32.76300
H  41.51400 43.03300 33.94500
N  43.85900 40.05100 26.56500
C  44.27800 39.38600 27.64800
C  44.66100 38.03000 27.36800
C  44.58400 37.93700 25.90300
C  44.07000 39.27200 25.47100
C  45.09700 36.94500 28.36200
C  44.80100 36.70500 24.96700
O  44.83700 36.68900 23.76300
C  44.88400 35.39100 25.61400
N  43.37900 42.02000 24.42700
C  43.80900 41.00700 23.68700
C  43.82700 41.40100 22.16700
C  43.35000 42.93200 22.21900
C  43.17800 43.16700 23.71200
C  45.22800 41.29500 21.52000
C  41.96100 43.21400 21.51500
C  40.67300 42.86700 22.32500
N  42.44100 43.90500 26.38600
C  42.49900 44.85300 25.40900
C  41.91200 46.11900 25.81200
C  41.69600 45.88300 27.19600
C  42.10300 44.55500 27.47200
C  41.66900 47.32000 25.02200
C  41.26200 46.50300 28.46100
O  40.93400 47.65800 28.63100
C  41.51600 45.37400 29.58800
C  42.29100 45.92500 30.68900
O  43.51700 46.08700 30.67100
O  41.50700 46.10300 31.77200
C  42.22900 46.39500 32.98400
H  44.60400 39.35500 29.78100
H  44.09800 38.96100 23.32400
H  42.90400 45.17400 23.32900
H  42.84100 43.41700 31.64400
H  43.14600 40.56600 31.41800
H  45.10700 40.92700 32.20600
H  44.92000 42.65500 32.02300
H  45.66300 41.58600 30.69000
H  41.06800 41.28700 31.68700
H  40.40700 42.54700 30.68100
H  39.65200 42.57000 33.06900
H  40.33400 44.05300 32.52500
H  46.17200 36.90000 28.18700
H  44.66600 35.95200 28.23300
H  44.87000 37.23200 29.38900
H  44.76800 34.66300 24.81100
H  43.97600 35.26400 26.20400
H  45.75500 35.37700 26.27000
H  43.12700 40.75100 21.64300
H  44.08500 43.60100 21.77000
H  46.03500 40.91100 22.14500
H  45.58700 42.25800 21.15800
H  45.17900 40.71100 20.60100
H  41.88700 42.57900 20.63200
H  41.98900 44.27100 21.25100
H  40.46100 41.80400 22.21200
H  39.90200 43.45700 21.82900
H  40.69700 42.97900 23.40900
H  42.02900 48.22800 25.50700
H  40.59500 47.35500 24.84000
H  42.15600 47.19500 24.05500
H  40.56400 45.06500 30.02100
H  42.92700 45.58300 33.18800
H  41.69000 46.40600 33.93100
H  42.65200 47.39900 32.96300

