158

Mg 8.71500 2.98900 27.77900
C  10.12100 1.59100 30.71200
C  6.91200 5.22800 29.90800
C  7.29400 4.44500 25.14400
C  10.18300 0.55600 25.83200
N  8.42000 3.27000 30.07500
C  9.13700 2.60500 31.08200
C  8.83300 3.14500 32.48300
C  7.90800 4.32400 32.16700
C  7.60600 4.27500 30.60400
C  6.62500 4.36500 33.06900
C  10.15300 3.63000 33.10300
C  10.07500 4.28500 34.47100
H  10.35600 3.41900 35.69500
N  7.30300 4.61700 27.51400
C  6.71300 5.34100 28.51900
C  5.91400 6.38900 27.90800
C  6.19600 6.38200 26.48600
C  6.95400 5.13800 26.28400
C  5.18900 7.52100 28.70700
C  5.85100 7.33300 25.38400
O  6.10600 7.12600 24.21100
C  5.21900 8.60800 25.74500
N  8.75100 2.59100 25.73700
C  8.02400 3.32100 24.83300
C  8.19200 2.74800 23.46800
C  9.33500 1.64600 23.63600
C  9.39500 1.52000 25.16000
C  6.89100 2.17200 22.72400
C  10.68900 1.91400 22.96800
C  11.48900 0.85200 22.31900
N  9.87100 1.35800 28.11500
C  10.40700 0.46100 27.25800
C  11.28000 -0.49400 27.92300
C  11.15600 -0.09200 29.29600
C  10.35700 1.06300 29.34900
C  12.00100 -1.66500 27.32200
C  11.56900 -0.45300 30.61200
O  12.20900 -1.42900 30.99600
C  10.94700 0.63400 31.61600
C  10.12200 0.10300 32.68900
O  9.02400 -0.41900 32.56900
O  10.89600 0.02000 33.87100
C  10.22200 -0.66000 34.99600
H  6.44400 6.06300 30.43400
H  6.88400 4.94100 24.26200
H  10.83800 -0.07300 25.22600
H  8.41200 2.36900 33.12300
H  8.47700 5.23900 32.32800
H  5.95600 5.01100 32.50000
H  6.76100 4.68700 34.10100
H  6.30000 3.32700 32.99200
H  10.68600 4.20700 32.34800
H  10.88000 2.82000 33.15800
H  9.00600 4.33400 34.67400
H  10.62500 5.22600 34.48200
H  5.79000 8.43000 28.67400
H  5.05400 7.32100 29.77000
H  4.32500 7.79100 28.10000
H  5.20700 9.25700 24.87000
H  5.64200 9.07700 26.63300
H  4.22500 8.31600 26.08400
H  8.66400 3.63100 23.03800
H  8.95200 0.72200 23.20100
H  6.86200 1.11600 22.45400
H  6.66700 2.70300 21.79900
H  6.00800 2.28100 23.35400
H  11.33600 2.21600 23.79100
H  10.62800 2.71700 22.23400
H  11.01200 -0.12800 22.35800
H  12.47500 0.80700 22.78100
H  11.71500 1.10400 21.28200
H  11.83300 -1.65000 26.24500
H  11.57700 -2.60700 27.67000
H  13.07400 -1.66900 27.51300
H  11.74100 1.24200 32.05100
H  10.04200 -1.69100 34.69100
H  9.22700 -0.29000 35.24000
H  10.81600 -0.59400 35.90700
Mg 25.46800 51.18600 27.06100
C  23.34200 52.23000 29.73500
C  27.79900 50.46500 29.44100
C  27.63600 50.90300 24.58000
C  23.11800 52.41700 24.82100
N  25.66900 51.57800 29.32400
C  24.62900 51.75900 30.18500
C  24.96200 51.44600 31.65900
C  26.53800 51.18600 31.54300
C  26.76100 51.15800 30.03900
C  27.46900 52.13700 32.36700
C  24.06400 50.30800 32.22200
C  23.49700 50.58400 33.64000
H  24.40600 51.27200 34.69800
N  27.32400 50.46700 26.96600
C  28.11300 50.25100 28.04700
C  29.39300 49.69500 27.59400
C  29.38500 49.76200 26.20400
C  28.05900 50.37600 25.84400
C  30.50500 49.20500 28.57700
C  30.60600 49.54500 25.23000
O  30.51700 49.72900 24.03500
C  31.89800 48.88100 25.68800
N  25.39700 51.76600 24.88300
C  26.49700 51.59200 24.14100
C  26.23000 52.13100 22.71000
C  24.63900 52.10300 22.72300
C  24.39200 52.05800 24.26200
C  26.87600 53.41600 22.29400
C  23.85100 51.00300 21.89900
C  22.78400 51.37000 20.94500
N  23.67300 52.25300 27.23400
C  22.80000 52.60900 26.21300
C  21.53400 53.01200 26.79800
C  21.74100 52.88700 28.17200
C  23.03000 52.40300 28.38900
C  20.37700 53.30600 26.01100
C  20.98200 52.89800 29.41500
O  19.85900 53.16500 29.57500
C  22.06300 52.54800 30.51500
C  22.25700 53.67800 31.42400
O  23.06200 54.61400 31.23000
O  21.50900 53.60200 32.57600
C  21.93900 54.64600 33.59700
H  28.47800 50.11500 30.22100
H  28.33400 50.64100 23.78300
H  22.36000 52.74100 24.10400
H  24.78700 52.30100 32.31100
H  26.73700 50.14700 31.80200
H  28.26600 52.51300 31.72600
H  27.96700 51.67200 33.21700
H  26.91100 53.05000 32.57600
H  24.63500 49.38300 32.13900
H  23.23300 50.02800 31.57500
H  23.18900 49.60100 33.99500
H  22.70600 51.33100 33.57100
H  30.97000 48.25600 28.30900
H  30.38800 49.32000 29.65500
H  31.26200 49.94900 28.33200
H  31.66000 47.92100 26.14500
H  32.33600 49.54600 26.43200
H  32.59700 48.71200 24.86900
H  26.54200 51.32100 22.05100
H  24.38800 53.11500 22.40600
H  27.47300 53.18900 21.41100
H  27.44800 53.72700 23.16800
H  26.19300 54.10400 21.79600
H  23.38900 50.31500 22.60700
H  24.50900 50.36500 21.30800
H  23.08200 50.95900 19.98000
H  22.82100 52.45100 20.80400
H  21.73900 51.18600 21.19100
H  19.58000 52.57400 26.14000
H  20.64100 53.20000 24.95900
H  20.10200 54.34400 26.19800
H  21.60500 51.68000 30.99000
H  21.93000 55.68300 33.26300
H  22.93000 54.38800 33.97200
H  21.29300 54.51300 34.46500

