158

Mg 24.52100 -5.48900 46.14700
C  26.58000 -2.96000 44.73300
C  22.19300 -4.48100 43.59900
C  23.02000 -8.22000 46.48400
C  27.36400 -6.59300 47.90800
N  24.45000 -3.76300 44.42000
C  25.34300 -2.80300 44.16200
C  24.85400 -1.96100 43.00900
C  23.25800 -2.14700 43.21200
C  23.31800 -3.53900 43.73000
C  22.47200 -1.23500 44.23500
C  25.50900 -2.44200 41.60900
C  26.12900 -1.33100 40.67000
H  25.57200 -1.36600 39.26800
N  22.76700 -6.18400 45.36700
C  21.92100 -5.63800 44.30400
C  20.78300 -6.44200 44.21200
C  20.96800 -7.56000 45.03800
C  22.31100 -7.37900 45.69600
C  19.55200 -6.11800 43.39500
C  19.96400 -8.78000 45.15800
O  18.88700 -8.88300 44.55000
C  20.12700 -9.90200 46.14400
N  25.10100 -7.12200 47.29300
C  24.28000 -8.22200 47.17500
C  25.02800 -9.49000 47.72400
C  26.22200 -8.83700 48.52800
C  26.24500 -7.44400 47.95600
C  24.25200 -10.64800 48.41400
C  27.64600 -9.58000 48.63400
C  28.38800 -9.54200 50.03300
N  26.50900 -4.85700 46.50300
C  27.50200 -5.36000 47.21500
C  28.71200 -4.51700 47.21500
C  28.37600 -3.57200 46.23200
C  27.05600 -3.87100 45.72500
C  29.96000 -4.79000 47.97700
C  28.89000 -2.47700 45.45300
O  29.93400 -1.88800 45.48700
C  27.80800 -2.06000 44.40900
C  27.62600 -0.57400 44.47500
O  27.29900 0.01700 45.47600
O  27.73600 0.01700 43.27100
C  27.67800 1.52000 43.24500
H  21.39800 -4.15500 42.92500
H  22.52300 -9.17800 46.65100
H  28.18700 -7.00000 48.49900
H  25.23700 -0.98300 43.29800
H  22.75000 -2.07200 42.25100
H  23.21200 -0.60300 44.72600
H  22.06800 -1.83300 45.05200
H  21.74700 -0.59000 43.74000
H  24.74000 -2.89600 40.98400
H  26.27200 -3.20400 41.76900
H  27.20600 -1.50200 40.64900
H  25.93200 -0.32500 41.04000
H  18.70900 -6.31700 44.05600
H  19.55400 -6.74400 42.50200
H  19.50500 -5.04400 43.21500
H  19.18200 -10.41500 46.31900
H  20.38700 -9.51300 47.12900
H  20.78500 -10.66900 45.73600
H  25.32800 -9.97600 46.79600
H  25.88900 -8.62400 49.54400
H  24.66200 -11.51100 47.88800
H  23.18800 -10.78200 48.21900
H  24.39700 -10.61800 49.49400
H  28.36700 -9.21100 47.90400
H  27.47600 -10.63800 48.43400
H  29.46400 -9.69600 49.94200
H  28.02500 -10.39600 50.60500
H  28.06100 -8.67300 50.60300
H  30.66100 -4.96100 47.16000
H  29.95100 -5.61700 48.68700
H  30.10300 -3.83100 48.47600
H  28.16400 -2.26300 43.39900
H  26.86400 1.90300 43.85900
H  27.48500 1.85400 42.22600
H  28.62800 1.90900 43.61200
Mg 35.78300 2.32400 31.01800
C  33.00400 3.32300 33.00800
C  37.70900 2.66700 33.83100
C  38.34700 1.72800 29.07000
C  33.58600 2.33700 28.17800
N  35.34100 2.87100 33.13900
C  34.18000 3.11600 33.78100
C  34.24500 3.30500 35.34200
C  35.77700 3.39300 35.48800
C  36.32900 2.99900 34.02100
C  36.28200 4.80900 35.80300
C  33.66900 2.13600 36.15200
C  33.02000 2.59300 37.48300
H  33.58200 3.74200 38.29400
N  37.76500 2.15900 31.37700
C  38.37000 2.29700 32.58500
C  39.79000 2.04900 32.41600
C  39.98200 1.70900 31.05500
C  38.69200 1.91100 30.41900
C  40.80200 2.22700 33.57400
C  41.24700 1.28300 30.33700
O  41.35900 1.13100 29.08900
C  42.52000 1.00800 31.18600
N  35.91400 2.20300 28.87900
C  37.13100 1.77900 28.37600
C  36.95800 1.26800 26.94800
C  35.42800 1.41400 26.65300
C  34.93000 1.95700 27.95000
C  37.80200 2.02100 25.90200
C  34.68800 0.07100 26.20100
C  33.59300 0.37200 25.05400
N  33.69400 2.70000 30.60800
C  32.95600 2.75100 29.44200
C  31.62700 3.25300 29.70500
C  31.60700 3.58300 31.13600
C  32.86700 3.22600 31.57600
C  30.43800 3.41800 28.81800
C  30.84400 4.18200 32.20700
O  29.70100 4.62200 32.21200
C  31.68900 3.95000 33.54400
C  31.97700 5.33600 34.03600
O  32.63800 6.14200 33.43800
O  31.20600 5.58600 35.15900
C  31.15500 6.99500 35.59400
H  38.30600 2.72500 34.74400
H  39.16800 1.35200 28.45500
H  32.80500 2.22700 27.42300
H  33.78500 4.26300 35.58300
H  36.30200 2.66300 36.10300
H  36.13200 5.46600 34.94700
H  37.33500 4.61200 36.00300
H  35.74400 5.26200 36.63600
H  34.42400 1.37400 36.34700
H  32.87900 1.64300 35.58500
H  32.91500 1.67900 38.06700
H  31.97100 2.80300 37.27100
H  40.98700 1.28300 34.08700
H  40.35700 2.89200 34.31400
H  41.72200 2.73200 33.28100
H  43.29300 0.70600 30.48000
H  42.30200 0.29900 31.98400
H  42.92500 1.98400 31.45400
H  37.13300 0.19200 26.96400
H  35.34200 2.21800 25.92200
H  37.30300 2.29200 24.97100
H  38.77800 1.60800 25.64700
H  38.11500 2.94100 26.39500
H  34.19800 -0.29600 27.10200
H  35.47200 -0.61100 25.87200
H  33.96400 0.12900 24.05800
H  33.33200 1.42800 25.12900
H  32.71600 -0.24200 25.25800
H  30.57100 3.16200 27.76700
H  30.07500 4.44400 28.76900
H  29.66700 2.77600 29.24300
H  31.03100 3.37000 34.19200
H  30.11800 7.32400 35.51600
H  31.69700 7.67900 34.94200
H  31.58800 7.01200 36.59400

