158

Mg 24.22500 -4.53100 45.85400
C  26.37400 -2.08600 44.33000
C  21.72800 -3.30800 43.93600
C  22.53200 -7.40900 46.36100
C  26.88200 -5.70900 47.64500
N  24.10500 -2.98300 44.31000
C  25.03500 -2.08300 43.91100
C  24.46800 -1.20300 42.75200
C  22.92300 -1.24800 43.13100
C  22.85100 -2.54700 43.85700
C  22.45000 0.05300 43.87300
C  24.75100 -1.66400 41.21500
C  25.79300 -0.81200 40.48900
H  25.74500 -0.94600 38.98400
N  22.30700 -5.29700 45.27900
C  21.47700 -4.63700 44.41000
C  20.30200 -5.43400 44.20300
C  20.49200 -6.70200 44.83900
C  21.82200 -6.57100 45.52100
C  19.07000 -5.00200 43.38900
C  19.57700 -7.90700 44.78800
O  18.43200 -7.73200 44.31700
C  19.88900 -9.19300 45.53100
N  24.65700 -6.25400 46.81300
C  23.78000 -7.31100 46.98500
C  24.31100 -8.42400 47.93500
C  25.62500 -7.70400 48.52500
C  25.72400 -6.42700 47.59900
C  23.40700 -8.95500 48.99300
C  26.82800 -8.62600 48.51300
C  27.56800 -8.85100 49.75500
N  26.26600 -3.97600 46.10400
C  27.22100 -4.58100 46.81800
C  28.42000 -3.74700 46.66200
C  28.21100 -2.87900 45.65700
C  26.83100 -2.99000 45.31900
C  29.60700 -3.91200 47.54200
C  28.68700 -1.80100 44.77100
O  29.80900 -1.31300 44.63100
C  27.58600 -1.24900 43.81600
C  27.26300 0.19900 44.15100
O  27.28600 0.74900 45.24900
O  27.06400 0.97900 42.98100
C  26.97300 2.46800 43.18500
H  20.82400 -2.93800 43.44900
H  22.02500 -8.34700 46.59700
H  27.44600 -5.88600 48.56300
H  24.91800 -0.22400 42.91900
H  22.23500 -1.36600 42.29400
H  23.27200 0.59800 44.33800
H  21.67100 -0.20200 44.59100
H  22.04600 0.68000 43.07900
H  23.92600 -1.86700 40.53300
H  25.38200 -2.55300 41.25000
H  26.79400 -1.14200 40.76600
H  25.88800 0.24900 40.72400
H  18.94500 -5.69600 42.55900
H  19.24200 -3.99300 43.01300
H  18.24200 -4.88000 44.08900
H  20.93500 -9.41200 45.31700
H  19.31700 -9.99200 45.05900
H  19.67800 -9.18900 46.60100
H  24.57400 -9.14700 47.16200
H  25.40300 -7.33000 49.52400
H  22.59000 -8.24800 49.13900
H  23.90600 -8.99700 49.96100
H  23.06500 -9.97000 48.78900
H  27.62800 -8.32000 47.83900
H  26.46400 -9.61500 48.23400
H  26.97300 -8.48100 50.59000
H  28.56000 -8.41000 49.85500
H  27.69400 -9.93100 49.83600
H  30.58200 -3.61900 47.15400
H  29.74300 -4.95300 47.83200
H  29.46500 -3.30900 48.44000
H  27.78500 -1.25100 42.74400
H  27.50500 2.89200 44.03600
H  25.91000 2.59600 43.39000
H  27.34100 2.95600 42.28200
Mg 47.91400 25.63600 27.98000
C  48.82200 27.51600 30.64200
C  47.39700 22.93700 30.20900
C  47.56000 23.43200 25.31000
C  49.18100 27.90000 25.76600
N  48.05000 25.29400 30.17200
C  48.27500 26.32600 31.06200
C  48.01000 25.90500 32.52500
C  47.60900 24.40000 32.44000
C  47.70700 24.15300 30.89000
C  48.43700 23.45000 33.36400
C  47.14700 26.94200 33.29500
C  46.27700 26.40100 34.48600
H  46.11600 27.32200 35.73400
N  47.43400 23.50900 27.80400
C  47.24700 22.64500 28.81600
C  47.03900 21.32500 28.24500
C  46.97100 21.40900 26.90100
C  47.36200 22.80300 26.61100
C  46.80200 20.17000 29.10400
C  46.58900 20.40400 25.86100
O  46.84100 20.58500 24.68400
C  45.94700 19.12500 26.34500
N  48.47900 25.59400 25.86700
C  48.02400 24.66500 24.92100
C  47.99200 25.10800 23.51400
C  48.56900 26.52800 23.64100
C  48.77900 26.69500 25.23000
C  48.67400 24.22500 22.48700
C  47.77400 27.65400 22.96900
C  47.39200 27.47900 21.45100
N  48.82100 27.33200 28.13200
C  49.22700 28.27800 27.13500
C  49.70800 29.43000 27.76600
C  49.54000 29.23800 29.08100
C  49.04800 27.90600 29.32800
C  50.24800 30.66700 27.03200
C  49.70600 29.86900 30.36700
O  50.20800 30.92800 30.71900
C  49.16500 28.78800 31.44800
C  50.24900 28.46800 32.46200
O  50.97800 27.47700 32.61600
O  50.15200 29.47900 33.42300
C  50.99900 29.39300 34.57300
H  47.19400 22.15600 30.94400
H  47.31100 22.81700 24.44200
H  49.46000 28.64000 25.01300
H  48.94500 26.09100 33.05400
H  46.56800 24.22400 32.71200
H  47.81900 22.97200 34.12500
H  49.17000 24.06200 33.89000
H  48.97500 22.64000 32.87100
H  46.53200 27.50100 32.59000
H  47.90000 27.55800 33.78700
H  46.83000 25.55600 34.89600
H  45.27700 26.30300 34.06300
H  46.84100 20.46700 30.15200
H  47.50300 19.36000 28.89800
H  45.81600 19.75200 28.90200
H  45.02400 19.29900 26.89900
H  46.65300 18.56900 26.96200
H  45.62300 18.60200 25.44600
H  46.91800 25.03700 23.34300
H  49.55800 26.66200 23.20400
H  48.84700 23.25200 22.94700
H  49.59400 24.70600 22.15400
H  48.04600 24.05900 21.61200
H  48.36500 28.56500 23.05600
H  46.89100 27.68800 23.60700
H  46.38100 27.08500 21.34100
H  48.11900 26.83200 20.95900
H  47.27100 28.43000 20.93200
H  49.96300 30.58200 25.98300
H  51.31100 30.79300 27.23600
H  49.69400 31.49200 27.47900
H  48.41900 29.36100 31.99800
H  50.50400 28.69700 35.25000
H  51.17700 30.37500 35.01200
H  51.84100 28.82600 34.17600

