158

Mg 26.98600 49.62500 25.71200
C  25.22200 50.87300 28.61700
C  29.52900 48.45900 27.91100
C  28.90400 48.99200 23.06800
C  24.73700 51.30500 23.70300
N  27.42100 49.87400 27.97700
C  26.44100 50.20600 28.95700
C  26.93600 49.81300 30.38400
C  28.47800 49.39000 30.15600
C  28.53200 49.23300 28.55800
C  29.51900 50.57200 30.54900
C  25.94800 48.83000 31.06400
C  25.48300 49.11000 32.52100
H  26.46900 49.51500 33.54700
N  28.78100 48.56900 25.53000
C  29.66300 48.15100 26.54700
C  30.85300 47.56700 25.91700
C  30.73200 47.83100 24.49400
C  29.44700 48.49800 24.31500
C  31.88200 46.78900 26.65300
C  31.69700 47.46200 23.40700
O  31.53500 47.77200 22.22700
C  32.96100 46.80500 23.67600
N  26.89000 50.20000 23.63700
C  27.76300 49.76000 22.75800
C  27.34700 50.03600 21.30400
C  25.91800 50.75100 21.59200
C  25.82100 50.72900 23.09200
C  28.29500 50.95300 20.56100
C  24.71600 50.10400 20.86800
C  24.23300 48.66200 21.18100
N  25.30000 50.83600 26.07500
C  24.50700 51.41600 25.10300
C  23.48400 52.09600 25.75400
C  23.65900 51.86800 27.08800
C  24.85100 51.18500 27.26400
C  22.26800 52.84000 25.17300
C  23.13400 52.08200 28.50200
O  22.07600 52.65100 28.77900
C  24.14300 51.38700 29.46700
C  24.49700 52.32500 30.57900
O  25.38200 53.10200 30.62800
O  23.67200 52.12100 31.61800
C  23.87200 53.07500 32.74700
H  30.23300 48.11600 28.67100
H  29.55200 48.80500 22.20900
H  24.06500 51.81900 23.01300
H  26.97900 50.74500 30.94700
H  28.80900 48.51500 30.71400
H  29.97400 51.02700 29.66800
H  30.34400 50.12900 31.10600
H  29.02200 51.35800 31.11800
H  26.27900 47.79100 31.03800
H  25.08800 48.90700 30.39800
H  25.10600 48.15100 32.87600
H  24.66700 49.82700 32.43400
H  32.11200 45.80200 26.25200
H  31.44800 46.64000 27.64200
H  32.82600 47.32700 26.74600
H  33.44500 47.38000 24.46500
H  33.55500 46.63800 22.77700
H  32.77100 45.86000 24.18600
H  27.19100 49.01800 20.94700
H  25.96600 51.82400 21.40600
H  28.50200 50.53400 19.57600
H  29.18900 51.20400 21.13300
H  27.92700 51.95100 20.32300
H  24.92800 50.04200 19.80100
H  23.95100 50.88100 20.85100
H  24.78100 47.92600 20.59300
H  23.21000 48.43400 20.88000
H  24.34300 48.39700 22.23300
H  22.56400 53.76500 24.68000
H  21.48900 52.99600 25.92000
H  21.74600 52.27700 24.39900
H  23.68900 50.52700 29.95900
H  24.58400 52.59300 33.41800
H  22.91700 53.07000 33.27200
H  24.27500 54.03500 32.42500
Mg -10.75600 38.78800 43.08300
C  -9.43500 35.70900 41.72400
C  -8.10400 40.38800 41.48300
C  -12.33600 41.62700 43.39000
C  -13.67900 36.92300 43.96200
N  -9.06300 38.06300 41.61700
C  -8.69900 36.82400 41.34000
C  -7.36000 36.81200 40.54800
C  -6.79100 38.23400 40.83500
C  -8.01600 38.95400 41.43500
C  -5.50400 38.24300 41.67200
C  -7.46200 36.43700 38.97400
C  -6.29100 35.72400 38.43900
H  -5.49300 36.38400 37.33300
N  -10.28800 40.80800 42.51500
C  -9.18500 41.20500 41.89800
C  -9.16600 42.66500 41.74600
C  -10.35700 43.13400 42.30700
C  -11.05300 41.89400 42.84800
C  -8.04200 43.39500 40.98400
C  -10.86400 44.58300 42.23500
O  -10.18500 45.41200 41.67400
C  -12.20200 45.07500 42.76000
N  -12.81300 39.17600 43.33500
C  -13.14700 40.43100 43.60700
C  -14.63400 40.55400 44.09400
C  -14.99200 39.02000 44.31000
C  -13.77900 38.31600 43.87000
C  -14.80400 41.52700 45.36400
C  -16.33200 38.53600 43.66500
C  -16.22900 37.90500 42.24500
N  -11.31300 36.75300 43.14400
C  -12.54900 36.17200 43.48700
C  -12.37800 34.72800 43.42300
C  -11.17100 34.48300 42.74400
C  -10.62900 35.74000 42.45300
C  -13.32200 33.61100 43.87500
C  -10.30700 33.48600 42.15400
O  -10.47500 32.25900 42.08100
C  -9.14200 34.27200 41.43500
C  -7.85200 33.84200 41.82300
O  -7.05100 33.19900 41.10100
O  -7.62100 34.11400 43.12900
C  -6.36700 33.56700 43.68600
H  -7.34100 40.95000 40.94000
H  -12.89200 42.49800 43.74300
H  -14.50800 36.35100 44.38200
H  -6.78400 36.04600 41.07000
H  -6.65500 38.89200 39.97700
H  -5.64600 38.53600 42.71200
H  -4.85600 39.01000 41.24800
H  -5.01200 37.27600 41.56600
H  -7.83000 37.24700 38.34400
H  -8.31100 35.75400 38.96100
H  -6.56200 34.76700 37.99400
H  -5.65600 35.53900 39.30500
H  -8.23200 44.45700 40.83400
H  -7.92500 42.82500 40.06200
H  -7.11100 43.24300 41.53100
H  -13.02400 44.44600 42.41800
H  -12.48500 46.11500 42.59400
H  -12.15700 44.91600 43.83700
H  -15.24900 40.88000 43.25600
H  -15.20700 38.92100 45.37500
H  -15.57000 41.08700 46.00400
H  -15.20200 42.45400 44.95100
H  -13.86800 41.64000 45.91000
H  -16.94400 39.43200 43.55700
H  -16.89200 37.75600 44.17900
H  -16.65600 36.90700 42.34600
H  -15.20800 37.71600 41.91600
H  -16.76800 38.60400 41.60500
H  -14.14500 33.58800 43.16100
H  -13.80400 33.92900 44.79900
H  -12.93300 32.59300 43.87700
H  -9.11800 34.11800 40.35600
H  -6.14800 33.68800 44.74700
H  -5.60600 34.07200 43.09000
H  -6.33700 32.48200 43.58800

