158

Mg 0.61300 7.63600 25.67700
C  1.32300 9.70600 28.62100
C  1.03300 5.03700 27.89800
C  0.20800 5.72700 23.12600
C  0.61000 10.57700 23.84100
N  1.17400 7.40500 28.04900
C  1.22400 8.39000 29.02600
C  1.49000 7.74300 30.37100
C  1.64600 6.21600 30.07100
C  1.16600 6.18300 28.61600
C  3.00100 5.57500 30.36800
C  0.39000 8.12400 31.30100
C  0.71600 7.98400 32.81200
H  1.76300 6.96700 33.33900
N  0.62900 5.63900 25.53600
C  0.79200 4.72900 26.53500
C  0.67200 3.38800 25.99500
C  0.41900 3.52900 24.55400
C  0.37500 5.00400 24.36600
C  0.71700 2.16200 26.77200
C  0.27700 2.52900 23.46400
O  -0.07900 2.85700 22.33300
C  0.46800 1.08400 23.72100
N  0.63600 8.14900 23.75400
C  0.36100 7.13400 22.80400
C  0.11300 7.79900 21.39800
C  -0.17300 9.29200 21.75600
C  0.40000 9.35000 23.21600
C  1.30600 7.46900 20.43100
C  -1.73600 9.59600 21.77700
C  -2.19100 10.93000 21.21900
N  0.98700 9.74800 26.09500
C  0.92000 10.81700 25.18300
C  1.38600 12.04100 25.87400
C  1.50100 11.70000 27.25000
C  1.28800 10.30100 27.31500
C  1.41200 13.48000 25.25200
C  1.70200 12.20600 28.55800
O  1.95200 13.34900 28.92300
C  1.63400 10.97700 29.49700
C  2.84800 10.81300 30.35300
O  3.87300 10.17300 30.08000
O  2.62400 11.43700 31.52000
C  3.67200 11.37400 32.54200
H  1.04800 4.15500 28.54100
H  0.04100 5.17700 22.19700
H  0.41300 11.40300 23.15500
H  2.42600 8.15600 30.74600
H  0.86100 5.70800 30.63200
H  3.40800 5.36200 29.37900
H  2.90000 4.64200 30.92300
H  3.46300 6.31300 31.02300
H  -0.48800 7.48300 31.22500
H  0.13600 9.15600 31.05800
H  -0.19300 7.71200 33.34900
H  1.04100 8.97900 33.11600
H  -0.00400 1.42400 26.42000
H  0.36900 2.40900 27.77500
H  1.71200 1.72300 26.85500
H  1.35600 0.92800 24.33300
H  0.48800 0.46400 22.82400
H  -0.37000 0.78700 24.35100
H  -0.78700 7.38000 20.94900
H  0.27600 9.92200 20.98900
H  1.95600 6.80500 21.00200
H  1.84800 8.38800 20.20600
H  0.87300 7.04300 19.52600
H  -1.96000 9.66600 22.84100
H  -2.38100 8.80900 21.38600
H  -1.31900 11.44400 20.81400
H  -2.72500 11.54000 21.94800
H  -2.87800 10.76200 20.38900
H  0.62700 14.13600 25.62900
H  1.22800 13.54200 24.18000
H  2.34200 13.98900 25.50300
H  0.82900 11.20200 30.19700
H  4.27500 12.27800 32.44800
H  4.33100 10.51800 32.39600
H  3.11400 11.41600 33.47700
Mg 43.51900 3.98400 47.64300
C  41.50100 6.82500 47.09900
C  40.71800 2.03900 47.35200
C  45.62400 1.39400 47.51200
C  46.41500 6.22000 47.76600
N  41.47500 4.41300 47.23500
C  40.78800 5.62000 47.30600
C  39.26900 5.42500 47.35700
C  39.14000 3.88700 47.59000
C  40.59300 3.40000 47.32400
C  38.51500 3.50100 48.97200
C  38.46700 5.98700 46.04200
C  38.83900 5.36800 44.63000
H  39.33500 6.24200 43.47400
N  43.24000 1.94300 47.53100
C  41.98700 1.31500 47.40500
C  42.23500 -0.11600 47.27500
C  43.62100 -0.27700 47.28400
C  44.24700 1.07800 47.51500
C  41.25200 -1.22100 47.27600
C  44.32100 -1.66300 47.14000
O  43.62300 -2.62300 46.85300
C  45.75400 -1.88100 47.31400
N  45.75900 3.85200 47.58900
C  46.29200 2.61800 47.62800
C  47.83200 2.71600 47.83300
C  48.08400 4.23600 47.94000
C  46.68400 4.81100 47.77000
C  48.30100 1.87800 49.01900
C  49.09800 4.81100 46.94400
C  50.53900 4.36000 47.05000
N  43.92800 6.15600 47.53800
C  45.12300 6.84800 47.54600
C  44.75900 8.27500 47.48500
C  43.33500 8.31300 47.30900
C  42.88500 6.97300 47.25600
C  45.80600 9.39500 47.63500
C  42.13500 9.11100 47.23000
O  41.91100 10.31100 47.20300
C  40.91200 8.20800 47.10700
C  39.95500 8.40400 48.29200
O  40.23600 8.14300 49.46500
O  38.77000 8.76300 47.84800
C  37.79200 8.95900 48.93300
H  39.76600 1.50500 47.31800
H  46.23800 0.53700 47.79700
H  47.35300 6.77600 47.70900
H  38.99900 5.93000 48.28400
H  38.54000 3.42700 46.80500
H  39.21400 2.97800 49.62500
H  37.65900 2.84200 48.82700
H  38.03600 4.36700 49.42700
H  38.65900 7.05100 45.90100
H  37.42000 5.81100 46.28900
H  38.03000 4.70400 44.32500
H  39.64200 4.63000 44.62700
H  41.41400 -2.05900 47.95400
H  41.17800 -1.61700 46.26300
H  40.28800 -0.71700 47.34700
H  45.97000 -1.46600 48.29800
H  46.36600 -1.35000 46.58500
H  45.82800 -2.96700 47.24500
H  48.33200 2.35800 46.93300
H  48.47900 4.43800 48.93500
H  48.58100 0.88300 48.67400
H  47.46700 1.82600 49.71900
H  49.20800 2.32900 49.42100
H  49.19400 5.89300 47.03300
H  48.82300 4.47300 45.94500
H  51.22000 5.21000 47.00900
H  50.70100 3.74600 46.16400
H  50.81800 3.75000 47.90900
H  45.30200 10.35300 47.50900
H  46.61600 9.32700 46.90900
H  46.34700 9.39600 48.58100
H  40.33000 8.43400 46.21300
H  36.91200 9.45000 48.51800
H  38.20500 9.61100 49.70300
H  37.50600 7.99200 49.34700

