158

Mg 8.20300 2.56100 28.32400
C  9.54900 1.05300 31.22400
C  6.31500 4.61100 30.37800
C  7.19500 4.03400 25.60900
C  9.76200 -0.04700 26.45300
N  7.89900 2.64800 30.52800
C  8.65200 2.13800 31.51300
C  8.36800 2.72400 32.87800
C  7.23400 3.72100 32.63800
C  7.11000 3.66200 31.06100
C  5.89800 3.39500 33.37200
C  9.63500 3.41400 33.50200
C  10.12600 3.01600 34.85500
H  9.09000 2.75800 36.03500
N  7.07100 4.21600 27.99400
C  6.29600 4.87200 29.00300
C  5.54600 5.95700 28.29200
C  5.79500 5.85000 26.94600
C  6.69700 4.67100 26.75200
C  4.61900 6.83500 29.02900
C  5.27700 6.72400 25.79000
O  5.69200 6.60100 24.60000
C  4.42000 7.86700 26.03200
N  8.43600 2.10100 26.37200
C  7.96000 2.86600 25.43500
C  8.22000 2.32400 23.96700
C  9.25000 1.14400 24.24200
C  9.15100 1.05200 25.79900
C  6.94300 1.87100 23.14700
C  10.75900 1.37900 23.82200
C  11.33400 2.64000 24.40900
N  9.33400 0.76300 28.72600
C  9.87500 -0.18900 27.87100
C  10.57300 -1.23600 28.62300
C  10.50300 -0.77300 29.92900
C  9.72000 0.44700 29.95200
C  11.28000 -2.47700 28.14100
C  10.92800 -1.01100 31.27200
O  11.58200 -1.95500 31.75300
C  10.32900 0.13100 32.21100
C  9.43600 -0.49800 33.17600
O  8.30600 -0.81900 32.94200
O  9.94500 -0.59900 34.41700
C  9.40800 -1.59200 35.36300
H  5.83200 5.28600 31.08700
H  6.84900 4.43800 24.65600
H  10.24600 -0.77700 25.80000
H  8.16000 1.92000 33.58400
H  7.43200 4.78600 32.75600
H  5.86400 2.42900 33.87500
H  5.10600 3.38200 32.62400
H  5.67200 4.21800 34.05100
H  9.36800 4.44800 33.72200
H  10.48900 3.33700 32.82900
H  10.83400 3.80100 35.12300
H  10.72100 2.11600 34.69900
H  4.84800 7.87100 28.77800
H  4.65300 6.75900 30.11600
H  3.56100 6.66700 28.83200
H  3.54200 7.37000 26.44300
H  4.10700 8.37000 25.11700
H  4.90400 8.66500 26.59500
H  8.63800 3.15000 23.39100
H  8.96300 0.20300 23.77200
H  6.92900 0.82900 22.82900
H  6.95800 2.55400 22.29700
H  6.09900 2.18600 23.76000
H  10.82800 1.53900 22.74600
H  11.38500 0.50500 24.00300
H  12.39400 2.61600 24.66300
H  11.01300 2.86800 25.42500
H  11.19700 3.46500 23.70900
H  11.76000 -2.34500 27.17100
H  10.57400 -3.30000 28.02500
H  12.15900 -2.66400 28.75800
H  11.16300 0.58100 32.75000
H  10.21100 -2.09200 35.90500
H  8.65200 -2.29600 35.01600
H  8.95400 -1.07000 36.20600
Mg -12.05000 38.90100 41.68200
C  -9.75900 36.50000 40.89900
C  -10.18000 41.20500 39.85200
C  -14.55900 41.19300 41.83700
C  -14.16500 36.46200 43.04300
N  -10.23300 38.83600 40.49100
C  -9.43400 37.76900 40.37000
C  -8.17900 38.04500 39.55000
C  -8.32200 39.55900 39.16100
C  -9.58100 39.91400 39.96300
C  -7.07400 40.50800 39.43600
C  -8.02300 37.15600 38.19700
C  -6.79300 36.23900 38.15300
H  -5.72400 36.49900 37.01900
N  -12.32300 40.96400 41.00500
C  -11.35900 41.69800 40.40400
C  -11.83700 43.03600 40.24500
C  -13.12900 43.10300 40.74100
C  -13.38900 41.76000 41.23700
C  -11.07000 44.07500 39.47500
C  -14.03000 44.36200 40.81600
O  -13.65200 45.35100 40.22300
C  -15.42600 44.37700 41.48500
N  -14.12200 38.74900 42.04500
C  -14.91200 39.83600 42.12300
C  -16.35000 39.48300 42.56100
C  -16.23300 37.95100 42.91100
C  -14.73400 37.69500 42.71200
C  -16.81200 40.31300 43.83100
C  -17.07900 36.93200 42.02800
C  -18.34400 37.52000 41.25100
N  -11.94500 36.86200 42.03100
C  -12.83500 36.03900 42.68200
C  -12.13600 34.76000 42.99600
C  -10.91000 34.89900 42.24200
C  -10.95500 36.17800 41.68500
C  -12.61800 33.58100 43.79700
C  -9.73000 34.23300 41.94600
O  -9.35900 33.10400 42.27400
C  -8.88600 35.24200 41.09300
C  -7.54100 35.39800 41.69400
O  -6.53800 34.67400 41.37500
O  -7.62300 36.46700 42.56500
C  -6.38100 36.92600 43.20200
H  -9.55400 41.79500 39.17900
H  -15.31100 41.95800 42.03800
H  -14.72500 35.71200 43.60600
H  -7.30800 37.96800 40.20100
H  -8.48600 39.68100 38.09100
H  -6.75000 41.04100 38.54200
H  -6.22500 39.93800 39.81500
H  -7.35600 41.29400 40.13600
H  -7.93100 37.76800 37.30100
H  -8.84400 36.45000 38.07000
H  -7.06600 35.18400 38.18100
H  -6.28600 36.35100 39.11100
H  -11.80000 44.67900 38.93500
H  -10.24600 43.78800 38.82200
H  -10.69900 44.77700 40.22200
H  -15.43700 43.87500 42.45300
H  -16.09100 43.92000 40.75200
H  -15.79300 45.38700 41.66600
H  -17.10800 39.71400 41.81300
H  -16.47700 37.64300 43.92800
H  -17.17000 39.61000 44.58400
H  -17.72700 40.80100 43.49500
H  -16.04400 40.92400 44.30300
H  -17.38700 36.15600 42.72900
H  -16.36700 36.44900 41.36000
H  -18.84300 38.35400 41.74400
H  -19.04000 36.69000 41.13000
H  -17.99200 37.76000 40.24800
H  -11.74600 33.13900 44.27800
H  -13.17000 32.92700 43.12200
H  -13.14600 34.08200 44.60800
H  -8.65000 34.75600 40.14600
H  -5.68000 36.11500 43.39800
H  -6.72500 37.47900 44.07600
H  -5.77900 37.55200 42.54200

