158

Mg 45.02300 5.90300 48.02400
C  42.75200 8.58500 47.17700
C  42.47000 3.66100 46.91900
C  47.17600 3.41100 48.13300
C  47.59900 8.18900 47.97000
N  42.83500 6.14400 47.21000
C  42.13800 7.33800 47.02400
C  40.63100 7.00700 46.69600
C  40.63000 5.41100 46.63300
C  42.03900 5.02100 46.89500
C  39.71200 4.75900 47.70500
C  40.00000 7.69000 45.49300
C  40.84800 8.16000 44.39100
H  40.38200 7.95700 42.96300
N  44.81400 3.81700 47.81200
C  43.78100 3.12500 47.30100
C  44.08500 1.75900 47.38400
C  45.41800 1.59000 47.88300
C  45.88300 2.96500 47.97600
C  43.11900 0.69900 46.90600
C  46.12700 0.23200 48.10500
O  45.57500 -0.82600 47.84600
C  47.59700 0.15800 48.64000
N  47.21600 5.75500 47.65500
C  47.80600 4.63000 48.03000
C  49.26400 4.82400 48.13900
C  49.39500 6.35800 48.36000
C  47.97700 6.82700 47.94400
C  50.02300 3.98900 49.17900
C  50.53600 7.13200 47.52000
C  51.45700 8.11300 48.26900
N  45.16700 7.90300 47.77000
C  46.29300 8.73300 47.83200
C  45.96100 10.13900 47.67100
C  44.55800 10.11100 47.55000
C  44.14000 8.75500 47.48800
C  46.97800 11.28600 47.71000
C  43.40000 10.99500 47.41800
O  43.38100 12.23300 47.34700
C  42.16600 10.03900 47.18700
C  41.12800 10.27500 48.30900
O  41.06800 9.59100 49.34700
O  40.17000 11.20000 47.93700
C  39.04400 11.24700 48.86700
H  41.62400 2.99200 46.74900
H  47.91300 2.64900 48.39600
H  48.42100 8.85500 48.23700
H  40.10600 7.41000 47.56200
H  40.43000 5.22800 45.57800
H  39.03400 5.45600 48.19700
H  40.34500 4.32200 48.47800
H  39.05500 4.04200 47.21300
H  39.53300 8.53400 46.00000
H  39.28800 7.02000 45.01100
H  41.88100 7.89700 44.61900
H  40.64500 9.22900 44.45700
H  42.16500 1.11200 46.57700
H  42.94400 0.06400 47.77400
H  43.56700 0.02500 46.17500
H  47.60400 -0.81200 49.13600
H  47.84300 0.93400 49.36500
H  48.29100 0.13100 47.80000
H  49.59200 4.48600 47.15600
H  49.58900 6.49800 49.42300
H  50.40300 3.15200 48.59300
H  49.27500 3.56500 49.84800
H  50.84200 4.52600 49.65700
H  50.04600 7.66100 46.70300
H  51.00900 6.32100 46.96600
H  52.46300 7.69700 48.20500
H  51.21900 7.99400 49.32600
H  51.47900 9.18400 48.06700
H  46.44200 12.22700 47.58700
H  47.56200 11.09400 46.81100
H  47.73900 11.26800 48.49000
H  41.69400 10.24600 46.22700
H  38.43100 12.14100 48.75400
H  39.36300 11.21600 49.90900
H  38.52700 10.33800 48.56100
Mg 16.62000 51.08800 26.75100
C  18.60500 49.60200 29.40100
C  14.43500 52.25700 29.13100
C  14.62900 52.07800 24.36300
C  18.88900 49.66000 24.44100
N  16.59100 51.07200 29.04900
C  17.44700 50.35200 29.88000
C  17.11700 50.68800 31.35200
C  15.71600 51.35500 31.23700
C  15.54000 51.60100 29.73100
C  14.51100 50.54500 31.76900
C  18.23200 51.52800 32.04600
C  18.32900 51.44900 33.60300
H  17.30500 50.67500 34.42400
N  14.75200 52.05600 26.78500
C  14.05700 52.54400 27.84800
C  12.89200 53.32900 27.36700
C  12.91400 53.27600 25.93700
C  14.09100 52.42600 25.63700
C  11.92500 54.04800 28.28900
C  12.01100 54.10200 24.94700
O  12.20600 54.08700 23.79300
C  10.97600 54.93200 25.49200
N  16.76400 50.90300 24.74200
C  15.78000 51.41800 23.97300
C  16.02300 51.12100 22.42800
C  17.50900 50.57300 22.51100
C  17.72600 50.29100 23.96000
C  14.89600 50.15900 21.98800
C  18.54200 51.68000 21.88600
C  19.40900 52.66400 22.83800
N  18.32600 49.83000 26.86500
C  19.15400 49.39500 25.78700
C  20.32200 48.65400 26.39300
C  20.10700 48.75500 27.80200
C  18.92100 49.46000 28.04000
C  21.36500 47.88200 25.61900
C  20.55800 48.21000 29.03400
O  21.45700 47.43800 29.33000
C  19.71100 48.95800 30.21800
C  19.22800 48.01000 31.21000
O  18.23500 47.32000 31.10800
O  20.05200 47.99700 32.35500
C  19.58700 47.01800 33.35500
H  13.70400 52.60100 29.86600
H  14.08900 52.34700 23.45300
H  19.56500 49.35900 23.63700
H  17.25500 49.67000 31.71700
H  15.76200 52.33100 31.72000
H  14.67500 49.50500 32.05000
H  13.70300 50.48900 31.04000
H  14.09900 51.16000 32.56900
H  17.88500 52.52700 31.78100
H  19.19100 51.23800 31.61700
H  18.45800 52.39900 34.12200
H  19.26500 50.91700 33.76800
H  11.88300 55.13300 28.20200
H  12.18300 53.89800 29.33800
H  10.90200 53.68000 28.21000
H  10.13600 54.37900 25.91200
H  10.53700 55.43800 24.63200
H  11.43300 55.66900 26.15300
H  16.00600 52.03500 21.83300
H  17.62000 49.68000 21.89600
H  14.05700 50.14900 22.68300
H  15.40000 49.19400 21.93300
H  14.48300 50.57900 21.07100
H  18.13600 52.35300 21.13000
H  19.27200 51.02900 21.40400
H  18.91700 52.90200 23.78100
H  19.63000 53.57500 22.28100
H  20.33300 52.09100 22.90900
H  22.07700 47.63200 26.40500
H  21.82500 48.53500 24.87600
H  20.95200 46.96300 25.20400
H  20.42400 49.57900 30.76100
H  19.75100 45.98900 33.03700
H  18.57600 47.09200 33.75700
H  20.11500 47.23000 34.28500

