158

Mg -0.17900 43.89700 26.47900
C  2.31700 43.42700 28.84200
C  -2.33700 42.72800 28.80700
C  -2.58800 43.85500 24.08800
C  2.25500 44.20200 24.07300
N  0.02900 42.97900 28.54300
C  1.01700 43.27100 29.36600
C  0.67100 43.03800 30.84800
C  -0.70900 42.42000 30.72400
C  -1.07100 42.73100 29.25600
C  -0.80700 40.85500 31.00700
C  0.69400 44.34900 31.60000
C  1.09300 44.19200 33.13700
H  0.72200 42.91600 33.75300
N  -2.12400 43.42700 26.49800
C  -2.86100 43.07200 27.56400
C  -4.28900 42.99800 27.15400
C  -4.45200 43.24800 25.78600
C  -3.01400 43.47200 25.39700
C  -5.33200 42.83200 28.25500
C  -5.70100 43.31100 24.92600
O  -5.62800 43.45000 23.70800
C  -7.15800 43.14800 25.52800
N  -0.11700 43.73600 24.29400
C  -1.27600 44.04000 23.63100
C  -0.93000 44.58400 22.24700
C  0.61700 44.83500 22.35300
C  0.93700 44.16700 23.66100
C  -1.29500 43.80400 21.00600
C  1.18400 46.29500 22.39300
C  0.47000 47.39700 21.56100
N  1.86200 44.00200 26.41700
C  2.70100 44.12300 25.35500
C  4.09900 44.08900 25.83200
C  3.96300 43.90900 27.22800
C  2.64600 43.74300 27.49000
C  5.34400 44.17900 24.94800
C  4.64700 43.75500 28.44300
O  5.83900 43.81500 28.71500
C  3.58900 43.61100 29.56400
C  3.97000 42.36600 30.34600
O  3.81500 41.21100 29.90200
O  4.38800 42.54000 31.61500
C  4.57500 41.37900 32.49100
H  -3.05900 42.50000 29.59400
H  -3.35700 43.95600 23.31900
H  3.03000 44.32300 23.31400
H  1.46100 42.39000 31.22800
H  -1.43100 42.86300 31.41000
H  -1.66700 40.72300 31.66400
H  0.13300 40.52500 31.44900
H  -1.01300 40.29800 30.09400
H  -0.25900 44.87800 31.59800
H  1.54600 44.96200 31.30400
H  0.61100 45.03100 33.63800
H  2.17400 44.28400 33.23800
H  -6.18600 43.47500 28.04200
H  -5.02200 43.19000 29.23700
H  -5.64300 41.79100 28.34600
H  -7.50900 44.15500 25.75500
H  -7.20800 42.44700 26.36100
H  -7.73100 42.76200 24.68500
H  -1.51300 45.50200 22.17800
H  1.25600 44.34800 21.61600
H  -1.99700 43.00900 21.26000
H  -0.37900 43.45900 20.52700
H  -1.67500 44.48200 20.24200
H  2.20800 46.45200 22.05600
H  1.12000 46.64100 23.42500
H  1.24000 47.86800 20.95000
H  0.24500 48.17200 22.29300
H  -0.35000 47.07800 20.91700
H  5.79500 43.18800 24.99500
H  6.12900 44.74600 25.45000
H  5.06500 44.49700 23.94300
H  3.54500 44.44700 30.26100
H  4.17200 41.47300 33.50000
H  5.63100 41.12900 32.58500
H  4.13300 40.43300 32.17700
Mg -4.32800 24.82100 25.99300
C  -2.93800 26.69300 28.52400
C  -5.60600 22.56400 28.30400
C  -5.27900 22.84900 23.53300
C  -2.87800 27.02500 23.68800
N  -4.21200 24.62200 28.06600
C  -3.67900 25.58400 28.94500
C  -4.17100 25.32500 30.38500
C  -4.70200 23.81900 30.27800
C  -4.88500 23.66500 28.77500
C  -3.69600 22.80400 30.94300
C  -5.25600 26.39500 30.83100
C  -5.04600 26.92500 32.24900
H  -4.38600 25.97000 33.30100
N  -5.32800 22.97900 25.96500
C  -5.80000 22.18800 26.99800
C  -6.38900 20.98700 26.45300
C  -6.47100 21.17400 25.03900
C  -5.68100 22.36100 24.76800
C  -6.90500 19.83400 27.35000
C  -7.16500 20.27900 24.01600
O  -7.16800 20.48900 22.79700
C  -7.97000 19.08300 24.57600
N  -4.14300 24.92300 23.99700
C  -4.64400 23.99800 23.18700
C  -4.68600 24.47500 21.72600
C  -4.00400 25.83800 21.77600
C  -3.60100 25.97400 23.20800
C  -4.10400 23.46100 20.70600
C  -4.89600 27.05500 21.26600
C  -4.29000 27.89000 20.14100
N  -3.21700 26.60500 26.05200
C  -2.63400 27.32100 25.03200
C  -1.81700 28.37200 25.55900
C  -1.90200 28.19700 26.98600
C  -2.74000 27.07000 27.19500
C  -1.00100 29.47700 24.88100
C  -1.47500 28.69700 28.28400
O  -0.73600 29.61500 28.56900
C  -2.18800 27.71200 29.28700
C  -1.04400 27.16300 30.17600
O  -0.20800 26.29400 29.93800
O  -1.03900 27.88500 31.26000
C  -0.10000 27.55400 32.31200
H  -5.89500 21.88200 29.10700
H  -5.56500 22.21400 22.69200
H  -2.47600 27.78200 23.01000
H  -3.34600 25.47400 31.08100
H  -5.69800 23.91200 30.71100
H  -4.28800 22.36100 31.74500
H  -2.93300 23.44600 31.38300
H  -3.16300 22.05400 30.35900
H  -6.27700 26.02800 30.93500
H  -5.23000 27.20000 30.09700
H  -6.01500 26.98000 32.74600
H  -4.44100 27.83100 32.25800
H  -7.98300 19.72300 27.22800
H  -6.73900 19.90200 28.42500
H  -6.40300 18.95200 26.95200
H  -7.20200 18.41000 24.95700
H  -8.45600 18.70200 23.67800
H  -8.78000 19.38900 25.23900
H  -5.76600 24.55900 21.60400
H  -3.09800 25.86900 21.17100
H  -3.92400 22.47700 21.13800
H  -3.16700 23.75000 20.22900
H  -4.89700 23.08800 20.05900
H  -5.28300 27.73800 22.02200
H  -5.75000 26.60100 20.76300
H  -3.37900 27.53100 19.66200
H  -3.95600 28.85700 20.51500
H  -5.04500 28.01400 19.36500
H  -0.08100 29.04700 24.48400
H  -0.82100 30.23000 25.64800
H  -1.58200 29.88200 24.05300
H  -2.90400 28.22600 29.92900
H  0.86000 28.03000 32.10700
H  0.12800 26.48900 32.26500
H  -0.39900 27.58400 33.35900

