158

Mg 47.48800 25.32500 28.21700
C  48.96300 27.22800 30.70900
C  46.14500 23.35400 30.62000
C  46.83700 23.00100 25.87000
C  48.86000 27.39800 25.85500
N  47.51400 25.37400 30.40700
C  48.21400 26.18600 31.17300
C  47.88500 25.89100 32.68400
C  47.08900 24.56400 32.64500
C  46.90500 24.44100 31.13500
C  47.92700 23.34200 33.12100
C  47.10600 27.04100 33.44200
C  47.58000 27.06800 34.91600
H  46.61300 27.54700 36.02400
N  46.62200 23.48100 28.26800
C  45.99100 22.85100 29.30300
C  45.39200 21.57400 28.85700
C  45.73200 21.49100 27.47500
C  46.44100 22.67500 27.11800
C  44.71400 20.58700 29.87400
C  45.45500 20.19400 26.58800
O  45.89400 20.19000 25.43800
C  44.56800 19.04800 27.03900
N  47.88200 25.17100 26.18700
C  47.50400 24.12800 25.36000
C  47.89400 24.32000 23.91800
C  48.26900 25.86100 23.92900
C  48.32400 26.15600 25.43900
C  49.04600 23.32400 23.47300
C  47.32900 26.71100 23.03000
C  47.84500 26.85100 21.57500
N  48.66000 27.13000 28.21900
C  49.07400 27.86900 27.18300
C  49.73800 29.03900 27.65400
C  49.87700 28.81000 29.08900
C  49.08700 27.61300 29.39800
C  50.28500 30.23300 26.93200
C  50.44300 29.26600 30.35700
O  51.07300 30.26300 30.61800
C  49.83000 28.31400 31.49500
C  50.96700 27.78400 32.22000
O  51.90100 27.22500 31.68700
O  50.87300 28.03200 33.56700
C  52.04400 27.66900 34.37100
H  45.73000 22.64300 31.33700
H  46.82300 22.27600 25.05300
H  49.18000 28.07700 25.06300
H  48.85200 25.79500 33.17700
H  46.15400 24.56700 33.20400
H  48.72400 23.65700 33.79400
H  48.43600 22.76200 32.35100
H  47.39700 22.51800 33.59800
H  46.08600 26.66200 33.37300
H  47.34000 27.98800 32.95600
H  48.49500 27.65400 35.00600
H  47.86600 26.03000 35.08200
H  43.84900 20.08400 29.44300
H  44.42600 21.08300 30.80100
H  45.38400 19.76700 30.13300
H  45.08200 18.48600 27.81800
H  44.38900 18.39800 26.18200
H  43.55800 19.40800 27.23900
H  47.09900 24.18800 23.18400
H  49.28700 25.93600 23.54600
H  49.07800 23.02800 22.42400
H  49.04200 22.46900 24.14900
H  50.03400 23.76100 23.62200
H  47.31300 27.70500 23.47700
H  46.35900 26.21500 23.01600
H  47.03700 26.63100 20.87700
H  48.72700 26.24600 21.36600
H  48.13900 27.88700 21.40500
H  51.22300 29.93300 26.46400
H  50.46900 30.99500 27.69000
H  49.51600 30.65000 26.28100
H  49.18000 29.04100 31.98100
H  52.70600 26.92600 33.92700
H  51.59700 27.24600 35.27000
H  52.63800 28.58100 34.43200
Mg -12.24200 38.54500 41.94900
C  -10.15100 35.87300 40.74400
C  -10.40600 40.76300 40.18100
C  -14.80400 40.88200 42.40100
C  -14.40900 36.05900 43.33300
N  -10.51500 38.32800 40.42500
C  -9.78200 37.20000 40.28200
C  -8.48500 37.54500 39.51600
C  -8.46200 39.06900 39.47100
C  -9.83400 39.47000 40.12800
C  -7.28100 39.71100 40.17900
C  -8.55200 36.86100 38.12500
C  -7.53400 35.72600 37.82600
H  -6.50100 36.04500 36.69400
N  -12.56900 40.60300 41.46200
C  -11.63400 41.29500 40.76200
C  -12.04100 42.63400 40.58700
C  -13.36000 42.71200 41.16300
C  -13.63300 41.38800 41.74300
C  -11.40000 43.64700 39.62000
C  -14.23500 43.91900 41.17600
O  -13.83600 44.95300 40.61700
C  -15.56600 44.10100 41.88400
N  -14.33000 38.42700 42.56600
C  -15.12700 39.57400 42.73800
C  -16.45800 39.16600 43.30000
C  -16.27100 37.73500 43.79200
C  -14.89400 37.33500 43.17000
C  -17.02300 40.09700 44.44600
C  -17.44600 36.70200 43.48400
C  -17.74200 35.71300 44.62200
N  -12.39400 36.38400 42.01200
C  -13.25600 35.53700 42.72500
C  -12.69100 34.22500 42.81300
C  -11.49800 34.27600 42.05800
C  -11.32900 35.61100 41.58000
C  -13.19400 33.12800 43.63700
C  -10.34700 33.56100 41.55900
O  -10.10100 32.33500 41.68100
C  -9.42600 34.53300 40.73100
C  -8.04500 34.54600 41.33200
O  -7.10100 33.96300 40.84900
O  -8.03500 35.29500 42.44000
C  -6.71600 35.80100 42.87600
H  -9.69200 41.50300 39.81300
H  -15.52000 41.67400 42.63100
H  -15.08400 35.39200 43.87400
H  -7.53900 37.19400 39.92900
H  -8.59900 39.52100 38.48900
H  -7.13400 39.12800 41.08900
H  -7.26800 40.78700 40.34800
H  -6.38600 39.63100 39.56300
H  -8.52500 37.74200 37.48300
H  -9.50100 36.34300 37.98500
H  -7.96900 34.73200 37.71800
H  -6.92800 35.59500 38.72200
H  -12.08900 43.84700 38.79900
H  -10.40000 43.30900 39.34800
H  -11.28300 44.59000 40.15500
H  -15.82800 45.15600 41.80800
H  -15.21700 43.92100 42.90100
H  -16.34900 43.42800 41.53600
H  -17.19500 39.19900 42.49800
H  -15.95200 37.77400 44.83400
H  -17.81400 40.65000 43.94000
H  -16.25700 40.75600 44.85400
H  -17.48900 39.48100 45.21500
H  -17.33700 36.19100 42.52700
H  -18.34400 37.29300 43.30800
H  -17.64400 34.72700 44.16800
H  -18.70800 35.84400 45.11200
H  -17.01500 35.82000 45.42700
H  -12.81800 32.16000 43.30500
H  -14.27400 33.09700 43.48900
H  -13.06800 33.31700 44.70300
H  -9.31900 34.23600 39.68700
H  -6.07100 36.11600 42.05600
H  -6.23700 34.97100 43.39600
H  -6.78400 36.73000 43.44200

