158

Mg 6.89500 54.43500 41.22200
C  5.80000 51.18500 41.27400
C  9.89000 53.40600 40.00400
C  7.63300 57.71300 40.52500
C  3.81400 55.54000 42.32500
N  7.67400 52.48700 40.61800
C  7.07200 51.29300 40.69700
C  8.02400 50.23100 40.12500
C  9.45400 50.89500 40.28200
C  8.96000 52.33900 40.23500
C  10.35000 50.63300 41.54200
C  7.67100 49.59300 38.69600
C  6.73300 50.36700 37.75300
H  7.42000 50.83700 36.40400
N  8.56800 55.45200 40.35900
C  9.74100 54.83400 40.07900
C  10.72400 55.83700 39.77600
C  10.08200 57.12600 39.80900
C  8.70500 56.80200 40.25600
C  12.17600 55.58400 39.40600
C  10.70000 58.41100 39.50300
O  11.93400 58.47300 39.43400
C  9.90000 59.71500 39.28600
N  5.82700 56.36800 41.39300
C  6.35600 57.52200 41.03100
C  5.37100 58.73300 41.33600
C  4.33000 58.05100 42.24700
C  4.65700 56.55400 42.06100
C  5.99300 59.98500 42.07600
C  2.90300 58.44400 41.70100
C  2.46800 59.92300 42.00900
N  5.10100 53.58300 41.62700
C  3.92200 54.14300 42.17800
C  2.95200 53.06700 42.51400
C  3.66500 51.92800 42.22700
C  4.98200 52.26900 41.65200
C  1.56000 53.22500 43.07400
C  3.66700 50.49900 42.23300
O  2.84900 49.61200 42.54800
C  4.99400 49.94100 41.68500
C  4.62600 49.01300 40.57100
O  4.08100 49.33400 39.54200
O  5.04400 47.71500 40.74900
C  4.65600 46.70500 39.68200
H  10.89400 53.17000 39.64800
H  7.91200 58.76800 40.56100
H  2.79000 55.75200 42.64000
H  7.86100 49.45000 40.86700
H  9.99700 50.69900 39.35700
H  9.75900 50.01600 42.21900
H  10.49900 51.56500 42.08700
H  11.34600 50.24100 41.33800
H  7.38500 48.57700 38.96600
H  8.58600 49.45500 38.11900
H  6.43500 51.23800 38.33600
H  5.83700 49.78100 37.54800
H  12.34200 55.80600 38.35200
H  12.40700 54.52200 39.49000
H  12.93500 56.09600 39.99600
H  9.07300 59.61700 38.58300
H  10.44400 60.52400 38.80000
H  9.55300 60.04800 40.26400
H  4.97700 59.04800 40.37000
H  4.45700 58.28800 43.30400
H  5.55600 60.22600 43.04500
H  5.87100 60.81100 41.37500
H  7.05200 59.87700 42.30700
H  2.21000 57.74200 42.16400
H  2.78700 58.32200 40.62400
H  1.48200 59.95200 42.47300
H  2.41200 60.60300 41.15900
H  3.15900 60.42000 42.68900
H  1.72400 53.89800 43.91600
H  1.25000 52.27600 43.51100
H  0.95000 53.70100 42.30600
H  5.40900 49.22800 42.39800
H  5.36900 45.91000 39.90300
H  5.02400 47.07600 38.72500
H  3.59000 46.48100 39.66300
Mg -9.92700 39.77300 39.75100
C  -8.61100 36.60400 38.98600
C  -6.91400 41.16100 38.94000
C  -11.44300 42.91600 39.61700
C  -13.01500 38.33900 39.90800
N  -8.00900 38.90700 39.04500
C  -7.67900 37.60100 38.86900
C  -6.20200 37.50200 38.49300
C  -5.61700 38.92200 38.70800
C  -6.92000 39.74800 38.84800
C  -4.56100 39.12400 39.84800
C  -6.02500 36.98400 37.02200
C  -6.69700 37.79700 35.79700
H  -7.45400 37.05500 34.71300
N  -9.19500 41.80700 39.38400
C  -7.94400 42.13600 39.06200
C  -7.86900 43.55700 38.87700
C  -9.11400 44.09500 39.14000
C  -10.01700 42.93500 39.39600
C  -6.65300 44.26000 38.23700
C  -9.45600 45.65400 38.99700
O  -8.63100 46.52100 38.72600
C  -10.90700 46.15700 39.24000
N  -11.89800 40.52800 39.85800
C  -12.31000 41.82500 39.85500
C  -13.85300 42.00900 40.01500
C  -14.31400 40.54200 39.99300
C  -12.99100 39.74600 39.90000
C  -14.34400 42.80100 41.23600
C  -15.28500 40.25800 38.76700
C  -16.34600 39.12100 38.93700
N  -10.70600 37.78700 39.78700
C  -12.02500 37.39500 39.72000
C  -12.04400 35.94700 39.70200
C  -10.74800 35.57900 39.38400
C  -9.98300 36.77300 39.41700
C  -13.32900 35.11500 39.82500
C  -9.88800 34.45200 39.05500
O  -10.13200 33.27400 38.92200
C  -8.47400 35.10200 38.85700
C  -7.42000 34.50500 39.82200
O  -7.55600 34.35400 41.01900
O  -6.42300 34.01500 39.04200
C  -5.42900 33.06700 39.70100
H  -5.88500 41.51700 38.85700
H  -12.09300 43.79300 39.63700
H  -14.00600 37.89000 39.99600
H  -5.77200 36.71300 39.11000
H  -5.13900 39.26000 37.78900
H  -4.71500 40.16000 40.14900
H  -3.54000 38.94600 39.51000
H  -4.80900 38.41900 40.64100
H  -6.35300 35.96700 36.80400
H  -4.95000 37.03100 36.84900
H  -5.86800 38.22300 35.23100
H  -7.31300 38.64900 36.08400
H  -6.69400 44.51000 37.17700
H  -5.72900 43.68500 38.28600
H  -6.54400 45.13900 38.87200
H  -11.33200 45.72400 40.14600
H  -11.53600 45.74000 38.45300
H  -11.09800 47.22600 39.14700
H  -14.11600 42.62800 39.15800
H  -14.82000 40.31500 40.93100
H  -14.87000 42.25100 42.01600
H  -14.96400 43.68200 41.07100
H  -13.46800 43.27100 41.68400
H  -14.69000 40.11400 37.86600
H  -15.86000 41.16600 38.58400
H  -17.32500 39.59900 38.91600
H  -16.21500 38.62400 39.89800
H  -16.32800 38.36500 38.15200
H  -14.05900 35.60700 39.18200
H  -13.68200 35.02300 40.85200
H  -13.25300 34.05400 39.58700
H  -8.14000 34.79100 37.86700
H  -5.80200 32.09800 39.36700
H  -5.30200 32.94700 40.77700
H  -4.52600 33.07000 39.09000

