158

Mg 35.79200 2.39500 30.64400
C  33.20400 3.17400 33.00600
C  38.00300 2.50900 33.34700
C  38.30900 2.08800 28.46800
C  33.47100 2.98700 28.07900
N  35.57100 2.82900 32.87200
C  34.39200 3.02200 33.61100
C  34.63200 3.12000 35.13600
C  36.16400 3.10200 35.27100
C  36.67900 2.84900 33.76600
C  36.68000 4.48100 35.81300
C  33.92300 2.01200 36.08900
C  33.47900 2.45500 37.50300
H  34.24700 3.50900 38.28400
N  37.83800 2.20900 30.83700
C  38.51200 2.31800 32.02100
C  39.85000 1.85200 31.72700
C  40.03400 1.73000 30.35400
C  38.72400 2.10600 29.82200
C  40.82600 1.46900 32.74700
C  41.25600 1.37800 29.52000
O  41.25600 1.10100 28.33500
C  42.55900 1.39900 30.19700
N  35.87200 2.62200 28.55500
C  36.99500 2.26000 27.88300
C  36.73700 2.25000 26.46200
C  35.16200 2.38000 26.33400
C  34.77700 2.68500 27.75800
C  37.45700 3.34700 25.62100
C  34.61300 0.98800 25.87200
C  34.90000 0.47800 24.42300
N  33.79200 2.90900 30.47900
C  32.97800 3.10700 29.38800
C  31.66000 3.33400 29.78400
C  31.69100 3.29100 31.16400
C  33.00800 3.14700 31.54800
C  30.43600 3.46400 28.87600
C  30.89100 3.52000 32.38900
O  29.68400 3.83100 32.45800
C  31.81200 3.36500 33.66200
C  31.69100 4.62700 34.53200
O  31.86800 5.75900 34.13900
O  31.06100 4.36100 35.74400
C  30.85500 5.51100 36.70900
H  38.70700 2.42700 34.17700
H  38.96700 1.73200 27.67300
H  32.79600 3.11000 27.22900
H  34.27700 4.13000 35.34200
H  36.54400 2.30800 35.91300
H  36.80500 5.12500 34.94200
H  37.57600 4.26000 36.39300
H  35.98400 4.97200 36.49400
H  34.61400 1.18300 36.24200
H  33.00700 1.67200 35.60600
H  33.39500 1.59000 38.16100
H  32.47900 2.86900 37.37400
H  41.10900 0.41800 32.68900
H  40.43000 1.62100 33.75100
H  41.70100 2.10500 32.61200
H  42.65400 0.57600 30.90500
H  42.54800 2.36500 30.70000
H  43.28600 1.40600 29.38400
H  37.12500 1.33200 26.02100
H  34.68200 3.09400 25.66600
H  38.20100 3.90100 26.19400
H  36.79800 4.08400 25.16200
H  37.98000 2.89300 24.78000
H  33.53200 1.00000 26.01000
H  35.03200 0.28200 26.58900
H  33.96200 0.48100 23.86800
H  35.25400 -0.55100 24.48100
H  35.72600 0.98800 23.92700
H  29.60000 2.96400 29.36400
H  30.54600 3.00000 27.89600
H  30.17600 4.50900 28.71100
H  31.54600 2.46700 34.22000
H  30.35000 6.37400 36.27500
H  31.79500 5.81100 37.17100
H  30.13900 5.15900 37.45200
Mg -10.53400 17.15700 41.19100
C  -7.12000 16.80800 41.07100
C  -10.04800 20.54500 40.47900
C  -13.80200 17.36800 40.36100
C  -10.80500 13.63400 41.09100
N  -8.84700 18.50400 40.92700
C  -7.48500 18.10200 40.84600
C  -6.56200 19.25300 40.54600
C  -7.52700 20.50100 40.77000
C  -8.87000 19.81200 40.68800
C  -7.48000 21.24000 42.16500
C  -6.03100 19.31000 39.08700
C  -4.50100 19.19900 38.99700
H  -3.85900 18.23000 37.95600
N  -11.78500 18.77500 40.65300
C  -11.43700 20.05300 40.53100
C  -12.59500 20.88200 40.37400
C  -13.67600 20.01600 40.04800
C  -13.13700 18.62900 40.37300
C  -12.51100 22.44900 40.27000
C  -15.15300 20.37600 39.64600
O  -15.53300 21.50700 39.66300
C  -16.14800 19.25800 39.39700
N  -12.01600 15.69100 40.56300
C  -13.32700 16.06400 40.53900
C  -14.20900 14.87500 40.70500
C  -13.20000 13.70200 40.35600
C  -11.92800 14.36200 40.75300
C  -14.83200 14.72900 42.08800
C  -13.21200 13.33400 38.90700
C  -14.19700 12.19000 38.43700
N  -9.22100 15.55800 41.23300
C  -9.48400 14.14800 41.24600
C  -8.23500 13.43500 41.45200
C  -7.26300 14.43100 41.28500
C  -7.93600 15.68100 41.27100
C  -8.19700 12.01100 41.57300
C  -5.84700 14.66600 41.24800
O  -4.92600 13.84300 41.27400
C  -5.66400 16.28800 41.23300
C  -4.97400 16.72100 42.52000
O  -3.94900 17.30200 42.50400
O  -5.71800 16.46300 43.62900
C  -5.25200 17.02500 44.89600
H  -9.86400 21.61500 40.36200
H  -14.89000 17.29400 40.30200
H  -10.97200 12.55600 41.04600
H  -5.77100 19.39200 41.28200
H  -7.42600 21.29400 40.02800
H  -6.73400 20.73000 42.77500
H  -8.45100 21.39700 42.63400
H  -7.07900 22.24200 42.01600
H  -6.28100 20.25500 38.60500
H  -6.47400 18.49000 38.52100
H  -4.03500 18.90700 39.93800
H  -4.20900 20.22500 38.77200
H  -13.51100 22.88400 40.29100
H  -12.06500 22.58800 39.28500
H  -11.87100 22.77700 41.08900
H  -15.68200 18.48500 38.78500
H  -17.01800 19.68100 38.89600
H  -16.39700 18.77000 40.33900
H  -15.01700 14.92500 39.97400
H  -13.31600 12.73300 40.84300
H  -14.56700 13.78500 42.56500
H  -15.92100 14.69300 42.09900
H  -14.37300 15.50800 42.69800
H  -12.20500 12.99200 38.66600
H  -13.46500 14.22300 38.33000
H  -14.92700 12.53600 37.70600
H  -14.86900 11.81000 39.20600
H  -13.60300 11.36400 38.04400
H  -8.38900 11.69900 40.54600
H  -9.04600 11.55100 42.07800
H  -7.26500 11.59900 41.95900
H  -5.06500 16.52100 40.35300
H  -4.21000 16.73000 45.02000
H  -5.86600 16.67400 45.72600
H  -5.29000 18.11200 44.95800

