158

Mg 24.49700 -5.53000 45.92300
C  26.83800 -3.32200 44.47100
C  22.04400 -4.13200 43.84700
C  22.53700 -8.10400 46.57900
C  27.14300 -6.89300 47.72300
N  24.45400 -3.93400 44.28700
C  25.53500 -3.15800 43.92500
C  25.11400 -2.21200 42.78900
C  23.58100 -2.25200 42.78900
C  23.34500 -3.48700 43.68000
C  22.86200 -0.93800 43.22400
C  25.72700 -2.62600 41.47600
C  26.44300 -1.62400 40.57100
H  26.22000 -1.86400 39.08000
N  22.45200 -5.99100 45.38900
C  21.68500 -5.29600 44.50800
C  20.39800 -5.90800 44.50000
C  20.50500 -7.19200 45.19400
C  21.86200 -7.10500 45.80400
C  19.32200 -5.31000 43.63800
C  19.44400 -8.29100 45.24500
O  18.42300 -8.23300 44.63000
C  19.69200 -9.60500 45.88300
N  24.89600 -7.33400 46.76700
C  23.82800 -8.14900 47.06400
C  24.27000 -9.22000 48.10100
C  25.65300 -8.74800 48.58000
C  25.91400 -7.56100 47.66000
C  23.16300 -9.66500 49.20800
C  26.89200 -9.79200 48.60700
C  27.76100 -9.76600 49.89300
N  26.54900 -5.19400 46.11900
C  27.49600 -5.84100 46.88300
C  28.77400 -5.19400 46.66600
C  28.60600 -4.23100 45.79200
C  27.22100 -4.26100 45.44900
C  30.01600 -5.68600 47.27000
C  29.26900 -3.19700 45.02800
O  30.37000 -2.67600 45.09600
C  28.12300 -2.60300 44.10100
C  28.02100 -1.13700 44.35600
O  28.00500 -0.57600 45.44500
O  27.92200 -0.49000 43.10500
C  27.46700 0.88000 43.17000
H  21.31700 -3.58700 43.24200
H  21.88700 -8.87800 46.99300
H  28.02300 -7.26200 48.25300
H  25.42000 -1.21200 43.09600
H  23.21000 -2.54200 41.80500
H  23.31400 -0.07100 42.74300
H  23.03100 -0.81100 44.29300
H  21.80500 -0.96600 42.96000
H  25.03800 -3.23600 40.89200
H  26.42000 -3.43900 41.69500
H  27.51400 -1.77200 40.71000
H  26.15200 -0.61500 40.86200
H  19.53700 -5.58400 42.60500
H  19.31300 -4.22600 43.75100
H  18.30400 -5.59700 43.90100
H  19.05700 -10.41000 45.51400
H  19.69700 -9.58200 46.97300
H  20.70300 -9.94800 45.66300
H  24.36200 -10.10800 47.47500
H  25.47000 -8.29100 49.55300
H  22.36200 -8.92600 49.23900
H  23.67700 -9.82500 50.15500
H  22.69900 -10.62100 48.96300
H  27.44800 -9.41800 47.74800
H  26.64300 -10.84000 48.44100
H  27.89700 -10.78300 50.26000
H  27.48700 -9.17400 50.76600
H  28.72400 -9.44600 49.49400
H  30.16100 -6.76500 47.22300
H  30.05000 -5.32100 48.29700
H  30.83300 -5.24700 46.69800
H  28.40400 -2.79300 43.06500
H  26.53300 0.84300 43.73000
H  27.29100 1.20400 42.14500
H  28.09100 1.67700 43.57400
Mg -10.01800 38.23300 40.93100
C  -7.88300 35.41800 40.64500
C  -7.46900 40.05700 39.43400
C  -12.07400 40.73200 40.65500
C  -12.54900 36.06700 42.03400
N  -7.96300 37.75300 40.10300
C  -7.31500 36.58300 40.10000
C  -5.90900 36.69100 39.44500
C  -5.78800 38.21800 39.17600
C  -7.19700 38.74800 39.58000
C  -4.59400 39.00300 39.85000
C  -5.89600 35.73500 38.19600
C  -4.73700 34.73900 38.14000
H  -3.76800 34.95800 36.92800
N  -9.74900 40.20700 40.28800
C  -8.60400 40.80800 39.70100
C  -8.91900 42.20700 39.49400
C  -10.27100 42.45700 39.81900
C  -10.78000 41.11600 40.29300
C  -7.87800 43.21600 38.93900
C  -11.03600 43.74500 39.69100
O  -10.42600 44.69600 39.28900
C  -12.50400 43.86200 40.07900
N  -11.96900 38.34500 41.24300
C  -12.64200 39.56000 41.04000
C  -14.12300 39.37700 41.28700
C  -14.28200 37.89900 41.68300
C  -12.87300 37.36400 41.59800
C  -14.64000 40.32000 42.40700
C  -15.41700 37.10100 40.94600
C  -16.83700 37.66400 41.21200
N  -10.16400 36.18000 41.44100
C  -11.26200 35.48200 41.89800
C  -10.81200 34.10500 42.17600
C  -9.46500 34.04100 41.68800
C  -9.14800 35.33800 41.25400
C  -11.64300 33.11400 42.98200
C  -8.43800 33.12500 41.45600
O  -8.38500 31.89300 41.65200
C  -7.23500 33.98200 40.81300
C  -6.05300 33.93200 41.86400
O  -5.33000 32.97600 41.93800
O  -5.92600 35.00500 42.75000
C  -4.84300 34.81700 43.83700
H  -6.69300 40.67400 38.97800
H  -12.85100 41.49900 40.63900
H  -13.40900 35.45100 42.30300
H  -5.14300 36.38600 40.15800
H  -5.59400 38.41600 38.12200
H  -3.98400 38.27900 40.39000
H  -4.90200 39.82000 40.50300
H  -3.91100 39.20900 39.02600
H  -5.95300 36.34800 37.29700
H  -6.81700 35.15300 38.15400
H  -5.07200 33.70300 38.18200
H  -4.01800 34.84300 38.95300
H  -8.01300 44.23100 39.31400
H  -8.03500 43.33800 37.86700
H  -6.82500 42.98600 39.09900
H  -12.64900 43.68400 41.14500
H  -13.11300 43.12500 39.55600
H  -12.95200 44.84100 39.90600
H  -14.75100 39.52100 40.40800
H  -14.46100 37.86500 42.75800
H  -14.74200 39.96000 43.43100
H  -15.61600 40.61700 42.02100
H  -14.08600 41.25800 42.41400
H  -15.45500 36.04500 41.21300
H  -15.23500 37.04200 39.87300
H  -17.43500 36.78700 41.46000
H  -17.21800 38.07000 40.27400
H  -16.92100 38.41800 41.99400
H  -12.64100 32.90800 42.59400
H  -11.76600 33.35200 44.03800
H  -11.07500 32.19500 42.83600
H  -6.86200 33.52200 39.89800
H  -3.95000 34.26600 43.54200
H  -5.32300 34.35700 44.70000
H  -4.53000 35.81100 44.15800

