158

Mg 47.42800 15.87400 28.85600
C  45.46100 15.18700 31.53100
C  49.64000 17.56500 30.98700
C  49.26000 16.73500 26.08800
C  45.02500 14.42100 26.82600
N  47.44600 16.37100 30.99400
C  46.60000 15.86800 31.90200
C  46.93300 16.41600 33.32000
C  48.10700 17.38700 33.04300
C  48.48400 17.10500 31.56800
C  47.96700 18.90600 33.38500
C  47.15500 15.33800 34.35900
C  47.63700 15.74400 35.75900
H  47.02600 16.92700 36.37000
N  49.19500 17.04500 28.50400
C  49.97600 17.59100 29.55700
C  51.16900 18.15500 28.96300
C  51.05200 17.92400 27.51200
C  49.79000 17.17800 27.32300
C  52.27700 18.69500 29.78400
C  52.00100 18.43500 26.30200
O  51.70900 18.32600 25.10000
C  53.28200 19.15700 26.71400
N  47.23300 15.51100 26.77400
C  48.13300 15.90500 25.81000
C  47.56500 15.63700 24.38600
C  46.35100 14.66900 24.72100
C  46.22400 14.83200 26.24100
C  47.38400 16.80700 23.42300
C  46.68400 13.13900 24.47400
C  46.33400 12.51400 23.11600
N  45.60600 14.93600 29.10200
C  44.68200 14.47800 28.22100
C  43.67100 13.77900 28.90600
C  43.91200 14.01700 30.25400
C  45.04900 14.80300 30.30000
C  42.31700 13.16100 28.33300
C  43.45500 13.86600 31.62300
O  42.47100 13.32200 32.09900
C  44.44600 14.68700 32.49400
C  43.55100 15.75600 33.03800
O  43.07300 16.70300 32.40400
O  43.44500 15.64200 34.41200
C  42.83300 16.74600 35.15800
H  50.26400 18.13700 31.67700
H  49.92700 16.94100 25.24800
H  44.36500 13.88900 26.13800
H  46.10100 17.05400 33.61800
H  48.89500 17.09000 33.73400
H  46.89000 19.05400 33.46800
H  48.38400 19.55900 32.61800
H  48.61400 19.04900 34.25000
H  48.06300 14.89000 33.95500
H  46.48500 14.47900 34.40100
H  48.71800 15.80700 35.63300
H  47.56300 14.88300 36.42400
H  52.68000 19.68500 29.56900
H  53.00000 17.89300 29.63100
H  52.08500 18.63500 30.85600
H  52.98300 19.98200 27.36100
H  53.76800 19.51100 25.80500
H  53.92600 18.43400 27.21600
H  48.39100 15.01100 24.04900
H  45.45400 15.08200 24.26000
H  46.47200 16.64300 22.84900
H  48.16500 16.80900 22.66200
H  47.25800 17.76200 23.93200
H  46.16800 12.53000 25.21600
H  47.75500 13.01400 24.63600
H  47.09600 11.78400 22.84100
H  46.13400 13.24200 22.32900
H  45.43500 11.89800 23.09800
H  41.93000 13.65900 27.44400
H  41.51800 13.12800 29.07400
H  42.51300 12.12700 28.04800
H  44.87700 14.14600 33.33600
H  41.77300 16.49200 35.17200
H  43.10500 17.67300 34.65400
H  43.06000 16.97700 36.19900
Mg 0.94400 43.71500 26.02100
C  3.01800 43.63100 28.81300
C  -1.59700 42.75900 28.17500
C  -1.26100 43.71800 23.36800
C  3.47300 44.55900 23.97700
N  0.72900 43.35000 28.24400
C  1.68400 43.42000 29.15800
C  1.05100 43.33900 30.61700
C  -0.35600 42.77600 30.33500
C  -0.40800 42.91500 28.80100
C  -0.78400 41.40800 30.90100
C  1.15600 44.66800 31.47800
C  0.79100 44.62000 32.97900
H  0.71800 43.28700 33.60800
N  -0.99400 43.20600 25.77400
C  -1.89600 42.80400 26.78200
C  -3.16400 42.50800 26.22500
C  -3.20600 43.00800 24.86100
C  -1.76000 43.33200 24.62400
C  -4.26900 41.77200 27.00300
C  -4.25700 43.07100 23.80900
O  -4.09400 43.35900 22.62400
C  -5.67900 42.64000 24.14700
N  1.11600 43.84500 23.86000
C  0.08900 43.95600 23.08400
C  0.52400 44.53800 21.69400
C  1.99300 45.00800 21.95800
C  2.19100 44.52000 23.34100
C  0.38000 43.65400 20.45100
C  2.25700 46.47700 21.82900
C  2.20300 47.14100 20.41300
N  2.84800 43.96700 26.26300
C  3.83700 44.27200 25.31600
C  5.13600 44.33700 25.98500
C  4.85300 44.00000 27.30900
C  3.44200 43.96700 27.44700
C  6.45800 44.77900 25.35900
C  5.35600 43.69700 28.64400
O  6.51800 43.67100 29.05300
C  4.19000 43.71100 29.68500
C  4.28500 42.43700 30.50500
O  3.99700 41.31800 30.15600
O  4.63100 42.79900 31.79200
C  4.94000 41.61200 32.63300
H  -2.31500 42.41700 28.92300
H  -1.86100 43.95700 22.48700
H  4.30700 44.94100 23.38600
H  1.63400 42.63500 31.21200
H  -1.13500 43.44900 30.69300
H  -0.04800 40.88900 31.51600
H  -1.14000 40.70800 30.14500
H  -1.66300 41.51000 31.53800
H  0.43200 45.36100 31.05100
H  2.17700 45.02700 31.34800
H  -0.15900 45.10800 33.19800
H  1.47800 45.18500 33.61000
H  -3.95500 41.07200 27.77700
H  -4.90900 41.17300 26.35500
H  -4.72300 42.53600 27.63400
H  -5.85500 43.21000 25.06000
H  -5.77900 41.58000 24.37800
H  -6.39400 42.89800 23.36600
H  -0.15700 45.37000 21.51600
H  2.75500 44.47300 21.39200
H  -0.25400 42.82800 20.77400
H  1.38100 43.29500 20.21400
H  -0.01800 44.23900 19.62100
H  3.20600 46.80400 22.25400
H  1.54100 46.96700 22.48900
H  2.33500 46.34900 19.67700
H  3.00100 47.85000 20.19200
H  1.29400 47.68000 20.14600
H  6.87400 45.49900 26.06400
H  6.26000 45.19600 24.37200
H  7.13700 43.92800 25.31500
H  4.25200 44.58100 30.33900
H  4.15100 40.89700 32.86800
H  5.33600 42.05600 33.54700
H  5.74800 41.00900 32.21900

