158

Mg -1.75600 17.52600 26.31600
C  -2.25100 15.41800 29.09700
C  -1.87600 20.22100 28.61300
C  -1.75700 19.63000 23.84200
C  -2.30300 14.84700 24.29800
N  -1.86400 17.80700 28.64200
C  -1.94500 16.77300 29.52600
C  -2.19300 17.34500 30.97400
C  -2.28200 18.83400 30.75800
C  -2.03100 18.98700 29.23800
C  -3.50600 19.60000 31.31000
C  -1.08100 16.91400 32.06600
C  -0.92700 17.78200 33.33400
H  -0.90200 17.00700 34.66500
N  -1.62500 19.62800 26.30000
C  -1.62400 20.53300 27.28600
C  -1.23900 21.82900 26.71900
C  -1.10900 21.66500 25.34600
C  -1.53200 20.25300 25.09100
C  -1.30400 23.09200 27.58300
C  -0.71800 22.72500 24.26600
O  -0.53500 22.38800 23.08500
C  -0.43200 24.08800 24.71200
N  -2.21800 17.29700 24.31900
C  -2.16200 18.33000 23.46400
C  -2.44700 17.82300 22.02300
C  -2.13700 16.26700 22.17800
C  -2.23600 16.06600 23.67400
C  -3.87100 18.10900 21.55000
C  -0.79600 15.77300 21.43600
C  0.52000 15.69800 22.24100
N  -2.00500 15.58000 26.61600
C  -2.23300 14.58600 25.68700
C  -2.34700 13.30000 26.24900
C  -2.42900 13.58700 27.67000
C  -2.21900 14.99100 27.77200
C  -2.46500 11.99800 25.60200
C  -2.60600 13.03400 28.97300
O  -2.80300 11.86700 29.37100
C  -2.50000 14.21400 29.93700
C  -1.43300 13.88800 30.90100
O  -0.23600 14.09800 30.65600
O  -1.99100 13.32300 31.99100
C  -0.92000 13.05400 32.97800
H  -1.90600 21.05300 29.31900
H  -1.73400 20.34000 23.01200
H  -2.35900 14.00800 23.60100
H  -3.12900 17.04200 31.44200
H  -1.41600 19.37400 31.14000
H  -4.03100 20.06100 30.47300
H  -3.18100 20.37800 32.00100
H  -4.14200 18.95600 31.91800
H  -0.11200 16.68300 31.62500
H  -1.21500 15.87000 32.34800
H  -1.69100 18.55900 33.29500
H  -0.00700 18.36200 33.25900
H  -0.30300 23.51300 27.49600
H  -1.35100 22.92200 28.65900
H  -2.01900 23.79200 27.15200
H  0.39800 24.14100 25.41700
H  -1.29800 24.59500 25.13500
H  -0.04300 24.64500 23.85900
H  -1.86000 18.28700 21.23100
H  -3.02500 15.72800 21.84700
H  -4.47800 17.20400 21.49900
H  -3.83100 18.55900 20.55800
H  -4.46700 18.77800 22.17000
H  -0.55200 16.47600 20.63900
H  -0.90900 14.83000 20.90100
H  0.47600 16.01200 23.28400
H  1.14100 16.49000 21.82400
H  1.00000 14.72000 22.24600
H  -1.57800 11.86900 24.98300
H  -3.36500 12.14500 25.00500
H  -2.70800 11.21200 26.31800
H  -3.51500 14.37700 30.29800
H  -1.49600 12.69200 33.82900
H  -0.37200 13.97600 33.17300
H  -0.13500 12.37600 32.64100
Mg 30.45600 57.54200 40.28600
C  27.82200 55.44700 39.04100
C  32.57900 55.16600 39.54600
C  32.89900 59.73600 40.76300
C  28.13200 60.11400 40.63500
N  30.21800 55.58500 39.26000
C  29.13100 54.89400 38.96200
C  29.43100 53.48100 38.46300
C  30.92700 53.29100 38.96300
C  31.29500 54.75400 39.30100
C  31.06700 52.26100 40.18000
C  29.23800 53.18300 36.86400
C  29.63200 54.19900 35.78600
H  28.48300 54.58000 34.79400
N  32.49900 57.48300 40.13500
C  33.13200 56.37500 39.81500
C  34.57700 56.71100 39.81500
C  34.68800 57.99500 40.14400
C  33.29300 58.51200 40.32500
C  35.63400 55.63800 39.34500
C  36.02000 58.74800 40.19100
O  37.08200 58.12200 40.03300
C  36.18900 60.13400 40.27800
N  30.47600 59.62800 40.64100
C  31.64100 60.23300 41.04400
C  31.52800 61.70600 41.41200
C  29.94400 61.77000 41.48500
C  29.40700 60.45500 40.92800
C  32.27800 62.21800 42.63000
C  29.29100 63.03300 40.86900
C  28.04000 63.56900 41.55500
N  28.35400 57.78100 39.93200
C  27.60800 58.89300 40.06300
C  26.21500 58.55100 39.85600
C  26.29800 57.21800 39.37300
C  27.61300 56.79600 39.44100
C  24.96800 59.39200 39.82100
C  25.53900 56.13900 38.78000
O  24.37900 56.16600 38.43900
C  26.52000 54.86300 38.58000
C  25.93300 53.79400 39.36800
O  26.15000 53.62000 40.54700
O  24.99400 53.13900 38.70600
C  24.44600 52.01900 39.45400
H  33.35200 54.39500 39.56700
H  33.69200 60.48000 40.86100
H  27.37500 60.84100 40.93600
H  28.70500 52.85500 38.98100
H  31.54800 53.01900 38.11000
H  30.07700 51.91000 40.47100
H  31.59500 52.75900 40.99400
H  31.71300 51.45300 39.83400
H  28.18200 52.99100 36.67500
H  29.75400 52.25800 36.60600
H  30.41600 53.71500 35.20300
H  29.99000 55.09400 36.29500
H  36.36400 56.10500 38.68400
H  35.21900 54.76400 38.84300
H  36.15800 55.23200 40.21000
H  37.21000 60.43100 40.03900
H  35.92500 60.48500 41.27600
H  35.51200 60.65000 39.59800
H  31.88100 62.19300 40.50300
H  29.61300 61.74000 42.52300
H  32.71600 61.34100 43.10700
H  31.54700 62.75500 43.23500
H  33.11600 62.86700 42.37400
H  29.08900 62.89400 39.80700
H  29.95800 63.89500 40.83900
H  27.20700 63.41200 40.86900
H  28.20800 64.58800 41.90400
H  27.67100 62.98200 42.39600
H  24.17900 58.72500 40.16900
H  24.75600 59.70000 38.79800
H  25.03800 60.23600 40.50700
H  26.59600 54.44600 37.57600
H  24.17200 51.30800 38.67500
H  23.61500 52.39100 40.05300
H  25.13300 51.41300 40.04500

