158

Mg 7.85100 2.92200 28.23000
C  9.52900 1.36300 31.05200
C  6.33800 5.08900 30.36100
C  6.42500 4.24400 25.58100
C  9.25600 0.27700 26.19200
N  7.92600 3.15900 30.45200
C  8.71400 2.51700 31.35900
C  8.69500 3.32100 32.66500
C  7.60500 4.45800 32.45400
C  7.20400 4.15300 31.02100
C  6.37900 4.21900 33.44500
C  10.12400 3.76700 33.11300
C  10.61000 3.37900 34.52500
H  10.68600 4.50000 35.61500
N  6.56400 4.41200 27.99400
C  5.97200 5.17600 28.98900
C  5.03700 6.10900 28.42100
C  5.16400 5.99500 27.00400
C  6.07400 4.87300 26.77900
C  4.26800 7.23100 29.25400
C  4.47000 6.79500 25.89700
O  4.72300 6.76200 24.70100
C  3.38600 7.71100 26.27000
N  7.83800 2.36500 26.18500
C  7.26700 3.12100 25.27600
C  7.65200 2.67800 23.85400
C  8.53200 1.41200 24.01800
C  8.53500 1.35300 25.60500
C  6.48900 2.46700 22.85700
C  9.89600 1.64400 23.33400
C  11.09600 2.11200 24.09900
N  9.05200 1.01800 28.56000
C  9.54500 0.10200 27.60500
C  10.39700 -0.89400 28.29800
C  10.45600 -0.44300 29.68800
C  9.68200 0.72600 29.73400
C  10.88900 -2.17900 27.65000
C  11.04300 -0.64600 30.96000
O  11.89200 -1.42000 31.41800
C  10.37300 0.48700 31.94600
C  9.63800 -0.19000 32.94600
O  8.63500 -0.83800 32.80500
O  10.26200 0.00000 34.15100
C  9.59700 -0.49400 35.36700
H  5.95300 5.89100 30.99300
H  6.09500 4.79000 24.69400
H  9.64900 -0.43200 25.46100
H  8.51200 2.46500 33.31500
H  8.05000 5.45100 32.40300
H  5.61600 4.98000 33.27700
H  6.67700 4.22400 34.49300
H  5.94800 3.23500 33.26300
H  10.16600 4.85600 33.09300
H  10.80100 3.45100 32.31900
H  11.68800 3.22500 34.48000
H  10.06100 2.50900 34.88700
H  4.43900 8.21400 28.81700
H  4.38300 7.17300 30.33700
H  3.22700 6.96400 29.07000
H  2.70500 8.03200 25.48100
H  3.88700 8.56400 26.72700
H  2.64300 7.22000 26.89900
H  8.20400 3.57500 23.57300
H  7.98500 0.53300 23.67800
H  5.59800 2.90300 23.30700
H  6.28800 1.40200 22.73500
H  6.76100 2.85100 21.87400
H  9.75000 2.34300 22.51100
H  10.21100 0.78700 22.73800
H  11.63500 2.82800 23.47800
H  11.83300 1.36500 24.39300
H  10.83300 2.60300 25.03600
H  10.08600 -2.52700 27.00100
H  10.82200 -3.01300 28.34800
H  11.91400 -2.06500 27.29900
H  11.15400 1.13800 32.33800
H  9.38300 0.31800 36.06100
H  10.23300 -1.25900 35.81200
H  8.72600 -1.09400 35.10400
Mg -5.19200 25.22200 26.30500
C  -3.89200 26.54200 29.04500
C  -7.27800 23.16200 28.22000
C  -6.41600 23.83600 23.43500
C  -3.03400 27.22000 24.19900
N  -5.39500 24.76600 28.35900
C  -4.84900 25.53100 29.29900
C  -5.34100 25.12000 30.72400
C  -6.14800 23.83100 30.40700
C  -6.23200 23.87400 28.89100
C  -5.47200 22.52700 31.01700
C  -6.11300 26.25400 31.46100
C  -6.16400 26.22300 32.98900
H  -5.51300 25.03400 33.72600
N  -6.69400 23.75100 25.85000
C  -7.44300 23.06000 26.77700
C  -8.43500 22.20200 26.07200
C  -8.18400 22.45000 24.68900
C  -7.07100 23.40100 24.60800
C  -9.45000 21.27300 26.73100
C  -8.96600 21.92500 23.46300
O  -8.69200 22.19300 22.30100
C  -10.15400 21.04800 23.65500
N  -4.69700 25.39200 24.03700
C  -5.38600 24.73700 23.12200
C  -4.82000 24.96400 21.74400
C  -3.93200 26.27500 21.92700
C  -3.93200 26.39800 23.46100
C  -4.01000 23.65900 21.28700
C  -4.51800 27.60400 21.32500
C  -3.66000 28.44800 20.35200
N  -3.72000 26.60900 26.55500
C  -2.95300 27.30000 25.63700
C  -2.03300 28.15200 26.45700
C  -2.37800 27.94700 27.77900
C  -3.42900 26.98600 27.79300
C  -1.02100 29.06900 25.96700
C  -2.13700 28.27300 29.15100
O  -1.32500 29.10000 29.57700
C  -3.14300 27.40500 29.98800
C  -2.15700 26.61900 30.80800
O  -1.22100 25.98600 30.34600
O  -2.39800 26.83400 32.16600
C  -1.34500 26.41900 33.13100
H  -7.96500 22.58700 28.84500
H  -6.84600 23.39700 22.53200
H  -2.36900 27.83500 23.59000
H  -4.43100 24.84700 31.25800
H  -7.13200 23.87500 30.87300
H  -4.62600 22.26200 30.38300
H  -6.14000 21.66600 30.99200
H  -5.24100 22.73200 32.06300
H  -7.10800 26.25600 31.01600
H  -5.60900 27.15600 31.11600
H  -7.22300 26.36600 33.20400
H  -5.67200 27.11600 33.37400
H  -9.11400 20.27100 26.46400
H  -10.49000 21.53700 26.53700
H  -9.21000 21.41000 27.78500
H  -10.73100 20.94400 22.73600
H  -10.87600 21.56500 24.28700
H  -9.90100 20.13900 24.19900
H  -5.69000 25.21600 21.13800
H  -2.90800 26.20700 21.56100
H  -3.17400 24.04700 20.70400
H  -4.79900 23.09100 20.79400
H  -3.56800 23.12100 22.12500
H  -4.93500 28.22300 22.12000
H  -5.40200 27.31600 20.75600
H  -2.67500 28.47500 20.81900
H  -4.11300 29.43800 20.29300
H  -3.55100 27.96800 19.38000
H  -0.55600 28.76100 25.03000
H  -0.20700 29.14400 26.68800
H  -1.45400 30.07000 25.97200
H  -3.74700 28.09400 30.57900
H  -1.68600 26.12800 34.12400
H  -0.69600 27.26500 33.35700
H  -0.77200 25.59900 32.69800

