158

Mg 46.02400 16.59200 28.21600
C  44.00800 16.13200 30.99700
C  47.95500 18.71900 30.10500
C  47.91000 16.96200 25.56000
C  43.59400 14.91000 26.28300
N  46.04400 17.24400 30.35500
C  45.14100 16.90400 31.32200
C  45.55000 17.38900 32.66500
C  46.65400 18.40900 32.31100
C  46.80900 18.26000 30.78000
C  46.37600 19.85000 32.67300
C  45.98900 16.25900 33.60100
C  45.66100 16.35600 35.08100
H  45.79500 17.82000 35.67800
N  47.81400 17.59400 27.88400
C  48.44500 18.39200 28.77100
C  49.80900 18.59600 28.34200
C  49.84100 17.92100 27.01400
C  48.49200 17.42300 26.79700
C  50.93800 19.11000 29.30100
C  50.95600 17.71300 26.01500
O  50.87200 16.92600 25.07200
C  52.35000 18.26200 26.33400
N  45.64400 16.27600 26.14100
C  46.66800 16.38700 25.30900
C  46.25000 16.09400 23.85900
C  44.89500 15.31000 24.09800
C  44.72300 15.41500 25.61000
C  46.11600 17.34800 22.99400
C  44.85900 13.75600 23.71500
C  43.56800 13.32000 23.08100
N  44.12300 15.76400 28.55600
C  43.35700 15.04400 27.65400
C  42.18400 14.54900 28.37600
C  42.38800 14.94000 29.70700
C  43.61500 15.61200 29.79700
C  41.04000 13.82300 27.84600
C  41.83400 14.94400 31.04500
O  40.83500 14.46600 31.49300
C  42.93900 15.69300 31.90600
C  42.24900 16.75200 32.70000
O  41.63900 17.65100 32.20700
O  42.40100 16.58200 34.05200
C  41.77500 17.57100 34.89700
H  48.58500 19.27400 30.80500
H  48.54100 16.99400 24.66900
H  42.91800 14.32800 25.65400
H  44.70100 17.91200 33.10700
H  47.58700 18.05000 32.74600
H  47.37100 20.13100 33.01700
H  45.58900 19.93900 33.42200
H  46.15800 20.49700 31.82300
H  47.04400 16.15500 33.35000
H  45.49700 15.35100 33.25100
H  46.32400 15.71200 35.65900
H  44.67300 15.96000 35.31300
H  50.97600 20.19100 29.16900
H  51.97700 18.88200 29.06300
H  50.63600 18.85100 30.31600
H  52.93000 18.13300 25.42000
H  52.79100 17.70700 27.16200
H  52.29900 19.29900 26.66600
H  47.01000 15.40000 23.50000
H  43.91800 15.64800 23.75100
H  45.05300 17.56100 23.11400
H  46.40300 17.27800 21.94500
H  46.70500 18.20500 23.31900
H  45.00500 13.11100 24.58100
H  45.66000 13.42600 23.05400
H  43.78700 12.76700 22.16700
H  42.85200 14.13600 22.98600
H  43.06700 12.49700 23.59000
H  41.18300 13.64600 26.78000
H  40.06800 14.30300 27.96400
H  41.02400 12.88900 28.40800
H  43.40000 14.95200 32.56000
H  41.94600 17.26300 35.92900
H  40.70200 17.66600 34.72800
H  42.25200 18.54500 34.79400
Mg 50.68200 47.28400 43.70300
C  47.46900 47.57400 42.19100
C  50.90100 44.10400 42.25100
C  53.79100 47.22900 44.51800
C  50.67500 50.80700 44.10600
N  49.42000 46.09900 42.18300
C  48.06000 46.32200 41.97500
C  47.25300 45.17100 41.28100
C  48.41600 44.11200 41.38700
C  49.64100 44.78200 42.02600
C  47.94700 42.75100 42.04100
C  46.81700 45.61900 39.83700
C  45.38200 45.25500 39.42000
H  45.25200 44.13400 38.34400
N  52.23000 45.89200 43.40000
C  52.09400 44.60500 42.90800
C  53.42100 43.89400 43.05400
C  54.27800 44.86500 43.70600
C  53.48300 46.07300 43.88900
C  53.71700 42.53100 42.49700
C  55.81100 44.65700 44.00500
O  56.35900 43.61100 43.68700
C  56.65700 45.80100 44.46900
N  51.97700 48.86600 44.13100
C  53.16000 48.45800 44.66500
C  53.88700 49.62000 45.47900
C  53.01600 50.85800 45.12300
C  51.82300 50.14500 44.39700
C  53.95000 49.39100 47.01800
C  53.61000 51.93400 44.10200
C  53.09900 53.34800 44.34000
N  49.30300 48.86000 43.49200
C  49.46600 50.23400 43.61100
C  48.23000 50.86700 43.28000
C  47.44900 49.88100 42.71000
C  48.15700 48.71200 42.80500
C  48.00000 52.35900 43.38500
C  46.14900 49.65000 42.18700
O  45.20600 50.42400 42.05900
C  46.09400 48.14300 41.82100
C  44.99200 47.53200 42.60400
O  44.91900 47.42500 43.79100
O  44.00400 47.15500 41.67000
C  42.69400 46.62000 42.21600
H  51.08800 43.06600 41.97000
H  54.68800 47.24900 45.14000
H  50.67600 51.83700 44.46800
H  46.44200 44.96500 41.98000
H  48.69000 43.83800 40.36800
H  46.92800 42.41700 41.84700
H  48.14400 42.78700 43.11200
H  48.56900 41.87200 41.87200
H  47.31500 44.97300 39.11400
H  47.03300 46.64800 39.54900
H  44.87600 46.14800 39.05200
H  44.89900 44.97000 40.35500
H  54.38500 41.91300 43.09700
H  54.14500 42.66000 41.50300
H  52.82900 41.90900 42.37900
H  57.68900 45.54400 44.70800
H  56.33700 45.95100 45.50000
H  56.52200 46.65500 43.80500
H  54.90000 49.76900 45.10700
H  52.70900 51.39800 46.01900
H  54.87500 48.85200 47.22100
H  53.00800 48.90900 47.28000
H  54.05400 50.34300 47.53800
H  53.38800 51.81500 43.04200
H  54.69500 51.88500 44.19400
H  52.37700 53.46900 45.14700
H  52.74400 53.78200 43.40500
H  53.80600 54.08500 44.72100
H  46.91800 52.49300 43.41700
H  48.49500 53.04200 42.69400
H  48.35800 52.75300 44.33600
H  45.93400 48.10500 40.74400
H  42.34200 45.88700 41.49000
H  42.02000 47.46500 42.36400
H  42.74800 46.14000 43.19300

