158

Mg 25.96100 2.12500 29.85600
C  27.91800 1.92500 32.77500
C  23.17200 2.57600 31.83100
C  24.24600 2.03900 27.16100
C  28.88400 1.19400 28.04400
N  25.60800 2.26600 32.14900
C  26.58300 2.23200 33.11900
C  25.98300 2.50800 34.56200
C  24.47100 2.61700 34.22200
C  24.36600 2.42500 32.65300
C  23.56800 1.78700 35.11800
C  26.62300 3.75200 35.26100
C  27.20500 3.51800 36.78300
H  26.77700 4.49500 37.93000
N  24.00300 2.40300 29.51600
C  23.01100 2.52000 30.39700
C  21.78400 2.80300 29.69600
C  22.04000 2.61800 28.31300
C  23.45600 2.32400 28.25800
C  20.46500 3.18600 30.38000
C  21.07700 2.68300 27.19700
O  21.38800 2.69600 25.95900
C  19.62700 2.68800 27.54400
N  26.52800 1.80300 27.87500
C  25.58600 1.88600 26.92300
C  26.18200 1.52500 25.53500
C  27.77700 1.50000 25.89900
C  27.74200 1.45400 27.34500
C  25.65000 0.11000 25.17400
C  28.52500 2.72500 25.20000
C  29.78400 2.30800 24.33300
N  27.92200 1.58800 30.27200
C  29.01000 1.31600 29.48700
C  30.14400 0.96300 30.27700
C  29.77100 1.23700 31.54200
C  28.45000 1.59700 31.51600
C  31.51100 0.40200 29.80000
C  30.29900 1.23500 32.90700
O  31.41400 0.93100 33.33600
C  29.02200 1.61200 33.80300
C  28.66100 0.44800 34.71700
O  28.02900 -0.53800 34.41500
O  29.00300 0.78300 36.02000
C  28.33500 -0.04200 36.99900
H  22.25700 2.85500 32.35700
H  23.71100 1.92500 26.21600
H  29.83700 1.06700 27.52500
H  26.26000 1.65200 35.17700
H  24.21900 3.64000 34.50000
H  22.97800 2.39500 35.80400
H  24.14000 1.09800 35.74000
H  22.90100 1.25100 34.44300
H  25.91600 4.57600 35.17100
H  27.52000 3.90900 34.66200
H  28.29100 3.56300 36.86400
H  26.92600 2.49400 37.03400
H  20.22100 4.18700 30.02200
H  20.60400 3.17400 31.46100
H  19.67400 2.44800 30.24900
H  19.27900 1.98200 28.29800
H  19.03100 2.60000 26.63500
H  19.32900 3.62600 28.01300
H  25.84600 2.26600 24.81000
H  28.19500 0.60000 25.44900
H  24.73300 -0.12100 25.71500
H  26.26200 -0.75400 25.43200
H  25.38200 0.06800 24.11800
H  28.90700 3.40700 25.96000
H  27.85700 3.30600 24.56300
H  30.65900 2.67300 24.87000
H  29.77000 2.85200 23.38900
H  29.94400 1.23500 24.22500
H  31.62900 -0.53900 30.33800
H  32.27100 1.15500 30.00800
H  31.42500 0.01700 28.78400
H  29.29600 2.48400 34.39600
H  28.64200 -1.08400 37.08800
H  27.26900 0.07200 36.80300
H  28.34500 0.47900 37.95600
Mg 16.38500 51.79100 26.15600
C  17.92800 49.99000 28.74500
C  14.02000 52.93100 28.36800
C  14.77200 53.08600 23.51500
C  18.63600 50.18900 23.94900
N  16.10300 51.63400 28.35300
C  16.91500 50.89300 29.20400
C  16.62700 51.26100 30.69500
C  15.24700 52.00100 30.51800
C  15.05900 52.14500 29.02400
C  14.10300 51.26200 31.21200
C  17.78900 52.19800 31.28700
C  17.90600 52.43500 32.78800
H  16.97900 51.63400 33.76600
N  14.58400 52.83300 25.96200
C  13.80100 53.27200 27.00700
C  12.80300 54.16500 26.45900
C  12.92500 54.02700 25.01000
C  14.14700 53.33700 24.76600
C  11.77300 54.88400 27.36600
C  12.03500 54.62100 23.97100
O  12.28000 54.54500 22.78300
C  10.83500 55.37800 24.38800
N  16.45800 51.37800 23.81800
C  15.84600 52.28600 23.09700
C  16.70700 52.59700 21.82700
C  17.93600 51.60500 21.94800
C  17.66400 51.01400 23.29200
C  16.04700 52.47200 20.46200
C  19.31800 52.40300 21.84900
C  20.44100 51.74000 20.95500
N  17.86500 50.30700 26.24500
C  18.71000 49.74100 25.28800
C  19.69400 48.83200 25.82600
C  19.39300 48.88200 27.22900
C  18.31400 49.74300 27.38400
C  20.80600 48.16800 25.08000
C  19.82500 48.51000 28.55500
O  20.88400 48.03900 28.93000
C  18.82700 49.16800 29.60400
C  18.19300 48.08800 30.41100
O  17.55500 47.16700 29.94500
O  18.70400 48.13100 31.75100
C  18.41000 46.95500 32.59400
H  13.45600 53.37900 29.18900
H  14.51900 53.86200 22.79000
H  19.45300 49.92800 23.27400
H  16.50400 50.32000 31.23100
H  15.21800 52.98700 30.98200
H  14.39200 50.32200 31.68100
H  13.42900 50.92700 30.42300
H  13.64400 51.93400 31.93700
H  17.54900 53.22800 31.02200
H  18.78100 51.93200 30.92100
H  17.85600 53.50000 33.01500
H  18.89100 52.09400 33.10500
H  10.73800 54.76500 27.04700
H  12.07400 55.92600 27.47900
H  11.78900 54.50700 28.38800
H  10.21500 54.74600 25.02400
H  10.29100 55.75400 23.52100
H  11.24200 56.26800 24.86800
H  17.05000 53.62700 21.92800
H  17.82900 50.79700 21.22500
H  15.00600 52.15200 20.50100
H  16.47700 51.79900 19.71900
H  16.05800 53.47500 20.03700
H  19.70000 52.48300 22.86700
H  19.23400 53.46400 21.61400
H  20.89600 52.43400 20.24900
H  20.16100 50.86400 20.36900
H  21.13500 51.26800 21.65000
H  21.36600 48.81900 24.40800
H  20.47300 47.26600 24.56800
H  21.53400 47.91600 25.85100
H  19.52000 49.72400 30.23600
H  17.34200 46.73800 32.56700
H  18.90600 47.02100 33.56200
H  18.96200 46.13700 32.13300

