158

Mg 42.47800 41.63200 25.61900
C  41.65800 44.17900 27.92500
C  43.80500 39.85600 28.22800
C  43.20900 39.25200 23.44600
C  41.60400 43.76800 23.14300
N  42.85700 42.11900 27.88300
C  42.20400 43.06600 28.54600
C  42.14400 42.66600 30.07700
C  42.97400 41.40900 30.21300
C  43.22900 41.07700 28.68400
C  44.32700 41.51700 31.04200
C  40.74600 42.52400 30.74400
C  40.47400 43.10400 32.18100
H  41.41800 43.12300 33.34900
N  43.23000 39.76400 25.83900
C  43.68300 39.16400 26.98700
C  44.10900 37.76300 26.68400
C  43.92800 37.60200 25.33500
C  43.54500 38.91500 24.80700
C  44.68600 36.83200 27.70500
C  44.05200 36.34400 24.39600
O  43.92900 36.44700 23.20900
C  44.54600 35.08200 24.92700
N  42.40900 41.51600 23.64500
C  42.68400 40.41700 22.93000
C  42.51200 40.65500 21.36700
C  41.79500 42.01000 21.29400
C  41.89200 42.45000 22.77000
C  43.89700 40.66900 20.62400
C  40.26600 42.02800 20.76600
C  39.14200 41.48600 21.66100
N  41.96100 43.67900 25.45000
C  41.71700 44.44600 24.39700
C  41.33300 45.77500 24.79700
C  41.21200 45.68700 26.20200
C  41.61700 44.38600 26.58700
C  40.91900 46.97400 24.00700
C  40.80700 46.37000 27.43200
O  40.20100 47.43000 27.63200
C  41.08700 45.34900 28.61100
C  41.86700 46.05100 29.74500
O  43.03300 46.44000 29.59400
O  41.18700 46.09700 30.96000
C  41.99900 46.52100 32.10300
H  44.16700 39.27400 29.07800
H  43.28600 38.53500 22.62600
H  41.38900 44.28700 22.20700
H  42.72300 43.42000 30.61000
H  42.34400 40.60500 30.59600
H  44.33900 42.41300 31.66200
H  45.20200 41.54300 30.39200
H  44.40100 40.67500 31.72900
H  40.61500 41.44400 30.80900
H  39.94100 42.84500 30.08300
H  39.50800 42.61300 32.30100
H  40.23700 44.14800 31.97600
H  44.84300 37.32800 28.66300
H  45.68100 36.45800 27.46600
H  44.03600 36.01100 28.00800
H  43.83100 34.70700 25.65900
H  45.42800 35.29600 25.53000
H  44.90300 34.36700 24.18600
H  41.82600 39.91700 20.94900
H  42.38100 42.72000 20.70900
H  44.11500 41.60200 20.10400
H  43.93300 39.84900 19.90700
H  44.73700 40.52200 21.30400
H  40.25000 41.55900 19.78200
H  40.17000 43.11200 20.69700
H  39.70500 41.18300 22.54400
H  38.63000 40.65600 21.17500
H  38.31200 42.10100 22.00800
H  40.24700 47.59800 24.59700
H  40.48600 46.59000 23.08400
H  41.76000 47.63000 23.78500
H  40.12400 44.99100 28.97600
H  42.56200 47.44100 31.94800
H  42.71400 45.70900 32.23800
H  41.54900 46.47800 33.09500
Mg 26.45900 50.16700 26.55400
C  24.35100 51.02900 29.15300
C  29.04200 49.46400 28.79000
C  28.81200 50.00100 23.98700
C  24.17400 51.52100 24.21800
N  26.62100 50.17100 28.72200
C  25.55700 50.43900 29.61400
C  26.06600 50.37100 31.13900
C  27.53400 49.83100 30.90100
C  27.78900 49.84200 29.38200
C  28.65000 50.54600 31.67900
C  25.19500 49.45700 32.10900
C  24.88600 50.14000 33.52000
H  24.88100 49.16200 34.76700
N  28.63000 49.76200 26.42200
C  29.42300 49.44200 27.47100
C  30.71000 49.05600 27.02800
C  30.74600 49.32500 25.62000
C  29.39500 49.74900 25.25600
C  31.88000 48.52700 27.88900
C  31.86800 49.16700 24.55500
O  31.70800 49.31400 23.35800
C  33.17100 48.52300 24.90200
N  26.43400 50.55200 24.47200
C  27.50400 50.34300 23.56600
C  27.10300 50.63500 22.11600
C  25.59400 51.02400 22.23200
C  25.36700 51.00700 23.77500
C  28.06200 51.72100 21.55800
C  24.56500 50.05500 21.54600
C  23.63900 50.65200 20.48000
N  24.63700 51.05600 26.60700
C  23.84400 51.56600 25.58700
C  22.67400 52.21100 26.16500
C  22.88400 52.10100 27.60400
C  24.01200 51.33400 27.77000
C  21.61600 53.02800 25.50400
C  22.25600 52.33100 28.94400
O  21.20500 52.89500 29.15300
C  23.27400 51.65700 29.92600
C  23.69100 52.76800 30.82800
O  24.52700 53.58300 30.53000
O  22.90100 52.82300 31.96200
C  23.27200 53.73600 33.01000
H  29.81900 49.18200 29.50300
H  29.48300 49.95300 23.12700
H  23.53800 52.00900 23.47700
H  26.10900 51.37700 31.55600
H  27.71700 48.78400 31.14100
H  29.15400 49.80200 32.29600
H  28.25600 51.37500 32.26700
H  29.46600 51.00700 31.12300
H  25.81300 48.59100 32.34600
H  24.21900 49.35200 31.63500
H  23.97600 50.73400 33.44100
H  25.61200 50.94700 33.61200
H  31.57600 48.47600 28.93400
H  32.67400 49.25500 27.71700
H  32.14200 47.54600 27.49200
H  32.88900 47.48800 25.09700
H  33.59000 48.98100 25.79800
H  33.80900 48.58400 24.02100
H  27.20100 49.78900 21.43600
H  25.47200 52.06200 21.92200
H  28.91600 51.90700 22.21100
H  27.56800 52.68100 21.41000
H  28.49900 51.39700 20.61300
H  23.97500 49.53600 22.30100
H  25.19300 49.26400 21.13700
H  23.78800 50.05100 19.58300
H  23.80700 51.67300 20.13600
H  22.60900 50.41100 20.74000
H  20.77000 52.92000 26.18300
H  21.28700 52.59100 24.56100
H  21.97300 54.05200 25.39100
H  22.77500 50.85800 30.47400
H  23.64100 54.70900 32.68700
H  24.09700 53.21500 33.49800
H  22.63500 53.86700 33.88500

