158

Mg 45.95700 4.72100 48.19800
C  44.23500 7.62700 47.31600
C  43.11800 2.95300 47.46700
C  47.71600 1.75100 48.48700
C  48.91900 6.63400 48.52700
N  43.99400 5.26400 47.30600
C  43.45300 6.51100 47.07700
C  41.97600 6.50800 46.57200
C  41.65200 5.01900 46.82100
C  43.01200 4.35900 47.16400
C  40.57900 4.60800 47.92900
C  41.73700 7.01000 45.12200
C  40.67100 8.05500 44.73400
H  39.54000 7.66100 43.71600
N  45.50000 2.68200 48.05600
C  44.27900 2.15900 47.73600
C  44.32700 0.73900 47.87900
C  45.68700 0.34100 48.18500
C  46.36400 1.63300 48.32200
C  43.19900 -0.25000 47.72600
C  46.29900 -1.06800 48.28400
O  45.61100 -2.06800 48.28300
C  47.77400 -1.28000 48.41900
N  48.08200 4.22100 48.51700
C  48.52700 2.94000 48.52400
C  50.02600 2.93200 48.84700
C  50.47100 4.50500 48.66400
C  49.08500 5.19000 48.63300
C  50.39300 2.43800 50.29600
C  51.31800 4.96400 47.47700
C  52.56100 5.84500 47.65300
N  46.52600 6.74700 48.15400
C  47.77400 7.40900 48.27100
C  47.57700 8.80200 48.16000
C  46.23300 8.98000 47.82200
C  45.62900 7.68000 47.80200
C  48.65200 9.80200 48.15000
C  45.23300 9.90000 47.30000
O  45.30300 11.12300 47.07100
C  43.81600 9.07500 47.03200
C  42.72500 9.53800 47.90500
O  42.53600 9.11900 49.02100
O  42.02800 10.51100 47.27700
C  40.79500 10.96700 47.95800
H  42.18700 2.38400 47.41700
H  48.34100 0.89300 48.74500
H  49.87600 7.15700 48.59000
H  41.46100 7.17400 47.26400
H  41.24100 4.58600 45.91000
H  39.74000 4.09000 47.46500
H  40.14800 5.56200 48.23400
H  41.03100 4.12800 48.79700
H  41.52000 6.18500 44.44300
H  42.74400 7.37900 44.92400
H  41.30600 8.82000 44.28700
H  40.37100 8.47300 45.69500
H  42.74900 -0.41600 48.70400
H  43.52900 -1.24900 47.44100
H  42.49500 0.08900 46.96600
H  48.02600 -2.34000 48.46500
H  47.93400 -0.88300 49.42100
H  48.22900 -0.79400 47.55600
H  50.44200 2.33300 48.03700
H  51.01200 4.76900 49.57300
H  51.31000 2.98200 50.52300
H  50.51700 1.35500 50.29100
H  49.59700 2.68200 51.00000
H  50.67700 5.65500 46.93000
H  51.54800 4.11800 46.83000
H  52.89000 5.94700 48.68700
H  52.31200 6.88800 47.45700
H  53.41200 5.51600 47.05700
H  48.39000 10.70300 48.70400
H  48.93800 10.02800 47.12300
H  49.57000 9.35500 48.53200
H  43.48800 9.16200 45.99600
H  40.68800 10.48900 48.93100
H  39.99900 10.70000 47.26300
H  40.94200 12.04400 48.04200
Mg 36.10200 48.73200 24.72800
C  36.48800 46.87000 27.54500
C  34.57200 51.19400 26.51300
C  35.39400 50.30500 21.84300
C  37.32700 45.84400 22.76500
N  35.59500 48.95700 26.77800
C  36.00500 48.14800 27.84000
C  35.71500 48.77900 29.20700
C  34.89400 50.08300 28.81600
C  35.02000 50.08200 27.29300
C  33.39300 50.08200 29.25300
C  37.03500 49.14400 29.97700
C  36.88600 49.90200 31.31400
H  35.49000 49.85100 32.11800
N  35.18400 50.53500 24.24900
C  34.61100 51.42800 25.09100
C  34.21300 52.63000 24.36300
C  34.31800 52.30600 22.97900
C  34.94800 50.97600 22.97200
C  33.67600 53.79100 25.16400
C  33.94600 53.18200 21.83100
O  34.13800 52.87400 20.66900
C  33.28300 54.47500 22.11400
N  36.46700 48.18500 22.59400
C  36.10800 49.04400 21.63700
C  36.27500 48.41700 20.23700
C  36.86200 46.97300 20.58200
C  36.88200 46.95500 22.07200
C  35.04100 48.42100 19.28500
C  38.15700 46.74400 19.80200
C  39.39100 47.41100 20.42200
N  36.88200 46.88300 25.02600
C  37.27900 45.81300 24.20500
C  37.69500 44.65000 25.00400
C  37.38400 45.06400 26.32400
C  36.90200 46.39700 26.29100
C  38.13100 43.25300 24.54000
C  37.44200 44.62300 27.67500
O  37.81100 43.57200 28.17800
C  36.90400 45.83700 28.57300
C  35.62700 45.48200 29.34700
O  34.47000 45.45200 28.88300
O  35.91700 45.19500 30.68200
C  34.77400 44.58300 31.38300
H  34.18300 51.95500 27.19200
H  35.03300 50.67600 20.88100
H  37.82800 45.07600 22.17200
H  35.11100 48.04200 29.73700
H  35.40400 50.95300 29.23000
H  33.11300 49.32800 29.98900
H  32.63000 50.03300 28.47600
H  33.25700 51.02300 29.78700
H  37.64700 49.71000 29.27400
H  37.56100 48.23400 30.26500
H  37.05000 50.94400 31.04100
H  37.73800 49.70100 31.96400
H  33.59200 54.71300 24.59000
H  34.41200 54.08400 25.91300
H  32.74100 53.70600 25.71900
H  33.03300 55.00000 21.19200
H  34.09300 54.98500 22.63700
H  32.39500 54.39800 22.74100
H  37.14100 48.94100 19.83300
H  36.11000 46.29200 20.18200
H  34.22900 48.11400 19.94500
H  35.12200 47.72500 18.45100
H  34.91300 49.45100 18.95100
H  38.00000 47.18200 18.81600
H  38.35100 45.70600 19.53400
H  39.39200 47.40600 21.51200
H  39.53000 48.42100 20.03700
H  40.27900 46.81100 20.22300
H  39.13600 42.92800 24.80900
H  38.16700 43.39100 23.45900
H  37.39800 42.54700 24.92900
H  37.65200 46.25100 29.24900
H  34.14700 45.36200 31.81700
H  35.28000 43.97000 32.12900
H  34.09500 43.92400 30.84100

