158

Mg -0.55300 6.93800 26.41300
C  0.29000 8.99700 29.07700
C  -0.93800 4.27400 28.53500
C  -0.97700 4.79400 23.75300
C  0.41600 9.45100 24.16200
N  -0.35300 6.62400 28.59400
C  -0.00100 7.66300 29.53000
C  -0.09900 7.16900 30.94000
C  -0.32000 5.58000 30.71600
C  -0.46400 5.43400 29.20800
C  0.75700 4.59100 31.34100
C  -1.14400 7.92400 31.75100
C  -0.96200 8.00700 33.31700
H  0.25500 7.29600 33.94300
N  -0.86600 4.79500 26.13700
C  -0.95300 3.90500 27.19500
C  -1.22000 2.56500 26.67600
C  -1.30600 2.66800 25.29200
C  -1.11500 4.13700 25.01100
C  -1.43800 1.33900 27.59200
C  -1.52200 1.58400 24.19100
O  -1.70200 1.83500 23.00300
C  -1.53600 0.14600 24.47400
N  -0.22400 7.08300 24.22700
C  -0.55900 6.06600 23.37700
C  -0.59500 6.68300 21.95200
C  -0.11000 8.16700 22.08100
C  0.10300 8.23000 23.57800
C  0.16000 5.91500 20.89900
C  -1.15300 9.29500 21.62800
C  -2.45500 9.40600 22.47300
N  0.18000 8.80800 26.56200
C  0.44300 9.74700 25.57100
C  0.58700 11.01700 26.17900
C  0.64000 10.81600 27.58500
C  0.32800 9.42100 27.74300
C  0.73200 12.33000 25.40600
C  0.88600 11.41400 28.84500
O  1.17100 12.55000 29.15700
C  0.51500 10.28800 29.90000
C  1.77900 10.07200 30.76000
O  2.69200 9.28100 30.60200
O  1.71100 10.91100 31.85500
C  2.89000 10.76100 32.73000
H  -1.29000 3.45400 29.16400
H  -1.28400 4.22600 22.87200
H  0.61300 10.21100 23.40300
H  0.87600 7.37800 31.38000
H  -1.33600 5.32300 31.01500
H  1.37600 5.13200 32.05700
H  1.22500 4.05800 30.51400
H  0.11500 3.83200 31.78700
H  -2.08700 7.38800 31.64100
H  -1.46400 8.80800 31.19900
H  -1.87500 7.69000 33.82100
H  -0.89700 9.03200 33.68300
H  -2.17600 0.71800 27.08400
H  -1.83900 1.58100 28.57600
H  -0.49000 0.80300 27.63000
H  -2.49600 -0.06700 24.94400
H  -0.71600 -0.18700 25.11000
H  -1.64700 -0.35700 23.51300
H  -1.65000 6.74700 21.68800
H  0.90600 8.26900 21.69900
H  0.47700 4.93000 21.24400
H  1.03500 6.44900 20.52800
H  -0.47000 5.69300 20.03800
H  -1.43500 8.96000 20.63000
H  -0.62700 10.23600 21.46800
H  -3.26800 8.78300 22.10000
H  -2.87000 10.41100 22.40000
H  -2.32200 9.26700 23.54600
H  -0.10500 12.71600 24.82300
H  1.51700 12.09400 24.68700
H  1.07500 13.01900 26.17600
H  -0.25700 10.59500 30.60500
H  2.59100 10.97900 33.75500
H  3.43200 11.70400 32.65300
H  3.62800 9.95900 32.76400
Mg 40.01800 10.13800 29.46900
C  41.99300 11.41500 32.15800
C  37.84500 8.98200 31.79300
C  38.46900 8.72500 27.00000
C  42.71900 10.90300 27.37000
N  39.95700 10.12900 31.75400
C  40.70800 10.91400 32.60200
C  40.16700 10.93800 34.01200
C  38.88900 10.01000 33.87500
C  38.85100 9.68800 32.38300
C  38.81100 8.84300 34.88700
C  39.94300 12.37600 34.51600
C  40.63300 12.76100 35.81800
H  39.77000 13.61600 36.81700
N  38.32500 9.03700 29.44600
C  37.54900 8.61100 30.47900
C  36.33000 8.01900 29.91100
C  36.42100 8.01500 28.49200
C  37.81600 8.58200 28.27400
C  35.21000 7.58400 30.92400
C  35.45300 7.54400 27.42700
O  35.69400 7.54900 26.20400
C  34.14100 7.03500 27.80000
N  40.64100 9.78000 27.51200
C  39.72500 9.20200 26.67300
C  40.16700 9.29200 25.17300
C  41.52500 9.94900 25.36600
C  41.66200 10.19900 26.81300
C  40.26500 7.96500 24.36500
C  41.78400 11.24800 24.50300
C  41.18600 12.58700 24.93800
N  41.87100 11.01000 29.64800
C  42.82100 11.31300 28.72300
C  44.00100 11.93900 29.31600
C  43.70200 12.04500 30.61500
C  42.43200 11.39400 30.82200
C  45.31400 12.26100 28.67300
C  44.18300 12.52000 31.85800
O  45.27000 13.11100 32.05800
C  43.13600 12.10300 32.96600
C  43.79000 11.23000 34.00600
O  43.82000 10.00900 33.97800
O  44.11700 11.96900 35.06900
C  44.29500 11.17300 36.33300
H  37.22000 8.59700 32.60200
H  37.92400 8.40400 26.10900
H  43.50700 11.10600 26.64200
H  40.87500 10.47600 34.69900
H  37.94100 10.54000 33.97000
H  37.88200 8.66900 35.43100
H  39.56000 9.04300 35.65300
H  39.12600 7.91300 34.41300
H  38.85400 12.38800 34.57900
H  40.15000 13.11400 33.74100
H  41.46900 13.36600 35.46900
H  41.05100 11.90500 36.34800
H  34.61400 8.38300 31.36500
H  35.66400 7.19900 31.83700
H  34.58100 6.78200 30.53800
H  34.17300 6.38500 28.67400
H  33.52600 6.57600 27.02600
H  33.58200 7.91700 28.11400
H  39.53800 9.94000 24.56300
H  42.30800 9.23100 25.12500
H  39.45100 7.95400 23.64100
H  40.18300 7.06400 24.97300
H  41.16500 8.00800 23.75100
H  41.60600 10.93700 23.47400
H  42.86000 11.38100 24.60800
H  40.71300 13.15900 24.13900
H  41.91800 13.21700 25.44400
H  40.35800 12.33800 25.60100
H  45.21000 13.28800 28.32300
H  45.50000 11.63900 27.79700
H  46.18600 12.33000 29.32300
H  42.74100 13.00400 33.43400
H  44.03000 10.12100 36.23600
H  43.48400 11.65200 36.88200
H  45.28600 11.42000 36.71400

