158

Mg 27.13600 50.28300 25.95200
C  25.20900 51.33300 28.84400
C  29.58600 49.23900 28.19700
C  29.16400 49.90100 23.36200
C  24.75200 51.95200 24.00100
N  27.30100 50.26400 28.29800
C  26.38900 50.71200 29.25200
C  26.88000 50.41300 30.68400
C  28.26500 49.79500 30.45200
C  28.41500 49.66700 28.91000
C  29.43500 50.61100 31.05900
C  25.92900 49.56200 31.50600
C  25.61500 50.11100 32.89100
H  26.66600 49.93400 33.98100
N  28.97300 49.48200 25.77600
C  29.82400 49.16600 26.84400
C  31.08100 48.74700 26.24900
C  30.99700 48.91200 24.81100
C  29.69200 49.43700 24.57900
C  32.20700 48.25700 27.11800
C  32.02700 48.57600 23.80000
O  31.74400 48.64800 22.56800
C  33.47100 48.12900 24.14700
N  27.02000 50.95400 24.03400
C  27.90600 50.46800 23.11500
C  27.38600 50.58700 21.69600
C  25.87800 51.03100 21.92000
C  25.85200 51.35000 23.40200
C  28.17100 51.58000 20.77900
C  24.74100 50.07900 21.46700
C  23.60000 50.76400 20.66400
N  25.28200 51.37000 26.30300
C  24.46000 52.04100 25.43000
C  23.30100 52.57800 26.09600
C  23.58400 52.29000 27.42300
C  24.78500 51.60300 27.49300
C  22.17900 53.20000 25.54200
C  23.02500 52.37700 28.82200
O  21.94600 52.83700 29.14600
C  24.08400 51.79500 29.85200
C  24.51900 52.82800 30.88200
O  25.44800 53.57600 30.81000
O  23.56100 52.84400 31.85900
C  23.76200 53.71200 33.07900
H  30.24300 48.77700 28.93700
H  29.80900 49.77000 22.49100
H  23.99300 52.37800 23.34200
H  27.04400 51.31200 31.27800
H  28.39400 48.82200 30.92700
H  29.14000 51.60300 31.40100
H  30.15600 50.69400 30.24500
H  29.88900 50.03600 31.86700
H  26.38100 48.57700 31.62600
H  24.96600 49.42300 31.01500
H  24.67900 49.63000 33.17600
H  25.25200 51.13600 32.82800
H  32.94700 49.04100 27.28100
H  32.64700 47.41000 26.59000
H  31.89400 48.01200 28.13300
H  33.91300 47.72800 23.23500
H  33.43100 47.17600 24.67400
H  33.92100 48.96600 24.68100
H  27.53700 49.69000 21.09600
H  25.83300 51.93500 21.31300
H  28.78800 52.22900 21.40100
H  27.60500 52.26600 20.15000
H  28.81700 50.95200 20.16600
H  24.33300 49.59100 22.35200
H  25.23300 49.30600 20.87600
H  22.64500 50.48300 21.10900
H  23.67200 50.35200 19.65700
H  23.72000 51.84700 20.67500
H  22.47800 54.06400 24.94900
H  21.44200 53.54300 26.26800
H  21.62400 52.50800 24.90800
H  23.66900 50.97100 30.43300
H  24.23200 54.62200 32.70500
H  24.55000 53.23500 33.66200
H  22.85300 53.83400 33.66800
Mg 17.03200 51.77600 26.02400
C  19.13300 50.33700 28.53000
C  14.70400 52.42200 28.51000
C  15.16100 53.14300 23.68100
C  19.47300 50.98600 23.68000
N  17.01300 51.59100 28.20200
C  17.94800 50.90300 29.01900
C  17.53700 50.89000 30.46300
C  16.07100 51.32600 30.35700
C  15.89900 51.88000 28.99700
C  15.04000 50.23900 30.73700
C  18.36100 51.82600 31.40200
C  18.52000 51.44800 32.89300
H  17.18100 51.09900 33.73500
N  15.20400 52.75200 26.08300
C  14.35400 52.83300 27.22000
C  13.13500 53.45300 26.78500
C  13.20900 53.67100 25.38800
C  14.56200 53.23600 24.98600
C  12.10800 53.84600 27.76300
C  12.23500 54.37100 24.44600
O  12.49500 54.49100 23.25700
C  10.99500 55.14400 24.93600
N  17.34200 52.08100 23.95100
C  16.38800 52.68600 23.19700
C  16.84600 52.89600 21.69900
C  18.19900 52.10800 21.69700
C  18.36600 51.70800 23.17600
C  15.85100 52.50400 20.59700
C  19.48800 52.86200 21.16500
C  20.25500 53.79200 22.11400
N  18.92500 50.82700 25.99400
C  19.77400 50.53500 24.97800
C  20.87000 49.75700 25.42700
C  20.66900 49.56300 26.82400
C  19.45000 50.31700 27.12600
C  22.03300 49.19500 24.61300
C  21.22800 49.01000 28.05700
O  22.25400 48.37300 28.24400
C  20.25200 49.55400 29.22200
C  19.78400 48.45200 30.08000
O  19.11500 47.45600 29.79600
O  20.26300 48.72800 31.35500
C  19.75200 47.84200 32.35700
H  13.98800 52.61300 29.31100
H  14.50500 53.42500 22.85500
H  20.30300 50.80000 22.99400
H  17.76700 49.89400 30.83900
H  15.84800 52.13200 31.05600
H  14.46100 49.89200 29.88000
H  14.34300 50.74600 31.40500
H  15.52800 49.42800 31.27600
H  17.91000 52.81900 31.42700
H  19.39900 51.89600 31.07600
H  19.06100 52.28800 33.32900
H  19.28100 50.67100 32.95900
H  12.26500 53.54300 28.79800
H  11.17300 53.48700 27.33000
H  12.08400 54.93000 27.87000
H  11.36200 56.01300 25.48300
H  10.49400 54.45900 25.62100
H  10.44900 55.34600 24.01500
H  17.15000 53.93900 21.60500
H  18.01800 51.14800 21.21300
H  16.31300 52.02100 19.73600
H  15.23300 53.38100 20.40300
H  15.17200 51.77000 21.03000
H  19.22600 53.63100 20.43800
H  20.08200 52.13800 20.60700
H  19.94500 53.65300 23.14900
H  20.13800 54.83000 21.80400
H  21.33000 53.61600 22.16500
H  22.87500 49.83200 24.88300
H  21.92100 49.36500 23.54200
H  22.26100 48.15800 24.85900
H  20.86200 50.26900 29.77200
H  18.67000 47.75200 32.44800
H  19.99500 48.30100 33.31500
H  20.31900 46.91200 32.37100

