158

Mg 47.17800 24.67600 28.21000
C  48.39500 26.86700 30.60000
C  46.66100 22.38000 30.83100
C  46.04900 22.40400 25.91600
C  48.11800 26.76200 25.77600
N  47.48900 24.60000 30.48500
C  47.89200 25.69500 31.18900
C  47.64900 25.44700 32.66100
C  47.39400 23.92900 32.80900
C  47.23400 23.56600 31.28700
C  48.54200 23.14700 33.46800
C  46.57100 26.43900 33.13600
C  46.90500 27.19800 34.51300
H  45.87900 27.14900 35.59200
N  46.31100 22.75900 28.37800
C  46.30600 21.97100 29.54300
C  45.88300 20.69000 29.19300
C  45.58900 20.67000 27.75800
C  45.95200 22.00100 27.28100
C  45.65400 19.56300 30.19400
C  45.08800 19.56400 26.95300
O  44.79300 19.68100 25.80900
C  44.78100 18.18800 27.59700
N  47.31500 24.44900 26.10700
C  46.75800 23.48000 25.35000
C  46.98400 23.83900 23.84000
C  47.41100 25.32700 23.89300
C  47.63400 25.52400 25.37000
C  47.91500 22.93300 22.90000
C  46.45000 26.33700 23.17900
C  46.81100 26.90300 21.69800
N  48.01700 26.44000 28.20000
C  48.33800 27.22600 27.08900
C  48.95700 28.45200 27.51300
C  48.99600 28.31900 28.89900
C  48.42200 27.11700 29.22500
C  49.45500 29.56300 26.65200
C  49.39400 29.02100 30.12300
O  49.97600 30.03400 30.30300
C  48.77800 28.16000 31.26900
C  49.73900 28.07500 32.37900
O  50.77200 27.44000 32.36400
O  49.22400 28.80700 33.45800
C  49.97800 28.82500 34.70600
H  46.42800 21.66300 31.62200
H  45.53400 21.81800 25.15200
H  48.35800 27.45700 24.96800
H  48.65200 25.67200 33.02200
H  46.50000 23.68500 33.38400
H  49.47200 23.71100 33.54100
H  48.86800 22.36500 32.78300
H  48.20500 22.58700 34.34100
H  45.59600 26.00500 33.35900
H  46.27200 27.14200 32.35900
H  46.96800 28.24800 34.22900
H  47.87700 26.77600 34.77000
H  44.59700 19.29700 30.19100
H  46.02400 19.70700 31.20900
H  46.08900 18.69200 29.70400
H  45.76400 17.86900 27.94400
H  44.54400 17.51200 26.77600
H  43.92300 18.18700 28.26900
H  45.98200 23.80500 23.41100
H  48.35000 25.67900 23.46600
H  48.79400 23.45100 22.51700
H  47.32900 22.63700 22.02900
H  48.27800 22.14700 23.56100
H  46.31500 27.21900 23.80500
H  45.44200 25.92500 23.13100
H  47.67900 26.38900 21.28500
H  47.02400 27.96400 21.82700
H  45.99100 27.00600 20.98700
H  49.63900 29.18400 25.64600
H  50.30600 30.05400 27.12300
H  48.62700 30.26800 26.58500
H  47.84600 28.61700 31.60100
H  51.04900 28.66100 34.59000
H  49.62200 28.06000 35.39600
H  49.93900 29.86700 35.02400
Mg 5.72700 53.88500 40.08100
C  5.21500 50.43600 40.17500
C  9.01100 53.17700 39.29000
C  6.10900 57.11000 39.11100
C  2.18200 54.26400 39.98500
N  7.03800 52.01000 39.86700
C  6.57200 50.74100 39.97600
C  7.71200 49.76300 39.75600
C  8.96300 50.74600 39.77900
C  8.29600 52.04500 39.61400
C  9.97700 50.73900 40.97500
C  7.63700 48.98500 38.46700
C  6.98400 49.72600 37.25200
H  7.87900 50.41000 36.28600
N  7.36100 55.01300 39.48100
C  8.62500 54.57600 39.27200
C  9.54300 55.69500 38.90300
C  8.71500 56.86600 38.91000
C  7.34700 56.33800 39.13300
C  11.06100 55.51000 38.63700
C  9.15300 58.35600 38.75300
O  10.35400 58.64300 38.58400
C  8.16600 59.51100 38.80900
N  4.34000 55.44900 39.49000
C  4.75500 56.74000 39.26900
C  3.55000 57.70600 39.33000
C  2.30100 56.75700 39.46300
C  2.95300 55.36400 39.60800
C  3.73200 58.82200 40.43700
C  1.43000 56.79500 38.20300
C  0.79000 58.10700 37.83300
N  4.00800 52.66600 40.31600
C  2.63100 52.96200 40.24200
C  1.91100 51.81500 40.64500
C  2.88900 50.80600 40.65000
C  4.12400 51.35700 40.31800
C  0.39900 51.65100 41.03100
C  3.02800 49.45000 40.83900
O  2.22800 48.57700 41.22200
C  4.50600 49.10500 40.50300
C  4.48400 48.19300 39.38100
O  3.89500 48.43300 38.35400
O  5.18200 47.05800 39.66800
C  5.25700 46.08500 38.63700
H  10.05500 52.90200 39.12700
H  6.19000 58.18000 38.90500
H  1.09000 54.26700 39.97600
H  7.67400 49.02400 40.55600
H  9.62900 50.56300 38.93500
H  9.71800 51.52100 41.68900
H  11.01600 50.85100 40.66500
H  9.85800 49.77200 41.46600
H  7.27500 47.95700 38.48000
H  8.68400 48.82400 38.21100
H  6.37800 50.53100 37.66800
H  6.23100 49.09000 36.78500
H  11.61300 55.34200 39.56100
H  11.56200 56.27000 38.03600
H  11.22000 54.57200 38.10600
H  7.57600 59.44700 37.89400
H  8.61500 60.49200 38.65100
H  7.78500 59.48600 39.83000
H  3.56500 58.16700 38.34300
H  1.77400 56.99800 40.38600
H  4.67400 58.56100 40.91800
H  2.90500 58.73800 41.14300
H  3.81600 59.84000 40.05700
H  0.69900 55.99700 38.33500
H  2.02000 56.48600 37.33900
H  -0.06300 57.77800 37.23900
H  1.31400 58.66500 37.05700
H  0.60800 58.74600 38.69700
H  0.14100 50.67900 41.45100
H  -0.09600 51.71300 40.06200
H  0.00600 52.48800 41.61000
H  4.99300 48.56000 41.31100
H  5.51900 45.18200 39.18800
H  6.00200 46.34800 37.88600
H  4.25300 46.00100 38.21900

