158

Mg -2.08300 34.66200 27.03300
C  -4.13600 33.44700 29.59200
C  -0.80600 36.90900 29.37700
C  -0.43400 35.99800 24.47200
C  -3.87900 32.59800 24.80100
N  -2.65800 35.35500 29.23100
C  -3.31500 34.52900 30.09100
C  -3.10600 34.88800 31.56700
C  -2.13300 36.09400 31.43000
C  -1.81900 36.14600 29.88400
C  -2.64100 37.45500 31.96800
C  -2.60900 33.66600 32.45700
C  -3.40800 33.44000 33.71500
H  -2.65600 32.70900 34.74400
N  -0.93300 36.30600 26.93200
C  -0.45400 37.04800 27.98000
C  0.49500 38.03400 27.54000
C  0.60500 37.72900 26.13000
C  -0.24500 36.60600 25.75300
C  1.11900 39.06600 28.41800
C  1.53700 38.40500 25.23300
O  1.70100 37.95500 24.10400
C  2.18000 39.68200 25.55100
N  -2.25300 34.36000 24.91600
C  -1.36100 34.97200 24.09600
C  -1.39100 34.44200 22.65000
C  -2.40800 33.20500 22.81100
C  -2.85600 33.39300 24.23600
C  -1.90800 35.37000 21.51300
C  -1.65600 31.89900 22.78200
C  -2.24500 30.67300 22.09400
N  -3.64800 33.29600 27.12600
C  -4.25200 32.55100 26.14700
C  -5.23400 31.71200 26.70100
C  -5.18600 32.01300 28.03900
C  -4.21400 33.02500 28.23600
C  -6.11800 30.71100 26.01600
C  -5.66700 31.68600 29.36500
O  -6.50200 30.90800 29.70400
C  -5.03700 32.59100 30.37800
C  -6.17100 33.27100 31.06000
O  -6.86200 34.24500 30.64200
O  -6.46700 32.62000 32.22300
C  -7.70000 33.07100 32.92600
H  -0.13800 37.36900 30.10800
H  0.22600 36.30000 23.65600
H  -4.28700 31.88000 24.08600
H  -4.06700 35.28600 31.89100
H  -1.21500 35.84600 31.96300
H  -2.71300 38.20500 31.18000
H  -2.06600 37.84600 32.80700
H  -3.64100 37.43600 32.40100
H  -1.61200 33.86500 32.85100
H  -2.62800 32.72600 31.90600
H  -4.20000 32.73400 33.46500
H  -3.85300 34.35200 34.11100
H  2.20900 39.08500 28.39100
H  0.82200 39.07300 29.46600
H  0.85200 40.09000 28.16100
H  1.48800 40.44700 25.90200
H  2.67300 39.99000 24.62900
H  2.93600 39.38100 26.27700
H  -0.38400 34.04900 22.51400
H  -3.25400 33.09500 22.13300
H  -2.70800 34.89000 20.94900
H  -1.13000 35.65800 20.80700
H  -2.36900 36.18100 22.07700
H  -1.27700 31.56100 23.74700
H  -0.79200 32.13300 22.16100
H  -1.72900 30.56700 21.14000
H  -3.31500 30.81300 21.93800
H  -2.13500 29.79000 22.72500
H  -6.01800 29.80100 26.60800
H  -5.87000 30.59500 24.96100
H  -7.06700 31.24700 26.05000
H  -4.47900 32.04600 31.13900
H  -7.33600 33.65900 33.76800
H  -8.23100 32.18700 33.27900
H  -8.40600 33.71800 32.40600
Mg -12.96000 15.65800 41.99000
C  -9.89000 14.22800 41.67400
C  -11.61800 18.61700 40.39200
C  -16.05600 17.07000 41.72700
C  -14.29300 12.69600 42.99700
N  -10.91400 16.29700 41.19100
C  -9.79300 15.53600 41.18700
C  -8.59700 16.14800 40.42600
C  -9.18300 17.57800 40.08900
C  -10.71600 17.49300 40.52300
C  -8.44500 18.78100 40.75800
C  -8.43700 15.27800 39.14200
C  -7.01400 14.91100 38.73000
H  -6.34200 15.81700 37.67400
N  -13.73800 17.61700 41.31200
C  -13.00000 18.64800 40.72600
C  -13.90200 19.66700 40.33800
C  -15.22100 19.17100 40.51000
C  -15.05900 17.91700 41.24800
C  -13.47800 20.94000 39.57500
C  -16.54300 19.83000 40.14100
O  -16.60200 20.99600 39.75800
C  -17.90700 19.15300 40.31500
N  -14.89300 14.96400 42.30400
C  -16.01400 15.75400 42.25400
C  -17.25900 14.85100 42.60800
C  -16.69800 13.38900 42.82800
C  -15.17800 13.67100 42.72700
C  -18.10500 15.35500 43.84000
C  -17.31700 12.25500 41.93100
C  -17.63700 10.89700 42.51600
N  -12.33300 13.84200 42.29100
C  -12.94700 12.68700 42.84100
C  -11.97700 11.62100 43.12400
C  -10.73900 12.21800 42.72200
C  -11.01200 13.55200 42.20200
C  -12.19400 10.21700 43.64900
C  -9.35600 12.06600 42.73300
O  -8.73600 11.07100 43.16800
C  -8.74600 13.21200 41.89200
C  -7.60800 13.76000 42.67800
O  -7.60600 14.17500 43.79700
O  -6.51300 13.82300 41.87300
C  -5.27300 14.36900 42.52100
H  -11.27600 19.53800 39.91500
H  -17.12000 17.31300 41.76600
H  -14.70600 11.81600 43.49400
H  -7.68900 16.12800 41.02900
H  -9.12800 17.77300 39.01800
H  -7.39200 18.62200 40.98600
H  -8.79800 18.92200 41.77900
H  -8.63100 19.73700 40.26800
H  -8.76800 15.87500 38.29200
H  -9.10300 14.42600 39.00400
H  -7.01600 13.91400 38.29100
H  -6.32100 14.81700 39.56600
H  -14.27700 21.27900 38.91600
H  -12.65100 20.84200 38.87200
H  -13.18800 21.77500 40.21200
H  -17.82100 18.24800 39.71400
H  -18.61500 19.88100 39.91800
H  -18.11100 19.11900 41.38500
H  -17.90300 14.93700 41.73300
H  -16.96800 13.06200 43.83200
H  -18.64900 14.59900 44.40600
H  -18.91400 16.04600 43.60500
H  -17.31100 15.73900 44.48200
H  -16.89700 12.15000 40.93100
H  -18.25100 12.74100 41.64900
H  -17.28600 10.15100 41.80200
H  -18.68900 10.68500 42.70900
H  -17.07500 10.80400 43.44500
H  -12.56600 10.15300 44.67200
H  -11.28800 9.62400 43.52500
H  -13.00200 9.80600 43.04400
H  -8.40400 12.77700 40.95300
H  -4.64800 13.56400 42.90600
H  -5.47500 15.18600 43.21300
H  -4.69400 14.85400 41.73500

