158

Mg 26.62700 50.60500 26.51500
C  24.70000 52.01700 29.02200
C  29.02000 49.70800 28.91900
C  28.71300 49.53900 24.02900
C  24.47800 52.03000 24.24400
N  26.82800 50.92600 28.69400
C  25.82400 51.37700 29.51300
C  26.23800 51.09100 30.97600
C  27.70000 50.55600 30.94800
C  27.84400 50.29800 29.44000
C  28.75900 51.46500 31.45100
C  25.25800 50.12600 31.73600
C  24.78100 50.50300 33.22800
H  24.94000 49.49400 34.39900
N  28.62500 49.69900 26.50100
C  29.43600 49.49300 27.57200
C  30.71100 48.92400 27.08600
C  30.64600 48.91900 25.57800
C  29.29200 49.38100 25.30500
C  31.85400 48.68700 28.09800
C  31.67700 48.51300 24.47200
O  31.57700 48.68000 23.22900
C  32.98300 47.92400 24.94100
N  26.64600 50.81700 24.46400
C  27.45300 50.12000 23.61400
C  27.01700 50.22300 22.17600
C  25.53300 50.74200 22.31600
C  25.54700 51.25300 23.75800
C  27.87400 51.21900 21.42200
C  24.42500 49.60700 22.21900
C  23.32600 49.96800 21.25300
N  24.89700 51.84200 26.56500
C  24.12300 52.25100 25.56900
C  22.94800 52.86200 26.03800
C  23.02000 52.81700 27.39900
C  24.31400 52.22200 27.70100
C  21.92700 53.53800 25.30500
C  22.47600 53.13800 28.68300
O  21.52700 53.82100 28.87700
C  23.55500 52.61100 29.77000
C  23.99100 53.81300 30.51600
O  24.61500 54.78000 30.10700
O  23.67100 53.66900 31.84300
C  24.19500 54.66700 32.78500
H  29.61700 49.25200 29.71100
H  29.23100 49.09800 23.17500
H  23.80800 52.40200 23.46600
H  26.27400 51.97800 31.60900
H  27.83600 49.57400 31.40200
H  28.56300 51.75100 32.48400
H  28.75400 52.37000 30.84500
H  29.72800 50.99300 31.61800
H  25.62400 49.10000 31.73200
H  24.41900 49.98500 31.05400
H  23.71300 50.71900 33.21200
H  25.40400 51.36600 33.46100
H  31.80800 47.66500 28.47500
H  31.87200 49.38300 28.93600
H  32.79400 48.89300 27.58500
H  32.73100 47.22600 25.73900
H  33.50700 48.76900 25.38900
H  33.60800 47.56800 24.12300
H  26.98200 49.23800 21.71100
H  25.43300 51.56000 21.60400
H  28.77700 51.59600 21.90100
H  27.32900 52.07000 21.01300
H  28.25800 50.77800 20.50200
H  23.95100 49.32500 23.15900
H  24.96500 48.75700 21.80100
H  23.62200 50.75700 20.56000
H  22.51400 50.38800 21.84700
H  23.01700 49.09300 20.68100
H  22.43900 54.18700 24.59400
H  21.31800 54.16600 25.95600
H  21.30900 52.83000 24.75300
H  23.12700 51.90200 30.47900
H  23.55000 54.51600 33.65000
H  23.97900 55.68900 32.47200
H  25.26600 54.46400 32.79000
Mg -6.20600 25.71000 26.15100
C  -4.35200 27.09400 28.63800
C  -7.56800 23.41300 28.35400
C  -7.66000 24.11300 23.52500
C  -4.24000 27.52100 23.78800
N  -5.87900 25.25100 28.23900
C  -5.22700 26.07400 29.09800
C  -5.65400 25.84500 30.59500
C  -6.25400 24.44000 30.40500
C  -6.62200 24.36300 28.92100
C  -5.48900 23.17500 30.87400
C  -6.63100 26.99600 31.30200
C  -7.63000 26.59300 32.42200
H  -7.13900 25.56200 33.47200
N  -7.67600 24.15400 26.02200
C  -8.07500 23.31000 27.05100
C  -9.10200 22.40800 26.54900
C  -9.22700 22.68700 25.15400
C  -8.14400 23.66400 24.83500
C  -9.81700 21.39800 27.52300
C  -10.21300 22.07300 24.14200
O  -10.16400 22.45800 22.97400
C  -11.28800 20.98700 24.55200
N  -5.89500 25.71600 23.93200
C  -6.61500 24.94800 23.09800
C  -6.14000 25.14100 21.66100
C  -5.01700 26.29900 21.73300
C  -5.02600 26.51100 23.22500
C  -5.65400 23.88000 20.91400
C  -5.46000 27.62300 20.98500
C  -4.34500 28.24200 20.15700
N  -4.64700 27.05100 26.19100
C  -4.04900 27.77300 25.12600
C  -3.12300 28.75700 25.74200
C  -3.31900 28.53300 27.10900
C  -4.13300 27.42900 27.31600
C  -2.22000 29.78200 25.13400
C  -3.08800 29.11500 28.44200
O  -2.47300 30.11000 28.79700
C  -3.74800 28.23500 29.50800
C  -2.75400 27.77600 30.50200
O  -1.71900 27.09600 30.35500
O  -3.20700 28.15100 31.67100
C  -2.44500 27.60400 32.84800
H  -8.01000 22.79100 29.13500
H  -8.22500 23.78200 22.65100
H  -3.59000 28.01600 23.06400
H  -4.84300 25.85700 31.32300
H  -7.19300 24.37800 30.95500
H  -5.93500 22.75000 31.77300
H  -4.51700 23.57000 31.17100
H  -5.47100 22.48100 30.03300
H  -7.19900 27.31500 30.42800
H  -6.05400 27.75600 31.82900
H  -8.39100 26.03600 31.87500
H  -8.11400 27.47200 32.84900
H  -10.83800 21.63200 27.82600
H  -9.25300 21.20400 28.43500
H  -9.91600 20.41800 27.05700
H  -10.95000 19.98700 24.82400
H  -11.89100 20.82600 23.65900
H  -11.88300 21.51500 25.29700
H  -6.99100 25.48000 21.07000
H  -4.05400 25.90400 21.40900
H  -4.73500 24.07600 20.36300
H  -6.36700 23.50100 20.18200
H  -5.39500 23.05100 21.57300
H  -5.58600 28.45800 21.67300
H  -6.39200 27.46100 20.44200
H  -4.74800 28.28600 19.14500
H  -3.41500 27.67600 20.20400
H  -4.05600 29.21600 20.55300
H  -1.20900 29.37800 25.18500
H  -2.33700 30.69300 25.72100
H  -2.48400 29.86000 24.07900
H  -4.51800 28.85000 29.97500
H  -2.17900 26.55000 32.76000
H  -3.22100 27.56600 33.61300
H  -1.74000 28.29900 33.30200

