158

Mg -2.54000 17.61200 26.36500
C  -2.81200 14.92600 28.89800
C  -2.85200 19.83100 28.92400
C  -2.30700 19.92400 24.03800
C  -2.94400 15.03900 23.96000
N  -2.82400 17.34400 28.62600
C  -2.91400 16.22400 29.42700
C  -2.94800 16.61300 30.95300
C  -3.23600 18.18100 30.85000
C  -2.94300 18.47400 29.41900
C  -4.72000 18.56900 31.28600
C  -1.67100 16.14000 31.78100
C  -1.10100 16.94200 32.97500
H  -0.69100 16.23200 34.27600
N  -2.61500 19.62700 26.44800
C  -2.74300 20.37000 27.61600
C  -2.67700 21.73400 27.22900
C  -2.40700 21.82100 25.79400
C  -2.39000 20.41900 25.37300
C  -2.69800 22.85300 28.19200
C  -2.24900 23.02700 24.88200
O  -2.15600 22.90100 23.64600
C  -2.00500 24.32300 25.49200
N  -2.58700 17.43200 24.25300
C  -2.47300 18.57000 23.48200
C  -2.32100 18.20700 21.95100
C  -2.68700 16.65300 21.98500
C  -2.73400 16.32500 23.49900
C  -3.08700 19.06100 20.93900
C  -1.97400 15.64800 21.04800
C  -2.82500 14.72700 20.15400
N  -2.84500 15.44000 26.38100
C  -2.97000 14.56500 25.30300
C  -2.97900 13.22000 25.77800
C  -3.01600 13.36200 27.18400
C  -2.84200 14.65900 27.48400
C  -3.00000 11.93700 24.99500
C  -3.09800 12.56200 28.38800
O  -3.19300 11.36300 28.50400
C  -3.01100 13.60500 29.54600
C  -1.92000 13.11800 30.35300
O  -0.74600 13.48700 30.33900
O  -2.44100 12.22900 31.25300
C  -1.40400 11.61900 32.20300
H  -2.85100 20.56700 29.73100
H  -2.30400 20.70900 23.27900
H  -3.07300 14.30200 23.16500
H  -3.75100 16.04300 31.41900
H  -2.51100 18.60800 31.54300
H  -4.71700 18.83400 32.34300
H  -5.43300 17.76500 31.10400
H  -5.11200 19.40700 30.70900
H  -0.85500 15.93300 31.08900
H  -1.98200 15.22200 32.27900
H  -1.80300 17.64400 33.42600
H  -0.27400 17.57700 32.65700
H  -2.99300 22.59000 29.20800
H  -3.43300 23.57100 27.82800
H  -1.74400 23.37800 28.14800
H  -1.68900 25.04800 24.74200
H  -1.13500 24.09000 26.10600
H  -2.85800 24.56800 26.12600
H  -1.24100 18.25100 21.81100
H  -3.72000 16.63200 21.63600
H  -3.75600 19.63200 21.58300
H  -3.75000 18.48400 20.29400
H  -2.45800 19.70500 20.32400
H  -1.37900 15.06600 21.75300
H  -1.32500 16.17200 20.34700
H  -2.46800 14.64900 19.12700
H  -3.88000 14.99600 20.20900
H  -2.76000 13.74600 20.62500
H  -2.19200 11.93200 24.26300
H  -4.01800 11.86300 24.61300
H  -2.81300 11.14400 25.72000
H  -3.97200 13.54800 30.05800
H  -1.83700 10.85300 32.84600
H  -1.10900 12.45500 32.83800
H  -0.50700 11.21200 31.73600
Mg -11.81800 37.91700 42.83100
C  -9.66900 35.32100 41.90200
C  -9.57700 40.15700 41.45200
C  -14.06200 40.42300 43.26600
C  -14.31600 35.52600 43.63300
N  -9.89700 37.76300 41.57500
C  -9.18500 36.57200 41.42300
C  -7.89500 36.86200 40.63900
C  -7.81300 38.41900 40.64100
C  -9.12700 38.82500 41.35600
C  -6.60000 39.11500 41.35300
C  -7.88900 36.17000 39.14000
C  -6.68800 35.31600 38.76300
H  -6.52400 34.81000 37.34700
N  -11.75600 39.95700 42.49900
C  -10.75200 40.69100 41.93500
C  -11.05700 42.00200 41.95100
C  -12.42100 42.15100 42.40000
C  -12.79400 40.78800 42.82400
C  -10.14400 43.12600 41.30500
C  -13.26100 43.42200 42.34300
O  -12.77100 44.42600 41.90300
C  -14.75200 43.52200 42.79800
N  -13.85000 37.88800 43.25000
C  -14.53400 39.11000 43.46900
C  -15.91100 38.86700 44.12700
C  -16.04800 37.32600 44.00700
C  -14.71500 36.88400 43.54100
C  -15.87000 39.41200 45.54700
C  -17.24600 36.82700 43.04100
C  -18.39000 36.09700 43.80800
N  -12.05500 35.89800 42.70200
C  -13.05300 35.07000 43.18100
C  -12.62800 33.68400 43.15400
C  -11.29700 33.78500 42.68700
C  -11.01700 35.10200 42.36900
C  -13.47600 32.45800 43.56800
C  -10.06600 33.00700 42.42000
O  -9.81600 31.79500 42.59900
C  -8.99200 33.95600 41.94500
C  -7.86200 33.89900 42.92900
O  -7.98100 34.20500 44.09600
O  -6.71100 33.52400 42.34600
C  -5.61000 33.25000 43.33600
H  -8.83300 40.89000 41.13300
H  -14.76400 41.17100 43.64100
H  -15.06000 34.80800 43.98500
H  -7.15600 36.47300 41.34000
H  -7.78600 38.72200 39.59400
H  -5.94200 39.28500 40.50000
H  -6.15900 38.32900 41.96700
H  -6.89900 40.00600 41.90300
H  -7.90200 36.99900 38.43300
H  -8.83600 35.66300 38.95500
H  -6.64500 34.39800 39.35000
H  -5.81400 35.80900 39.18700
H  -10.23600 42.90000 40.24300
H  -9.16000 42.96100 41.74400
H  -10.34200 44.18500 41.46600
H  -15.41400 42.73500 42.43600
H  -15.27600 44.34900 42.31900
H  -14.78000 43.51100 43.88700
H  -16.65500 39.33800 43.48400
H  -16.18600 36.95400 45.02300
H  -16.26500 40.42500 45.61900
H  -14.88700 39.15500 45.94400
H  -16.62600 38.85000 46.09500
H  -16.79400 36.06600 42.40600
H  -17.62800 37.64000 42.42300
H  -19.34800 36.60700 43.70400
H  -18.16700 35.96300 44.86600
H  -18.46500 35.10600 43.36000
H  -12.80600 31.61300 43.72300
H  -14.24700 32.12700 42.87200
H  -13.91100 32.70900 44.53500
H  -8.62600 33.84800 40.92400
H  -4.73900 32.89800 42.78400
H  -5.92500 32.49300 44.05500
H  -5.23900 34.07600 43.94300

