158

Mg 17.17400 -1.52000 27.77600
C  15.89300 0.28300 30.48800
C  19.32000 -2.96400 30.03400
C  18.46700 -3.17200 25.20800
C  15.10200 0.23000 25.46600
N  17.41300 -1.39400 30.02500
C  16.91600 -0.55200 30.89100
C  17.42100 -0.71500 32.33000
C  18.75500 -1.56200 32.12800
C  18.46800 -1.95800 30.63200
C  20.03600 -0.78200 32.52700
C  16.42100 -1.44100 33.17400
C  16.50100 -1.17400 34.73800
H  17.72500 -0.53000 35.33900
N  18.74400 -2.86900 27.63200
C  19.38600 -3.40700 28.65100
C  20.24700 -4.48900 28.06500
C  19.96400 -4.62300 26.69500
C  19.05400 -3.53400 26.46100
C  21.13000 -5.39900 28.96400
C  20.59500 -5.52500 25.63100
O  20.38700 -5.42300 24.45700
C  21.43100 -6.76900 26.02700
N  16.75400 -1.55400 25.58400
C  17.62200 -2.12600 24.77800
C  17.30100 -1.89600 23.30600
C  16.18400 -0.79700 23.34700
C  15.98800 -0.68300 24.91600
C  18.50700 -1.70000 22.42300
C  14.91100 -1.00400 22.49700
C  15.05200 -0.86300 21.00300
N  15.77000 -0.11000 27.85400
C  14.92900 0.52400 26.88300
C  13.96000 1.34200 27.63700
C  14.28200 1.26000 28.99700
C  15.46400 0.37500 29.12600
C  12.86100 2.06000 26.97000
C  13.91900 1.63300 30.32300
O  13.05600 2.41100 30.70000
C  14.92100 1.03400 31.34300
C  15.52400 2.20100 32.12600
O  16.31000 3.01500 31.65800
O  15.13000 2.10700 33.46600
C  15.90800 3.01500 34.25900
H  20.07900 -3.42500 30.67000
H  18.83400 -3.75800 24.36300
H  14.38700 0.70500 24.79200
H  17.47600 0.26200 32.81000
H  18.74700 -2.45000 32.76000
H  19.90200 0.19000 33.00100
H  20.60500 -0.66400 31.60400
H  20.63000 -1.55500 33.01400
H  16.54500 -2.51100 33.00500
H  15.37200 -1.17400 33.04600
H  16.46500 -2.15200 35.21600
H  15.53500 -0.74900 35.01100
H  20.72500 -6.40900 29.01900
H  21.10500 -5.16100 30.02700
H  22.12400 -5.51900 28.53300
H  22.39700 -6.45100 26.41900
H  21.43800 -7.58500 25.30500
H  20.92800 -7.28700 26.84400
H  16.93900 -2.86600 22.96300
H  16.68800 0.08500 22.95200
H  19.43100 -1.90700 22.96300
H  18.60300 -0.66500 22.09400
H  18.51200 -2.36800 21.56200
H  14.24900 -0.18300 22.77100
H  14.30500 -1.88700 22.69600
H  16.02700 -0.55400 20.62600
H  14.35100 -0.06400 20.76500
H  14.74300 -1.80400 20.54600
H  12.99100 2.37000 25.93400
H  12.54100 2.94800 27.51500
H  12.06600 1.31400 26.99600
H  14.39900 0.47700 32.12000
H  16.96200 3.10400 33.99500
H  15.85800 2.72000 35.30700
H  15.42000 3.98900 34.23100
Mg 45.00200 4.43300 47.89300
C  42.73800 7.11400 47.17400
C  42.34500 2.41100 47.68100
C  47.15400 1.86700 47.52900
C  47.66700 6.72600 47.55000
N  42.73300 4.78000 47.59000
C  42.05000 5.90200 47.28000
C  40.60300 5.60800 46.86000
C  40.44600 4.17400 47.41800
C  41.96300 3.71800 47.65700
C  39.64400 4.08300 48.80400
C  40.33700 5.79200 45.30800
C  39.40200 6.97000 44.91800
H  39.77700 7.83000 43.69800
N  44.77200 2.39600 47.61000
C  43.57100 1.72400 47.58000
C  43.74700 0.32100 47.36100
C  45.16000 0.13000 47.28400
C  45.77200 1.50400 47.48800
C  42.60700 -0.78100 47.28100
C  45.94800 -1.20900 47.20900
O  45.27100 -2.26200 47.21800
C  47.41000 -1.34300 47.17400
N  47.16600 4.29000 47.68400
C  47.84800 3.09300 47.70100
C  49.33000 3.35000 47.50000
C  49.43000 4.87900 47.57700
C  47.99600 5.37500 47.52700
C  50.23900 2.63000 48.45400
C  50.33900 5.59600 46.51100
C  51.86700 5.16800 46.64600
N  45.21700 6.50500 47.63000
C  46.36100 7.26700 47.43900
C  46.03000 8.59800 47.20500
C  44.63200 8.62400 47.21000
C  44.17300 7.29800 47.35500
C  47.03300 9.71900 47.03500
C  43.49400 9.47100 47.08200
O  43.39800 10.67700 47.12000
C  42.19600 8.50500 47.03500
C  41.39600 8.90000 48.31300
O  41.54300 8.42700 49.44600
O  40.62000 9.87800 47.99200
C  39.98800 10.52500 49.16600
H  41.46600 1.76800 47.59800
H  47.81500 1.02600 47.30600
H  48.54600 7.37200 47.52400
H  39.88300 6.25200 47.36500
H  39.90400 3.53900 46.71700
H  40.12100 3.69900 49.70600
H  38.80600 3.41500 48.60500
H  39.18700 5.03200 49.08400
H  39.72900 4.91400 45.09300
H  41.23500 5.82100 44.68900
H  39.24300 7.60900 45.78700
H  38.38700 6.62600 44.71900
H  42.57200 -1.21500 46.28100
H  41.59700 -0.40200 47.44000
H  42.78200 -1.48000 48.09900
H  47.83400 -0.72500 46.38300
H  47.74900 -2.32900 46.85500
H  47.76500 -1.27500 48.20200
H  49.52400 2.97800 46.49400
H  49.78300 5.20100 48.55600
H  49.70200 1.92000 49.08200
H  50.71600 3.25800 49.20700
H  50.95400 2.10600 47.82000
H  50.15900 6.66500 46.39400
H  49.83500 5.35500 45.57500
H  52.14600 4.54900 45.79400
H  51.96100 4.55500 47.54200
H  52.41600 6.10600 46.72900
H  47.55300 9.74300 46.07700
H  47.75700 9.70700 47.85000
H  46.41700 10.61700 47.08200
H  41.62000 8.58100 46.11200
H  39.90200 9.89700 50.05200
H  38.98900 10.90000 48.94100
H  40.64900 11.35500 49.41400

