158

Mg 17.21100 -1.47900 28.03100
C  16.15600 0.68400 30.71800
C  19.25300 -3.09800 30.34900
C  18.74700 -3.07200 25.56700
C  15.76000 0.67600 25.85400
N  17.63100 -1.17600 30.23900
C  16.98100 -0.31200 31.11700
C  17.32500 -0.57300 32.53500
C  18.49100 -1.55500 32.32800
C  18.47300 -2.04600 30.87700
C  19.84100 -1.10800 32.78300
C  16.17100 -1.17900 33.41100
C  15.93900 -0.49000 34.78800
H  17.12300 0.28600 35.43400
N  18.77900 -2.88200 27.94900
C  19.41000 -3.52400 29.03300
C  20.27000 -4.59200 28.58600
C  20.07800 -4.62900 27.16100
C  19.14000 -3.53600 26.80300
C  21.27200 -5.33300 29.44700
C  20.71800 -5.51100 26.13400
O  20.40700 -5.46700 24.95300
C  21.58700 -6.63300 26.54900
N  17.20600 -1.23900 26.03600
C  17.87900 -2.06600 25.21700
C  17.73500 -1.55100 23.79800
C  16.60500 -0.51600 23.92100
C  16.51800 -0.36100 25.35300
C  19.08700 -1.00300 23.28300
C  15.22000 -0.87500 23.27100
C  14.89600 -0.10500 21.97800
N  16.18000 0.35200 28.23500
C  15.63800 1.07600 27.17900
C  14.88200 2.15500 27.79900
C  15.04300 2.07300 29.14500
C  15.83300 0.92600 29.39600
C  14.10300 3.11300 26.96000
C  14.77300 2.63400 30.45100
O  14.08800 3.67900 30.64300
C  15.47300 1.74700 31.56200
C  16.44200 2.70000 32.26100
O  17.63300 2.75100 32.09000
O  15.74200 3.53800 33.11400
C  16.50700 4.67600 33.60900
H  19.85300 -3.57400 31.12700
H  19.13900 -3.55300 24.66900
H  15.28200 1.29900 25.09500
H  17.67900 0.35500 32.98300
H  18.30900 -2.47700 32.88100
H  20.10000 -1.61200 33.71400
H  19.87100 -0.02000 32.72600
H  20.56700 -1.24200 31.98200
H  16.37000 -2.22500 33.64500
H  15.17700 -1.17700 32.96400
H  15.86100 -1.31700 35.49500
H  14.98400 0.02600 34.69200
H  20.88600 -6.33500 29.63400
H  21.53400 -4.76400 30.33900
H  22.23400 -5.30000 28.93600
H  21.68600 -7.36500 25.74800
H  21.16100 -7.16600 27.40000
H  22.50700 -6.07000 26.70400
H  17.42100 -2.40600 23.19900
H  17.02400 0.43000 23.57800
H  19.79400 -0.68500 24.04900
H  18.89600 -0.09500 22.71000
H  19.56400 -1.77700 22.68200
H  14.35300 -0.75600 23.92100
H  15.22300 -1.87800 22.84400
H  13.90000 0.31000 22.12800
H  14.83600 -0.71000 21.07300
H  15.62600 0.66300 21.72500
H  14.59300 3.98900 26.53600
H  13.24900 3.47000 27.53500
H  13.56000 2.54100 26.20700
H  14.74100 1.44700 32.31200
H  16.73100 5.37900 32.80700
H  17.45300 4.29000 33.98900
H  16.03900 5.18300 34.45200
Mg 6.49300 54.21200 40.67800
C  5.87700 50.76800 40.03500
C  9.71900 53.49100 39.78500
C  6.90400 57.45500 40.47900
C  3.15700 54.58800 41.41600
N  7.58400 52.36600 39.61600
C  7.08900 51.07600 39.52100
C  8.22400 50.09700 39.25700
C  9.54400 50.95300 39.72200
C  8.93900 52.34200 39.71400
C  10.06800 50.58600 41.12600
C  8.33100 49.27600 37.86300
C  8.16700 49.98900 36.51000
H  6.98400 49.76500 35.65300
N  8.03500 55.34300 40.08000
C  9.31000 54.87500 39.86300
C  10.22100 55.95900 39.77400
C  9.47400 57.13400 39.95100
C  8.09600 56.68000 40.23400
C  11.64200 55.75500 39.35800
C  9.99500 58.57000 39.95400
O  11.22900 58.71800 39.79700
C  9.17000 59.72900 40.43000
N  5.16700 55.79700 40.71500
C  5.56000 57.06900 40.67500
C  4.44800 58.11100 41.11200
C  3.21400 57.18600 41.15400
C  3.89700 55.74800 41.20200
C  4.84800 58.83300 42.48300
C  2.21800 57.38300 39.96400
C  0.81200 56.81400 39.95600
N  4.87400 52.92600 40.86400
C  3.62100 53.23100 41.26400
C  2.88400 52.03700 41.37700
C  3.68600 50.99400 41.02000
C  4.88100 51.62900 40.60600
C  1.49100 51.84600 41.74200
C  3.81400 49.52700 40.80300
O  2.98600 48.59600 40.89200
C  5.23000 49.36100 40.19200
C  4.99500 48.59100 38.89000
O  4.74200 49.03300 37.76600
O  5.06200 47.26400 39.21100
C  4.67500 46.31500 38.12500
H  10.78200 53.31000 39.61000
H  6.94000 58.54200 40.58500
H  2.15100 54.61000 41.84100
H  8.10800 49.23600 39.91600
H  10.22400 50.83000 38.87800
H  9.45500 49.84700 41.64200
H  9.97400 51.48800 41.73000
H  11.09000 50.25300 40.94200
H  7.59600 48.48300 38.00500
H  9.32100 48.82500 37.92700
H  9.06600 49.78400 35.92900
H  8.22600 51.04300 36.78000
H  11.84000 55.80500 38.28700
H  12.16700 54.85100 39.66500
H  12.17200 56.53700 39.90100
H  8.34600 60.01900 39.77700
H  9.86400 60.55500 40.58400
H  8.86700 59.44400 41.43700
H  4.36800 58.83300 40.29800
H  2.67000 57.26300 42.09500
H  5.87700 58.60600 42.75900
H  4.25100 58.49600 43.33000
H  4.75700 59.88700 42.21800
H  2.70200 56.93800 39.09400
H  2.15100 58.46100 39.82000
H  0.64300 56.30600 40.90600
H  0.67400 56.10400 39.14000
H  0.02900 57.56700 39.86600
H  0.81700 52.24800 40.98600
H  1.30400 52.49200 42.60100
H  1.24600 50.83300 42.06100
H  5.86600 48.59500 40.63500
H  4.83700 46.71200 37.12300
H  3.63500 45.98700 38.13400
H  5.38600 45.49600 38.23500

