158

Mg 40.97600 7.93400 29.61500
C  42.93000 9.32800 32.19500
C  38.74300 6.70200 31.91200
C  39.26200 6.57800 27.09900
C  43.48700 8.88900 27.43600
N  40.86800 8.12500 31.71300
C  41.73400 8.78200 32.51900
C  41.19700 8.68600 34.04700
C  39.80800 7.98100 33.92700
C  39.79900 7.51900 32.48400
C  39.63500 6.88300 34.94400
C  41.06700 10.12500 34.72800
C  40.33100 10.15700 36.09200
H  41.18100 10.36600 37.40000
N  39.22100 6.85400 29.53700
C  38.48600 6.41300 30.56700
C  37.34200 5.64400 30.09300
C  37.39800 5.67900 28.67300
C  38.68000 6.39600 28.33400
C  36.40100 4.86200 30.94900
C  36.42700 5.30200 27.60400
O  36.68600 5.32600 26.44200
C  34.98500 5.08200 28.07000
N  41.41300 7.66800 27.54100
C  40.40200 7.25500 26.72400
C  40.91500 7.34600 25.26000
C  42.11700 8.32000 25.34900
C  42.30900 8.37300 26.84900
C  41.36100 5.96500 24.65800
C  41.84600 9.82500 24.89600
C  40.55000 10.52400 25.28500
N  42.85500 8.72600 29.78000
C  43.77000 9.06100 28.82500
C  44.93300 9.66000 29.31700
C  44.62800 9.84900 30.64200
C  43.39700 9.22900 30.86600
C  46.05900 10.37400 28.55300
C  45.21100 10.32900 31.90100
O  46.27600 10.88100 32.09000
C  44.14400 9.92200 32.93600
C  44.74900 9.07600 33.99600
O  45.06300 7.87900 33.98000
O  44.92200 9.96900 35.03600
C  45.31400 9.36800 36.34800
H  37.98500 6.27900 32.57500
H  38.70800 6.23500 26.22300
H  44.22800 9.33300 26.76800
H  41.94000 8.03000 34.50000
H  39.04200 8.74800 34.04100
H  40.04200 7.20600 35.90200
H  40.22600 6.02300 34.63200
H  38.60500 6.57600 35.12900
H  40.56600 10.71800 33.96200
H  42.07100 10.51200 34.90200
H  39.78500 9.21700 36.17200
H  39.53200 10.88200 35.93800
H  37.04000 4.52200 31.76400
H  36.10300 3.90900 30.51200
H  35.60600 5.44600 31.41000
H  34.90200 4.12500 28.58600
H  34.36800 4.97200 27.17800
H  34.64800 5.91300 28.68900
H  40.15200 7.73200 24.58400
H  43.00300 8.06600 24.76800
H  41.04100 5.17800 25.34200
H  42.43400 6.02600 24.48200
H  40.83600 5.71100 23.73700
H  41.93300 9.81400 23.81000
H  42.78000 10.27300 25.23400
H  40.17300 11.01000 24.38500
H  40.74900 11.13800 26.16300
H  39.74500 9.84500 25.56400
H  45.71700 11.30800 28.10700
H  46.50300 9.76800 27.76300
H  46.87800 10.46700 29.26600
H  43.73700 10.83100 33.37800
H  46.38500 9.55700 36.41700
H  45.13200 8.29400 36.32900
H  44.75200 9.85600 37.14500
Mg 8.08200 47.76400 24.69400
C  5.76900 48.20800 27.19600
C  10.55000 48.90400 26.70300
C  10.22000 47.54100 21.95100
C  5.42200 47.29900 22.39600
N  8.14200 48.33200 26.72700
C  7.11000 48.45600 27.57600
C  7.61300 48.79800 29.02000
C  9.05400 49.32600 28.82700
C  9.27800 48.84500 27.34600
C  9.34300 50.79800 29.23700
C  7.41600 47.73500 30.11400
C  8.29800 47.83400 31.41400
H  7.73400 47.12100 32.65900
N  10.02700 48.14400 24.42900
C  10.90500 48.59100 25.37400
C  12.29300 48.55700 24.90100
C  12.23100 48.17800 23.46800
C  10.82000 47.92700 23.22100
C  13.48500 48.88900 25.71800
C  13.34700 47.94100 22.56300
O  13.19100 47.69400 21.36600
C  14.75700 48.07600 23.00200
N  7.86900 47.38900 22.48400
C  8.85400 47.28700 21.62200
C  8.36600 47.29200 20.13500
C  6.85400 47.14700 20.28200
C  6.70000 47.29600 21.81200
C  8.87500 48.61800 19.46200
C  6.18800 45.95500 19.60300
C  6.39700 45.73600 18.06200
N  6.00000 47.91100 24.69600
C  5.07900 47.54800 23.73600
C  3.78700 47.46500 24.38200
C  4.00100 47.80400 25.74700
C  5.37400 48.00600 25.86100
C  2.47500 47.26500 23.67900
C  3.36500 47.98800 27.04500
O  2.15000 47.87500 27.34600
C  4.48500 48.16600 28.01300
C  4.41400 46.88900 28.81200
O  5.00100 45.84100 28.57600
O  3.91800 47.21900 30.04900
C  3.93600 46.20000 31.08800
H  11.32300 49.28400 27.37400
H  10.86400 47.37600 21.08400
H  4.63600 47.17000 21.64900
H  7.05500 49.69500 29.29000
H  9.75800 48.72500 29.40100
H  9.36600 51.57800 28.47600
H  10.32100 50.84700 29.71500
H  8.56000 51.09800 29.93400
H  7.59200 46.78000 29.61800
H  6.38500 47.71000 30.46700
H  8.42900 48.89800 31.61100
H  9.26400 47.41900 31.12600
H  13.16300 49.19400 26.71400
H  14.05800 49.71400 25.29400
H  14.16200 48.05800 25.91800
H  14.97800 47.28000 23.71300
H  15.04300 49.10000 23.24100
H  15.34000 47.81800 22.11800
H  8.78800 46.41000 19.65400
H  6.30700 48.03000 19.95200
H  9.29700 49.26300 20.23300
H  8.02300 49.13300 19.01900
H  9.63500 48.33900 18.73200
H  5.10500 45.88300 19.71200
H  6.64100 45.11700 20.13300
H  6.47400 46.67900 17.52100
H  5.59100 45.11100 17.67900
H  7.31900 45.18200 17.88300
H  1.99300 48.23000 23.52000
H  1.93200 46.71400 24.44800
H  2.65700 46.67200 22.78400
H  4.25500 49.05200 28.60600
H  3.97100 46.71600 32.04700
H  4.86900 45.63500 31.06200
H  3.11100 45.50400 30.93800

