158

Mg 54.35700 24.05300 44.78000
C  51.93200 26.50400 43.34600
C  52.57000 21.61500 43.16600
C  57.02100 22.06100 44.95900
C  56.18900 26.77800 45.87800
N  52.55400 24.20300 43.29900
C  51.69900 25.21000 42.97600
C  50.56300 24.78800 42.06400
C  50.62500 23.22600 42.31600
C  52.05300 22.91000 42.92300
C  49.53700 22.84300 43.36300
C  50.73900 25.21900 40.62200
C  52.13600 25.69000 40.12500
H  52.95800 24.64700 39.41000
N  54.62800 22.05400 44.41300
C  53.78000 21.20900 43.80900
C  54.27200 19.86500 43.99400
C  55.65200 19.97300 44.37800
C  55.83900 21.38400 44.57400
C  53.42700 18.68500 43.64500
C  56.69800 18.82600 44.58900
O  56.32600 17.66400 44.55900
C  58.11700 19.11700 45.01900
N  56.46700 24.47600 45.01600
C  57.27500 23.44800 45.18800
C  58.57900 23.85600 45.86100
C  58.31200 25.34900 46.33200
C  56.89900 25.57800 45.72600
C  59.19400 22.92700 47.02300
C  59.35200 26.36500 45.69600
C  59.58300 27.66200 46.43300
N  54.18500 26.19400 44.63600
C  54.94500 27.10500 45.28200
C  54.24800 28.37800 45.29900
C  53.08700 28.16900 44.51900
C  53.10100 26.88300 44.04900
C  54.71500 29.52200 45.97600
C  51.86100 28.86100 44.08300
O  51.42100 30.00600 44.22500
C  51.09000 27.78600 43.24100
C  50.76700 28.31200 41.85400
O  51.61700 28.65900 41.02800
O  49.40700 28.36300 41.73600
C  49.09200 28.85000 40.36900
H  51.85700 20.87400 42.79900
H  57.90600 21.42700 45.04500
H  56.72500 27.59200 46.36800
H  49.74800 25.32000 42.55500
H  50.46100 22.63500 41.41500
H  48.61000 22.86400 42.78900
H  49.54000 23.52100 44.21600
H  49.76000 21.84700 43.74500
H  50.08500 26.06900 40.43000
H  50.42000 24.38900 39.99100
H  52.77900 26.20000 40.84200
H  51.97100 26.60800 39.56100
H  53.58800 18.20300 42.68000
H  52.46500 19.14900 43.43100
H  53.31800 18.05600 44.52800
H  58.52900 18.11600 45.15100
H  58.10900 19.58300 46.00500
H  58.66200 19.71600 44.29000
H  59.19900 23.74300 44.97200
H  58.24500 25.40800 47.41800
H  58.42200 22.17800 47.19600
H  59.43900 23.47700 47.93200
H  60.11400 22.45000 46.68500
H  59.00300 26.57700 44.68600
H  60.27800 25.80000 45.58900
H  60.64000 27.80300 46.66100
H  59.00000 27.57100 47.35000
H  59.30500 28.54200 45.85200
H  55.01600 30.27400 45.24600
H  55.48200 29.25300 46.70300
H  53.81900 29.90900 46.46000
H  50.19900 27.54600 43.82000
H  49.14900 29.93800 40.42000
H  48.05600 28.69200 40.06800
H  49.77700 28.32400 39.70500
Mg 26.86000 50.43500 26.74600
C  24.76700 51.37900 29.32300
C  29.24100 49.80700 29.13700
C  29.01900 49.45700 24.23100
C  24.61800 51.38200 24.42500
N  26.96900 50.48900 28.94500
C  25.97800 50.96200 29.81300
C  26.42800 50.83600 31.27500
C  27.90000 50.59900 31.12200
C  28.07400 50.32100 29.62600
C  28.85100 51.79900 31.58000
C  25.60200 49.71000 32.10600
C  24.87400 50.24700 33.30900
H  24.78500 49.37900 34.54600
N  28.80800 49.66000 26.64300
C  29.64900 49.51900 27.76300
C  31.00000 49.04700 27.34700
C  30.90900 49.09600 25.90200
C  29.56000 49.37800 25.53700
C  31.97300 48.60100 28.34900
C  32.08000 48.95800 24.89600
O  32.01400 49.10300 23.67400
C  33.40600 48.74300 25.48400
N  26.82900 50.18200 24.62000
C  27.80300 49.83000 23.78700
C  27.26200 49.81200 22.31300
C  25.80100 50.37300 22.45000
C  25.72900 50.71700 23.93100
C  28.05900 50.50600 21.25600
C  24.65500 49.36300 21.96500
C  23.80300 49.80700 20.75900
N  25.09000 51.25300 26.82800
C  24.27000 51.61800 25.77400
C  23.14600 52.34100 26.38100
C  23.18700 52.18100 27.75000
C  24.43300 51.51300 27.93000
C  22.00400 53.01900 25.52300
C  22.52400 52.48200 29.04800
O  21.43900 53.05600 29.21500
C  23.58500 51.91200 30.13300
C  23.93800 53.13500 30.86000
O  24.65800 54.04600 30.45700
O  23.31800 53.03900 32.09600
C  23.76600 53.96700 33.16200
H  29.91100 49.59400 29.97300
H  29.66300 48.98600 23.48600
H  23.83900 51.58200 23.68700
H  26.23300 51.82000 31.70100
H  28.13900 49.79600 31.81900
H  29.28700 51.59800 32.55800
H  28.34600 52.75800 31.70200
H  29.67800 51.93000 30.88300
H  26.18800 48.88500 32.50900
H  24.87400 49.32300 31.39200
H  23.85800 50.44400 32.96500
H  25.32300 51.16900 33.67700
H  32.93300 49.11100 28.28300
H  32.21500 47.53800 28.34500
H  31.65600 48.82500 29.36800
H  33.84200 49.57000 26.04500
H  34.02600 48.45000 24.63700
H  33.30900 47.86300 26.12000
H  27.30300 48.75400 22.05200
H  25.62000 51.32100 21.94500
H  28.93900 50.92500 21.74500
H  27.50100 51.36800 20.89100
H  28.31200 49.83200 20.43700
H  24.10700 49.11900 22.87600
H  25.05700 48.42200 21.58900
H  24.04600 50.85300 20.57000
H  22.73700 49.80000 20.98500
H  24.06300 49.19700 19.89400
H  22.20200 52.79500 24.47500
H  22.06400 54.05300 25.86200
H  21.00700 52.66900 25.79200
H  23.05600 51.21500 30.78300
H  24.69700 53.69600 33.65900
H  23.03000 54.30100 33.89300
H  24.01300 54.97800 32.83800

