158

Mg 9.03100 2.68800 27.62900
C  9.97800 1.05300 30.61500
C  7.47800 5.02100 29.41200
C  7.70000 3.87500 24.65000
C  10.52000 0.04300 25.72500
N  8.80100 3.05300 29.73300
C  9.26600 2.24900 30.83300
C  8.94500 2.98100 32.18800
C  8.02000 4.22400 31.82200
C  8.08700 4.08700 30.22000
C  6.63900 4.11800 32.48100
C  10.22100 3.35800 32.91800
C  10.07000 4.02000 34.37700
H  11.01700 3.59800 35.49200
N  7.92500 4.33100 27.11200
C  7.30700 5.13400 27.99300
C  6.53400 6.15300 27.28500
C  6.51900 5.78600 25.90300
C  7.43800 4.63200 25.83800
C  5.87400 7.41700 27.95200
C  5.83200 6.50700 24.71700
O  6.04100 6.07400 23.56700
C  4.94400 7.69300 24.98200
N  9.09400 2.01300 25.54200
C  8.45400 2.67500 24.54200
C  8.64200 1.93300 23.16600
C  9.74300 0.85700 23.47900
C  9.78400 0.94200 25.05000
C  7.27000 1.36400 22.45600
C  11.08900 0.92500 22.69600
C  11.17200 0.14000 21.38800
N  9.94200 0.85700 27.99100
C  10.56700 -0.03900 27.15000
C  11.14800 -1.11200 27.93200
C  10.96700 -0.72200 29.29500
C  10.20500 0.47100 29.27000
C  12.00900 -2.27600 27.40100
C  11.25800 -1.07500 30.71400
O  11.91100 -2.03700 31.13800
C  10.68300 0.15600 31.59500
C  9.80500 -0.42600 32.58400
O  8.86900 -1.17400 32.38500
O  10.35900 -0.17700 33.85600
C  9.68300 -0.96300 34.89600
H  6.95600 5.76600 30.01700
H  7.30600 4.17700 23.67800
H  10.95800 -0.77000 25.14200
H  8.40300 2.19000 32.70600
H  8.47400 5.12900 32.22500
H  5.88300 3.90200 31.72500
H  6.40000 5.04000 33.01100
H  6.53600 3.20100 33.06100
H  10.69500 4.18000 32.38100
H  10.90300 2.50800 32.90800
H  9.01700 4.19200 34.60100
H  10.36500 5.06100 34.24500
H  6.08100 7.55300 29.01400
H  4.82000 7.18800 27.79300
H  6.19200 8.31400 27.42100
H  4.05000 7.31300 25.47600
H  4.55100 7.91700 23.99100
H  5.40300 8.58400 25.41000
H  9.01800 2.66300 22.45000
H  9.21300 -0.06900 23.25300
H  7.39400 0.30700 22.22300
H  7.07400 1.98200 21.58000
H  6.50400 1.51700 23.21700
H  11.94200 0.57200 23.27600
H  11.31500 1.97600 22.51500
H  10.89400 0.76100 20.53600
H  10.45500 -0.67600 21.47800
H  12.15400 -0.28000 21.17200
H  12.84600 -1.88200 26.82500
H  11.60900 -3.10300 26.81500
H  12.30300 -2.82000 28.29900
H  11.49300 0.67900 32.10400
H  9.72300 -0.50800 35.88600
H  10.10100 -1.96900 34.93800
H  8.61600 -1.02500 34.68600
Mg 52.88300 24.18100 45.45700
C  50.08800 26.33500 44.76600
C  51.14000 21.78200 43.88700
C  55.65600 22.53600 45.53400
C  54.52000 27.11200 46.58200
N  50.89300 24.22100 44.19700
C  49.97800 25.12900 44.04300
C  48.74400 24.51200 43.26800
C  48.89900 23.01100 43.52300
C  50.40700 22.98500 43.94800
C  48.12000 22.35000 44.60500
C  48.75400 24.93700 41.76200
C  47.30100 25.04200 41.16500
H  46.89700 23.87300 40.23400
N  53.34800 22.41000 44.76500
C  52.51500 21.50500 44.21200
C  53.22700 20.25900 44.09400
C  54.55900 20.51300 44.55400
C  54.58200 21.93700 44.98900
C  52.65900 19.04700 43.37100
C  55.72600 19.48200 44.52500
O  55.51600 18.33300 44.06500
C  57.15500 19.80900 44.87400
N  54.85200 24.79800 45.86400
C  55.78500 23.87600 45.98000
C  56.95300 24.39200 46.85400
C  56.73000 25.94900 46.73600
C  55.27400 25.94300 46.38500
C  57.04300 23.81700 48.31400
C  57.54300 26.63800 45.62300
C  58.49800 27.79300 45.98200
N  52.39200 26.28200 45.87400
C  53.16100 27.32700 46.37100
C  52.29400 28.50300 46.56500
C  51.09200 28.13300 45.94900
C  51.21700 26.76600 45.51600
C  52.74400 29.89900 47.13300
C  49.73500 28.57300 45.68200
O  49.20600 29.57900 46.08100
C  49.13700 27.58300 44.72300
C  49.04800 28.25800 43.44400
O  49.93600 28.49100 42.67800
O  47.66300 28.35100 43.25400
C  47.27100 28.84400 41.91900
H  50.55100 20.99100 43.41700
H  56.50300 21.90800 45.81800
H  55.14400 27.96000 46.87400
H  47.73400 24.77900 43.57800
H  48.70600 22.48100 42.59000
H  47.42500 23.05900 45.05600
H  48.81100 21.92100 45.33000
H  47.59700 21.47900 44.21000
H  49.28800 24.24800 41.10700
H  49.24600 25.90800 41.81100
H  47.38200 25.89200 40.48800
H  46.52000 25.17200 41.91400
H  52.96000 18.90200 42.33300
H  51.58900 19.25700 43.34500
H  52.77600 18.07000 43.84000
H  57.84200 19.07100 44.46100
H  57.06500 19.82500 45.96000
H  57.43000 20.75600 44.40900
H  57.88000 24.12000 46.34900
H  56.95400 26.31000 47.73900
H  56.43000 22.92100 48.42000
H  56.76800 24.61500 49.00400
H  58.10200 23.60900 48.46400
H  56.90300 27.06900 44.85300
H  58.00900 25.82600 45.06400
H  58.41900 27.92800 47.06000
H  58.31000 28.77100 45.53900
H  59.53700 27.50200 45.82800
H  52.06700 30.26000 47.90800
H  52.75400 30.59100 46.29000
H  53.75000 29.83100 47.54700
H  48.10600 27.28200 44.91100
H  47.07400 29.91400 41.99000
H  46.33600 28.35200 41.65000
H  48.00800 28.50200 41.19200

