158

Mg 9.97900 47.62400 25.97000
C  8.23900 47.90500 28.96900
C  12.65500 49.17600 27.56200
C  11.71000 47.58000 23.09500
C  7.06800 46.63600 24.40600
N  10.25400 48.59900 28.00400
C  9.48600 48.45500 29.07400
C  10.12500 48.98400 30.41800
C  11.37600 49.74700 29.82200
C  11.45700 49.12700 28.38400
C  11.11600 51.27900 29.79100
C  10.57700 47.84100 31.40600
C  9.96500 47.87200 32.82200
H  10.19100 46.62000 33.76000
N  11.90900 48.18100 25.44700
C  12.86100 48.76800 26.25700
C  14.12800 48.83600 25.56700
C  13.94900 48.37700 24.23100
C  12.44700 48.01200 24.21700
C  15.28400 49.50900 26.25500
C  14.90900 48.13500 23.14100
O  14.69900 47.58800 22.04400
C  16.27500 48.61100 23.36100
N  9.42300 47.39400 24.05000
C  10.37200 47.28500 22.95300
C  9.69400 46.85200 21.69000
C  8.40700 46.33500 22.22100
C  8.23200 46.87300 23.63800
C  9.53700 47.82700 20.43400
C  8.21900 44.81400 21.96200
C  9.18600 44.08400 22.90600
N  8.00100 47.50700 26.44900
C  6.93700 46.99300 25.78800
C  5.73800 46.98800 26.61700
C  6.28400 47.26400 27.87800
C  7.64500 47.58700 27.77000
C  4.37700 46.62700 26.22400
C  5.90800 47.29700 29.28200
O  4.82000 47.11800 29.77000
C  7.17700 47.67300 30.06500
C  7.45400 46.41500 30.83800
O  8.03800 45.41500 30.41600
O  6.93400 46.43200 32.17500
C  7.11500 45.17800 32.95200
H  13.47200 49.49900 28.21000
H  12.34800 47.69000 22.21500
H  6.29400 46.07400 23.87800
H  9.45600 49.68000 30.92300
H  12.19600 49.54500 30.51100
H  11.89200 51.79800 30.35400
H  10.19000 51.50100 30.32200
H  11.13600 51.55100 28.73600
H  11.65700 47.82800 31.55100
H  10.22100 46.89400 31.00200
H  8.90100 48.07600 32.70100
H  10.31900 48.81900 33.22800
H  15.90900 49.92300 25.46300
H  15.77600 48.96900 27.06400
H  15.10500 50.43600 26.79900
H  16.69500 48.15400 24.25600
H  16.25900 49.69800 23.29000
H  17.02200 48.33500 22.61700
H  10.31400 46.00600 21.39500
H  7.58000 46.71500 21.62200
H  9.95300 48.78300 20.75000
H  8.49400 47.88700 20.12300
H  10.11600 47.41400 19.60800
H  8.36200 44.59400 20.90400
H  7.19300 44.58100 22.24600
H  8.62400 43.73100 23.77000
H  10.03700 44.62500 23.31800
H  9.46500 43.19000 22.34800
H  3.97800 47.44900 25.63000
H  3.75700 46.40600 27.09300
H  4.34500 45.79900 25.51700
H  7.00200 48.45200 30.80700
H  7.51400 45.36300 33.95000
H  7.78400 44.47900 32.45100
H  6.18300 44.63400 33.10300
Mg 1.39600 42.11900 25.72100
C  2.92900 42.38900 28.91800
C  -1.30800 40.64700 27.24000
C  0.10800 41.88200 22.80300
C  4.48000 43.23800 24.41300
N  0.86900 41.46700 27.93300
C  1.55800 41.96100 28.99200
C  0.69800 41.67600 30.27400
C  -0.59100 40.99000 29.77700
C  -0.35100 40.99800 28.24800
C  -0.98600 39.70600 30.51100
C  0.51000 42.97000 31.07800
C  0.82300 42.88800 32.60400
H  0.69100 41.53800 33.29100
N  -0.18200 41.15400 25.08200
C  -1.20300 40.66800 25.81400
C  -2.29700 40.26000 24.97000
C  -1.98700 40.76600 23.68200
C  -0.64000 41.29700 23.79900
C  -3.57200 39.59500 25.39600
C  -2.89600 40.83000 22.44900
O  -2.47600 41.32100 21.38100
C  -4.29000 40.49300 22.45000
N  2.25500 42.48000 23.92200
C  1.47600 42.28200 22.78500
C  2.13900 42.84300 21.54500
C  3.43100 43.47700 22.09400
C  3.40200 43.08300 23.54300
C  2.35000 41.87000 20.36400
C  3.48400 45.06500 22.02900
C  4.15600 45.54500 20.76100
N  3.31100 42.70900 26.45800
C  4.45100 43.11100 25.80300
C  5.48800 43.32800 26.76300
C  4.96000 43.00400 27.94200
C  3.63500 42.62700 27.74500
C  7.02400 43.78400 26.55500
C  5.30300 43.01600 29.32600
O  6.28000 43.32500 29.92300
C  3.92900 42.63600 30.13600
C  4.29800 41.41900 30.93000
O  4.37800 40.31600 30.44900
O  4.33500 41.73700 32.24900
C  4.44000 40.60100 33.17400
H  -2.20300 40.31200 27.76700
H  -0.31200 42.04800 21.80900
H  5.41400 43.62800 24.00300
H  1.33000 40.95000 30.78600
H  -1.44900 41.64100 29.94600
H  -1.04600 38.89300 29.78700
H  -1.96600 39.76900 30.98300
H  -0.29600 39.53500 31.33800
H  -0.54400 43.24800 31.06700
H  1.17900 43.74700 30.70800
H  0.01600 43.56100 32.89500
H  1.74500 43.40800 32.86400
H  -4.40900 40.29200 25.35400
H  -3.40700 39.20300 26.40000
H  -3.70200 38.73800 24.73500
H  -4.52100 39.52700 22.90000
H  -4.62800 40.44100 21.41500
H  -4.90300 41.18100 23.03200
H  1.50700 43.67900 21.24600
H  4.33600 43.14600 21.58500
H  1.37700 41.75000 19.88800
H  2.62700 40.87200 20.70400
H  2.96100 42.24700 19.54400
H  3.85300 45.38100 23.00500
H  2.42700 45.33100 22.00400
H  4.42000 44.68400 20.14800
H  5.08500 46.09800 20.90300
H  3.44600 46.20100 20.25700
H  7.58100 42.90000 26.86600
H  7.22700 44.49500 27.35600
H  7.27200 44.14100 25.55500
H  3.64100 43.40200 30.85600
H  5.49800 40.40700 33.34900
H  4.06600 39.70100 32.68600
H  3.85400 40.76000 34.07900

