158

Mg 10.20100 48.68300 26.44800
C  8.34900 48.44000 29.43200
C  12.77300 50.12500 28.21800
C  11.84900 48.66600 23.51000
C  7.20200 47.66400 24.65900
N  10.48200 49.28500 28.56800
C  9.67200 48.91900 29.61700
C  10.28000 49.42700 30.95300
C  11.53200 50.28200 30.54100
C  11.60800 49.93600 29.03500
C  11.37800 51.84700 30.90100
C  10.62900 48.21200 31.91600
C  9.78500 48.12500 33.22900
H  10.21600 49.01200 34.47600
N  12.15400 49.34100 25.99100
C  13.03400 49.84900 26.84100
C  14.20100 50.09900 26.04600
C  14.04600 49.53700 24.70900
C  12.64600 49.12600 24.69900
C  15.43200 50.80400 26.59400
C  14.93800 49.47700 23.43200
O  14.58400 49.05200 22.33800
C  16.33300 49.94600 23.51500
N  9.49800 48.36400 24.30400
C  10.47200 48.38100 23.35700
C  9.87500 47.93600 21.99000
C  8.51400 47.37900 22.45700
C  8.35900 47.83300 23.83900
C  9.82800 49.01200 20.86700
C  8.42900 45.90100 22.25100
C  9.53000 45.09700 23.03400
N  8.21700 48.27400 26.89200
C  7.12000 47.89100 26.08700
C  5.99700 47.60400 26.89500
C  6.42000 47.81100 28.18000
C  7.76300 48.16700 28.15400
C  4.62600 47.21400 26.45600
C  5.96600 47.78500 29.53100
O  4.81300 47.46700 29.93700
C  7.22800 48.19700 30.46200
C  7.51100 47.01200 31.33700
O  8.17500 46.05300 31.04000
O  6.78400 47.11000 32.51500
C  6.95100 46.05300 33.54400
H  13.67800 50.50600 28.69700
H  12.26000 48.55300 22.50500
H  6.35700 47.14700 24.20000
H  9.54100 50.07900 31.41900
H  12.42300 49.82400 30.97000
H  11.42500 52.46200 30.00200
H  12.30300 52.09600 31.42100
H  10.63400 52.15000 31.63800
H  11.68300 48.27900 32.18900
H  10.47000 47.28200 31.37100
H  9.75900 47.07100 33.50400
H  8.75600 48.40500 33.00500
H  16.26500 50.10100 26.57900
H  15.33500 51.10200 27.63800
H  15.67700 51.71900 26.05500
H  16.70200 50.05100 24.53500
H  16.28800 50.88200 22.95800
H  16.88700 49.13200 23.04800
H  10.52400 47.15800 21.58800
H  7.67700 47.79200 21.89400
H  8.88500 49.54500 20.74400
H  10.14700 48.60700 19.90700
H  10.66900 49.68600 21.03300
H  8.50800 45.70500 21.18200
H  7.47000 45.50100 22.57800
H  10.19100 45.64300 23.70700
H  10.04300 44.47000 22.30400
H  8.97900 44.52200 23.77800
H  3.89400 47.38800 27.24400
H  4.63900 46.16300 26.16700
H  4.32400 47.80900 25.59400
H  7.13100 49.10100 31.06300
H  7.70700 45.28400 33.38800
H  6.06800 45.46200 33.29800
H  6.92700 46.43800 34.56300
Mg -1.80100 34.66300 27.19400
C  -3.51000 32.69500 29.59500
C  -0.52000 36.50100 29.84300
C  -0.42900 36.50800 24.85600
C  -3.52600 32.79700 24.71600
N  -2.08700 34.61100 29.49500
C  -2.82600 33.76900 30.26100
C  -2.61300 33.91200 31.75600
C  -1.88600 35.31100 31.75600
C  -1.50600 35.53700 30.26700
C  -2.81700 36.58000 32.19700
C  -1.80400 32.76800 32.42800
C  -2.42200 32.13500 33.67500
H  -1.74100 32.47200 35.00900
N  -0.59400 36.20800 27.34400
C  -0.08800 36.80800 28.50000
C  0.98700 37.77300 28.03900
C  0.95100 37.81400 26.64100
C  -0.06400 36.78400 26.23400
C  1.82200 38.65200 28.97900
C  1.68100 38.77200 25.66500
O  1.52200 38.75100 24.47100
C  2.83500 39.69800 26.20900
N  -1.95400 34.64400 25.07200
C  -1.20400 35.49700 24.31000
C  -1.49100 35.32700 22.78400
C  -2.27900 34.01600 22.78500
C  -2.68900 33.83200 24.30500
C  -2.31900 36.54000 22.01800
C  -1.57400 32.72900 22.16500
C  -0.14200 32.46800 22.63800
N  -3.20300 33.09200 27.09900
C  -3.79500 32.37800 26.03300
C  -4.60000 31.31800 26.52100
C  -4.62400 31.48300 27.90500
C  -3.63100 32.47000 28.24400
C  -5.44300 30.43500 25.66700
C  -5.15300 30.93600 29.07800
O  -5.96100 30.07600 29.32100
C  -4.38000 31.66600 30.25300
C  -5.46000 32.23900 31.13000
O  -6.23000 33.12300 30.81200
O  -5.45100 31.57900 32.30300
C  -6.54100 31.76600 33.18800
H  0.05800 36.90000 30.67900
H  -0.14400 37.06900 23.96400
H  -4.07400 32.25600 23.94200
H  -3.58900 33.96100 32.23900
H  -0.99800 35.18000 32.37400
H  -2.60200 37.48300 31.62500
H  -2.52700 36.70700 33.24000
H  -3.88800 36.38600 32.15700
H  -0.96600 33.21900 32.96100
H  -1.59500 31.87900 31.83200
H  -2.44700 31.05400 33.53300
H  -3.42200 32.51700 33.88000
H  1.44700 39.66000 28.80100
H  2.89200 38.64500 28.77000
H  1.69100 38.37300 30.02500
H  3.39400 40.08100 25.35500
H  3.62000 39.12200 26.69800
H  2.41800 40.53400 26.77000
H  -0.54900 35.15500 22.26300
H  -3.23600 34.09900 22.26900
H  -2.68500 37.31100 22.69600
H  -3.23500 36.19400 21.53900
H  -1.67000 36.97000 21.25500
H  -1.59900 32.87900 21.08600
H  -2.21300 31.89100 22.44500
H  -0.02000 31.42500 22.93200
H  0.06100 32.96300 23.58800
H  0.62500 32.78800 21.93200
H  -4.77500 29.72200 25.18300
H  -5.81100 31.07100 24.86200
H  -6.28200 29.95000 26.16600
H  -3.86800 30.85200 30.76700
H  -6.78400 30.85300 33.73100
H  -7.41800 32.09500 32.63000
H  -6.26800 32.52000 33.92700

