158

Mg 9.08900 3.98000 27.68800
C  10.40100 2.25600 30.47500
C  7.27200 5.79000 29.87800
C  7.41600 5.29000 25.09800
C  10.55000 1.69800 25.58800
N  9.01900 4.12100 29.94100
C  9.64200 3.33100 30.88600
C  9.42300 3.82700 32.29100
C  8.21900 4.80500 32.05100
C  8.07900 4.88900 30.50800
C  6.83000 4.51300 32.71700
C  10.68800 4.55100 32.83100
C  11.08200 4.06800 34.28000
H  10.93600 5.09200 35.46500
N  7.50500 5.36500 27.52700
C  6.89400 6.03200 28.52500
C  5.98300 7.06600 28.01000
C  6.14400 6.93300 26.57800
C  7.03600 5.80200 26.33700
C  5.03600 7.86100 28.89600
C  5.46300 7.80700 25.50800
O  5.67500 7.59000 24.31000
C  4.46500 8.90200 25.92400
N  8.82700 3.43100 25.51200
C  8.23400 4.24100 24.67700
C  8.58500 3.94700 23.24500
C  9.68700 2.76600 23.36500
C  9.69800 2.66200 24.91800
C  7.43400 3.74000 22.32700
C  11.08900 3.10800 22.77200
C  11.78500 1.94500 21.98300
N  10.22800 2.28600 27.93000
C  10.80300 1.47400 26.97000
C  11.54600 0.39900 27.69400
C  11.41600 0.66600 29.07300
C  10.58200 1.75800 29.14200
C  12.29100 -0.68500 27.12700
C  11.74000 0.27800 30.38100
O  12.30300 -0.68200 30.84300
C  11.07600 1.31500 31.43200
C  10.22000 0.58400 32.42300
O  9.10700 0.15000 32.15100
O  10.86900 0.55700 33.66000
C  10.11800 -0.16400 34.74800
H  6.75700 6.47500 30.55500
H  7.01300 5.74700 24.19200
H  11.11400 1.00800 24.95700
H  9.02000 3.07900 32.97300
H  8.60600 5.74700 32.43900
H  6.75200 4.76300 33.77500
H  6.70600 3.44000 32.57100
H  5.99000 5.00400 32.22400
H  10.55800 5.62700 32.94700
H  11.57000 4.43400 32.20100
H  12.10400 3.70300 34.17600
H  10.50700 3.20400 34.61100
H  4.04500 7.81700 28.44400
H  5.38300 8.88400 28.75400
H  5.08800 7.55400 29.94000
H  3.45400 8.49800 25.98300
H  4.40600 9.56100 25.05800
H  4.83100 9.52000 26.74400
H  9.05600 4.78700 22.73400
H  9.22400 1.85100 22.99300
H  8.04000 3.42100 21.47800
H  6.85900 4.64800 22.14500
H  6.72500 2.97500 22.64300
H  11.58800 3.53600 23.64200
H  10.97900 3.94900 22.08700
H  11.06900 1.14400 22.16900
H  12.80000 1.68400 22.28000
H  11.88600 2.32900 20.96800
H  12.83000 -0.32100 26.25300
H  11.65200 -1.46800 26.72000
H  13.17900 -1.06400 27.63400
H  11.92500 1.83800 31.87100
H  9.36000 -0.85400 34.37900
H  9.55600 0.57000 35.32600
H  10.93600 -0.62700 35.30000
Mg 36.62000 49.21900 24.73400
C  36.56800 47.43800 27.84700
C  35.36200 51.89300 26.20900
C  36.20600 50.72900 21.66500
C  37.40300 46.25100 23.13200
N  35.93200 49.56500 26.80300
C  36.13000 48.78300 27.90200
C  35.84000 49.58000 29.19100
C  35.22200 50.93000 28.65300
C  35.45500 50.82300 27.13100
C  33.74800 51.45400 29.08800
C  37.15300 49.69500 30.01900
C  37.10200 49.49900 31.53600
H  35.78800 49.53800 32.35300
N  35.92200 51.05900 23.98700
C  35.55000 52.08800 24.83500
C  35.37600 53.30000 24.07400
C  35.62700 52.97500 22.68200
C  35.91200 51.53400 22.69600
C  35.18100 54.67100 24.75600
C  35.77300 53.93400 21.53100
O  35.95600 53.50700 20.40100
C  35.55900 55.47200 21.68000
N  36.85300 48.63500 22.71700
C  36.58600 49.40100 21.65900
C  36.88600 48.73100 20.31200
C  37.21500 47.28000 20.81300
C  37.14500 47.40100 22.35200
C  35.69100 48.72400 19.36200
C  38.47900 46.69900 20.22100
C  39.82000 47.20400 20.81000
N  37.07800 47.22700 25.36400
C  37.35100 46.19100 24.56600
C  37.71800 45.09000 25.44800
C  37.38500 45.48700 26.78600
C  36.99600 46.83700 26.63800
C  38.26300 43.82500 24.85400
C  37.31500 45.11900 28.16600
O  37.60400 44.02100 28.60800
C  36.82500 46.42000 28.94600
C  35.77600 46.02400 29.90500
O  34.57100 45.98200 29.69400
O  36.42400 45.60800 31.01300
C  35.60100 45.19600 32.18900
H  34.95300 52.71600 26.80000
H  36.30300 51.27300 20.72300
H  37.74900 45.42700 22.50400
H  35.05300 48.97000 29.63400
H  35.86500 51.71400 29.05100
H  33.12200 50.60300 29.35500
H  33.15800 51.97700 28.33500
H  33.83700 52.19200 29.88600
H  37.61900 50.67000 29.87900
H  37.89000 48.99600 29.62300
H  37.88100 50.09000 32.01600
H  37.34000 48.44200 31.65600
H  36.02100 55.35900 24.66800
H  35.18000 54.58200 25.84300
H  34.21000 55.12700 24.56300
H  34.56300 55.58900 22.10700
H  35.76800 55.99800 20.74800
H  36.34300 55.76000 22.38000
H  37.76400 49.29100 19.99100
H  36.43600 46.54000 20.62700
H  34.89300 49.16600 19.95900
H  35.34300 47.75200 19.01500
H  36.00900 49.34200 18.52200
H  38.50100 47.04700 19.18900
H  38.49700 45.61000 20.27100
H  40.41500 47.52600 19.95500
H  40.27000 46.37200 21.35200
H  39.70100 48.06800 21.46300
H  38.91100 44.15700 24.04300
H  37.41500 43.25700 24.47100
H  38.94600 43.34200 25.55300
H  37.65600 46.66700 29.60800
H  35.45600 46.11600 32.75600
H  36.21600 44.43300 32.66600
H  34.64400 44.76900 31.88900

