158

Mg 36.18200 49.92700 25.15700
C  36.29200 48.22100 28.17200
C  34.66000 52.58400 26.77300
C  35.89300 51.39900 22.09900
C  37.33000 46.93400 23.56300
N  35.49700 50.25100 27.14000
C  35.66100 49.40700 28.24700
C  35.25900 50.14400 29.52800
C  34.36100 51.31700 29.04500
C  34.80900 51.43400 27.55800
C  32.84400 51.14500 29.35200
C  36.59900 50.63000 30.32600
C  36.74400 50.23700 31.72100
H  35.49300 49.95000 32.51300
N  35.40000 51.74900 24.52200
C  34.88300 52.74000 25.36200
C  34.81100 53.99400 24.62800
C  35.25700 53.68200 23.30900
C  35.53500 52.22500 23.26500
C  34.60600 55.37000 25.27100
C  35.50200 54.66000 22.14300
O  36.13700 54.32300 21.09300
C  34.95700 56.06400 22.26900
N  36.40200 49.20500 23.04500
C  36.21900 50.03600 22.04500
C  36.60400 49.39500 20.73300
C  37.07400 47.97200 21.21500
C  36.91200 47.99600 22.65900
C  35.55400 49.35800 19.58700
C  38.46500 47.49200 20.74500
C  39.38600 48.40100 20.01600
N  36.76600 47.92000 25.72900
C  37.29400 46.91400 24.95700
C  37.58000 45.78500 25.88900
C  37.25700 46.30300 27.14500
C  36.75200 47.59800 26.96400
C  38.18500 44.50200 25.46800
C  37.11600 45.96600 28.57200
O  37.55700 44.94700 29.06300
C  36.39700 47.19800 29.28700
C  35.21100 46.71800 30.02900
O  34.05300 47.05700 29.69000
O  35.50500 45.87500 31.08700
C  34.37600 45.59700 32.01200
H  34.32200 53.50300 27.25500
H  35.62000 51.94700 21.19500
H  37.81900 45.99600 23.29400
H  34.69000 49.45500 30.15200
H  34.71300 52.23400 29.51700
H  32.32300 50.95200 28.41400
H  32.45900 52.12800 29.62300
H  32.72500 50.39300 30.13100
H  36.77100 51.69300 30.49600
H  37.44500 50.26600 29.74300
H  37.32000 50.96500 32.29300
H  37.35400 49.33400 31.72500
H  35.43000 55.98800 24.91500
H  34.75400 55.26900 26.34600
H  33.57100 55.67100 25.10900
H  33.97800 55.96700 22.73800
H  34.85600 56.57100 21.30900
H  35.58500 56.64900 22.94000
H  37.48000 50.02300 20.56900
H  36.28700 47.29900 20.87600
H  36.19500 49.59300 18.73700
H  34.82300 50.15800 19.70100
H  35.10100 48.38300 19.40700
H  38.26400 46.63300 20.10600
H  38.97900 47.04000 21.59400
H  38.81400 48.70100 19.13700
H  40.26400 47.85700 19.66700
H  39.64800 49.21100 20.69600
H  39.12000 44.65100 24.92700
H  37.43400 44.04000 24.82700
H  38.16600 43.95800 26.41300
H  37.09800 47.60700 30.01500
H  34.53000 44.71100 32.62800
H  33.39500 45.57300 31.53900
H  34.33400 46.41900 32.72600
Mg -4.93700 25.18200 26.25600
C  -3.58700 26.44300 29.21400
C  -7.01900 23.23600 28.09600
C  -5.79300 23.61200 23.39700
C  -2.44900 27.06400 24.43000
N  -5.25800 24.88000 28.36900
C  -4.64900 25.50500 29.38400
C  -5.24400 25.19100 30.70600
C  -6.24000 24.05400 30.41500
C  -6.19100 24.07100 28.86000
C  -5.78000 22.62000 30.93700
C  -5.88100 26.41300 31.40400
C  -5.42100 26.78500 32.83300
H  -4.79600 25.68100 33.70000
N  -6.21700 23.69400 25.84600
C  -7.04000 23.06700 26.73100
C  -8.02800 22.27900 25.95800
C  -7.70400 22.39000 24.58500
C  -6.48500 23.29600 24.54700
C  -9.01700 21.52400 26.78700
C  -8.37200 21.73800 23.39000
O  -7.87600 21.69000 22.23600
C  -9.75200 21.14700 23.57000
N  -4.18500 25.33600 24.17100
C  -4.71800 24.54600 23.20700
C  -3.82700 24.56300 21.96900
C  -2.81100 25.75200 22.20600
C  -3.11300 26.05200 23.73100
C  -3.17600 23.15200 21.54900
C  -3.07800 27.05200 21.36600
C  -1.93500 28.02100 20.96800
N  -3.22100 26.52300 26.64300
C  -2.43700 27.27800 25.81800
C  -1.68000 28.14500 26.61800
C  -2.00200 27.89000 28.01100
C  -3.03600 26.91600 27.94600
C  -0.65800 29.15900 26.10300
C  -1.74800 28.17200 29.45900
O  -1.02400 28.93100 30.02800
C  -2.72300 27.19300 30.25300
C  -1.79000 26.22300 30.87800
O  -1.19300 25.35200 30.19600
O  -1.55800 26.47700 32.19700
C  -0.48700 25.76700 32.95000
H  -7.59400 22.57200 28.74500
H  -6.10700 23.14200 22.46300
H  -1.81100 27.70000 23.81300
H  -4.38100 24.88500 31.29800
H  -7.27100 24.27600 30.69100
H  -6.16700 22.52600 31.95200
H  -4.70500 22.53500 31.09600
H  -6.13700 21.75800 30.37400
H  -6.95400 26.25900 31.51900
H  -5.63500 27.31900 30.85100
H  -6.35100 27.08900 33.31400
H  -4.72900 27.62600 32.78300
H  -8.56900 20.86700 27.53300
H  -9.65200 20.82400 26.24400
H  -9.69300 22.21400 27.29100
H  -10.25400 21.17500 22.60300
H  -10.32300 21.73700 24.28700
H  -9.60700 20.13200 23.93900
H  -4.50400 24.86000 21.16800
H  -1.79000 25.40500 22.04600
H  -2.12200 23.17700 21.27200
H  -3.83100 22.81200 20.74700
H  -3.30700 22.45700 22.37800
H  -3.73200 27.70900 21.94000
H  -3.68500 26.69100 20.53600
H  -2.10000 28.96500 21.48700
H  -1.85100 28.13100 19.88700
H  -0.96800 27.64500 21.30200
H  -1.21400 30.08800 26.23100
H  -0.34900 28.88700 25.09300
H  0.23100 29.28000 26.72200
H  -3.28200 27.59100 31.10100
H  0.00700 25.14000 32.20800
H  -1.08700 25.12700 33.59600
H  0.20300 26.41700 33.48800

