158

Mg 35.65800 2.07500 30.35400
C  33.25300 3.24800 32.64800
C  38.08300 2.17300 32.73100
C  37.90200 1.37100 27.97900
C  33.19600 2.66400 27.80200
N  35.65500 2.78700 32.36500
C  34.56500 3.16400 33.11800
C  35.01200 3.34400 34.58800
C  36.55200 3.41300 34.45400
C  36.78200 2.69200 33.10100
C  37.13100 4.84900 34.47200
C  34.55000 2.31300 35.63900
C  34.33900 2.87000 37.12800
H  35.06700 4.07700 37.69000
N  37.69000 1.70000 30.36100
C  38.50900 1.62200 31.46300
C  39.76200 0.97800 31.08000
C  39.71200 0.73100 29.65900
C  38.42000 1.32000 29.27800
C  40.84500 0.81300 32.03400
C  40.70400 0.22000 28.70900
O  40.48000 -0.09100 27.52500
C  42.17700 -0.01000 29.18100
N  35.64300 2.34500 28.14900
C  36.73800 1.87900 27.42600
C  36.39900 1.87900 25.94500
C  34.84700 2.01100 25.84900
C  34.53300 2.43600 27.33900
C  37.35400 2.79900 25.15400
C  34.25500 0.66900 25.48000
C  32.78400 0.48600 25.21900
N  33.57700 2.69100 30.17900
C  32.77200 2.89900 29.10700
C  31.45700 3.25500 29.63700
C  31.56900 3.36600 31.04300
C  32.90100 3.07600 31.32000
C  30.29800 3.60200 28.75600
C  30.88400 3.71400 32.23300
O  29.72200 4.04100 32.37300
C  31.94000 3.60000 33.36100
C  31.94000 4.96200 34.02600
O  32.29900 6.03200 33.54400
O  31.51700 4.86500 35.34700
C  31.73100 6.10200 36.09700
H  38.76200 2.14400 33.58600
H  38.55600 0.98900 27.19300
H  32.46400 2.62900 26.99300
H  34.59900 4.25500 35.02200
H  37.19500 2.83200 35.11500
H  36.82500 5.24000 35.44200
H  36.80500 5.36900 33.57100
H  38.21700 4.76200 34.48000
H  35.27500 1.50500 35.72700
H  33.58800 1.93500 35.29200
H  34.40900 1.97500 37.74600
H  33.29800 3.19300 37.13000
H  40.86400 -0.22400 32.37100
H  40.66300 1.35900 32.95900
H  41.86200 1.08500 31.75100
H  42.17500 -0.60000 30.09800
H  42.51500 1.00600 29.37900
H  42.76600 -0.39300 28.34800
H  36.65900 0.83900 25.74900
H  34.63300 2.80900 25.13900
H  37.71200 3.48200 25.92400
H  36.82100 3.31700 24.35700
H  38.12300 2.14000 24.75100
H  34.61400 -0.08100 26.18500
H  34.78100 0.30300 24.59900
H  32.34600 1.37100 24.75900
H  32.29500 0.00400 26.06600
H  32.60200 -0.19800 24.39000
H  30.61300 3.95900 27.77500
H  29.60900 4.32500 29.19400
H  29.82300 2.65200 28.51300
H  31.49400 2.92100 34.08700
H  31.18000 5.90700 37.01700
H  31.30900 6.91400 35.50500
H  32.79700 6.25800 36.26800
Mg 40.62900 9.57000 30.10000
C  42.53000 10.59400 32.87100
C  38.31700 8.26600 32.31500
C  38.96200 8.50900 27.43600
C  43.41700 10.12500 28.05100
N  40.48800 9.50400 32.39800
C  41.32400 10.02800 33.27400
C  40.58500 10.11400 34.64700
C  39.30600 9.24000 34.46200
C  39.32700 8.94700 33.00900
C  39.07300 7.96100 35.28300
C  40.21100 11.62300 34.95600
C  39.81000 11.93500 36.39100
H  40.77300 12.66400 37.31000
N  38.88600 8.42100 29.89200
C  38.10900 7.96800 30.88600
C  36.94700 7.33200 30.26100
C  37.11500 7.46100 28.85500
C  38.36400 8.14600 28.67500
C  35.83300 6.80200 30.99800
C  36.20700 7.03400 27.75300
O  36.43000 7.05700 26.55600
C  34.91600 6.50400 28.15400
N  41.15100 9.28200 28.01200
C  40.25000 8.86900 27.11400
C  40.77700 8.98200 25.67300
C  42.25200 9.54900 25.84000
C  42.30900 9.58900 27.39900
C  40.48200 7.72900 24.75200
C  42.53200 10.87600 25.05700
C  42.12200 12.21000 25.67600
N  42.59100 10.21200 30.34700
C  43.60200 10.37900 29.40400
C  44.76900 10.87000 30.04700
C  44.46900 10.96800 31.36300
C  43.09600 10.56400 31.53000
C  46.08500 11.19300 29.33700
C  44.90100 11.35200 32.66900
O  45.99500 11.81700 32.94000
C  43.70500 11.16500 33.67700
C  44.24200 10.14000 34.70100
O  44.56100 8.98700 34.40300
O  44.36800 10.73300 35.92400
C  44.66600 9.79000 37.00200
H  37.49100 7.97600 32.96900
H  38.61400 8.16900 26.45900
H  44.30000 10.42200 27.48100
H  41.10700 9.83100 35.56100
H  38.46200 9.92100 34.58000
H  39.95000 7.65500 35.85400
H  38.75300 7.09900 34.69900
H  38.31600 8.23600 36.01800
H  39.38000 11.97600 34.34600
H  41.02000 12.29900 34.67900
H  39.40100 11.00800 36.79300
H  38.92800 12.57500 36.35500
H  34.83500 7.05000 30.63600
H  35.79800 7.29800 31.96700
H  35.89200 5.72200 31.13100
H  34.45400 6.09000 27.25800
H  34.27300 7.28700 28.55500
H  35.16400 5.72400 28.87400
H  40.25500 9.81900 25.20800
H  42.99700 8.79900 25.57300
H  41.46600 7.42700 24.39300
H  39.88600 7.91300 23.85800
H  40.10100 6.87100 25.30600
H  42.04800 10.85600 24.08100
H  43.60900 10.94400 24.90200
H  42.01200 12.25400 26.75900
H  41.07100 12.41500 25.47000
H  42.72300 13.08100 25.41700
H  46.32900 10.49200 28.53800
H  46.83200 11.29200 30.12500
H  45.88900 12.06500 28.71200
H  43.41100 12.07000 34.20800
H  44.79600 8.74400 36.72500
H  43.74000 9.89300 37.56700
H  45.57300 9.99500 37.57000

