158

Mg 26.18600 -0.57900 28.97000
C  28.01800 -0.90900 31.85700
C  23.28900 -0.16800 30.83500
C  24.30700 -0.78900 26.08000
C  29.01000 -1.35100 27.12800
N  25.76800 -0.42200 31.12500
C  26.67600 -0.53700 32.14800
C  26.00100 -0.28100 33.53000
C  24.54500 -0.18800 33.14800
C  24.48400 -0.16900 31.59300
C  23.70100 -1.30000 33.83000
C  26.53700 1.03500 34.35300
C  27.13800 0.74500 35.74300
H  27.01000 1.82000 36.82800
N  24.11400 -0.38300 28.52900
C  23.10800 -0.16300 29.43200
C  21.85200 0.03000 28.74800
C  22.13300 -0.08800 27.37400
C  23.58900 -0.46900 27.29400
C  20.55900 0.27900 29.53600
C  21.19700 0.03300 26.18100
O  21.54900 0.05100 25.01700
C  19.84000 0.29600 26.51000
N  26.55000 -1.14100 26.94100
C  25.64300 -1.11200 25.93100
C  26.22200 -1.35400 24.57300
C  27.63900 -1.73300 25.06500
C  27.73000 -1.35500 26.47000
C  25.62000 -2.52000 23.73700
C  28.72400 -1.02700 24.04300
C  29.40800 0.30100 24.45800
N  28.21200 -0.88300 29.31000
C  29.28600 -1.10500 28.50300
C  30.48600 -1.27700 29.26400
C  30.09700 -1.20800 30.62500
C  28.65800 -0.99700 30.57900
C  31.83200 -1.59000 28.68000
C  30.60000 -1.28800 31.99500
O  31.75000 -1.42600 32.40500
C  29.24100 -1.10200 32.79700
C  29.04200 -2.29300 33.63700
O  28.68400 -3.42400 33.22300
O  29.37800 -1.94800 34.88400
C  29.06200 -2.95500 35.85100
H  22.31700 -0.26600 31.32300
H  23.78400 -0.87500 25.12600
H  29.91000 -1.69600 26.61600
H  26.15100 -1.19500 34.10500
H  24.05300 0.72700 33.47700
H  22.66400 -0.96900 33.89600
H  23.97900 -1.58600 34.84500
H  23.66500 -2.14100 33.13700
H  25.75000 1.76200 34.55600
H  27.24600 1.57400 33.72400
H  28.17800 0.49200 35.53800
H  26.59300 -0.11600 36.12900
H  19.99200 1.13000 29.15800
H  20.72100 0.41000 30.60600
H  19.91600 -0.59300 29.41400
H  19.49000 -0.44000 27.23300
H  19.22200 0.12300 25.62900
H  19.80100 1.31900 26.88600
H  26.28900 -0.40100 24.04900
H  27.83700 -2.78900 24.88100
H  25.58400 -2.13200 22.72000
H  24.61600 -2.75800 24.08800
H  26.32700 -3.34000 23.60600
H  28.23200 -0.92600 23.07600
H  29.55200 -1.73300 23.98600
H  30.48200 0.35500 24.63200
H  28.94200 0.75900 25.33000
H  29.15300 0.95100 23.62000
H  32.30000 -0.79400 28.10200
H  31.73200 -2.48900 28.07200
H  32.41700 -1.85300 29.56200
H  29.41700 -0.26800 33.47600
H  28.28800 -2.45600 36.43400
H  29.98200 -3.07200 36.42300
H  28.70200 -3.94800 35.58200
Mg 0.12700 43.79000 26.75000
C  2.49800 43.57800 29.24500
C  -2.22700 42.65400 28.78700
C  -1.92000 43.41000 24.00300
C  2.72500 44.33300 24.54000
N  0.15400 43.14200 28.75900
C  1.18500 43.29700 29.66500
C  0.71400 43.00500 31.05800
C  -0.78000 42.54200 30.98500
C  -0.98900 42.79800 29.37400
C  -1.20800 41.18100 31.51400
C  0.81700 44.30700 31.95800
C  0.92600 44.15400 33.51500
H  0.84500 42.67300 34.08500
N  -1.90000 43.13400 26.50300
C  -2.71700 42.71400 27.46600
C  -4.03400 42.55100 26.92200
C  -3.98800 42.77300 25.51700
C  -2.60100 43.15000 25.26300
C  -5.28000 42.49000 27.77100
C  -5.09700 42.84000 24.48800
O  -4.90000 43.28400 23.35100
C  -6.48500 42.40900 24.80400
N  0.39000 43.83200 24.46800
C  -0.62700 43.65600 23.64400
C  -0.13300 43.92900 22.13500
C  1.33100 44.40000 22.34700
C  1.49600 44.12200 23.87000
C  -0.43900 42.79100 21.16500
C  1.69100 45.86500 21.91600
C  1.74300 47.01900 22.96700
N  2.19500 44.06100 26.86900
C  3.13700 44.21000 25.82400
C  4.51000 44.23200 26.34400
C  4.32600 43.93300 27.70300
C  2.89600 43.83800 27.94000
C  5.84100 44.39200 25.50100
C  4.94200 43.58700 29.02800
O  6.09700 43.36100 29.31300
C  3.79000 43.44000 30.05000
C  4.01700 42.05600 30.52300
O  3.87300 40.99600 29.91900
O  4.37600 42.15900 31.85700
C  4.91200 40.93800 32.48300
H  -2.98500 42.30100 29.49000
H  -2.64900 43.40200 23.19000
H  3.52600 44.64100 23.86500
H  1.33400 42.17900 31.40500
H  -1.34800 43.31800 31.50000
H  -1.58900 40.60800 30.66800
H  -2.03800 41.27600 32.21300
H  -0.44900 40.56200 31.99400
H  -0.07100 44.93900 31.97300
H  1.63000 45.00000 31.74200
H  0.03200 44.56700 33.98400
H  1.76900 44.70900 33.92500
H  -6.23900 42.80200 27.35800
H  -5.11700 42.98800 28.72600
H  -5.51600 41.44000 27.94600
H  -6.91500 42.13400 23.84100
H  -7.15500 43.17800 25.19000
H  -6.48200 41.51100 25.42000
H  -0.78200 44.75800 21.85100
H  2.01200 43.66400 21.92100
H  -0.36400 41.87400 21.74900
H  0.29300 42.67000 20.36600
H  -1.45300 43.01800 20.83800
H  0.92300 46.17800 21.20800
H  2.65200 45.84100 21.40300
H  2.77500 47.36500 23.02200
H  1.40400 46.75400 23.96900
H  1.11600 47.81100 22.55800
H  6.47800 43.54300 25.74900
H  6.30000 45.36900 25.65500
H  5.57500 44.39500 24.44400
H  3.72700 44.04500 30.95500
H  5.97100 41.04400 32.71900
H  4.94900 40.10300 31.78400
H  4.22500 40.74700 33.30800

