158

Mg 46.47600 24.42800 28.13500
C  47.00500 26.71000 30.82000
C  45.22600 22.16800 30.23300
C  46.57600 22.21900 25.60600
C  47.53300 27.00200 25.98300
N  46.08400 24.49800 30.30600
C  46.45900 25.46100 31.23700
C  45.87900 25.01900 32.59800
C  45.28300 23.59400 32.38700
C  45.51600 23.40000 30.88300
C  45.86200 22.46800 33.30500
C  44.92400 26.01100 33.32100
C  45.25400 26.81500 34.57500
H  44.32500 26.80600 35.82800
N  45.99400 22.40100 27.98800
C  45.46200 21.65200 29.01400
C  45.23100 20.29800 28.48000
C  45.69800 20.31100 27.11600
C  46.19800 21.62600 26.86900
C  44.78200 19.22700 29.48400
C  45.73000 19.19700 26.12100
O  46.28800 19.25200 25.06100
C  45.11200 17.95400 26.55400
N  47.03400 24.63200 26.09400
C  46.87100 23.54700 25.19000
C  47.01900 24.02400 23.67600
C  47.12200 25.58800 23.87700
C  47.26300 25.76500 25.42100
C  48.17800 23.30900 22.99200
C  45.97600 26.49000 23.34600
C  44.55800 26.16300 23.68600
N  47.26900 26.44000 28.29400
C  47.68000 27.32200 27.32500
C  48.14100 28.60400 27.99000
C  47.92600 28.42300 29.35900
C  47.40000 27.09100 29.48900
C  48.68300 29.79800 27.24500
C  47.94100 28.94400 30.72400
O  48.37200 30.05700 31.09000
C  47.35500 27.91300 31.76100
C  48.42500 27.58000 32.76700
O  49.58500 27.17600 32.51300
O  48.09000 28.04100 34.10700
C  49.12700 28.00500 35.13200
H  44.69400 21.59800 30.99800
H  46.59800 21.56400 24.73200
H  47.89300 27.85400 25.40300
H  46.64800 24.78700 33.33500
H  44.19600 23.57100 32.46500
H  45.06600 21.86200 33.73900
H  46.46600 22.84700 34.12900
H  46.55000 21.78100 32.81200
H  44.04800 25.40200 33.54200
H  44.57600 26.69500 32.54700
H  45.40200 27.83900 34.23300
H  46.16900 26.44800 35.04100
H  43.71900 19.08300 29.29300
H  44.73000 19.55100 30.52400
H  45.31800 18.27800 29.47500
H  45.54600 17.52000 27.45500
H  44.89700 17.27800 25.72600
H  44.07800 18.21200 26.78600
H  46.07500 23.85300 23.15700
H  48.02800 25.97900 23.41400
H  48.60900 22.51400 23.59900
H  48.89000 24.05000 22.62800
H  47.72600 22.88400 22.09600
H  46.06000 26.52300 22.25900
H  46.20500 27.54400 23.50400
H  44.51200 25.20300 24.20100
H  43.99400 25.99000 22.77000
H  44.14800 26.92900 24.34500
H  48.55800 30.68600 27.86500
H  47.90900 29.96900 26.49700
H  49.65500 29.69300 26.76300
H  46.50400 28.36100 32.27400
H  49.97200 27.34900 34.92300
H  48.71700 27.71400 36.09900
H  49.47400 29.02900 35.26900
Mg -10.38500 40.18500 42.18400
C  -9.47900 37.04100 40.90800
C  -7.49300 41.49700 40.81100
C  -11.63500 43.34200 42.67000
C  -13.67100 38.84100 42.68300
N  -8.79500 39.33000 40.92400
C  -8.55900 38.10900 40.60000
C  -7.23800 37.91000 39.85200
C  -6.48200 39.24000 40.01200
C  -7.62100 40.07700 40.68800
C  -5.13600 39.19100 40.78200
C  -7.33300 37.49500 38.34400
C  -6.55700 36.22300 37.93000
H  -5.51000 36.37400 36.87400
N  -9.62100 42.12200 42.01500
C  -8.37000 42.44100 41.40600
C  -8.09700 43.85500 41.51700
C  -9.29100 44.45200 42.13900
C  -10.22700 43.31200 42.35500
C  -6.90200 44.54900 40.96700
C  -9.53100 45.81800 42.55300
O  -8.66200 46.67100 42.31000
C  -10.73900 46.28500 43.40900
N  -12.34500 40.96800 42.57100
C  -12.58200 42.30200 42.80500
C  -14.06800 42.57100 43.15500
C  -14.74100 41.12100 43.14000
C  -13.52000 40.26700 42.70900
C  -14.07900 43.36400 44.53900
C  -15.96100 41.04900 42.15400
C  -17.26600 40.54800 42.81400
N  -11.42300 38.28100 42.05700
C  -12.71400 37.89300 42.29800
C  -12.79100 36.48700 42.08800
C  -11.51900 36.03200 41.68700
C  -10.74700 37.22100 41.54500
C  -14.02500 35.67300 42.34700
C  -10.66300 34.88700 41.27800
O  -10.88300 33.67900 41.39500
C  -9.36900 35.58400 40.56900
C  -8.10700 34.87600 41.04500
O  -7.64600 34.93500 42.14500
O  -7.63900 34.07200 40.05100
C  -6.41000 33.35200 40.51600
H  -6.50500 41.72900 40.40900
H  -12.08100 44.32400 42.83900
H  -14.67900 38.46000 42.85900
H  -6.67200 37.23400 40.49300
H  -6.40200 39.73900 39.04600
H  -4.71500 38.18800 40.85900
H  -5.33900 39.66200 41.74400
H  -4.49200 39.88400 40.24100
H  -7.04700 38.30300 37.67100
H  -8.37200 37.33700 38.05300
H  -7.30600 35.46400 37.70500
H  -5.98100 35.77400 38.73900
H  -6.25600 43.90600 40.37000
H  -6.29900 44.83400 41.83000
H  -7.25500 45.44700 40.46100
H  -11.57800 46.37100 42.71900
H  -10.43500 47.23300 43.85200
H  -10.96400 45.54300 44.17500
H  -14.41100 43.11100 42.27200
H  -14.97100 40.80200 44.15600
H  -14.56000 44.34000 44.47900
H  -13.08500 43.45100 44.97700
H  -14.71300 42.83000 45.24800
H  -15.74700 40.33800 41.35500
H  -16.10200 41.91600 41.50800
H  -17.36000 40.93600 43.82800
H  -17.20000 39.46100 42.86200
H  -18.04200 40.91900 42.14400
H  -14.47000 36.01500 43.28100
H  -13.79200 34.61200 42.44100
H  -14.72900 35.85900 41.53500
H  -9.39500 35.60000 39.48000
H  -6.73400 32.69100 41.32000
H  -5.60300 33.98300 40.88700
H  -6.01800 32.60000 39.83100

