158

Mg 8.43400 2.73400 26.77300
C  9.79800 1.37900 29.65100
C  6.22900 4.39300 28.57700
C  7.26700 3.87900 23.76200
C  10.48700 0.37200 24.99800
N  7.92900 2.63700 28.90900
C  8.74100 2.28500 29.92200
C  8.32900 2.83100 31.32700
C  7.15100 3.77400 30.92200
C  7.05300 3.61000 29.38800
C  5.79800 3.59700 31.62100
C  9.60300 3.50200 31.96600
C  9.42200 4.45400 33.20100
H  10.15400 4.18600 34.45000
N  6.99700 3.99700 26.23300
C  6.12400 4.52600 27.14400
C  5.22000 5.38900 26.38400
C  5.59300 5.33500 25.03200
C  6.70800 4.43000 24.95700
C  4.01500 6.05400 27.14300
C  4.94900 6.11000 23.85500
O  5.35700 6.10400 22.65600
C  3.84700 7.01200 24.14700
N  8.78500 2.10300 24.63700
C  8.17600 2.79600 23.59800
C  8.70100 2.32400 22.23100
C  9.71800 1.24000 22.63500
C  9.76900 1.30400 24.18600
C  7.57600 1.83500 21.25500
C  11.02600 1.46200 21.99500
C  11.22500 1.46800 20.48500
N  9.73000 1.14500 27.16300
C  10.49100 0.28200 26.37400
C  11.42800 -0.55000 27.13900
C  11.16200 -0.09800 28.44700
C  10.16300 0.87100 28.39700
C  12.46200 -1.48500 26.64800
C  11.62100 -0.31800 29.79000
O  12.46200 -1.04700 30.27000
C  10.75000 0.62300 30.65200
C  10.13500 -0.22500 31.70500
O  9.40500 -1.18400 31.53900
O  10.69400 0.15500 32.93200
C  10.30200 -0.41200 34.22000
H  5.68000 5.08100 29.22300
H  6.89000 4.20700 22.79100
H  11.00200 -0.43400 24.47200
H  7.94000 1.99800 31.91200
H  7.36000 4.83500 31.05500
H  5.77900 2.61900 32.10100
H  4.98400 3.53400 30.89800
H  5.45400 4.31700 32.36300
H  10.13300 4.01100 31.16000
H  10.26400 2.73400 32.36800
H  8.33500 4.42800 33.27400
H  9.70900 5.49100 33.02200
H  3.08200 5.82800 26.62700
H  4.25100 7.11800 27.16000
H  3.95300 5.57800 28.12200
H  3.54300 7.69800 23.35700
H  4.36300 7.66800 24.84800
H  3.00700 6.49100 24.60500
H  9.13400 3.20400 21.75500
H  9.46700 0.19300 22.46100
H  6.63800 2.37900 21.36100
H  7.32300 0.85400 21.65900
H  7.71400 1.68400 20.18500
H  11.63800 0.62000 22.32200
H  11.51200 2.39800 22.27200
H  10.25000 1.17100 20.10100
H  11.99800 0.74700 20.22000
H  11.30600 2.49300 20.12300
H  12.92000 -1.08900 25.74200
H  12.15000 -2.51900 26.50300
H  13.34000 -1.47600 27.29400
H  11.36100 1.30000 31.24700
H  9.34100 -0.92100 34.15200
H  10.13900 0.31600 35.01500
H  11.00200 -1.20800 34.47500
Mg 5.66300 53.71600 42.62400
C  5.09400 50.36200 41.85900
C  8.47000 53.66900 40.94200
C  5.74700 56.99000 42.94200
C  2.32500 53.72500 43.83300
N  6.54900 52.17500 41.37000
C  6.24500 50.84800 41.20100
C  7.29100 50.05200 40.37800
C  8.43600 51.13900 40.42500
C  7.78300 52.44800 40.97900
C  9.61900 50.74000 41.41700
C  6.74100 49.75700 39.00400
C  7.11700 48.48800 38.41600
H  6.46200 48.05200 37.08600
N  6.97100 55.19500 42.08600
C  8.13400 54.93900 41.46000
C  8.99000 56.16300 41.45700
C  8.19600 57.20700 42.08900
C  6.87200 56.49000 42.41500
C  10.28100 56.24400 40.72300
C  8.57500 58.63100 42.34300
O  9.71900 58.99800 41.99300
C  7.76600 59.59700 43.16300
N  4.13100 55.24000 43.12100
C  4.49600 56.53100 43.22800
C  3.36800 57.38400 43.81500
C  2.23600 56.27800 44.05400
C  2.93200 55.00200 43.63800
C  3.77900 58.34900 45.00700
C  0.87000 56.43700 43.24600
C  -0.36500 56.63100 44.26200
N  4.09900 52.37200 42.96400
C  2.87700 52.52700 43.48500
C  2.22600 51.25800 43.62700
C  3.09600 50.33600 43.00800
C  4.22100 51.06800 42.57600
C  0.91600 51.01400 44.26500
C  3.33200 48.97200 42.66600
O  2.62000 47.93300 42.82100
C  4.71300 48.87300 41.98600
C  4.61800 48.02000 40.77000
O  4.11900 48.35600 39.70400
O  5.06000 46.75700 41.03600
C  4.67700 45.75100 40.12600
H  9.41500 53.71500 40.39900
H  5.79400 58.07400 43.06300
H  1.36000 53.73300 44.34300
H  7.68100 49.17000 40.88500
H  8.89200 51.31300 39.45000
H  9.55600 51.37600 42.30000
H  10.60800 50.99600 41.03500
H  9.67400 49.66800 41.60800
H  7.24900 50.44400 38.32700
H  5.69300 50.03200 38.88300
H  6.92500 47.73600 39.18200
H  8.19900 48.61600 38.40000
H  10.58300 55.32500 40.22300
H  11.07300 56.71900 41.30200
H  10.10100 57.03500 39.99500
H  8.26700 60.55900 43.26800
H  7.66100 59.18900 44.16900
H  6.80500 59.76600 42.67700
H  3.06400 57.92200 42.91800
H  2.07900 56.25300 45.13300
H  4.86200 58.38500 45.12400
H  3.26200 57.94000 45.87500
H  3.40100 59.33900 44.75500
H  0.68600 55.50000 42.72000
H  0.80200 57.34700 42.65100
H  0.00900 56.50200 45.27800
H  -1.16600 55.97700 43.91600
H  -0.68300 57.67300 44.23700
H  1.00200 50.59500 45.26800
H  0.29700 50.29100 43.73400
H  0.33900 51.93400 44.35900
H  5.41600 48.36300 42.64600
H  3.59500 45.72400 40.25800
H  5.23800 44.86600 40.42400
H  5.01200 45.94100 39.10700

