158

Mg 24.99100 1.41300 29.81600
C  27.49800 1.29900 32.61600
C  22.60300 1.43100 32.06100
C  23.11400 1.21000 27.28200
C  27.94500 0.99100 27.67500
N  25.19200 1.23700 32.07900
C  26.16500 1.41500 32.96400
C  25.61500 1.50400 34.42400
C  24.10800 1.25000 34.16800
C  23.92800 1.40800 32.67400
C  23.41100 -0.11800 34.73700
C  25.98500 2.87000 35.16600
C  26.72700 2.67800 36.53400
H  26.43900 3.66600 37.69300
N  23.07400 1.29800 29.70100
C  22.17000 1.28200 30.70900
C  20.80900 1.10600 30.13200
C  21.03900 1.00500 28.76600
C  22.47100 1.15100 28.47100
C  19.56000 1.06900 31.07600
C  19.95200 0.82500 27.66100
O  20.19500 0.79800 26.48900
C  18.56600 0.71400 28.03700
N  25.50900 0.96600 27.72800
C  24.43000 1.26500 26.84600
C  24.84100 1.54000 25.34800
C  26.41700 1.38800 25.57100
C  26.70400 1.11700 27.10400
C  24.27700 0.44800 24.26900
C  27.17800 2.56800 25.10000
C  26.87700 3.91300 25.88000
N  27.28400 1.06800 30.02100
C  28.25800 0.90700 29.05300
C  29.53100 0.79200 29.72400
C  29.29900 0.95200 31.07400
C  27.89700 1.12200 31.24400
C  30.78300 0.56100 29.08800
C  29.83800 0.87300 32.43700
O  30.95400 0.56400 32.80300
C  28.73900 1.26100 33.44200
C  28.76000 0.26500 34.54700
O  28.31400 -0.83400 34.45200
O  29.43100 0.80600 35.61100
C  29.53000 -0.17600 36.79800
H  21.78400 1.44800 32.78300
H  22.49300 1.31800 26.39000
H  28.78900 0.90400 26.98700
H  26.05000 0.67800 34.98700
H  23.53100 2.06600 34.60200
H  23.20900 -0.73100 33.85900
H  22.43700 -0.05000 35.22200
H  24.22900 -0.57800 35.29100
H  25.14800 3.54500 35.34300
H  26.67500 3.47200 34.57400
H  27.80800 2.81000 36.58200
H  26.72800 1.70100 37.01600
H  18.95200 1.95800 30.90600
H  19.74400 1.06900 32.15000
H  18.80900 0.31100 30.85100
H  18.26100 1.62600 28.55100
H  18.36300 -0.15900 28.65700
H  17.94300 0.70900 27.14300
H  24.68700 2.55500 24.98300
H  26.75800 0.51700 25.01100
H  25.06700 0.00800 23.66100
H  23.51000 0.86400 23.61700
H  23.80700 -0.18700 25.02100
H  27.07800 2.85100 24.05200
H  28.24400 2.34900 25.16400
H  26.15100 3.76800 26.68100
H  26.52600 4.76200 25.29400
H  27.82000 4.12200 26.38500
H  31.17600 -0.45400 29.14400
H  31.55700 1.20300 29.50800
H  30.75200 0.82300 28.03000
H  29.02600 2.17400 33.96300
H  29.75500 -1.18200 36.44200
H  28.58900 -0.03600 37.33000
H  30.39000 -0.01900 37.45000
Mg 44.14100 42.69100 25.71400
C  43.35500 45.11000 28.24000
C  45.12600 40.60900 28.26300
C  45.17000 40.71900 23.37200
C  43.29900 45.17300 23.25400
N  44.27300 42.89700 27.99200
C  43.70000 43.85200 28.78100
C  43.73300 43.54300 30.32700
C  44.45500 42.14300 30.33100
C  44.59100 41.84200 28.75800
C  45.78400 42.05400 31.16600
C  42.38400 43.47700 30.98600
C  42.24000 42.86700 32.40700
H  42.15400 43.74900 33.64000
N  45.09600 40.92600 25.78400
C  45.34800 40.16100 26.90400
C  45.86300 38.87500 26.55900
C  45.79100 38.85000 25.10700
C  45.34200 40.16800 24.67600
C  46.13900 37.81100 27.57500
C  46.08800 37.70300 24.13100
O  46.00500 37.76800 22.88600
C  46.67100 36.50500 24.70200
N  44.41100 42.98200 23.64300
C  44.79900 41.94500 22.87800
C  44.61100 42.20400 21.36900
C  43.80900 43.56100 21.39400
C  43.80000 43.92800 22.83200
C  45.85100 42.16400 20.54000
C  42.40000 43.44800 20.80300
C  41.24300 42.78800 21.55500
N  43.50800 44.75500 25.70200
C  43.16800 45.55200 24.63200
C  42.76200 46.81200 25.17300
C  42.81100 46.66500 26.57600
C  43.29400 45.42000 26.86400
C  42.60200 48.08600 24.44600
C  42.58000 47.32800 27.84400
O  42.08200 48.38700 28.09000
C  43.02500 46.36100 28.98000
C  44.19100 47.12000 29.59900
O  45.17500 47.50500 28.99000
O  43.89800 47.24900 30.96300
C  44.65200 48.29700 31.79000
H  45.44200 40.06000 29.15200
H  45.38300 40.07300 22.51700
H  43.10700 45.98300 22.54700
H  44.38100 44.28300 30.79600
H  43.77200 41.36300 30.66800
H  46.67800 41.91700 30.55700
H  45.66300 41.29900 31.94200
H  45.89600 43.00800 31.68100
H  41.68100 42.98700 30.31300
H  42.01300 44.48800 31.15100
H  43.12800 42.29500 32.67900
H  41.32200 42.28000 32.40100
H  45.67900 36.83600 27.41800
H  45.86800 38.16700 28.56900
H  47.21500 37.63400 27.57100
H  45.96500 36.08400 25.41700
H  47.64200 36.68400 25.16500
H  46.91000 35.78300 23.92100
H  44.06800 41.34900 20.96800
H  44.29800 44.39000 20.88200
H  45.48500 42.46600 19.55900
H  46.23700 41.14700 20.47100
H  46.55400 42.98600 20.67700
H  42.57200 43.02100 19.81500
H  42.02600 44.46800 20.72300
H  40.31400 43.31900 21.34900
H  41.40300 42.55900 22.60800
H  41.19200 41.76300 21.18700
H  43.01200 48.22600 23.44600
H  43.10100 48.85600 25.03500
H  41.53900 48.32000 24.39700
H  42.30200 46.20200 29.77900
H  45.65400 47.97000 32.06600
H  44.11800 48.64500 32.67400
H  44.85000 49.21400 31.23500

