158

Mg 2.35400 -0.64200 43.94200
C  5.74400 0.12000 43.24900
C  1.43900 2.22900 42.46100
C  -0.60700 -1.80500 44.10600
C  3.67200 -3.78100 45.34300
N  3.48600 0.94500 43.00300
C  4.84400 1.12300 42.88100
C  5.20500 2.49100 42.30600
C  3.81500 3.26400 42.28600
C  2.85700 2.08600 42.56900
C  3.62600 4.47100 43.27900
C  5.82900 2.42500 40.94000
C  6.91300 3.50100 40.55100
H  6.71600 4.04600 39.14300
N  0.57000 0.12400 43.46100
C  0.37000 1.32700 42.81200
C  -1.05600 1.51000 42.57300
C  -1.68400 0.37900 43.13100
C  -0.60700 -0.48600 43.60900
C  -1.66100 2.80000 41.97600
C  -3.14700 0.18000 43.27600
O  -3.99600 1.01800 43.03000
C  -3.79600 -1.08700 43.80800
N  1.68500 -2.54400 44.63500
C  0.35500 -2.74800 44.46900
C  0.04000 -4.24400 44.91000
C  1.36200 -4.86800 45.36500
C  2.33300 -3.67600 45.09200
C  -1.20600 -4.37000 45.88700
C  1.70600 -6.19000 44.72300
C  2.17100 -7.25500 45.73800
N  4.28900 -1.70000 44.25000
C  4.62200 -2.84700 44.90800
C  6.09500 -2.94000 44.98500
C  6.54800 -1.81300 44.32700
C  5.41300 -1.07100 43.89000
C  6.94200 -4.05400 45.58200
C  7.79300 -1.13700 43.90300
O  8.93200 -1.48400 43.99800
C  7.30500 0.14000 43.18300
C  7.74300 1.17600 44.10600
O  7.31900 1.36400 45.22000
O  8.64500 1.97400 43.53800
C  9.15000 3.02300 44.37600
H  1.25200 3.26900 42.18300
H  -1.58900 -2.25600 43.95200
H  4.05300 -4.69900 45.79400
H  5.91100 2.98600 42.97300
H  3.55900 3.67500 41.30900
H  4.36900 4.53400 44.07400
H  2.68600 4.45700 43.83200
H  3.68200 5.32200 42.60100
H  5.04900 2.32600 40.18500
H  6.26000 1.44900 40.71600
H  7.84200 2.94300 40.67100
H  6.75300 4.27500 41.30100
H  -0.97100 3.30900 41.30400
H  -1.76700 3.52800 42.78000
H  -2.47500 2.58500 41.28300
H  -4.85000 -0.83200 43.91800
H  -3.37400 -1.20100 44.80700
H  -3.61900 -2.01800 43.26900
H  -0.30200 -4.72700 43.99400
H  1.37500 -4.99600 46.44800
H  -0.84800 -4.68600 46.86600
H  -1.95900 -5.03000 45.45600
H  -1.71100 -3.42700 46.09700
H  2.61500 -6.03300 44.14300
H  1.01800 -6.54900 43.95700
H  2.18700 -8.26400 45.32700
H  1.53000 -7.26000 46.62000
H  3.21500 -7.01900 45.94700
H  6.87300 -4.91200 44.91300
H  6.58700 -4.38400 46.55900
H  7.94600 -3.68200 45.78400
H  7.75700 0.27700 42.20100
H  9.93200 3.41000 43.72300
H  9.71000 2.77800 45.27800
H  8.39200 3.77300 44.60000
Mg 1.14000 7.78900 28.16800
C  1.66500 9.93100 30.91300
C  1.52000 5.19000 30.36900
C  1.30100 5.76200 25.54000
C  1.30300 10.54900 26.00100
N  1.54400 7.58400 30.41700
C  1.54400 8.59500 31.28400
C  1.24200 8.06800 32.69600
C  1.54500 6.51600 32.56500
C  1.53800 6.43500 31.02900
C  2.89700 6.07400 33.09100
C  -0.21800 8.25000 33.17400
C  -0.57100 8.84100 34.62500
H  0.47400 8.59000 35.74000
N  1.12200 5.80000 27.95200
C  1.29100 4.85500 29.02000
C  1.18900 3.51500 28.47300
C  1.05100 3.65000 27.04400
C  1.19300 5.07300 26.80800
C  1.27300 2.39500 29.34900
C  0.84500 2.57200 25.97200
O  0.83200 2.85200 24.76300
C  0.58800 1.17100 26.42800
N  1.24000 8.12400 26.05900
C  1.30400 7.13000 25.19200
C  1.28000 7.62900 23.69000
C  0.99000 9.18400 23.87300
C  1.14100 9.26900 25.39000
C  2.59400 7.36200 22.95100
C  -0.30600 9.83000 23.20200
C  -1.41700 10.46600 24.00300
N  1.44700 9.82300 28.30300
C  1.44300 10.83700 27.41000
C  1.69300 12.12300 28.10300
C  1.74300 11.75700 29.41200
C  1.62900 10.41000 29.54200
C  1.79800 13.35800 27.43100
C  1.95000 12.29500 30.70200
O  2.20400 13.45200 31.03600
C  1.79200 11.16300 31.71400
C  2.81600 11.23100 32.74100
O  3.96700 10.85100 32.52300
O  2.39800 11.85800 33.84600
C  3.51800 12.14800 34.86100
H  1.79600 4.36900 31.03500
H  1.23800 5.12100 24.65900
H  1.33700 11.35500 25.26500
H  2.04300 8.48800 33.30400
H  0.77700 5.87900 33.00400
H  3.60600 5.87800 32.28700
H  2.58300 5.15000 33.57700
H  3.40700 6.74900 33.77800
H  -0.78100 7.32200 33.27200
H  -0.73800 8.83600 32.41600
H  -1.53500 8.45100 34.95300
H  -0.78400 9.88900 34.41600
H  1.80700 1.63800 28.77500
H  0.28600 2.02800 29.63100
H  1.92100 2.50400 30.21800
H  1.40800 0.63300 26.90300
H  0.26700 0.46200 25.66500
H  -0.29300 1.23900 27.06700
H  0.50200 7.09700 23.14200
H  1.86400 9.75900 23.56800
H  3.28200 6.90900 23.66400
H  3.00800 8.27100 22.51400
H  2.43600 6.60300 22.18500
H  -0.67800 9.02400 22.57000
H  -0.01700 10.65800 22.55500
H  -1.09900 10.31500 25.03400
H  -2.33400 9.88000 23.94700
H  -1.59800 11.51300 23.76000
H  0.78700 13.76100 27.36400
H  2.24800 13.18900 26.45400
H  2.39700 14.00100 28.07600
H  0.86800 11.41500 32.23400
H  4.43100 12.56000 34.43300
H  3.79400 11.23200 35.38300
H  3.26800 12.82000 35.68100

