158

Mg 44.32900 4.24800 47.16300
C  42.52000 7.37600 47.27200
C  41.48000 2.60200 46.87600
C  46.13300 1.58100 46.15500
C  47.20000 6.30100 46.84700
N  42.26400 4.95300 46.98500
C  41.73000 6.24200 47.25100
C  40.24200 6.13100 47.43800
C  39.91900 4.62100 47.29400
C  41.29500 4.00100 47.16400
C  39.08000 3.96900 48.41500
C  39.58100 6.95400 46.30100
C  40.20500 7.25600 44.89100
H  39.38900 6.99800 43.58500
N  43.83900 2.29100 46.67100
C  42.63000 1.82200 46.68900
C  42.64100 0.39500 46.31800
C  44.00200 0.08400 45.99700
C  44.72500 1.34800 46.26100
C  41.37900 -0.37600 46.15900
C  44.56400 -1.23000 45.41700
O  43.82000 -2.16700 45.12600
C  46.08500 -1.48100 45.16200
N  46.27600 3.99300 46.61800
C  46.84500 2.81100 46.31700
C  48.35400 2.81300 46.46900
C  48.72700 4.24500 46.83000
C  47.32300 4.90400 46.77500
C  49.04800 1.70400 47.45600
C  49.76000 4.93100 45.91100
C  51.07300 5.39700 46.56900
N  44.84500 6.45600 47.04400
C  46.03100 7.05000 46.98800
C  45.81300 8.44700 47.11100
C  44.42900 8.69900 47.29100
C  43.89600 7.40800 47.20400
C  46.92400 9.49900 47.19400
C  43.36300 9.63200 47.67000
O  43.28600 10.82500 47.89700
C  42.08300 8.78800 47.68500
C  41.61100 8.70400 49.13900
O  42.06100 7.96500 49.99400
O  40.51400 9.53500 49.25600
C  39.79400 9.41900 50.54100
H  40.56700 2.00200 46.87000
H  46.80300 0.77200 45.85600
H  48.09900 6.91800 46.91800
H  40.02900 6.53400 48.42900
H  39.28000 4.44300 46.42900
H  38.21500 4.62400 48.52200
H  39.73300 3.78900 49.26800
H  38.61300 3.03300 48.10900
H  39.28200 7.89600 46.76000
H  38.63400 6.46400 46.07400
H  41.10100 6.64400 44.79000
H  40.57700 8.27600 44.98600
H  41.27400 -1.19400 46.87200
H  41.60100 -0.93000 45.24600
H  40.45900 0.16100 45.93000
H  46.87000 -1.33700 45.90500
H  46.20600 -1.00300 44.19000
H  46.00900 -2.55200 44.97500
H  48.68300 2.72300 45.43300
H  49.02300 4.22800 47.87900
H  48.37700 0.93200 47.83400
H  49.46500 2.24600 48.30500
H  49.91900 1.24500 46.98700
H  49.38300 5.83600 45.43400
H  50.11900 4.21100 45.17500
H  51.90600 4.70100 46.47400
H  50.99600 5.72900 47.60400
H  51.43400 6.33600 46.15100
H  47.00100 9.66100 48.26900
H  46.60600 10.42100 46.70800
H  47.83100 9.12800 46.71600
H  41.25700 9.07100 47.03200
H  38.95300 10.10200 50.42300
H  40.24400 9.83900 51.44100
H  39.40800 8.43100 50.78900
Mg -2.24400 33.72400 26.58900
C  -3.85300 31.94500 29.07700
C  -0.78800 35.78300 28.94500
C  -0.97300 35.59100 24.06100
C  -4.17000 31.94900 24.18900
N  -2.53500 33.91300 28.82000
C  -3.09600 32.97800 29.68400
C  -2.78300 33.31600 31.09800
C  -1.83000 34.54900 30.99200
C  -1.71700 34.82000 29.50900
C  -2.34200 35.80700 31.80500
C  -2.13100 32.09800 31.89100
C  -2.81600 31.75600 33.19100
H  -1.94600 31.46900 34.39100
N  -1.00100 35.41000 26.47000
C  -0.48600 36.11800 27.53300
C  0.51400 37.10700 27.03600
C  0.37400 37.05400 25.56300
C  -0.57200 35.95100 25.31700
C  1.33100 37.97400 27.98500
C  1.07400 37.89200 24.47300
O  0.73800 37.98000 23.27600
C  2.17700 38.69900 24.87400
N  -2.70800 33.89700 24.35900
C  -1.98500 34.70600 23.55700
C  -2.30200 34.47300 21.96200
C  -3.06200 33.13100 22.17400
C  -3.40200 32.96600 23.64900
C  -3.16400 35.69700 21.54400
C  -2.40100 31.90500 21.44900
C  -1.42700 31.12200 22.29000
N  -3.66500 32.20600 26.59000
C  -4.38500 31.58500 25.57300
C  -5.23800 30.57400 26.14400
C  -5.05500 30.71600 27.51300
C  -4.08000 31.67400 27.72100
C  -6.19100 29.74000 25.37100
C  -5.50400 30.22000 28.75000
O  -6.29800 29.36300 29.00800
C  -4.72500 31.00500 29.91500
C  -5.70900 31.65700 30.76400
O  -6.30500 32.68400 30.47300
O  -5.99500 30.85000 31.86000
C  -7.01900 31.36300 32.79700
H  -0.34200 36.45800 29.67900
H  -0.47300 36.16000 23.27500
H  -4.77400 31.40600 23.45900
H  -3.67100 33.59100 31.66700
H  -0.83500 34.31000 31.36900
H  -1.82200 35.84200 32.76200
H  -3.40900 35.69400 31.99500
H  -2.29800 36.68600 31.16300
H  -1.12000 32.37000 32.19500
H  -1.94500 31.28600 31.18800
H  -3.45800 30.91900 32.91500
H  -3.43500 32.56700 33.57400
H  2.31200 37.68200 27.61100
H  1.24900 37.67800 29.03100
H  1.22900 39.04100 27.78500
H  1.85100 39.50300 25.53400
H  2.62200 39.19600 24.01200
H  3.04000 38.13000 25.22100
H  -1.36600 34.40300 21.40700
H  -4.07100 33.32200 21.81100
H  -3.47600 36.43800 22.28000
H  -4.05200 35.26400 21.08400
H  -2.63600 36.17100 20.71700
H  -1.86500 32.11100 20.52300
H  -3.28000 31.29900 21.23000
H  -1.00300 31.83200 23.00000
H  -0.75900 30.62900 21.58400
H  -1.97200 30.35000 22.83200
H  -6.38100 30.28100 24.44400
H  -7.04900 29.67300 26.04000
H  -5.81800 28.73300 25.18300
H  -4.13700 30.31600 30.52100
H  -7.89300 31.70700 32.24500
H  -6.62400 32.20300 33.36900
H  -7.35400 30.63800 33.53900

