158

Mg 47.59300 16.15300 29.02000
C  45.35500 15.93300 31.63400
C  49.90200 17.53500 30.93700
C  49.35900 17.05100 26.16200
C  45.17000 14.80600 26.91500
N  47.58800 16.63400 30.99400
C  46.61500 16.46900 31.95800
C  47.08500 16.70300 33.34700
C  48.39700 17.44700 33.07500
C  48.68400 17.17600 31.59100
C  48.36900 18.99600 33.42000
C  47.24500 15.30300 34.04700
C  47.32200 15.37600 35.57200
H  46.95500 16.66500 36.24900
N  49.48900 17.09000 28.61600
C  50.28500 17.56000 29.57100
C  51.54000 18.03300 28.95400
C  51.36600 17.87400 27.58200
C  49.98900 17.32300 27.42400
C  52.72200 18.45300 29.76200
C  52.31100 18.26900 26.42600
O  52.08800 18.04500 25.32000
C  53.67700 18.80900 26.64300
N  47.34500 15.82800 26.90300
C  48.21300 16.27500 25.95200
C  47.64800 16.11200 24.54400
C  46.37000 15.16000 24.80100
C  46.28900 15.21800 26.32100
C  47.38900 17.42300 23.76200
C  46.61300 13.68500 24.31200
C  46.34800 13.54000 22.79700
N  45.63400 15.35700 29.19900
C  44.77300 14.87500 28.28200
C  43.61400 14.44700 28.89100
C  43.73600 14.84900 30.27600
C  44.96400 15.38700 30.36400
C  42.35400 14.05300 28.10900
C  43.11000 14.91800 31.53200
O  41.96300 14.60700 31.83200
C  44.13200 15.58500 32.59900
C  43.43200 16.76800 33.14700
O  43.19800 17.83400 32.55100
O  42.84800 16.42500 34.31900
C  41.95000 17.47500 34.97200
H  50.64700 17.95300 31.61600
H  49.85500 17.38700 25.24900
H  44.48500 14.30100 26.23000
H  46.44800 17.39900 33.89300
H  49.14500 16.99800 33.72900
H  48.55500 19.53000 32.48900
H  49.11500 19.39400 34.10800
H  47.41800 19.33100 33.83500
H  48.26500 15.02200 33.78700
H  46.58700 14.48800 33.74600
H  48.35600 15.15100 35.83200
H  46.82800 14.50200 35.99500
H  53.55200 18.05100 29.18200
H  52.72000 18.21100 30.82500
H  52.78500 19.54100 29.74400
H  54.17900 19.16900 25.74500
H  54.35900 18.13400 27.15900
H  53.59200 19.56900 27.42000
H  48.48500 15.51000 24.19000
H  45.46700 15.50800 24.29700
H  46.33500 17.70200 23.75600
H  47.83700 17.36500 22.76900
H  47.94000 18.17700 24.32400
H  45.98400 13.03400 24.92000
H  47.60400 13.28300 24.51800
H  45.88600 12.55600 22.71800
H  47.34600 13.50300 22.36000
H  45.77700 14.37700 22.39400
H  41.94300 14.81100 27.44200
H  41.62000 13.79200 28.87100
H  42.58600 13.19000 27.48500
H  44.22700 14.76300 33.30900
H  41.05500 17.66000 34.37900
H  42.47000 18.40100 35.21900
H  41.67500 17.10400 35.95900
Mg 36.53200 49.28900 24.80600
C  36.48900 47.80500 27.88800
C  35.20000 52.12000 26.16200
C  36.47900 50.69100 21.75100
C  37.89500 46.36700 23.50300
N  35.88300 49.84100 26.78200
C  36.01200 49.12800 27.92600
C  35.73400 49.92000 29.18400
C  35.21400 51.27000 28.57100
C  35.45200 51.08400 27.10100
C  33.77500 51.64200 28.94900
C  36.93700 50.06500 30.14200
C  36.74800 49.77900 31.71200
H  35.42900 50.24400 32.31500
N  35.92000 51.11500 24.06300
C  35.45300 52.14500 24.76800
C  35.08900 53.22000 23.84900
C  35.31100 52.80800 22.57100
C  35.98800 51.47100 22.75200
C  34.67500 54.55400 24.48600
C  35.11500 53.47500 21.31500
O  35.24800 53.00000 20.21100
C  34.49100 54.98600 21.28400
N  36.88500 48.43300 22.88000
C  36.75900 49.25800 21.78100
C  37.37600 48.57800 20.59000
C  38.20900 47.43700 21.23600
C  37.59500 47.39400 22.64800
C  36.40600 48.32600 19.38900
C  39.64500 47.72000 21.37000
C  40.57900 46.66500 20.72800
N  37.14400 47.39000 25.54500
C  37.59200 46.26900 24.89300
C  37.70100 45.17500 25.82600
C  37.18300 45.78200 26.99700
C  36.88900 47.11300 26.74700
C  38.28500 43.81800 25.54100
C  36.88400 45.44300 28.32100
O  37.09500 44.41000 28.98600
C  36.43500 46.76800 29.00100
C  35.13500 46.49400 29.59500
O  34.09600 46.51900 29.00400
O  35.22000 46.25500 30.93200
C  33.95700 45.92500 31.60700
H  34.53800 52.95700 26.39600
H  36.46500 51.15200 20.76100
H  38.45500 45.56100 23.02300
H  34.86300 49.44500 29.63500
H  35.84100 52.12800 28.81500
H  33.42400 51.04200 29.78800
H  33.14600 51.59400 28.06000
H  33.84400 52.61600 29.43300
H  37.30000 51.08100 29.98700
H  37.79900 49.48100 29.81900
H  37.64100 50.20000 32.17400
H  36.76400 48.70000 31.86500
H  33.66000 54.46800 24.87600
H  34.57900 55.44500 23.86600
H  35.46800 54.80700 25.19000
H  33.55400 54.87700 21.83000
H  34.26700 55.27500 20.25700
H  35.13600 55.72700 21.75700
H  38.03900 49.32200 20.14900
H  37.98700 46.46500 20.79600
H  35.39400 48.70400 19.53700
H  36.18900 47.26800 19.24300
H  36.81700 48.63300 18.42800
H  40.07800 47.80900 22.36600
H  39.87100 48.66300 20.87300
H  40.08800 45.93100 20.08900
H  41.17100 46.20000 21.51700
H  41.27400 47.22300 20.10100
H  37.78700 43.10000 26.19200
H  39.35100 43.71100 25.74100
H  38.03200 43.63300 24.49700
H  37.14300 47.02700 29.78800
H  33.41300 46.86200 31.72200
H  34.07600 45.38400 32.54600
H  33.24600 45.25500 31.12200

