158

Mg -1.66800 17.28500 26.13400
C  -2.38000 15.21200 28.92800
C  -2.23900 19.99100 28.15000
C  -1.35600 19.25600 23.31900
C  -1.90100 14.42300 24.03400
N  -2.33200 17.57200 28.27400
C  -2.42400 16.59500 29.27900
C  -2.67300 17.27300 30.63700
C  -2.89400 18.81900 30.29700
C  -2.38500 18.76200 28.81100
C  -4.33300 19.38000 30.42800
C  -1.53800 17.07900 31.61900
C  -1.66400 17.93700 32.88200
H  -2.01400 17.11000 34.19000
N  -1.77100 19.32400 25.78700
C  -1.94200 20.31100 26.76300
C  -1.88500 21.63600 26.19900
C  -1.62300 21.39300 24.81500
C  -1.55200 19.95800 24.57900
C  -2.02100 22.90300 27.05000
C  -1.46300 22.47900 23.67200
O  -1.28300 22.21500 22.51000
C  -1.66800 23.84400 24.04200
N  -1.51400 16.81000 23.97300
C  -1.35100 17.83800 23.04300
C  -1.16800 17.24700 21.58300
C  -1.05700 15.69600 21.90600
C  -1.42400 15.60100 23.39700
C  -2.27800 17.59300 20.62400
C  0.33200 14.93100 21.66800
C  1.58600 15.73000 21.99000
N  -2.11000 15.25900 26.37000
C  -2.17000 14.18500 25.45400
C  -2.46800 12.93000 26.05900
C  -2.45900 13.28800 27.43100
C  -2.24000 14.69800 27.54900
C  -2.62500 11.61800 25.45200
C  -2.58000 12.75500 28.81500
O  -2.75100 11.61400 29.23000
C  -2.48900 14.05000 29.83000
C  -1.33000 13.87200 30.63400
O  -0.17300 14.14300 30.22600
O  -1.65100 13.24600 31.83200
C  -0.51800 13.28400 32.80700
H  -2.37400 20.84000 28.82400
H  -1.36600 19.79000 22.36700
H  -1.92400 13.56600 23.35800
H  -3.54800 16.80900 31.09300
H  -2.13600 19.36300 30.86100
H  -4.97700 18.67700 30.95700
H  -4.79600 19.65600 29.48000
H  -4.34200 20.27500 31.05000
H  -0.65000 17.33700 31.04200
H  -1.45900 16.05800 31.99100
H  -2.35900 18.76100 32.71900
H  -0.69400 18.39300 33.08200
H  -1.22900 23.61700 26.82500
H  -2.04800 22.78400 28.13300
H  -2.92300 23.41900 26.72000
H  -2.63600 24.00500 24.51600
H  -1.64900 24.48100 23.15700
H  -0.84000 24.15400 24.67900
H  -0.19400 17.55800 21.20300
H  -1.89400 15.16000 21.45900
H  -2.53500 18.64600 20.74300
H  -3.07300 16.86900 20.80200
H  -1.84300 17.53200 19.62600
H  0.40300 14.58200 20.63700
H  0.35600 14.03800 22.29300
H  2.10200 15.87200 21.04000
H  2.22800 15.17000 22.67000
H  1.40900 16.69800 22.45900
H  -3.48100 11.05400 25.82400
H  -1.70100 11.05100 25.55900
H  -2.79000 11.70000 24.37800
H  -3.45500 13.95500 30.32600
H  -1.05100 13.73400 33.64400
H  0.31900 13.93600 32.55500
H  -0.11700 12.31700 33.11000
Mg 6.50400 54.32400 40.99500
C  5.57200 50.90100 40.37200
C  9.53900 53.70900 39.93500
C  6.79100 57.69500 40.90700
C  2.87400 54.90400 41.49100
N  7.48600 52.48400 40.38100
C  6.94600 51.22900 40.15500
C  8.04700 50.26900 39.68700
C  9.32600 51.13900 39.82900
C  8.80800 52.56900 40.12900
C  10.39800 50.65900 40.91200
C  7.87900 49.44900 38.33500
C  7.84400 50.20300 37.03600
H  6.62500 50.08900 36.09200
N  7.97400 55.52100 40.46600
C  9.22700 55.08700 40.08200
C  10.10600 56.20400 40.04900
C  9.36400 57.32600 40.35500
C  7.96600 56.90700 40.60700
C  11.58300 56.14600 39.77000
C  9.88500 58.68000 40.52700
O  10.95500 58.88900 40.06200
C  9.17300 59.84700 41.19100
N  4.99700 56.01400 41.16400
C  5.46400 57.29800 41.26600
C  4.35600 58.34100 41.42300
C  3.11100 57.45100 41.38400
C  3.65700 56.01200 41.48000
C  4.53200 59.14600 42.71300
C  2.23700 57.70500 40.11600
C  0.69800 58.06200 40.32200
N  4.59900 53.15800 41.05400
C  3.28000 53.51000 41.29600
C  2.47500 52.31300 41.48200
C  3.31100 51.28900 41.11200
C  4.57100 51.82600 40.73400
C  1.00100 52.16500 41.74500
C  3.40700 49.88700 40.94400
O  2.52100 49.04000 41.15500
C  4.82100 49.55300 40.40400
C  4.57400 49.04900 39.06000
O  4.04500 49.60200 38.10100
O  4.76900 47.68900 39.09900
C  3.85900 46.98100 38.08600
H  10.51500 53.63800 39.45100
H  6.88900 58.77400 41.04200
H  1.81000 55.14300 41.55100
H  8.19600 49.60300 40.53700
H  9.68700 51.17900 38.80100
H  11.30300 50.52400 40.31800
H  10.14500 49.70100 41.36700
H  10.61000 51.39100 41.69100
H  6.96900 48.85300 38.39700
H  8.74300 48.78500 38.30000
H  8.61800 49.74500 36.42000
H  8.14000 51.24600 37.14200
H  11.62600 56.79900 38.89800
H  11.92500 55.23800 39.27300
H  12.20800 56.38000 40.63200
H  8.46100 60.30800 40.50600
H  9.87500 60.59800 41.55500
H  8.69700 59.46200 42.09300
H  4.49100 58.92200 40.51100
H  2.46800 57.53700 42.26100
H  5.42200 58.89600 43.29000
H  3.71000 59.18600 43.42700
H  4.67700 60.18600 42.42200
H  2.29400 56.76400 39.56800
H  2.64800 58.53900 39.54800
H  0.15000 57.17600 40.00000
H  0.33000 58.83500 39.64700
H  0.44600 58.25700 41.36400
H  0.64000 53.02600 42.30800
H  0.81200 51.27600 42.34700
H  0.44600 52.06900 40.81200
H  5.31200 48.77800 40.99200
H  3.59500 46.01200 38.51000
H  4.41700 46.92800 37.15000
H  2.89000 47.47400 38.01500

