158

Mg 16.80700 -2.04000 27.54900
C  16.03600 0.29300 30.00300
C  18.32100 -3.99400 30.02500
C  18.35500 -3.78000 25.18900
C  15.98800 0.38300 25.09400
N  17.19600 -1.83600 29.75600
C  16.63100 -0.88700 30.57700
C  16.83600 -1.19400 32.08600
C  17.59600 -2.57900 32.01100
C  17.80000 -2.81300 30.49400
C  18.91100 -2.59600 32.81200
C  15.52400 -1.31000 32.87800
C  15.33600 -0.29000 34.01700
H  16.61400 0.09100 34.78500
N  17.82100 -3.78500 27.56200
C  18.29600 -4.48400 28.66800
C  19.09700 -5.62100 28.30000
C  19.29200 -5.52800 26.85000
C  18.51800 -4.29300 26.51800
C  19.64200 -6.61300 29.33200
C  20.06300 -6.41400 25.99800
O  20.15600 -6.11500 24.81000
C  20.69300 -7.66300 26.45900
N  17.05400 -1.73700 25.43700
C  17.77800 -2.57500 24.74400
C  17.87000 -2.20400 23.24000
C  17.05600 -0.93100 23.16300
C  16.59500 -0.75700 24.61700
C  19.32100 -2.02600 22.69800
C  15.88300 -0.95000 22.11400
C  15.99700 0.13000 21.03100
N  16.06400 -0.11700 27.52000
C  15.68800 0.74700 26.50000
C  15.11900 1.99400 27.03100
C  15.13500 1.78200 28.40000
C  15.80700 0.57900 28.66000
C  14.81100 3.24400 26.35100
C  14.83400 2.47000 29.70400
O  14.25600 3.56800 29.92700
C  15.45300 1.49200 30.77900
C  16.57000 2.34000 31.48900
O  17.76900 2.36800 31.10900
O  16.09500 2.92400 32.61000
C  16.86300 4.06100 33.06300
H  18.77900 -4.63300 30.78300
H  18.91800 -4.41700 24.50300
H  15.81400 1.22300 24.41900
H  17.52100 -0.41000 32.40800
H  16.90900 -3.30100 32.45300
H  18.93600 -1.68300 33.40600
H  19.73900 -2.60000 32.10300
H  18.88200 -3.48800 33.43800
H  15.42300 -2.21800 33.47200
H  14.70100 -1.14600 32.18300
H  14.67700 -0.75700 34.74800
H  14.81800 0.56000 33.57200
H  20.72700 -6.57400 29.23600
H  19.28500 -7.58400 28.98900
H  19.35300 -6.54600 30.38000
H  20.05300 -8.28700 27.08400
H  21.54200 -7.41300 27.09600
H  21.20200 -8.01200 25.56000
H  17.52700 -3.02000 22.60300
H  17.75600 -0.11500 22.98300
H  19.50000 -1.24000 21.96400
H  19.58700 -3.00900 22.30900
H  19.92200 -1.86100 23.59200
H  14.89200 -0.80300 22.54500
H  15.93300 -1.93800 21.65700
H  16.22600 1.03600 21.59400
H  15.03400 0.29300 20.54800
H  16.76100 -0.04900 20.27400
H  15.35800 3.24800 25.40800
H  15.09900 4.06000 27.01400
H  13.75900 3.22900 26.06800
H  14.76000 1.19600 31.56700
H  17.10400 4.72300 32.23100
H  17.80200 3.84400 33.57200
H  16.27700 4.59800 33.80800
Mg 47.83500 34.50500 26.83500
C  46.11000 33.26800 29.70800
C  48.25100 37.46600 28.38200
C  49.12000 35.58300 24.06100
C  46.96700 31.38900 25.22500
N  47.28900 35.18300 28.85600
C  46.63600 34.56600 29.85800
C  46.59100 35.46300 31.11200
C  47.07800 36.86200 30.53900
C  47.55200 36.50800 29.14100
C  45.94700 37.90100 30.44400
C  47.53000 34.99800 32.34100
C  46.86000 35.15800 33.76900
H  47.84800 35.56400 34.81700
N  48.71000 36.23400 26.31400
C  48.79100 37.36100 27.08800
C  49.69500 38.24900 26.47400
C  49.89900 37.77200 25.10300
C  49.21200 36.49200 25.11900
C  50.31500 39.46100 27.19300
C  50.72900 38.41300 23.93500
O  50.79200 37.88600 22.82400
C  51.60300 39.62400 24.28000
N  48.05500 33.49700 24.91300
C  48.60400 34.24100 23.94800
C  48.81900 33.37700 22.64200
C  48.19300 31.96800 23.05900
C  47.63300 32.33300 24.43200
C  48.27400 34.00700 21.30100
C  49.18900 30.74000 23.07200
C  50.19900 30.65200 24.17000
N  46.83000 32.61100 27.35400
C  46.52500 31.50800 26.56600
C  45.82200 30.52700 27.43200
C  45.54700 31.16900 28.63800
C  46.20800 32.44000 28.54700
C  45.24700 29.23500 26.92300
C  44.80500 31.20800 29.82500
O  43.96300 30.43800 30.30200
C  45.01600 32.60100 30.54500
C  45.22300 32.35800 31.97000
O  46.23600 31.95900 32.50500
O  43.94600 32.47100 32.55300
C  43.93400 32.00000 33.95600
H  48.45700 38.41700 28.87900
H  49.58700 35.96400 23.15000
H  46.69200 30.43300 24.77500
H  45.54300 35.41200 31.40600
H  47.81000 37.27600 31.23300
H  46.39500 38.89200 30.50500
H  45.25700 37.85800 31.28600
H  45.42100 37.76500 29.49900
H  48.47200 35.54700 32.34800
H  47.87200 33.98300 32.14200
H  46.39900 34.22000 34.07800
H  46.08800 35.92600 33.72600
H  49.99500 40.38200 26.70600
H  51.40500 39.45600 27.19000
H  49.97500 39.56800 28.22300
H  50.97400 40.36700 24.77300
H  51.87900 39.99900 23.29500
H  52.40800 39.17900 24.86500
H  49.89600 33.26700 22.52000
H  47.27800 31.85900 22.47600
H  49.10700 34.49000 20.79100
H  47.46500 34.73400 21.35400
H  47.87100 33.22700 20.65600
H  49.62300 30.72500 22.07200
H  48.55400 29.85400 23.07100
H  51.15100 30.49800 23.66100
H  49.88800 29.75400 24.70300
H  50.26500 31.47900 24.87700
H  44.21400 29.31100 26.58100
H  45.26200 28.55100 27.77200
H  45.88800 28.81700 26.14700
H  44.04200 33.06700 30.39300
H  44.46600 32.71300 34.58600
H  44.34800 30.99600 34.04600
H  42.89000 32.07000 34.26300

