158

Mg 2.63300 -2.31300 44.35800
C  6.00700 -1.26500 43.98200
C  1.76800 0.32100 42.29300
C  -0.32400 -3.79600 44.00200
C  3.98000 -5.16700 45.97700
N  3.74900 -0.66100 43.25000
C  5.12400 -0.51400 43.17100
C  5.60200 0.51200 42.12300
C  4.20400 1.27700 41.87800
C  3.15400 0.28800 42.53600
C  4.05600 2.67300 42.50500
C  6.27400 -0.11600 40.83800
C  7.71700 0.28800 40.50100
H  8.17200 0.44700 39.05900
N  0.92600 -1.73700 43.36000
C  0.74900 -0.64700 42.63400
C  -0.60000 -0.54400 42.17500
C  -1.30400 -1.71400 42.59600
C  -0.24400 -2.48600 43.35600
C  -1.20500 0.62100 41.47300
C  -2.75900 -1.99000 42.38000
O  -3.47500 -1.15000 41.88200
C  -3.37200 -3.28800 42.83000
N  1.93100 -4.16300 45.00400
C  0.61500 -4.50900 44.81000
C  0.27000 -5.89400 45.36600
C  1.68800 -6.46100 45.73700
C  2.61500 -5.20700 45.58100
C  -0.62000 -5.87500 46.57500
C  2.07500 -7.60700 44.74100
C  2.12100 -9.04200 45.34200
N  4.52700 -2.98400 45.09900
C  4.93700 -4.13900 45.77200
C  6.39300 -4.07300 46.00200
C  6.85500 -2.90800 45.39000
C  5.70400 -2.28100 44.89400
C  7.21600 -5.11700 46.80400
C  8.04100 -2.20300 45.09900
O  9.26000 -2.30100 45.41300
C  7.45800 -0.99900 44.20000
C  7.56600 0.23500 44.90900
O  6.96600 0.49000 45.94000
O  8.68600 0.98100 44.40100
C  9.01300 2.14400 45.23900
H  1.52600 1.11400 41.58200
H  -1.31500 -4.25500 43.96800
H  4.44400 -6.00500 46.50200
H  6.30100 1.18100 42.62600
H  3.89900 1.38000 40.83700
H  5.00100 3.14300 42.78100
H  3.46900 2.74100 43.42000
H  3.71000 3.41200 41.78200
H  5.66100 -0.17600 39.93900
H  6.35300 -1.18200 41.05300
H  8.43900 -0.28300 41.08500
H  7.64900 1.30000 40.90100
H  -1.79000 0.36300 40.59100
H  -0.36500 1.22700 41.13400
H  -1.86100 1.09600 42.20300
H  -2.85300 -4.17700 42.47100
H  -4.43400 -3.31000 42.58600
H  -3.29300 -3.38200 43.91300
H  -0.15100 -6.59300 44.64300
H  1.90500 -6.79100 46.75200
H  -0.23700 -6.41000 47.44400
H  -1.48500 -6.48300 46.31100
H  -0.94600 -4.85300 46.77000
H  3.07500 -7.47400 44.32800
H  1.34300 -7.58200 43.93400
H  1.92800 -9.13900 46.41000
H  3.09300 -9.48200 45.11800
H  1.33600 -9.68100 44.93700
H  6.98300 -6.12400 46.45700
H  7.08200 -5.09800 47.88600
H  8.25200 -4.88300 46.56100
H  8.07000 -0.95600 43.29900
H  9.52700 2.88700 44.62900
H  9.44100 1.92000 46.21600
H  8.04900 2.63500 45.37500
Mg -5.58300 24.92900 26.06700
C  -3.98500 25.91600 29.16000
C  -7.30800 22.65100 28.04500
C  -6.38700 23.40400 23.25200
C  -3.25900 26.86900 24.39600
N  -5.75800 24.44800 28.46100
C  -4.99300 24.91100 29.44700
C  -5.52000 24.38500 30.81100
C  -6.55700 23.28800 30.41500
C  -6.62500 23.49000 28.90100
C  -6.10800 21.90300 30.71800
C  -6.25900 25.60300 31.60100
C  -5.91000 25.78700 33.08100
H  -5.08700 24.78600 33.79200
N  -6.77300 23.44400 25.71700
C  -7.51300 22.68500 26.60000
C  -8.41100 21.80300 25.89200
C  -8.16000 22.00200 24.49800
C  -7.04700 22.99600 24.46700
C  -9.42800 20.88500 26.58600
C  -8.85400 21.32700 23.26800
O  -8.41100 21.45400 22.14900
C  -9.92400 20.37400 23.43900
N  -4.89200 25.04500 24.16700
C  -5.33900 24.28400 23.13800
C  -4.82000 24.73500 21.81100
C  -3.97200 26.01500 22.14300
C  -4.06600 26.04600 23.67900
C  -3.91700 23.63200 21.07400
C  -4.43500 27.30800 21.46800
C  -3.38400 28.31900 21.10500
N  -3.99300 26.23400 26.62800
C  -3.21400 26.96800 25.78300
C  -2.32300 27.82000 26.61200
C  -2.60600 27.46800 27.96900
C  -3.60500 26.47500 27.91400
C  -1.57100 28.98600 26.21200
C  -2.18400 27.67200 29.35000
O  -1.21600 28.31600 29.70700
C  -3.23500 26.79600 30.21300
C  -2.34400 25.89000 31.06500
O  -1.98200 24.77100 30.72200
O  -1.97700 26.55600 32.21800
C  -0.89000 25.83200 32.89100
H  -7.99100 22.01700 28.61400
H  -6.81700 23.04700 22.31400
H  -2.60200 27.59700 23.91600
H  -4.68100 24.06100 31.42700
H  -7.52600 23.40300 30.90100
H  -5.28000 21.83400 31.42400
H  -5.72800 21.47800 29.78900
H  -6.91700 21.24200 31.02800
H  -7.34600 25.55800 31.53300
H  -5.99800 26.54200 31.11400
H  -6.81100 25.93600 33.67700
H  -5.45700 26.75900 33.27900
H  -9.44000 20.95700 27.67300
H  -9.21100 19.83400 26.39700
H  -10.37600 21.05000 26.07300
H  -10.89100 20.87000 23.51700
H  -9.60300 19.63700 24.17500
H  -10.14900 19.83100 22.52000
H  -5.69900 24.95400 21.20400
H  -2.94800 25.78600 21.84800
H  -3.85200 22.74600 21.70600
H  -2.86800 23.87300 20.90700
H  -4.38200 23.47800 20.10100
H  -5.25300 27.90100 21.87800
H  -4.81000 27.07100 20.47200
H  -2.43500 27.98200 21.52300
H  -3.44000 29.28700 21.60200
H  -3.36800 28.41100 20.01900
H  -2.20600 29.75200 25.76600
H  -0.77300 28.87100 25.47900
H  -1.22000 29.45700 27.13000
H  -3.87700 27.35200 30.89600
H  0.07800 25.95700 32.40600
H  -1.07900 24.78100 33.11300
H  -0.92300 26.22400 33.90800

