158

Mg 47.43300 44.48200 42.87000
C  44.09900 43.38900 42.53300
C  48.41300 41.25500 42.44100
C  50.72500 45.55100 42.38900
C  46.41300 47.75400 42.78700
N  46.40100 42.56800 42.45000
C  45.04200 42.32800 42.50100
C  44.78900 40.77200 42.41700
C  46.15600 40.21800 42.70600
C  47.07700 41.44100 42.57600
C  46.25100 39.46000 44.04000
C  44.04900 40.29800 41.14400
C  44.11600 41.21100 39.82400
H  44.20700 40.54200 38.45300
N  49.26000 43.47000 42.64100
C  49.49600 42.13300 42.55800
C  50.91100 41.86300 42.44600
C  51.59300 43.07500 42.42300
C  50.54000 44.18200 42.47000
C  51.46900 40.50700 42.11200
C  53.11900 43.22700 42.28000
O  53.81600 42.24800 42.03200
C  53.92000 44.49500 42.50100
N  48.34100 46.44900 42.22900
C  49.75000 46.53800 42.31800
C  50.02900 48.07700 42.47000
C  48.68100 48.77800 42.62000
C  47.73500 47.60200 42.54600
C  51.22300 48.57900 43.38200
C  48.29400 49.96000 41.66800
C  47.81700 51.23800 42.30400
N  45.64900 45.42200 42.65900
C  45.33400 46.75600 42.72000
C  43.88900 46.90100 42.80900
C  43.36400 45.61600 42.60100
C  44.48900 44.75300 42.55700
C  43.17800 48.20700 43.11200
C  42.12900 44.86000 42.41800
O  40.96500 45.24200 42.35500
C  42.55300 43.31400 42.55400
C  42.08400 42.89300 43.92500
O  42.16000 43.59100 44.95500
O  41.68700 41.48500 43.95600
C  41.64700 40.94500 45.35700
H  48.65400 40.19200 42.50200
H  51.73300 45.96700 42.45000
H  46.11400 48.77800 43.01700
H  44.14700 40.71400 43.29600
H  46.49600 39.63600 41.84900
H  45.41200 38.80400 44.27100
H  46.66800 40.10000 44.81700
H  47.01700 38.75300 43.72000
H  43.01300 40.33000 41.48100
H  44.25500 39.24500 40.95200
H  45.05600 41.75800 39.89100
H  43.34500 41.97100 39.95100
H  52.20100 40.50700 41.30400
H  50.73300 39.71400 41.98100
H  51.99600 40.26300 43.03400
H  53.74000 45.09000 41.60500
H  54.97200 44.22800 42.60200
H  53.50600 44.84400 43.44700
H  50.33600 48.26200 41.44100
H  48.65300 49.16800 43.63700
H  51.35900 47.75100 44.07700
H  50.94400 49.47500 43.93900
H  52.16500 48.83800 42.89800
H  47.47000 49.59600 41.05400
H  49.12500 50.19700 41.00400
H  48.71900 51.85000 42.32300
H  47.35800 51.02100 43.26900
H  47.02900 51.77200 41.77300
H  43.69900 48.76300 43.89200
H  42.13100 47.92600 43.23200
H  43.28300 48.84700 42.23600
H  42.07000 42.65700 41.83100
H  40.65400 40.54000 45.55400
H  42.19500 41.51500 46.10800
H  42.25700 40.04800 45.25300
Mg -1.18500 34.66900 26.51900
C  -2.58700 32.90600 29.37800
C  -0.09400 37.04900 28.80200
C  -0.31900 36.35400 23.91600
C  -2.79000 32.31500 24.62400
N  -1.42600 34.94100 28.90100
C  -1.88500 34.09700 29.81700
C  -1.71100 34.68700 31.22000
C  -0.87200 35.92100 30.97100
C  -0.80500 35.99200 29.43200
C  -1.45100 37.23700 31.56000
C  -1.01200 33.69400 32.16800
C  -1.56700 33.49700 33.56500
H  -0.78000 33.19500 34.85200
N  -0.29700 36.36200 26.41300
C  0.09800 37.23100 27.42000
C  0.84000 38.33800 26.82100
C  0.90400 38.15400 25.42300
C  0.06800 36.95200 25.20500
C  1.58200 39.34200 27.68400
C  1.61600 39.08100 24.39200
O  1.33200 38.96700 23.20700
C  2.42900 40.34300 24.76700
N  -1.67400 34.46200 24.54600
C  -1.08700 35.21300 23.59200
C  -1.51600 34.79900 22.19500
C  -2.08100 33.37100 22.51600
C  -2.28100 33.43500 24.00200
C  -2.55400 35.66500 21.51700
C  -1.24000 32.13000 21.99400
C  0.05600 31.75900 22.76000
N  -2.45900 32.91100 26.86400
C  -3.04700 32.15800 25.95600
C  -3.84200 31.10900 26.56500
C  -3.66800 31.36400 27.92800
C  -2.87600 32.51800 28.07700
C  -4.52300 30.04200 25.81200
C  -3.93100 30.79100 29.19600
O  -4.36300 29.67900 29.54000
C  -3.38200 31.83100 30.21100
C  -4.44900 32.48300 30.94600
O  -5.34200 33.14600 30.52000
O  -4.36000 32.10900 32.27000
C  -5.35300 32.73700 33.19900
H  0.36800 37.85200 29.38000
H  -0.06200 36.94800 23.03600
H  -3.05300 31.53400 23.90700
H  -2.67100 34.99900 31.63200
H  0.16900 35.72900 31.23200
H  -1.90500 37.82500 30.76300
H  -0.69500 37.76900 32.13700
H  -2.19200 37.02900 32.33100
H  0.02900 33.91700 32.40400
H  -0.92500 32.75500 31.62200
H  -2.39600 32.79200 33.51100
H  -2.09400 34.42800 33.77300
H  2.65900 39.26100 27.53300
H  1.31300 39.36900 28.74000
H  1.16100 40.28700 27.33900
H  1.67700 41.06500 25.08500
H  2.93600 40.69700 23.86900
H  3.15500 40.18400 25.56400
H  -0.61500 34.64000 21.60300
H  -3.06800 33.20100 22.08600
H  -2.17100 35.94100 20.53400
H  -2.54000 36.60800 22.06400
H  -3.50100 35.15300 21.34800
H  -0.72500 32.40300 21.07300
H  -1.87900 31.27400 21.77400
H  0.12700 32.30700 23.70000
H  0.97200 31.95500 22.20300
H  0.10100 30.69300 22.98300
H  -4.18000 30.05900 24.77700
H  -5.60500 30.17700 25.83400
H  -4.23500 29.12900 26.33300
H  -2.71700 31.27000 30.86800
H  -4.91700 33.30900 34.01800
H  -5.83700 31.86600 33.64000
H  -6.03600 33.42300 32.69800

