158

Mg 42.56800 41.55600 25.94600
C  41.70400 43.94800 28.34100
C  43.43400 39.39400 28.41400
C  43.76000 39.39500 23.54700
C  41.96400 43.91700 23.48400
N  42.78000 41.76200 28.09600
C  42.22600 42.77600 28.88800
C  42.26000 42.38600 30.36100
C  42.77900 40.91500 30.37900
C  43.07000 40.63000 28.85000
C  43.92700 40.70700 31.33100
C  40.93600 42.61500 31.09400
C  40.73800 42.02400 32.51400
H  40.27700 42.84700 33.68400
N  43.54600 39.62400 26.00100
C  43.62500 38.88200 27.11600
C  44.09600 37.52900 26.73900
C  44.20500 37.51700 25.29500
C  43.81000 38.89600 24.90300
C  44.26500 36.32300 27.70300
C  44.55500 36.37000 24.32200
O  44.65700 36.45500 23.13900
C  44.88600 35.04200 24.93200
N  42.91600 41.64000 23.84700
C  43.33600 40.64500 23.08300
C  43.29400 40.94000 21.59300
C  42.71600 42.38600 21.60400
C  42.51600 42.74700 23.10700
C  44.70700 40.79400 20.85300
C  41.36500 42.51400 20.82900
C  40.13800 41.87600 21.37000
N  41.99600 43.59000 25.82200
C  41.69200 44.37400 24.75600
C  41.36500 45.68800 25.25700
C  41.26700 45.59700 26.61600
C  41.63300 44.24000 26.93500
C  40.99400 46.87300 24.36000
C  40.84100 46.20600 27.87400
O  40.41500 47.30400 28.17700
C  41.14900 45.19600 29.00900
C  42.11400 45.76000 29.95400
O  43.27500 45.96500 29.77600
O  41.47100 46.08400 31.08100
C  42.27100 46.80800 32.14400
H  43.56200 38.73000 29.27100
H  44.05100 38.77200 22.69900
H  41.86200 44.60700 22.64400
H  42.83900 43.14200 30.89200
H  41.98600 40.23300 30.68700
H  44.81700 40.82800 30.71300
H  43.91600 39.68000 31.69600
H  43.86900 41.39500 32.17300
H  40.06500 42.38800 30.47800
H  40.84500 43.65300 31.41300
H  41.67600 41.55200 32.80600
H  39.92400 41.30300 32.43700
H  44.15200 36.71100 28.71500
H  45.26100 35.93400 27.49200
H  43.54300 35.50700 27.65800
H  44.07100 34.62300 25.52300
H  45.70000 35.28900 25.61300
H  45.33100 34.28900 24.28100
H  42.64200 40.25300 21.05300
H  43.39100 43.16300 21.24400
H  44.90700 41.70200 20.28300
H  44.49000 39.98000 20.16200
H  45.47500 40.41400 21.52700
H  41.52500 42.17500 19.80500
H  41.20700 43.59100 20.76100
H  39.26300 42.50800 21.21900
H  40.25100 41.59100 22.41600
H  40.14700 40.96400 20.77300
H  40.01400 47.32000 24.52600
H  41.11600 46.54800 23.32600
H  41.78600 47.60300 24.52800
H  40.26000 44.85600 29.54000
H  42.97000 47.49700 31.67200
H  42.70600 46.18300 32.92500
H  41.72600 47.60400 32.65100
Mg -5.93900 25.49300 26.23300
C  -4.04100 26.95500 28.82000
C  -7.23200 23.33300 28.51000
C  -7.15700 23.80500 23.59900
C  -4.21000 27.71500 24.06700
N  -5.58700 25.18100 28.41000
C  -5.06000 26.10500 29.27800
C  -5.52600 25.87500 30.72100
C  -6.29900 24.54700 30.55500
C  -6.42300 24.29600 29.07600
C  -5.89800 23.27900 31.31900
C  -6.26800 27.08200 31.35600
C  -6.82300 26.83800 32.72300
H  -6.14800 25.82200 33.62700
N  -7.13500 23.84900 26.05100
C  -7.56900 23.09600 27.12100
C  -8.36900 22.00800 26.60200
C  -8.40900 22.17300 25.18700
C  -7.53700 23.27600 24.84200
C  -9.06500 21.11500 27.53700
C  -9.25500 21.44600 24.15400
O  -9.36900 21.82700 22.97900
C  -10.18500 20.36600 24.61500
N  -5.67500 25.62300 24.13500
C  -6.22900 24.79900 23.23800
C  -5.98800 25.25300 21.77600
C  -5.21700 26.56600 21.91700
C  -5.00800 26.70900 23.50100
C  -5.39100 24.14800 20.86300
C  -5.77300 27.84400 21.24200
C  -5.05600 28.47800 20.06200
N  -4.42100 27.00600 26.36800
C  -3.80100 27.79100 25.38600
C  -2.81700 28.66500 25.94700
C  -2.84000 28.28400 27.32800
C  -3.79600 27.28500 27.49000
C  -1.98200 29.70300 25.23700
C  -2.30900 28.56100 28.63500
O  -1.45300 29.42200 28.92400
C  -3.06900 27.69700 29.65600
C  -2.15000 27.09800 30.72100
O  -1.47100 26.10800 30.55500
O  -2.27400 27.82800 31.88900
C  -1.87600 27.21600 33.11500
H  -7.68000 22.67200 29.25600
H  -7.31700 23.21100 22.69600
H  -3.75000 28.43500 23.38700
H  -4.68700 25.69400 31.39400
H  -7.31200 24.79800 30.87000
H  -5.04300 23.38700 31.98600
H  -5.57200 22.44600 30.69600
H  -6.73900 23.02600 31.96500
H  -7.10700 27.19200 30.67000
H  -5.60500 27.94800 31.37900
H  -7.86900 26.57700 32.56400
H  -6.76500 27.74400 33.32700
H  -10.07900 21.51400 27.56500
H  -8.64300 21.21700 28.53600
H  -9.09600 20.05800 27.27400
H  -10.74300 20.00800 23.75000
H  -10.98800 20.72400 25.25800
H  -9.54800 19.61600 25.08300
H  -6.95600 25.52700 21.35700
H  -4.17600 26.49500 21.60200
H  -5.53200 23.13300 21.23600
H  -4.31200 24.29800 20.84200
H  -5.86700 24.17400 19.88300
H  -5.84900 28.58200 22.04000
H  -6.77000 27.64600 20.84900
H  -4.44600 29.31700 20.39800
H  -5.82400 28.92600 19.43100
H  -4.48900 27.75700 19.47300
H  -2.03800 29.73400 24.14900
H  -0.94000 29.70300 25.55900
H  -2.33100 30.64000 25.67100
H  -3.69100 28.50300 30.04500
H  -1.27100 28.00200 33.56700
H  -1.35500 26.26300 33.03000
H  -2.74600 27.17900 33.77100

