158

Mg 17.53700 -0.58600 27.95900
C  16.38800 1.63200 30.48100
C  19.16800 -2.42700 30.32500
C  18.85600 -2.47200 25.49800
C  15.94700 1.51300 25.58700
N  17.74000 -0.41200 30.13600
C  17.18500 0.54800 30.96100
C  17.48900 0.25100 32.38700
C  18.64200 -0.82500 32.23700
C  18.64100 -1.21400 30.78700
C  20.03600 -0.28600 32.57400
C  16.24200 -0.13000 33.21200
C  16.48300 -0.02500 34.78700
H  17.84100 0.50900 35.35800
N  18.84700 -2.22000 27.91600
C  19.26500 -2.92200 29.00800
C  19.96700 -4.16600 28.65400
C  19.99200 -4.14600 27.22800
C  19.23000 -2.94300 26.77100
C  20.53300 -5.21900 29.69200
C  20.59500 -5.15400 26.23000
O  20.66800 -4.89300 25.05300
C  21.04800 -6.52700 26.71700
N  17.40200 -0.55400 25.87400
C  18.10000 -1.36100 25.07100
C  18.03700 -0.84300 23.60600
C  17.02100 0.26000 23.68500
C  16.68000 0.39900 25.13500
C  19.39600 -0.55200 22.89600
C  15.75400 0.27200 22.78700
C  14.45200 -0.51400 23.24400
N  16.31500 1.12600 27.97600
C  15.73400 1.85300 26.93200
C  14.92400 2.98200 27.49100
C  15.19800 2.89800 28.93500
C  16.02200 1.80400 29.13700
C  14.05400 3.94300 26.62100
C  14.97900 3.57400 30.15600
O  14.37400 4.55700 30.40800
C  15.65900 2.68600 31.22600
C  16.61800 3.49700 32.03000
O  17.68700 3.87000 31.70200
O  16.04300 3.90100 33.18900
C  16.81000 4.71900 34.05100
H  19.59200 -2.93400 31.19400
H  19.18000 -2.88600 24.54000
H  15.54100 2.22400 24.86400
H  17.84000 1.12500 32.93500
H  18.37400 -1.67800 32.86100
H  19.97600 0.70000 33.03500
H  20.69200 -0.33500 31.70400
H  20.42600 -1.01400 33.28500
H  15.85800 -1.09900 32.89300
H  15.58100 0.71300 33.01200
H  16.41100 -1.06000 35.12200
H  15.63000 0.54300 35.15900
H  19.80500 -6.02100 29.56300
H  20.43700 -4.85500 30.71500
H  21.54600 -5.53800 29.44500
H  20.26100 -6.98300 27.31800
H  21.91600 -6.43600 27.36900
H  21.18000 -7.12700 25.81700
H  17.59300 -1.66200 23.04100
H  17.48700 1.16800 23.30200
H  19.35900 0.22000 22.12800
H  19.72700 -1.47800 22.42500
H  20.13400 -0.24600 23.63800
H  16.01300 -0.19100 21.83500
H  15.38700 1.28500 22.61900
H  13.78600 0.30500 23.51600
H  14.64400 -1.20500 24.06600
H  13.97400 -1.06200 22.43200
H  13.81600 3.46800 25.66900
H  14.64100 4.78500 26.25600
H  13.19200 4.26000 27.20700
H  14.78600 2.52700 31.85800
H  16.63700 5.74000 33.71100
H  17.80600 4.28800 34.16000
H  16.33300 4.56000 35.01800
Mg 47.97800 24.58800 28.17300
C  48.71100 26.97600 30.60300
C  46.65700 22.42900 30.43100
C  47.68300 22.26200 25.67000
C  49.81600 26.57800 25.91200
N  47.74800 24.77000 30.27700
C  48.11600 25.76200 31.10400
C  47.80800 25.35100 32.55500
C  47.33900 23.88600 32.47400
C  47.17500 23.65500 30.96500
C  48.12500 22.72400 33.18500
C  46.78600 26.35300 33.27500
C  47.23800 26.81200 34.72400
H  47.00800 25.90700 35.89400
N  47.21200 22.58800 28.08500
C  46.62400 21.93000 29.13800
C  45.94900 20.69600 28.60700
C  46.26400 20.60700 27.18800
C  47.04800 21.84700 26.91000
C  45.25500 19.75700 29.47900
C  45.82600 19.58800 26.10700
O  46.03800 19.78400 24.88100
C  45.03100 18.38600 26.54800
N  48.70000 24.39100 26.14700
C  48.43900 23.37000 25.26500
C  49.09600 23.61800 23.87500
C  49.70700 25.01700 24.03200
C  49.35800 25.41900 25.47700
C  50.15800 22.54900 23.52500
C  49.06100 26.02700 22.98200
C  47.54500 26.30400 22.98500
N  49.01600 26.44900 28.13700
C  49.76400 27.06000 27.16900
C  50.40000 28.28100 27.71200
C  49.88000 28.35400 29.05500
C  49.12700 27.17000 29.26500
C  51.22300 29.29800 26.94900
C  49.82400 29.14000 30.24100
O  50.20100 30.24100 30.38900
C  49.16200 28.23600 31.30200
C  50.21800 27.95700 32.33300
O  51.26900 27.26900 32.17900
O  49.98100 28.74200 33.39600
C  50.87000 28.96700 34.54500
H  46.28600 21.75900 31.20900
H  47.57200 21.57100 24.83100
H  50.39500 27.16200 25.19300
H  48.73700 25.33000 33.12600
H  46.32500 23.76900 32.85700
H  48.83100 22.22300 32.52300
H  47.41800 21.99200 33.57500
H  48.66300 23.13600 34.03900
H  45.85800 25.80200 33.42500
H  46.55400 27.20300 32.63300
H  46.74300 27.71500 35.07900
H  48.27900 27.13400 34.74100
H  44.16900 19.74100 29.38100
H  45.42000 20.01100 30.52600
H  45.66100 18.78700 29.19200
H  44.08600 18.82800 26.86700
H  45.53900 17.81500 27.32500
H  44.85500 17.73300 25.69400
H  48.33900 23.62000 23.09000
H  50.78700 24.87600 24.06900
H  50.61000 22.18300 24.44700
H  50.83900 23.18400 22.95700
H  49.62300 21.80100 22.93900
H  49.31100 25.46500 22.08200
H  49.68500 26.91400 22.88000
H  47.06600 26.18900 22.01300
H  47.42800 27.33400 23.32100
H  46.97400 25.59100 23.57900
H  50.88800 29.37200 25.91400
H  52.21100 28.83700 26.94100
H  51.31500 30.21900 27.52400
H  48.37700 28.82300 31.77900
H  51.79600 28.41800 34.37300
H  50.47400 28.52500 35.45900
H  51.13300 30.01100 34.71600

