158

Mg 43.07200 42.82700 26.67900
C  41.78100 45.19100 28.87900
C  44.27600 40.94000 29.26600
C  44.29800 40.75800 24.43700
C  42.16900 45.01900 23.95600
N  43.00200 43.04600 28.81400
C  42.36900 44.05700 29.53700
C  42.42300 43.69900 31.03600
C  43.52300 42.62500 31.14700
C  43.54500 42.08400 29.68200
C  44.84700 43.01100 31.80800
C  41.03300 43.08600 31.45100
C  40.40100 43.43300 32.77200
H  41.25300 43.83700 33.93300
N  44.07000 41.06300 26.80200
C  44.43500 40.44800 27.92400
C  45.02500 39.20700 27.63900
C  44.98200 39.07200 26.19700
C  44.42900 40.34900 25.75500
C  45.67300 38.30500 28.66800
C  45.34900 37.90700 25.36400
O  45.24600 37.87200 24.15800
C  45.82200 36.73800 25.99800
N  43.46400 43.00100 24.52300
C  43.87300 41.92700 23.86800
C  43.88000 42.02000 22.40700
C  42.98800 43.33100 22.25600
C  42.84100 43.83300 23.68400
C  45.28800 42.13100 21.72800
C  41.66400 43.08500 21.34900
C  40.26400 43.00200 22.00200
N  42.28100 44.77300 26.40800
C  42.04300 45.56000 25.24200
C  41.33500 46.75900 25.64700
C  41.26900 46.64500 27.07400
C  41.85900 45.44800 27.48400
C  40.71900 47.84900 24.70900
C  40.76200 47.31300 28.23700
O  40.06400 48.34500 28.34900
C  40.97200 46.32600 29.59000
C  41.85400 47.08300 30.41500
O  42.97100 47.36500 30.13400
O  41.21500 47.25500 31.63300
C  41.99800 47.94200 32.65100
H  44.66200 40.26700 30.03400
H  44.57000 39.91600 23.79800
H  41.78400 45.68500 23.18200
H  42.72800 44.54200 31.65500
H  43.15000 41.88200 31.85200
H  45.12100 42.31700 32.60300
H  44.79600 44.00500 32.25300
H  45.59600 43.08600 31.02000
H  41.02200 41.99600 31.40800
H  40.22100 43.32800 30.76500
H  39.87700 42.51000 33.02200
H  39.63700 44.19900 32.64200
H  45.83400 38.72400 29.66200
H  46.68800 38.13700 28.30800
H  45.20800 37.31900 28.68700
H  46.71900 37.10300 26.49900
H  46.07600 35.99500 25.24200
H  45.01800 36.34400 26.62000
H  43.32100 41.11800 22.15500
H  43.63600 44.08200 21.80400
H  45.49800 43.06100 21.20000
H  45.26300 41.31700 21.00300
H  46.13400 42.06900 22.41300
H  41.70100 42.17100 20.75600
H  41.78600 43.84700 20.57900
H  39.69700 43.87400 21.67500
H  40.29000 42.86800 23.08300
H  39.86400 42.03000 21.71300
H  40.29300 47.29300 23.87400
H  41.49900 48.47200 24.27000
H  39.99500 48.46400 25.24400
H  40.03900 46.00100 30.05200
H  42.74200 48.70000 32.40400
H  42.48400 47.24000 33.32800
H  41.17000 48.45600 33.14000
Mg 27.34200 50.52200 26.86700
C  25.05700 51.64800 29.45500
C  29.52000 49.67100 29.20900
C  29.31300 49.78500 24.34600
C  24.89700 51.75200 24.57800
N  27.24900 50.65200 29.05300
C  26.18500 50.94600 29.90500
C  26.59100 50.64400 31.31500
C  28.07300 50.19100 31.20200
C  28.28900 50.11500 29.74000
C  29.04700 51.25200 31.93300
C  25.74300 49.65300 32.15600
C  25.07500 50.08600 33.48600
H  25.91100 50.23800 34.68700
N  29.21600 49.84600 26.77100
C  29.94000 49.42200 27.84000
C  31.18000 48.78300 27.38600
C  31.20600 48.82900 25.96300
C  29.91300 49.52900 25.64000
C  32.10000 48.17500 28.32500
C  32.10300 48.23600 24.93700
O  31.90900 48.39100 23.75100
C  33.22100 47.42200 25.35000
N  27.19600 50.81300 24.77100
C  28.13200 50.31600 23.94100
C  27.68300 50.57800 22.48600
C  26.20700 50.88000 22.59000
C  26.01800 51.14800 24.09100
C  28.42700 51.67000 21.66400
C  25.18500 49.80400 22.07700
C  25.41200 48.34500 22.36600
N  25.50100 51.62900 26.98500
C  24.62500 52.09100 25.98100
C  23.59700 52.89300 26.55500
C  23.76600 52.70100 27.93300
C  24.87700 51.96100 28.12100
C  22.59100 53.71600 25.82100
C  23.11300 52.94900 29.19900
O  22.17000 53.59700 29.53200
C  24.00500 52.29800 30.24700
C  24.52900 53.40800 31.08500
O  25.58800 54.02400 30.90500
O  23.73700 53.46000 32.23800
C  24.03000 54.40000 33.28600
H  30.19000 49.27300 29.97400
H  29.91900 49.44800 23.50300
H  24.07700 52.04600 23.92000
H  26.50500 51.61200 31.80900
H  28.28000 49.17200 31.52800
H  28.54900 52.15100 32.29700
H  29.84800 51.54800 31.25600
H  29.59900 50.75400 32.72900
H  26.26300 48.70400 32.28400
H  24.95800 49.36700 31.45600
H  24.30700 49.40400 33.85200
H  24.70600 51.09100 33.28300
H  32.13500 47.08900 28.23900
H  31.82200 48.15400 29.37800
H  33.04900 48.70900 28.26300
H  33.61800 47.12100 24.38000
H  32.81800 46.49500 25.76000
H  33.93800 48.03700 25.89400
H  27.90200 49.61300 22.02900
H  25.87300 51.76200 22.04300
H  28.89800 51.22100 20.78900
H  29.26700 52.00900 22.27000
H  27.84600 52.57900 21.51300
H  25.17400 49.90500 20.99200
H  24.16900 50.06100 22.37500
H  25.76800 47.78600 21.50000
H  24.45400 47.91200 22.65500
H  26.08700 48.17300 23.20500
H  22.38800 53.17400 24.89700
H  23.00900 54.69700 25.59400
H  21.68800 53.89600 26.40400
H  23.46500 51.51300 30.77600
H  23.09900 54.91500 33.52500
H  24.76000 55.13800 32.95300
H  24.47600 53.87600 34.13200

