158

Mg 54.20100 24.02700 45.35600
C  51.84100 26.33100 44.30500
C  52.33700 21.41700 44.33900
C  56.86800 22.15100 45.77500
C  56.24000 26.92300 46.23800
N  52.36200 23.86900 44.25500
C  51.49900 24.99200 43.96800
C  50.15600 24.40200 43.42700
C  50.20600 22.90000 43.88100
C  51.73400 22.73400 44.19300
C  49.37900 22.62900 45.12500
C  50.12800 24.53400 41.87800
C  48.78100 24.68700 41.24100
H  48.40400 23.73400 40.09800
N  54.59600 22.08300 44.90400
C  53.66700 21.11900 44.58100
C  54.31700 19.86600 44.63800
C  55.69400 20.06700 45.02300
C  55.81200 21.48800 45.25200
C  53.61300 18.54500 44.43200
C  56.62700 18.94800 45.37800
O  56.31600 17.77800 45.15600
C  57.97200 19.11700 46.05900
N  56.32000 24.45900 45.78600
C  57.21200 23.47000 46.01600
C  58.48400 23.95200 46.63900
C  58.34900 25.52600 46.62300
C  56.89400 25.69600 46.10400
C  58.68200 23.39700 48.10300
C  59.30600 26.28900 45.71000
C  60.63700 26.70500 46.35300
N  53.98300 26.19100 45.48200
C  54.88000 27.20400 45.89500
C  54.20800 28.47500 45.93600
C  52.93700 28.14800 45.29200
C  52.99000 26.79500 44.92400
C  54.59800 29.74400 46.57300
C  51.62700 28.68700 44.82000
O  51.08900 29.81300 44.80700
C  50.90900 27.46000 44.17700
C  50.62700 27.73600 42.78500
O  51.34000 28.18100 41.90500
O  49.28200 27.87400 42.67800
C  48.77800 28.59800 41.46900
H  51.64000 20.57800 44.30000
H  57.74800 21.53900 45.98300
H  56.70100 27.81500 46.66700
H  49.34000 24.99200 43.84400
H  49.84500 22.24700 43.08700
H  48.90200 23.48100 45.60800
H  50.08400 22.20100 45.83800
H  48.57000 21.91500 44.97600
H  50.50300 23.60000 41.45900
H  50.79900 25.30200 41.49400
H  48.65000 25.73400 40.97100
H  48.12100 24.34400 42.03700
H  54.20800 18.06700 43.65400
H  52.54400 18.46000 44.23700
H  53.78000 17.97400 45.34500
H  58.50300 18.19300 46.28700
H  57.82000 19.66100 46.99200
H  58.74100 19.61300 45.46600
H  59.32500 23.66700 46.00800
H  58.61000 25.91100 47.60900
H  59.66100 23.59700 48.53900
H  58.71500 22.30800 48.13200
H  57.86500 23.65200 48.77700
H  58.64200 27.13100 45.51300
H  59.39500 25.69700 44.79900
H  61.44100 26.67600 45.61800
H  60.91100 26.33500 47.34100
H  60.48900 27.75600 46.60100
H  55.64200 30.04500 46.48500
H  54.40800 29.50400 47.61900
H  53.87600 30.52600 46.34000
H  50.10100 27.15800 44.84400
H  47.81300 28.17900 41.18400
H  49.41500 28.62100 40.58500
H  48.64300 29.64600 41.73500
Mg 48.73600 35.63300 27.21300
C  46.48600 34.28100 29.54700
C  49.15800 38.22400 29.30900
C  50.43000 37.13100 24.77100
C  48.01900 33.10200 24.98900
N  47.95700 36.06800 29.23000
C  47.13400 35.42000 30.07800
C  47.25500 35.89600 31.51500
C  47.85600 37.28500 31.27000
C  48.42200 37.18700 29.83600
C  46.82600 38.42600 31.57300
C  48.24100 34.98000 32.33000
C  47.91500 35.06400 33.80100
H  48.90700 35.77900 34.74200
N  49.74100 37.43100 27.06800
C  49.78200 38.36800 28.05800
C  50.63100 39.39100 27.64100
C  51.03500 39.08600 26.26000
C  50.41000 37.84400 25.93400
C  50.98700 40.65300 28.49700
C  51.93700 39.83000 25.31500
O  52.15500 39.49400 24.18900
C  52.46600 41.14400 25.69700
N  49.07600 35.17300 25.18800
C  49.87100 35.90700 24.40300
C  49.99900 35.34000 22.96200
C  49.35500 33.99700 23.06000
C  48.84300 34.05700 24.50500
C  49.39800 36.25100 21.87000
C  50.29000 32.84900 22.82200
C  49.88800 31.83300 21.68100
N  47.60800 33.95100 27.19600
C  47.41100 33.06000 26.25000
C  46.28200 32.22500 26.63700
C  45.84300 32.68700 27.83100
C  46.73300 33.75900 28.19500
C  45.89100 31.03500 25.72600
C  44.90800 32.47300 28.91300
O  43.96200 31.70600 29.03000
C  45.34500 33.44800 30.02700
C  45.58400 32.74600 31.34300
O  46.36500 31.87600 31.48700
O  44.67100 33.28100 32.22000
C  44.53000 32.68800 33.53200
H  49.31400 38.96800 30.09200
H  50.86500 37.51400 23.84600
H  47.62200 32.42800 24.22600
H  46.23400 35.84300 31.89300
H  48.61900 37.49900 32.01900
H  46.56300 38.92500 30.64000
H  47.39000 39.12300 32.19200
H  45.94700 38.06300 32.10600
H  49.24000 35.39400 32.19500
H  48.15500 33.95300 31.97400
H  47.88000 34.03800 34.16800
H  46.90800 35.47900 33.84400
H  52.03500 40.61100 28.79300
H  50.30500 40.82000 29.33100
H  50.79400 41.52700 27.87400
H  53.02100 40.94900 26.61500
H  51.65300 41.83400 25.92100
H  53.03800 41.58300 24.87900
H  51.04400 35.32800 22.65200
H  48.54400 33.83600 22.34900
H  48.86300 37.05300 22.38000
H  48.76100 35.76400 21.13200
H  50.19200 36.78100 21.34400
H  50.60200 32.27100 23.69200
H  51.21900 33.25100 22.41800
H  50.73100 31.96000 21.00200
H  48.96400 32.05400 21.14700
H  49.78400 30.80800 22.03800
H  45.12100 31.29600 25.00100
H  45.51700 30.18400 26.29500
H  46.74800 30.60800 25.20400
H  44.48300 34.11500 30.03500
H  45.01300 33.32000 34.27700
H  44.76700 31.63500 33.68500
H  43.49400 32.65400 33.87000

