158

Mg -1.65300 18.22800 27.67300
C  -2.37700 16.12600 30.43500
C  -2.59400 20.82000 29.63400
C  -1.42200 20.14300 24.93700
C  -1.62800 15.31400 25.70800
N  -2.42800 18.39900 29.79500
C  -2.38600 17.45000 30.79000
C  -2.54800 17.97200 32.20800
C  -2.90900 19.48600 31.85400
C  -2.64700 19.59800 30.36700
C  -4.44100 19.89100 32.20000
C  -1.32900 17.78700 33.12400
C  -1.81200 17.29600 34.48700
H  -0.82200 17.28400 35.66400
N  -1.82700 20.21900 27.38400
C  -2.23200 21.08600 28.28800
C  -2.14700 22.48200 27.72400
C  -1.85100 22.31800 26.32600
C  -1.75000 20.85700 26.12000
C  -2.39200 23.76800 28.51600
C  -1.58500 23.36500 25.32100
O  -1.37900 23.16600 24.10700
C  -1.21900 24.66800 25.82600
N  -1.49000 17.83800 25.56300
C  -1.31900 18.80100 24.67100
C  -1.34700 18.20400 23.23000
C  -1.09200 16.68200 23.51900
C  -1.47500 16.57300 25.08000
C  -2.60500 18.46500 22.38500
C  0.31000 16.05100 23.19400
C  1.45600 16.59200 24.00500
N  -1.76600 16.10900 28.01700
C  -1.75000 15.08400 27.11700
C  -1.80400 13.88500 27.78000
C  -2.07900 14.21500 29.11000
C  -2.05400 15.61500 29.19300
C  -1.90600 12.58000 27.20300
C  -2.36500 13.58400 30.35100
O  -2.52300 12.42900 30.67000
C  -2.48800 14.86000 31.34600
C  -1.45800 14.51100 32.37200
O  -0.28300 14.83100 32.31200
O  -2.09000 13.71500 33.28800
C  -1.36700 13.12200 34.38200
H  -2.75400 21.71300 30.24100
H  -1.37200 20.73700 24.02200
H  -1.77800 14.46200 25.04200
H  -3.41200 17.46400 32.63700
H  -2.18300 20.15200 32.32000
H  -4.99100 19.15200 32.78200
H  -5.04000 19.98000 31.29400
H  -4.43400 20.81800 32.77400
H  -0.93500 18.77800 33.34600
H  -0.60400 17.07800 32.72300
H  -2.19400 16.28100 34.38000
H  -2.57500 18.02200 34.76700
H  -1.41300 24.10900 28.85200
H  -3.03700 23.63800 29.38500
H  -2.88600 24.46700 27.84100
H  -0.62500 24.43500 26.71000
H  -2.18300 25.11100 26.07500
H  -0.69800 25.27800 25.08700
H  -0.42100 18.51900 22.75000
H  -1.86200 16.07300 23.04600
H  -3.29700 17.64500 22.57400
H  -2.29700 18.55600 21.34300
H  -3.03600 19.42700 22.66100
H  0.52100 16.13900 22.12800
H  0.30500 14.97600 23.37800
H  1.12600 17.45700 24.58000
H  2.21100 16.85400 23.26400
H  1.86300 15.80800 24.64400
H  -0.94200 12.20700 26.85800
H  -2.45900 12.64100 26.26500
H  -2.44000 11.97800 27.93800
H  -3.47700 14.87500 31.80500
H  -0.35300 12.94300 34.02400
H  -1.74500 12.15000 34.69700
H  -1.46700 13.80400 35.22600
Mg 26.31200 49.85600 27.09200
C  24.22800 51.39400 29.42000
C  28.43000 49.15800 29.65000
C  28.46500 48.74500 24.76100
C  24.16500 51.05600 24.49400
N  26.28300 50.19900 29.25200
C  25.30000 50.71300 30.00600
C  25.57800 50.53500 31.49200
C  27.08600 50.24000 31.49700
C  27.21700 49.76900 30.08800
C  28.04500 51.39000 31.97100
C  24.64400 49.44800 32.21700
C  23.92400 49.89800 33.50000
H  24.64900 50.48300 34.68400
N  28.15000 49.03500 27.20800
C  28.85900 48.75500 28.36000
C  30.13000 48.17000 28.04300
C  30.19200 48.08400 26.61400
C  28.86300 48.59600 26.10000
C  31.02100 47.68700 29.20800
C  31.33300 47.63900 25.70200
O  31.10300 47.50600 24.49500
C  32.73700 47.39200 26.16800
N  26.45200 50.10900 24.84800
C  27.36300 49.47200 24.17600
C  27.06100 49.54800 22.64300
C  25.55200 49.91400 22.65900
C  25.30700 50.34100 24.06800
C  28.00600 50.54600 21.92500
C  24.61100 48.74200 22.19100
C  24.77400 47.33100 22.97400
N  24.55400 51.08400 26.92300
C  23.78200 51.48800 25.81500
C  22.64100 52.31900 26.26900
C  22.74400 52.20200 27.66100
C  23.91200 51.47400 28.01300
C  21.48700 52.90500 25.41500
C  22.13900 52.67000 28.94600
O  21.21100 53.44200 29.20900
C  23.02400 52.07800 30.12100
C  23.38300 53.26900 31.08800
O  23.94100 54.25500 30.78800
O  22.80900 52.98300 32.35900
C  23.01200 54.13800 33.27500
H  29.14800 48.90700 30.43400
H  29.05700 48.17700 24.04000
H  23.53300 51.35900 23.65700
H  25.38600 51.51400 31.93200
H  27.26100 49.37200 32.13200
H  28.92500 50.99400 32.47800
H  27.46700 52.01600 32.65100
H  28.42700 51.93900 31.11100
H  25.31600 48.65000 32.53000
H  23.99200 49.07000 31.42900
H  23.46200 48.97500 33.84900
H  23.10400 50.56700 33.23700
H  30.50000 47.22400 30.04700
H  31.35000 48.61600 29.67500
H  31.78500 47.05700 28.75300
H  33.45800 47.57600 25.37200
H  32.84700 46.31300 26.28100
H  32.93200 47.92000 27.10200
H  27.16000 48.56300 22.18600
H  25.49000 50.68000 21.88500
H  27.43700 51.41300 21.58700
H  28.55100 50.03700 21.13000
H  28.77300 50.94400 22.58900
H  24.85800 48.64800 21.13400
H  23.56600 48.99400 22.37400
H  25.00100 46.52800 22.27300
H  23.84300 47.21500 23.52800
H  25.57600 47.43900 23.70400
H  21.07900 52.14900 24.74400
H  21.95400 53.66500 24.78900
H  20.66200 53.39200 25.93500
H  22.35500 51.41900 30.67600
H  22.96000 55.08600 32.74000
H  24.05800 54.23100 33.56900
H  22.34800 54.01500 34.13100

