158

Mg 41.16200 41.71800 26.64000
C  40.30500 43.69600 29.34000
C  42.41200 39.40500 29.03700
C  42.80300 39.95900 24.26400
C  40.87700 44.33900 24.53900
N  41.17600 41.52300 29.02200
C  40.78300 42.45800 29.85000
C  40.97100 42.02200 31.32200
C  41.69100 40.64000 31.15600
C  41.83600 40.52000 29.66500
C  42.98600 40.58000 31.92400
C  39.65500 41.95500 32.12600
C  39.59700 41.26900 33.47800
H  39.81500 42.28200 34.73500
N  42.30600 39.84500 26.68100
C  42.57000 38.98200 27.74300
C  43.15800 37.74100 27.27100
C  43.23400 37.94500 25.85500
C  42.82200 39.33500 25.56900
C  43.60400 36.62800 28.19300
C  43.69200 36.97400 24.72900
O  43.75600 37.25400 23.50700
C  44.07400 35.54200 25.14200
N  41.96600 42.17300 24.68900
C  42.46400 41.20600 23.86400
C  42.32700 41.68400 22.41000
C  41.60800 43.07800 22.50000
C  41.35700 43.13400 24.00500
C  43.65900 41.69700 21.57100
C  40.31100 43.29800 21.54500
C  38.92900 43.14300 22.18800
N  40.53600 43.59900 26.76600
C  40.45700 44.60800 25.88400
C  39.97400 45.84700 26.52100
C  39.88900 45.52400 27.86100
C  40.22000 44.11400 27.99600
C  39.85100 47.15900 25.80100
C  39.53100 46.02800 29.11800
O  39.14200 47.10300 29.41200
C  39.76000 44.89400 30.15900
C  40.70700 45.41300 31.19600
O  41.96200 45.43900 30.98300
O  40.11900 45.94500 32.33000
C  41.06700 46.46100 33.39500
H  42.83000 38.65300 29.71000
H  43.07000 39.42600 23.34900
H  40.80000 45.09600 23.75600
H  41.73400 42.69900 31.70400
H  41.12300 39.72800 31.34000
H  43.78900 40.90700 31.26400
H  43.22500 39.52300 32.04500
H  42.99200 41.01400 32.92400
H  38.90700 41.52500 31.46000
H  39.38200 42.95200 32.47100
H  40.28800 40.44000 33.63000
H  38.63700 40.75900 33.55700
H  42.93800 35.80200 27.94400
H  43.50800 36.83000 29.26000
H  44.59900 36.24700 27.96500
H  44.78100 35.48000 25.96900
H  44.55100 35.03200 24.30600
H  43.07500 35.11700 25.24700
H  41.63100 41.01600 21.90200
H  42.24900 43.94400 22.33400
H  43.68700 42.36700 20.71200
H  43.82400 40.71100 21.13400
H  44.56300 41.96600 22.11800
H  40.39300 42.57700 20.73200
H  40.35500 44.32100 21.17100
H  38.30800 42.48900 21.57500
H  38.47700 44.13500 22.17300
H  38.95500 42.81300 23.22600
H  40.14300 47.83600 26.60400
H  38.81800 47.40600 25.55600
H  40.52300 47.26000 24.94900
H  38.77900 44.82500 30.62800
H  42.08900 46.45200 33.01500
H  41.16200 45.79100 34.25000
H  40.82100 47.49800 33.62200
Mg -5.85600 25.06100 27.04100
C  -4.04600 26.71800 29.54600
C  -6.65700 22.61600 29.40700
C  -7.36900 23.49400 24.63600
C  -4.36300 27.30500 24.62200
N  -5.26600 24.67200 29.22300
C  -4.60700 25.55100 30.07400
C  -4.65100 25.05500 31.52400
C  -5.33400 23.62500 31.41200
C  -5.74700 23.58100 29.89600
C  -4.34100 22.39900 31.82400
C  -5.41900 26.07000 32.48000
C  -5.03100 26.02900 33.94100
H  -6.25100 26.28800 34.85400
N  -6.83500 23.29400 27.04800
C  -7.13100 22.46000 28.05500
C  -8.15900 21.52000 27.60500
C  -8.31700 21.71900 26.20200
C  -7.47500 22.87800 25.91400
C  -8.68700 20.52600 28.55700
C  -9.00600 20.78600 25.17600
O  -8.92500 20.93100 23.94700
C  -9.65900 19.51400 25.60700
N  -5.71300 25.27800 24.79700
C  -6.61900 24.59900 24.13500
C  -6.57000 24.92900 22.56100
C  -5.72900 26.28000 22.57300
C  -5.22700 26.30700 24.04100
C  -6.03900 23.76900 21.73600
C  -6.62400 27.41000 22.16700
C  -5.89400 28.49200 21.26800
N  -4.57700 26.67400 27.00500
C  -4.10800 27.48700 25.96700
C  -3.25300 28.53800 26.48700
C  -3.29700 28.37900 27.92300
C  -4.02200 27.12500 28.17200
C  -2.45100 29.57600 25.65800
C  -2.76900 28.82900 29.20500
O  -2.05400 29.73900 29.53300
C  -3.38500 27.85300 30.31700
C  -2.31900 27.38900 31.21400
O  -1.47100 26.53100 30.89300
O  -2.39600 28.08300 32.41800
C  -1.28000 27.76700 33.31200
H  -7.05500 21.98200 30.20300
H  -7.99400 23.00800 23.88400
H  -3.93900 28.01500 23.90900
H  -3.63900 24.98300 31.92100
H  -6.19800 23.55200 32.07400
H  -4.37100 22.19300 32.89400
H  -3.30600 22.60500 31.55400
H  -4.62100 21.43200 31.40500
H  -6.49700 26.02300 32.32700
H  -5.24000 27.07900 32.10800
H  -4.36700 26.87200 34.12600
H  -4.47000 25.13300 34.20700
H  -9.65200 20.14200 28.22600
H  -8.57400 20.84600 29.59300
H  -7.95700 19.71800 28.52100
H  -8.94400 19.05500 26.29000
H  -9.76500 18.92700 24.69500
H  -10.68000 19.69100 25.94700
H  -7.63600 25.06900 22.38500
H  -4.85500 26.03800 21.96900
H  -5.03900 23.51600 22.08900
H  -5.89300 23.97700 20.67600
H  -6.66400 22.92600 22.03200
H  -6.83800 27.96100 23.08300
H  -7.51400 27.08700 21.62700
H  -5.71100 29.43200 21.78700
H  -6.51600 28.63500 20.38400
H  -4.91000 28.14200 20.95500
H  -1.99000 30.29200 26.33800
H  -3.12300 30.13000 25.00200
H  -1.70000 29.06700 25.05300
H  -4.02500 28.42100 30.99200
H  -1.56200 28.32000 34.20800
H  -0.31900 28.14100 32.95800
H  -1.31600 26.69000 33.47300

