158

Mg 50.01900 47.34300 43.37500
C  46.50600 47.69600 42.95500
C  49.91200 44.52500 41.67400
C  53.35100 47.29200 43.37300
C  50.06200 50.56200 44.84300
N  48.35400 46.41200 42.22800
C  47.03000 46.60000 42.28700
C  46.19700 45.50000 41.64500
C  47.24700 44.33100 41.50000
C  48.59700 45.12600 41.77500
C  47.04600 43.16800 42.56500
C  45.62600 45.92500 40.27000
C  44.24300 45.29000 39.96400
H  43.85800 45.07600 38.55300
N  51.50200 46.05400 42.56900
C  51.21600 44.89100 41.99900
C  52.40600 44.15500 41.77300
C  53.53100 44.97600 42.11800
C  52.84000 46.17400 42.76400
C  52.51300 42.86200 41.15600
C  54.96200 44.60900 42.09500
O  55.26700 43.56000 41.63000
C  56.12100 45.37200 42.50200
N  51.52600 48.73600 43.95700
C  52.83900 48.39300 43.98200
C  53.72200 49.42100 44.68200
C  52.66900 50.44400 45.13700
C  51.32400 49.89800 44.54900
C  54.71700 48.90600 45.74200
C  53.07300 51.89900 44.77300
C  54.03000 52.56500 45.80800
N  48.57700 48.87400 43.90800
C  48.78000 50.11400 44.44700
C  47.44700 50.70000 44.58300
C  46.53500 49.77300 44.09300
C  47.28400 48.70600 43.62700
C  47.07600 51.92600 45.29100
C  45.10600 49.43700 43.92400
O  44.04800 50.00900 44.23500
C  45.03300 48.08000 43.12900
C  44.40100 46.99600 43.99800
O  44.74600 46.60700 45.05300
O  43.25600 46.48000 43.36500
C  42.42100 45.55300 44.00200
H  49.86300 43.45800 41.44700
H  54.43400 47.15600 43.40600
H  50.19800 51.49200 45.39800
H  45.34500 45.34100 42.30600
H  47.32500 43.99600 40.46600
H  47.23800 42.21600 42.07000
H  45.97700 43.06700 42.75200
H  47.55300 43.38000 43.50600
H  46.31400 45.65300 39.47000
H  45.52800 47.00900 40.21300
H  43.50100 46.04500 40.22400
H  44.18400 44.35800 40.52700
H  53.06100 42.94100 40.21700
H  51.57700 42.46900 40.75900
H  52.91700 42.00800 41.69900
H  56.16900 46.34300 42.00900
H  56.99000 44.79700 42.18400
H  56.06300 45.70200 43.53900
H  54.25200 49.89700 43.85800
H  52.57800 50.36700 46.22100
H  55.73100 48.89800 45.34100
H  54.33300 47.93900 46.06700
H  54.70300 49.45900 46.68200
H  52.10800 52.40200 44.84600
H  53.55600 52.01900 43.80400
H  53.70600 53.56900 46.07900
H  54.96800 52.65600 45.26200
H  54.34300 51.89300 46.60700
H  46.78900 51.73100 46.32500
H  46.18900 52.26700 44.75700
H  47.92000 52.61500 45.26800
H  44.62300 48.23200 42.13100
H  42.43600 45.54500 45.09200
H  42.63000 44.53800 43.66300
H  41.39500 45.73600 43.68200
Mg 9.67600 47.47400 26.58200
C  7.60500 47.78200 29.42500
C  12.23500 48.83800 28.38800
C  11.58700 47.52300 23.76100
C  6.73500 47.22600 24.58800
N  9.90000 48.26100 28.63300
C  8.96900 48.17200 29.68700
C  9.59800 48.51900 31.00500
C  10.88800 49.29800 30.53700
C  10.99100 48.81400 29.10900
C  10.77400 50.84200 30.65400
C  10.06200 47.33500 31.92000
C  10.17200 47.55100 33.46900
H  9.74600 46.36600 34.44300
N  11.65800 47.73900 26.26800
C  12.53400 48.30300 27.12700
C  13.82800 48.27400 26.54100
C  13.65200 47.79000 25.22700
C  12.25700 47.66800 25.03000
C  15.12700 48.65900 27.22100
C  14.65000 47.36500 24.16900
O  14.38000 47.04100 23.03700
C  16.07600 47.19700 24.47400
N  9.15400 47.43000 24.41700
C  10.16500 47.32100 23.53600
C  9.61900 46.95800 22.22200
C  8.09600 46.59100 22.49700
C  7.91600 47.12200 23.92400
C  9.86700 48.04100 21.10400
C  7.75700 45.10100 22.48200
C  8.79100 44.15100 23.14300
N  7.54400 47.53300 26.81700
C  6.49900 47.38200 25.90400
C  5.25400 47.24300 26.69000
C  5.71800 47.29500 28.06000
C  7.07800 47.55300 28.11200
C  3.88000 47.04400 26.23700
C  5.28700 47.11700 29.40000
O  4.19800 46.79000 29.79500
C  6.50300 47.48500 30.38600
C  6.74100 46.30400 31.20600
O  7.08400 45.21200 30.73100
O  6.41900 46.52700 32.44400
C  6.46600 45.35900 33.32300
H  13.00900 49.40500 28.90900
H  12.16500 47.44700 22.83800
H  5.79000 47.10900 24.05300
H  8.82100 49.06000 31.54500
H  11.74800 48.97900 31.12600
H  9.83000 51.21800 31.04700
H  10.90600 51.22800 29.64300
H  11.47000 51.26300 31.37900
H  11.03900 47.06300 31.52000
H  9.49500 46.44700 31.64000
H  9.50800 48.37900 33.71700
H  11.17200 47.82500 33.80600
H  14.81100 49.01100 28.20300
H  15.58400 49.51000 26.71700
H  15.83000 47.83800 27.36100
H  16.26500 46.36000 25.14600
H  16.49200 48.17000 24.73500
H  16.49900 46.80800 23.54700
H  10.15300 46.08900 21.83600
H  7.39100 47.10300 21.84200
H  10.68500 47.64500 20.50100
H  10.24600 48.96900 21.53000
H  8.96600 48.14200 20.49900
H  7.55700 44.72900 21.47800
H  6.94100 44.84300 23.15600
H  8.21600 43.63800 23.91400
H  9.67300 44.54700 23.64700
H  9.10700 43.38800 22.43100
H  3.34800 46.56500 27.06000
H  3.88400 46.29600 25.44500
H  3.32000 47.97400 26.13700
H  6.22800 48.28300 31.07600
H  7.06900 44.55700 32.89800
H  5.44000 45.09300 33.57800
H  6.93300 45.62900 34.27100

