158

Mg 1.35800 42.50400 26.30800
C  3.45500 42.47100 29.04000
C  -1.34100 41.66700 28.42800
C  -0.60600 41.99800 23.52200
C  4.17000 42.91400 24.14600
N  1.07000 42.09600 28.44900
C  2.11300 42.23500 29.38500
C  1.51900 42.36600 30.78700
C  0.15100 41.71900 30.59200
C  -0.06400 41.89900 29.09700
C  -0.01000 40.27900 31.11000
C  1.64200 43.83200 31.31800
C  2.04100 43.99600 32.81900
H  1.78200 42.82100 33.87100
N  -0.70800 42.00400 26.01300
C  -1.58600 41.80400 27.05500
C  -2.90800 41.58500 26.39400
C  -2.73700 41.58500 24.97200
C  -1.28200 41.91300 24.76500
C  -4.01800 41.12300 27.21900
C  -3.63100 41.12600 23.84500
O  -3.31500 41.20300 22.67000
C  -4.89800 40.26600 24.12300
N  1.74200 42.44500 24.14900
C  0.77700 42.32000 23.22700
C  1.34400 42.09600 21.78900
C  2.75800 42.67000 21.93100
C  2.93800 42.70100 23.47600
C  1.25200 40.70600 21.09000
C  2.87600 44.05900 21.18200
C  4.28500 44.34500 20.68600
N  3.31400 42.74300 26.47400
C  4.30300 42.95400 25.57800
C  5.63000 42.97100 26.27600
C  5.33200 42.87200 27.64800
C  3.91000 42.66900 27.72700
C  7.03200 42.98600 25.63000
C  5.83400 42.92100 29.00900
O  6.98500 43.04700 29.45100
C  4.57400 42.72700 29.93900
C  4.86400 41.53200 30.70800
O  5.11600 40.34600 30.30500
O  4.73000 41.89700 32.06900
C  5.18600 40.83400 33.03400
H  -2.18300 41.37300 29.05700
H  -1.21700 41.80800 22.63700
H  5.00600 43.24100 23.52500
H  2.17100 41.67400 31.32000
H  -0.59100 42.39200 31.02200
H  -0.83500 40.34300 31.82000
H  0.92600 40.10000 31.63800
H  -0.17400 39.58600 30.28500
H  0.67900 44.31600 31.15500
H  2.36400 44.39900 30.73100
H  1.64300 44.94900 33.16900
H  3.12400 44.10700 32.86500
H  -3.93000 40.05500 27.41700
H  -4.98100 41.19400 26.71300
H  -4.16300 41.61200 28.18300
H  -4.81300 39.67100 25.03300
H  -5.07500 39.65000 23.24100
H  -5.75000 40.91300 24.33200
H  0.76200 42.82500 21.22500
H  3.47900 41.99600 21.46900
H  0.72100 40.04200 21.77100
H  2.16100 40.15300 20.85100
H  0.61000 40.86400 20.22400
H  2.58000 44.78900 21.93600
H  2.27700 44.10500 20.27200
H  4.36900 44.43800 19.60300
H  4.97200 43.54600 20.96300
H  4.62200 45.30800 21.07000
H  7.22600 42.15300 24.95300
H  7.75400 42.80400 26.42600
H  7.22800 43.94600 25.15300
H  4.49000 43.67900 30.46300
H  4.44900 40.09200 33.34100
H  5.45200 41.32100 33.97200
H  6.12800 40.38000 32.72600
Mg -2.50900 34.33900 26.64500
C  -3.96200 32.60100 29.24100
C  -0.85400 36.28000 29.02200
C  -1.06100 35.98700 24.21300
C  -4.37100 32.47700 24.36500
N  -2.55500 34.41400 28.95400
C  -3.22300 33.62700 29.78500
C  -2.86700 33.84000 31.21900
C  -2.02600 35.24800 31.15100
C  -1.74100 35.35900 29.62200
C  -2.60400 36.51700 31.76800
C  -2.06500 32.68900 31.87000
C  -2.65000 32.15900 33.18900
H  -1.76600 32.32300 34.45400
N  -1.12600 35.91300 26.65900
C  -0.54200 36.51100 27.70900
C  0.40500 37.53000 27.21100
C  0.34000 37.48900 25.81400
C  -0.69500 36.46600 25.48300
C  1.24700 38.39700 28.12700
C  1.03700 38.37300 24.79600
O  0.80700 38.36400 23.59500
C  2.18200 39.25200 25.17500
N  -2.77900 34.29600 24.54700
C  -2.00800 35.05100 23.76400
C  -2.32100 34.82900 22.33600
C  -3.44800 33.74700 22.31200
C  -3.45800 33.40700 23.82200
C  -2.58700 36.05700 21.49200
C  -3.24900 32.52000 21.37000
C  -4.33500 32.03200 20.45000
N  -3.96400 32.93500 26.69400
C  -4.65900 32.28200 25.68600
C  -5.45900 31.23400 26.29800
C  -5.15200 31.27900 27.65700
C  -4.23500 32.35000 27.86600
C  -6.36100 30.17700 25.61100
C  -5.47000 30.62300 28.86400
O  -6.23600 29.71200 29.05800
C  -4.70000 31.40700 29.98200
C  -5.75500 31.87700 30.88800
O  -6.50200 32.80700 30.64100
O  -5.77800 31.14100 32.02200
C  -6.64700 31.58800 33.15700
H  -0.35500 36.81000 29.83600
H  -0.59900 36.58900 23.42800
H  -4.87700 31.84400 23.63300
H  -3.79000 34.01900 31.77000
H  -1.06800 35.07700 31.64100
H  -3.68100 36.68600 31.77100
H  -2.14500 37.38200 31.28900
H  -2.22600 36.70900 32.77200
H  -1.04500 32.93300 32.16700
H  -2.07900 31.84600 31.17900
H  -2.68200 31.07100 33.12000
H  -3.65200 32.54800 33.37100
H  1.28900 37.90400 29.09800
H  0.77700 39.37100 28.26000
H  2.25300 38.52100 27.72800
H  2.45000 39.89200 24.33500
H  2.97700 38.56500 25.46700
H  1.92300 39.94900 25.97200
H  -1.48400 34.33600 21.84000
H  -4.41700 34.20800 22.11900
H  -2.36200 36.95500 22.06700
H  -3.56900 36.02600 21.02000
H  -1.94100 35.80400 20.65100
H  -3.04400 31.62500 21.95700
H  -2.37900 32.69000 20.73600
H  -4.10400 32.33000 19.42700
H  -5.30200 32.35000 20.84000
H  -4.33000 30.94300 20.41300
H  -5.87600 29.23900 25.34000
H  -6.78000 30.56200 24.68100
H  -7.13000 29.89600 26.32900
H  -4.13900 30.66500 30.55100
H  -7.39900 32.23400 32.70500
H  -6.11800 32.19500 33.89200
H  -7.04500 30.67300 33.59700

