158

Mg 17.09700 -1.32700 28.05700
C  16.06300 0.64200 30.88200
C  19.03200 -3.09000 29.98300
C  18.46400 -2.66500 25.17700
C  15.35300 0.89400 26.07800
N  17.56800 -1.02500 30.11700
C  17.06100 -0.31000 31.15500
C  17.49300 -0.79800 32.57600
C  18.63700 -1.77900 32.14900
C  18.36500 -1.99000 30.65500
C  20.06100 -1.34600 32.52700
C  16.35200 -1.38400 33.45600
C  16.64100 -1.46500 35.01200
H  17.89400 -0.84500 35.63700
N  18.42500 -2.80800 27.63600
C  19.05300 -3.46000 28.62000
C  19.80500 -4.53400 28.03600
C  19.73200 -4.43200 26.64300
C  18.85200 -3.24600 26.42600
C  20.43500 -5.59800 28.96300
C  20.36300 -5.19100 25.55900
O  20.13800 -4.95700 24.35500
C  21.25300 -6.37800 25.89800
N  16.90300 -0.93600 25.91200
C  17.47200 -1.68900 24.94700
C  17.16900 -1.11900 23.52400
C  16.15600 0.02700 23.79400
C  16.05600 -0.05000 25.35900
C  18.44200 -0.76100 22.75100
C  14.81700 0.02100 23.05700
C  14.87700 0.73700 21.64100
N  15.84800 0.40700 28.28100
C  15.18500 1.14200 27.43800
C  14.40400 2.13300 28.11000
C  14.77100 2.00500 29.48700
C  15.59500 0.91400 29.57300
C  13.72600 3.30200 27.40500
C  14.66300 2.60500 30.88900
O  14.15700 3.65100 31.31500
C  15.44000 1.58900 31.83800
C  16.31500 2.51100 32.63800
O  17.32200 3.02000 32.24100
O  15.72300 2.84900 33.76900
C  16.48400 3.83900 34.56800
H  19.73500 -3.62700 30.62300
H  18.81900 -3.03000 24.21100
H  14.83100 1.55100 25.37900
H  17.94400 0.06200 33.07200
H  18.55100 -2.73100 32.67300
H  20.69800 -1.49900 31.65500
H  20.40600 -2.00400 33.32400
H  20.09200 -0.33000 32.92100
H  16.07500 -2.35800 33.05300
H  15.49400 -0.71900 33.34900
H  16.51400 -2.52000 35.25600
H  15.84100 -0.85600 35.43200
H  21.43400 -5.25000 29.22200
H  20.38000 -6.60000 28.53500
H  19.81900 -5.69000 29.85700
H  22.06800 -5.97500 26.49900
H  21.72600 -6.84500 25.03400
H  20.77100 -7.10900 26.54700
H  16.67100 -1.93600 23.00100
H  16.61300 0.99100 23.57100
H  18.42800 0.31900 22.60000
H  18.58400 -1.28500 21.80700
H  19.25500 -0.93400 23.45700
H  13.98000 0.22300 23.72500
H  14.61700 -1.01500 22.78400
H  14.55800 -0.00100 20.90600
H  15.90200 0.95400 21.34200
H  14.26900 1.63500 21.52900
H  14.34300 3.39100 26.51200
H  13.86400 4.17400 28.04500
H  12.68300 3.16800 27.12000
H  14.66000 1.09000 32.41300
H  15.98100 4.04100 35.51300
H  16.49200 4.78700 34.02900
H  17.53300 3.57300 34.69700
Mg 35.55400 2.73800 29.94600
C  32.93500 3.45700 32.17300
C  37.73200 2.89800 32.56700
C  37.97200 2.27800 27.69900
C  33.24000 3.13200 27.33300
N  35.33600 3.03800 32.14400
C  34.15900 3.28000 32.79700
C  34.39700 3.39700 34.32500
C  36.05100 3.60200 34.36100
C  36.44300 3.06200 32.95500
C  36.52800 5.05700 34.57400
C  33.97300 2.16000 35.13500
C  33.42900 2.27800 36.58400
H  33.98500 3.55100 37.24600
N  37.58200 2.56500 30.13500
C  38.32000 2.64800 31.28900
C  39.76800 2.53800 30.90800
C  39.82800 2.24100 29.49500
C  38.43400 2.31400 29.00500
C  40.87600 2.78400 31.95000
C  41.05300 2.04300 28.67700
O  41.00500 1.88300 27.45200
C  42.43000 1.60500 29.18100
N  35.54200 2.74700 27.81600
C  36.71100 2.44300 27.14500
C  36.44200 2.36500 25.64200
C  34.90800 2.57200 25.46000
C  34.51800 2.81600 26.93300
C  37.34600 3.29000 24.83500
C  34.09100 1.41400 24.81000
C  33.94800 0.04300 25.48900
N  33.52400 3.26400 29.76600
C  32.76200 3.40100 28.60000
C  31.39100 3.75400 28.99100
C  31.42000 3.67800 30.38300
C  32.75200 3.43000 30.77800
C  30.17200 3.88800 28.17100
C  30.65900 3.86800 31.56100
O  29.48300 4.24700 31.66800
C  31.57600 3.69500 32.83300
C  31.48400 4.93900 33.68800
O  31.72900 6.03500 33.27700
O  31.07300 4.70400 34.91400
C  30.94100 5.82400 35.84800
H  38.40700 3.06200 33.40900
H  38.77100 2.26200 26.95600
H  32.46800 3.16800 26.56200
H  33.90000 4.31500 34.64000
H  36.49500 2.98100 35.13900
H  35.66300 5.71700 34.63300
H  37.07700 5.41300 33.70200
H  37.16100 5.19700 35.45000
H  34.83900 1.54100 35.37000
H  33.32700 1.59200 34.46600
H  33.72500 1.40600 37.16600
H  32.34000 2.27100 36.52900
H  41.83300 2.91900 31.44600
H  40.95800 1.96100 32.66000
H  40.51800 3.67400 32.46800
H  42.90800 1.11000 28.33600
H  42.31500 0.95500 30.04800
H  43.06900 2.45500 29.42300
H  36.74000 1.33700 25.44000
H  34.64800 3.55200 25.05800
H  36.78400 4.01200 24.24200
H  38.04300 2.75100 24.19400
H  37.86200 4.09100 25.36500
H  34.47900 1.31400 23.79600
H  33.04400 1.68300 24.67600
H  32.90300 -0.18400 25.70000
H  34.58400 -0.05800 26.36800
H  34.36200 -0.77000 24.89200
H  29.22200 3.95600 28.70200
H  30.18600 3.02300 27.50800
H  30.28900 4.74400 27.50600
H  31.22200 2.76300 33.27300
H  30.51000 6.72100 35.40300
H  31.90700 6.12300 36.25600
H  30.30300 5.56000 36.69100

