158

Mg 0.64200 7.18500 25.33000
C  1.29100 8.99900 28.25800
C  0.98800 4.30100 27.12500
C  0.37300 5.42900 22.38100
C  0.61000 10.17700 23.51700
N  1.15500 6.75500 27.43100
C  1.21500 7.60200 28.45500
C  1.13800 6.99900 29.75400
C  1.36800 5.47400 29.39400
C  1.12300 5.48600 27.86100
C  2.73800 4.92800 29.89900
C  -0.14700 7.24900 30.60100
C  0.01900 7.90200 31.98100
H  1.20100 7.39200 32.79100
N  0.82600 5.18800 24.85500
C  0.81500 4.12400 25.73200
C  0.82400 2.89100 25.06700
C  0.66100 3.15700 23.65900
C  0.57100 4.65600 23.55900
C  0.88400 1.57200 25.81700
C  0.42600 2.22400 22.49500
O  0.47400 2.59500 21.32800
C  0.33800 0.79000 22.75700
N  0.39400 7.71300 23.28300
C  0.26100 6.77200 22.25400
C  0.03500 7.50700 20.90600
C  -0.01500 9.03100 21.36000
C  0.31500 9.00800 22.83600
C  1.26200 7.31600 19.92500
C  -1.44800 9.62500 21.03900
C  -2.60200 9.11000 21.97100
N  0.72600 9.22600 25.75300
C  0.79700 10.32400 24.87800
C  1.17500 11.52800 25.66400
C  1.31300 11.00900 26.98500
C  1.11300 9.57900 27.00500
C  1.20100 12.94300 25.36200
C  1.52900 11.47800 28.36900
O  1.72100 12.59300 28.84100
C  1.53100 10.14900 29.19000
C  2.89200 9.96700 29.91500
O  3.79900 9.23400 29.57300
O  2.84700 10.75400 31.00300
C  3.82500 10.66000 32.15400
H  0.92600 3.39500 27.73200
H  0.45900 4.82600 21.47500
H  0.55300 11.08400 22.91100
H  1.94600 7.42300 30.35000
H  0.53600 4.96300 29.87800
H  3.05300 4.47100 28.96100
H  2.56400 4.11000 30.59900
H  3.48500 5.62400 30.28000
H  -0.82900 6.39900 30.60600
H  -0.73100 8.00200 30.07300
H  -0.86400 7.91200 32.62000
H  0.23100 8.95900 31.82500
H  0.47700 1.64200 26.82600
H  1.93300 1.27700 25.85200
H  0.32800 0.77700 25.31900
H  0.42000 0.29800 21.78800
H  -0.49200 0.29200 23.25900
H  1.20000 0.45800 23.33500
H  -0.89800 7.11300 20.50300
H  0.67500 9.73900 20.90000
H  2.05900 6.74300 20.39800
H  1.72100 8.24100 19.57700
H  0.93200 6.65200 19.12500
H  -1.55900 9.17800 20.05100
H  -1.37900 10.70900 20.94700
H  -3.36100 8.81700 21.24700
H  -2.97000 9.96600 22.53700
H  -2.30600 8.38800 22.73300
H  0.69600 13.16100 24.42000
H  2.23000 13.30000 25.34300
H  0.78600 13.50500 26.19800
H  0.70300 10.26200 29.88900
H  4.66800 11.35000 32.10100
H  4.21800 9.64500 32.10400
H  3.32300 10.59900 33.11900
Mg 42.71900 4.22200 47.32400
C  40.99100 7.18400 46.97100
C  39.71500 2.47400 47.06100
C  44.38600 1.15300 47.22900
C  45.74800 5.85500 46.86200
N  40.67000 4.74100 46.91600
C  40.17700 6.04900 46.82200
C  38.69100 6.03700 46.53100
C  38.22200 4.60300 46.92700
C  39.64900 3.86100 46.99900
C  37.44300 4.63400 48.36400
C  38.28900 6.41400 45.05300
C  39.36100 6.13400 43.92500
H  38.91100 6.35800 42.48500
N  42.12300 2.14300 47.18400
C  40.86600 1.67200 47.12200
C  40.82200 0.23800 47.17600
C  42.13600 -0.19300 47.16200
C  43.00900 1.06500 47.21400
C  39.46400 -0.61800 47.32000
C  42.55400 -1.62100 47.08600
O  41.75000 -2.48900 47.17000
C  43.95500 -2.03800 47.07100
N  44.81700 3.53700 47.10900
C  45.19200 2.25900 47.10700
C  46.72300 2.14900 47.03100
C  47.17900 3.64400 46.95800
C  45.82900 4.41100 46.97700
C  47.38300 1.23600 48.08700
C  48.06400 3.85200 45.71800
C  49.51900 4.14500 46.15700
N  43.31700 6.16800 47.07000
C  44.58600 6.70700 46.91400
C  44.41800 8.18500 46.90000
C  43.02500 8.37200 47.00900
C  42.42100 7.12100 47.01800
C  45.55200 9.18500 46.84100
C  41.94500 9.35500 46.96700
O  42.04400 10.58600 46.91200
C  40.60500 8.60200 46.99300
C  39.86800 8.82600 48.25900
O  39.78800 8.05800 49.21300
O  39.20900 10.01800 48.13900
C  38.58000 10.52100 49.36400
H  38.77200 1.92900 47.14000
H  44.93200 0.20800 47.26700
H  46.70200 6.38500 46.83700
H  38.12600 6.72300 47.16200
H  37.70600 4.00700 46.17500
H  37.02100 3.67600 48.66500
H  36.70200 5.42900 48.28400
H  38.18900 4.79600 49.14200
H  37.97300 7.45000 44.93200
H  37.40500 5.84400 44.76500
H  39.75500 5.11700 43.91300
H  40.20100 6.82700 43.95600
H  38.65400 -0.38900 46.62700
H  39.17000 -0.35100 48.33500
H  39.58900 -1.70000 47.31500
H  44.47800 -1.55100 46.24900
H  43.96300 -3.10400 46.84500
H  44.44100 -1.72100 47.99400
H  46.86900 1.76200 46.02300
H  47.68300 3.84100 47.90400
H  46.68800 0.84500 48.83000
H  48.29300 1.62900 48.54100
H  47.79700 0.40500 47.51600
H  47.68300 4.74600 45.22500
H  48.17700 3.03900 45.00100
H  49.59900 5.23200 46.13400
H  50.18900 3.65200 45.45300
H  49.73500 3.93300 47.20400
H  46.06800 9.22500 47.80100
H  45.04400 10.11800 46.59700
H  46.30000 9.03800 46.06200
H  39.99800 9.01400 46.18700
H  37.51800 10.32900 49.20900
H  38.82900 11.56500 49.55500
H  38.87700 9.93200 50.23100

