158

Mg 24.71900 -6.02700 47.19500
C  26.40900 -3.24100 45.92500
C  22.28400 -5.45100 44.94400
C  23.30900 -8.97900 48.20300
C  27.75500 -7.08400 48.70000
N  24.45100 -4.57500 45.47400
C  25.24500 -3.52200 45.14400
C  24.71600 -2.76900 43.96300
C  23.32900 -3.41400 43.74600
C  23.32300 -4.56500 44.71200
C  22.11000 -2.44500 43.97500
C  25.76100 -2.81000 42.79600
C  25.32000 -3.12700 41.38000
H  26.27300 -2.99600 40.19100
N  22.96100 -7.06500 46.74800
C  22.12400 -6.61100 45.75200
C  20.95100 -7.45500 45.74400
C  21.22700 -8.56500 46.63100
C  22.60500 -8.24900 47.21800
C  19.75100 -7.32000 44.98700
C  20.22600 -9.65000 47.03800
O  19.15600 -9.73400 46.49100
C  20.68000 -10.81000 47.94100
N  25.41700 -7.82900 48.12800
C  24.57100 -8.74600 48.58600
C  25.29300 -9.65400 49.56200
C  26.77300 -9.28000 49.41700
C  26.63900 -7.98500 48.70900
C  24.70800 -9.52100 51.01100
C  27.68200 -10.22100 48.60600
C  29.07600 -10.58700 49.28800
N  26.56400 -5.20800 47.59800
C  27.72000 -5.76300 48.21500
C  28.86000 -4.84300 48.03000
C  28.30000 -3.79400 47.23300
C  26.96800 -4.09900 46.90400
C  30.33100 -5.00200 48.67500
C  28.73500 -2.55800 46.51100
O  29.75000 -1.95000 46.45200
C  27.44700 -2.16100 45.61400
C  27.05000 -0.77800 46.03500
O  26.76300 -0.43900 47.19700
O  27.04000 0.04900 44.95500
C  26.82400 1.48900 45.19200
H  21.38200 -5.30600 44.34500
H  23.05400 -10.01500 48.43500
H  28.71300 -7.46300 49.06400
H  24.67400 -1.73500 44.30700
H  23.20900 -3.73000 42.71000
H  22.43300 -1.49100 44.39200
H  21.33700 -2.82700 44.64200
H  21.66200 -2.22800 43.00600
H  26.44000 -3.59500 43.12900
H  26.36600 -1.92100 42.61700
H  24.48200 -2.43100 41.34200
H  24.97000 -4.15900 41.41400
H  19.69600 -6.42600 44.36600
H  18.89800 -7.38400 45.66200
H  19.77200 -8.22800 44.38500
H  21.52500 -11.22400 47.39000
H  19.84500 -11.50900 47.88900
H  20.88500 -10.44400 48.94700
H  25.14100 -10.69700 49.28300
H  27.19100 -9.15300 50.41500
H  23.91800 -10.25200 51.18300
H  24.22100 -8.56700 51.20900
H  25.46600 -9.81100 51.73800
H  27.90000 -9.81700 47.61800
H  27.11400 -11.13000 48.40500
H  29.21400 -11.66400 49.38200
H  29.12100 -10.20800 50.30900
H  29.85600 -10.16800 48.65200
H  30.34000 -4.43400 49.60500
H  31.00000 -4.65700 47.88700
H  30.67100 -6.03000 48.80100
H  27.69800 -2.17400 44.55400
H  25.99700 1.81400 44.56100
H  27.69400 2.07800 44.90100
H  26.47300 1.76500 46.18600
Mg 30.12700 58.90300 38.56300
C  27.24100 57.05100 37.76800
C  32.05000 56.28700 37.64800
C  32.88700 60.95100 38.52100
C  28.01900 61.76600 38.85100
N  29.63100 57.04400 37.64500
C  28.41000 56.37000 37.47400
C  28.52400 54.96000 37.04300
C  30.09000 54.68300 37.36700
C  30.65700 56.11000 37.60100
C  30.39900 53.77000 38.56500
C  28.24200 54.78700 35.49800
C  26.87500 54.17900 35.05400
H  26.18100 55.06100 33.94200
N  32.21000 58.59900 38.30700
C  32.78000 57.46800 37.93400
C  34.24500 57.63300 37.88000
C  34.46000 58.97100 38.24700
C  33.16000 59.54700 38.39400
C  35.19900 56.55400 37.50000
C  35.81300 59.62100 38.50100
O  36.91900 59.08200 38.24400
C  35.92400 60.86800 39.22900
N  30.40600 61.01400 38.63800
C  31.63700 61.60900 38.56500
C  31.45700 63.11800 38.67300
C  29.93500 63.37900 38.87100
C  29.40600 61.95200 38.68800
C  32.44300 63.95500 39.59000
C  29.40200 64.42900 37.81600
C  28.45000 65.49400 38.32900
N  28.09000 59.39200 38.36900
C  27.38700 60.55600 38.66400
C  25.93700 60.35800 38.53700
C  25.83100 59.00600 38.18400
C  27.14200 58.46300 38.14300
C  24.86300 61.42700 38.75200
C  24.94200 57.90400 37.97500
O  23.69800 57.86300 38.06800
C  25.75000 56.64300 37.57700
C  25.30100 55.61000 38.44400
O  25.76100 55.44000 39.56900
O  24.33500 54.80300 37.87600
C  23.66300 53.85900 38.73500
H  32.66400 55.38500 37.60200
H  33.68800 61.65900 38.30000
H  27.35300 62.58100 39.14100
H  27.92700 54.35300 37.72400
H  30.55500 54.19600 36.51000
H  31.09400 52.94400 38.40900
H  29.52900 53.13800 38.74600
H  30.62800 54.17000 39.55200
H  29.02200 54.24700 34.96100
H  28.47000 55.79400 35.14700
H  26.34200 53.90600 35.96500
H  27.15200 53.20800 34.64200
H  35.97000 56.59400 38.27000
H  35.69000 56.90100 36.59000
H  34.75000 55.56600 37.40000
H  36.92700 61.13400 39.56400
H  35.17100 60.99300 40.00700
H  35.63400 61.60000 38.47500
H  31.78300 63.42700 37.67900
H  29.68000 63.69200 39.88400
H  31.83300 64.24500 40.44600
H  32.92400 64.82000 39.13300
H  33.19200 63.21800 39.87900
H  28.88300 64.05100 36.93600
H  30.30400 64.96800 37.52600
H  28.90600 66.42600 38.66300
H  27.85900 65.18400 39.19100
H  27.65700 65.83300 37.66300
H  23.95900 61.04900 38.27500
H  25.06800 62.44700 38.42700
H  24.80100 61.41400 39.84000
H  25.62400 56.37700 36.52800
H  23.27000 54.40000 39.59600
H  24.30700 53.08700 39.15600
H  22.96800 53.26500 38.14200

