158

Mg -2.07000 17.09800 26.96700
C  -2.64200 14.93900 29.46300
C  -2.84100 19.73500 29.08300
C  -1.60300 19.21500 24.47800
C  -2.01300 14.41200 24.73200
N  -2.80900 17.32600 29.01300
C  -2.68000 16.29100 29.89700
C  -2.99100 16.79000 31.36100
C  -3.26200 18.26200 31.17000
C  -2.91500 18.48600 29.65500
C  -4.56100 18.91600 31.66700
C  -1.91200 16.40600 32.47300
C  -1.90200 17.17700 33.79200
H  -2.08100 16.41900 35.11900
N  -2.01000 19.17700 26.85900
C  -2.43400 20.11900 27.78400
C  -2.31300 21.44300 27.26800
C  -1.72900 21.31300 25.99800
C  -1.74000 19.86300 25.73400
C  -2.81700 22.62200 27.97900
C  -1.15100 22.38200 25.04800
O  -0.81400 22.16600 23.94000
C  -1.00200 23.77600 25.51800
N  -1.75900 16.86900 24.95100
C  -1.62000 17.90500 24.06400
C  -1.51300 17.43000 22.60500
C  -1.52300 15.86900 22.74400
C  -1.73700 15.68700 24.24300
C  -2.59800 18.06100 21.74000
C  -0.24800 15.10900 22.25600
C  1.03200 15.22800 23.14000
N  -2.24500 15.02500 27.00900
C  -2.23200 14.02300 26.04800
C  -2.49600 12.74000 26.67700
C  -2.74500 13.03400 27.98900
C  -2.55600 14.40200 28.12200
C  -2.72900 11.52300 25.93000
C  -3.11300 12.51200 29.33100
O  -3.19600 11.32400 29.65200
C  -3.02000 13.71800 30.30000
C  -2.02100 13.36600 31.31800
O  -0.83300 13.63000 31.31800
O  -2.72600 12.72600 32.40900
C  -1.87700 12.43000 33.57900
H  -3.08500 20.57100 29.74200
H  -1.40600 19.89500 23.64700
H  -1.95200 13.61200 23.99100
H  -3.89000 16.22200 31.60100
H  -2.46700 18.90400 31.55200
H  -5.22700 18.08800 31.91100
H  -5.04100 19.58100 30.94900
H  -4.43100 19.63100 32.47900
H  -0.91300 16.35800 32.03900
H  -2.20900 15.37200 32.64400
H  -2.64800 17.97200 33.79400
H  -0.94700 17.70200 33.75200
H  -1.94600 23.19700 28.29400
H  -3.51300 22.34900 28.77300
H  -3.35000 23.17100 27.20300
H  -0.36100 24.04500 26.35800
H  -2.01100 24.16700 25.65000
H  -0.66000 24.39400 24.68800
H  -0.56900 17.81200 22.21600
H  -2.44800 15.49400 22.30700
H  -2.45600 17.52500 20.80200
H  -2.28400 19.08900 21.55500
H  -3.62100 18.01300 22.11300
H  -0.06000 15.52600 21.26700
H  -0.46200 14.04100 22.23300
H  1.38100 14.19900 23.23200
H  0.73900 15.60800 24.11800
H  1.75900 15.92200 22.71800
H  -2.39200 11.64800 24.90100
H  -3.78200 11.27900 25.78700
H  -2.12600 10.75500 26.41500
H  -4.00700 13.98700 30.67600
H  -1.35100 11.49700 33.37800
H  -2.53500 12.09300 34.38000
H  -1.21300 13.24700 33.86200
Mg 25.01700 1.27900 29.73500
C  27.11100 1.05500 32.54300
C  22.36800 1.31200 31.83600
C  23.07700 1.41300 27.01900
C  27.77700 0.81100 27.69000
N  24.80900 1.17100 31.92300
C  25.74300 1.17300 32.90500
C  25.19000 1.32700 34.30500
C  23.64400 1.24600 34.05900
C  23.56800 1.12500 32.51900
C  22.82000 0.29800 34.90100
C  25.71800 2.56600 35.02300
C  26.51900 2.41900 36.32000
H  26.24100 3.42400 37.47200
N  22.98300 1.25700 29.52100
C  22.04200 1.37800 30.47500
C  20.76500 1.62300 29.85300
C  20.96100 1.75100 28.43100
C  22.38400 1.44200 28.21100
C  19.43200 1.69800 30.55800
C  19.99200 2.15500 27.33900
O  20.39200 2.30300 26.14700
C  18.51200 2.39200 27.66800
N  25.36400 1.04600 27.67100
C  24.35500 1.14800 26.78300
C  24.85600 1.15100 25.29700
C  26.48800 1.10200 25.46600
C  26.56400 0.96700 26.98500
C  24.28400 -0.05300 24.48100
C  27.25800 2.27100 24.84400
C  27.06400 3.73500 25.42700
N  27.05400 0.92400 30.01400
C  28.03700 0.78900 29.07900
C  29.29700 0.59600 29.75500
C  29.06000 0.70600 31.14700
C  27.64500 0.93900 31.26500
C  30.64500 0.31800 29.14500
C  29.59200 0.60100 32.52500
O  30.72000 0.32000 32.92900
C  28.36300 1.01000 33.52200
C  28.24600 -0.11200 34.51500
O  27.75100 -1.21700 34.25400
O  28.76400 0.29700 35.69500
C  28.97400 -0.88300 36.57000
H  21.56400 1.45600 32.56100
H  22.47700 1.62000 26.13000
H  28.63300 0.80700 27.01300
H  25.37500 0.40600 34.85800
H  23.21100 2.22800 34.25100
H  23.43900 -0.27000 35.59500
H  22.36600 -0.42300 34.22200
H  22.02000 0.78700 35.45700
H  24.85700 3.21200 35.19400
H  26.33400 3.13800 34.32900
H  27.55000 2.59100 36.00900
H  26.60400 1.38300 36.64800
H  19.61700 1.15700 31.48600
H  18.63900 1.13500 30.06600
H  19.09600 2.72900 30.65900
H  18.36400 3.13700 28.45000
H  17.96600 1.46900 27.86100
H  18.15300 2.90200 26.77400
H  24.63200 2.14400 24.90700
H  26.87700 0.19700 24.99800
H  24.96900 -0.83500 24.15300
H  23.82800 0.33600 23.57000
H  23.51300 -0.47200 25.12700
H  26.79500 2.30400 23.85800
H  28.32700 2.06600 24.78000
H  26.53400 3.62100 26.37200
H  26.43800 4.22900 24.68400
H  27.93000 4.35500 25.65700
H  30.62900 0.85200 28.19500
H  30.61500 -0.72700 28.83800
H  31.52800 0.47400 29.76500
H  28.45200 1.98100 34.00900
H  28.03400 -1.14400 37.05700
H  29.64900 -0.68200 37.40200
H  29.49800 -1.70700 36.08500

