158

Mg 26.20200 49.30100 26.38900
C  23.97100 50.68400 28.93400
C  28.29800 48.31700 28.95000
C  28.01700 47.92500 24.12900
C  23.97700 50.60100 24.04400
N  26.09400 49.55400 28.64000
C  25.06400 49.99200 29.45000
C  25.36700 49.86500 30.93400
C  26.80400 49.33300 30.94400
C  27.14800 49.04400 29.38700
C  27.90700 50.25400 31.65600
C  24.30100 48.91100 31.63100
C  24.02200 49.39800 33.04100
H  23.86300 48.31600 34.16100
N  27.99700 48.32900 26.47800
C  28.65500 47.91800 27.60600
C  29.84800 47.09900 27.17200
C  29.86700 47.22300 25.72400
C  28.56300 47.79200 25.39000
C  30.85600 46.60100 28.16200
C  30.91100 46.73500 24.70300
O  30.79700 46.77400 23.50100
C  32.13200 46.11100 25.19700
N  26.18500 49.45800 24.41400
C  26.88500 48.55000 23.70900
C  26.49600 48.42800 22.21200
C  25.32100 49.46800 22.21600
C  25.12500 49.85700 23.70400
C  27.44400 48.54000 20.98500
C  24.11600 48.96000 21.40900
C  23.00800 48.10100 22.12800
N  24.36000 50.40200 26.36900
C  23.62700 50.91300 25.35300
C  22.51700 51.65800 25.89100
C  22.59900 51.54000 27.24800
C  23.74500 50.79800 27.54100
C  21.47700 52.29400 25.09800
C  21.98500 52.05800 28.46400
O  21.10500 52.87400 28.60300
C  22.78300 51.42600 29.65300
C  23.05900 52.48500 30.62200
O  23.89900 53.38600 30.55200
O  22.38100 52.20700 31.78800
C  22.94400 52.90700 32.95700
H  28.98200 47.95400 29.72100
H  28.55000 47.37600 23.35000
H  23.23900 50.88200 23.29000
H  25.39200 50.84000 31.42000
H  26.80200 48.35300 31.42100
H  28.62800 50.46400 30.86700
H  28.30700 49.68100 32.49300
H  27.55700 51.20000 32.06900
H  24.63400 47.87900 31.74100
H  23.39000 48.94100 31.03300
H  23.08200 49.92700 32.88500
H  24.79800 50.08800 33.37200
H  30.70300 45.53000 28.29800
H  30.79500 47.16200 29.09400
H  31.87700 46.83200 27.85600
H  32.69200 45.93900 24.27800
H  31.83300 45.20600 25.72600
H  32.61100 46.90500 25.77100
H  26.07600 47.42500 22.14900
H  25.56600 50.44700 21.80400
H  28.50500 48.60300 21.22600
H  27.15500 49.46100 20.47900
H  27.15200 47.78300 20.25800
H  24.55400 48.41700 20.57100
H  23.60300 49.85400 21.05500
H  22.15800 48.78200 22.16600
H  23.24900 47.86500 23.16400
H  22.78900 47.17400 21.59700
H  21.21400 51.50300 24.39600
H  22.04100 53.12400 24.67200
H  20.62300 52.64400 25.67700
H  22.11900 50.76800 30.21300
H  23.98400 52.62200 33.11700
H  22.41800 52.53700 33.83700
H  22.68900 53.96500 32.91200
Mg 5.53600 53.66200 41.31100
C  5.17800 50.12000 40.95700
C  8.79300 53.25800 40.28300
C  5.55100 56.76400 40.95600
C  1.98400 53.59500 41.94300
N  6.79000 51.92800 40.76100
C  6.52200 50.60500 40.59400
C  7.61900 49.80500 39.84700
C  8.81700 50.71900 40.09500
C  8.13500 52.07300 40.43400
C  9.85800 50.27300 41.15000
C  7.33600 49.45900 38.34900
C  6.51700 50.43500 37.48300
H  7.39700 51.22500 36.42600
N  7.03100 54.87500 40.77000
C  8.29100 54.55500 40.34800
C  9.00300 55.70900 40.01400
C  8.07900 56.85400 40.16100
C  6.80600 56.19800 40.61100
C  10.41700 55.62800 39.42800
C  8.40700 58.33600 39.75300
O  9.54500 58.67100 39.55600
C  7.33500 59.30100 39.68600
N  3.94600 54.93900 41.21900
C  4.27200 56.27800 41.20900
C  3.12200 57.20000 41.60100
C  1.94700 56.15600 41.75000
C  2.61500 54.78500 41.63200
C  3.27200 58.18900 42.84300
C  0.86600 56.38600 40.67400
C  -0.51500 56.01800 41.29600
N  3.94600 52.18800 41.57400
C  2.60100 52.37400 41.88300
C  2.05700 51.03200 42.17600
C  3.00800 50.19900 41.78900
C  4.14200 50.89800 41.34100
C  0.71900 50.66300 42.69600
C  3.25900 48.79900 41.57600
O  2.50000 47.82800 41.76700
C  4.70400 48.70300 41.09300
C  4.59200 47.92500 39.87600
O  3.81100 48.28000 38.95000
O  5.11800 46.62600 39.93200
C  4.68400 45.74300 38.81200
H  9.86800 53.25400 40.08800
H  5.56800 57.85400 40.90200
H  0.96300 53.86800 42.21800
H  7.79100 48.84400 40.33200
H  9.42900 50.87800 39.20700
H  9.36100 50.34700 42.11700
H  10.75600 50.88100 41.03800
H  10.08300 49.22500 40.95300
H  6.76800 48.53300 38.44900
H  8.30200 49.24300 37.89300
H  5.86400 51.16500 37.96000
H  5.88200 49.72000 36.95900
H  10.44400 55.59500 38.33900
H  10.98300 54.78100 39.81700
H  10.94300 56.53000 39.74100
H  7.76600 60.12400 39.11500
H  7.07500 59.63000 40.69200
H  6.49300 58.86200 39.15100
H  2.93300 57.88300 40.77300
H  1.50000 56.15900 42.74400
H  4.28200 58.20500 43.25400
H  2.62400 57.89000 43.66800
H  3.03900 59.16300 42.41400
H  0.99500 55.61300 39.91600
H  0.88600 57.36800 40.20100
H  -1.26300 56.80900 41.25800
H  -0.51600 55.60700 42.30600
H  -0.87500 55.16600 40.71900
H  0.14900 50.07600 41.97600
H  0.25000 51.53000 43.16100
H  0.99100 49.95800 43.48100
H  5.43200 48.30000 41.79700
H  4.84700 46.21200 37.84200
H  3.61200 45.55400 38.85700
H  5.29700 44.84100 38.81800

