158

Mg 16.38500 51.79100 26.15600
C  17.92800 49.99000 28.74500
C  14.02000 52.93100 28.36800
C  14.77200 53.08600 23.51500
C  18.63600 50.18900 23.94900
N  16.10300 51.63400 28.35300
C  16.91500 50.89300 29.20400
C  16.62700 51.26100 30.69500
C  15.24700 52.00100 30.51800
C  15.05900 52.14500 29.02400
C  14.10300 51.26200 31.21200
C  17.78900 52.19800 31.28700
C  17.90600 52.43500 32.78800
H  16.97900 51.63400 33.76600
N  14.58400 52.83300 25.96200
C  13.80100 53.27200 27.00700
C  12.80300 54.16500 26.45900
C  12.92500 54.02700 25.01000
C  14.14700 53.33700 24.76600
C  11.77300 54.88400 27.36600
C  12.03500 54.62100 23.97100
O  12.28000 54.54500 22.78300
C  10.83500 55.37800 24.38800
N  16.45800 51.37800 23.81800
C  15.84600 52.28600 23.09700
C  16.70700 52.59700 21.82700
C  17.93600 51.60500 21.94800
C  17.66400 51.01400 23.29200
C  16.04700 52.47200 20.46200
C  19.31800 52.40300 21.84900
C  20.44100 51.74000 20.95500
N  17.86500 50.30700 26.24500
C  18.71000 49.74100 25.28800
C  19.69400 48.83200 25.82600
C  19.39300 48.88200 27.22900
C  18.31400 49.74300 27.38400
C  20.80600 48.16800 25.08000
C  19.82500 48.51000 28.55500
O  20.88400 48.03900 28.93000
C  18.82700 49.16800 29.60400
C  18.19300 48.08800 30.41100
O  17.55500 47.16700 29.94500
O  18.70400 48.13100 31.75100
C  18.41000 46.95500 32.59400
H  13.45600 53.37900 29.18900
H  14.51900 53.86200 22.79000
H  19.45300 49.92800 23.27400
H  16.50400 50.32000 31.23100
H  15.21800 52.98700 30.98200
H  14.39200 50.32200 31.68100
H  13.42900 50.92700 30.42300
H  13.64400 51.93400 31.93700
H  17.54900 53.22800 31.02200
H  18.78100 51.93200 30.92100
H  17.85600 53.50000 33.01500
H  18.89100 52.09400 33.10500
H  10.73800 54.76500 27.04700
H  12.07400 55.92600 27.47900
H  11.78900 54.50700 28.38800
H  10.21500 54.74600 25.02400
H  10.29100 55.75400 23.52100
H  11.24200 56.26800 24.86800
H  17.05000 53.62700 21.92800
H  17.82900 50.79700 21.22500
H  15.00600 52.15200 20.50100
H  16.47700 51.79900 19.71900
H  16.05800 53.47500 20.03700
H  19.70000 52.48300 22.86700
H  19.23400 53.46400 21.61400
H  20.89600 52.43400 20.24900
H  20.16100 50.86400 20.36900
H  21.13500 51.26800 21.65000
H  21.36600 48.81900 24.40800
H  20.47300 47.26600 24.56800
H  21.53400 47.91600 25.85100
H  19.52000 49.72400 30.23600
H  17.34200 46.73800 32.56700
H  18.90600 47.02100 33.56200
H  18.96200 46.13700 32.13300
Mg -0.30000 44.18500 26.31800
C  1.47900 43.88200 29.38800
C  -3.17500 43.61000 28.00800
C  -1.68000 43.77100 23.32600
C  2.93100 44.57900 24.77700
N  -0.78600 43.75700 28.39600
C  0.10500 43.71900 29.45800
C  -0.71500 43.44700 30.74800
C  -2.19900 43.37000 30.32900
C  -2.03000 43.54000 28.83800
C  -2.94000 42.01100 30.72400
C  -0.50700 44.47800 31.98100
C  -0.01900 44.01800 33.39900
H  -0.57400 42.68100 33.95500
N  -2.20000 43.83100 25.70700
C  -3.30900 43.65400 26.58600
C  -4.46600 43.53100 25.73400
C  -4.04800 43.47100 24.32400
C  -2.62900 43.71000 24.39000
C  -5.83600 43.31700 26.37200
C  -4.92600 43.17400 23.08700
O  -4.37200 43.04900 22.00400
C  -6.36300 42.81600 23.19300
N  0.49900 44.18000 24.39100
C  -0.28500 44.07200 23.30300
C  0.56400 43.96800 22.05600
C  1.93900 44.56700 22.45400
C  1.82600 44.43000 23.96500
C  0.75600 42.48400 21.62700
C  2.28200 45.99500 21.94500
C  1.14100 47.01600 21.89400
N  1.78800 44.27000 26.90700
C  2.94900 44.54400 26.22500
C  4.02200 44.51900 27.08300
C  3.51800 44.23200 28.34600
C  2.16900 44.13900 28.19600
C  5.55700 44.54000 26.77300
C  3.79400 43.98400 29.74100
O  4.87800 43.92800 30.28200
C  2.51200 43.74600 30.45500
C  2.53200 42.48500 31.21400
O  2.04400 41.42300 30.84400
O  3.05400 42.67000 32.46600
C  3.03900 41.45300 33.33300
H  -4.06900 43.80400 28.60400
H  -2.04600 43.51700 22.32900
H  3.87600 44.62500 24.23200
H  -0.38300 42.43000 30.95700
H  -2.80500 44.23800 30.58700
H  -3.88600 42.23100 31.21900
H  -2.33000 41.36200 31.35200
H  -3.21800 41.46400 29.82300
H  -1.46500 44.97800 32.12000
H  0.04800 45.37600 31.71100
H  -0.33600 44.72600 34.16400
H  1.06600 44.12100 33.41700
H  -6.19400 42.29000 26.29400
H  -6.61700 43.95400 25.95600
H  -5.84300 43.66000 27.40600
H  -6.39700 41.84900 23.69500
H  -6.84500 42.63300 22.23300
H  -6.95200 43.52300 23.77700
H  0.11500 44.52200 21.23200
H  2.80700 43.97400 22.16400
H  1.79200 42.15900 21.71800
H  0.34600 42.40700 20.62000
H  0.10100 41.89000 22.26500
H  2.79700 45.91300 20.98800
H  2.99100 46.33800 22.69800
H  0.25200 46.53800 22.30700
H  0.95800 47.51400 20.94200
H  1.31700 47.76600 22.66500
H  6.15900 44.55800 27.68200
H  5.69100 45.50800 26.29000
H  5.77600 43.70100 26.11400
H  2.42200 44.61400 31.10800
H  2.28600 41.40900 34.11900
H  3.99600 41.34100 33.84500
H  2.88800 40.49000 32.84500

