158

Mg 25.96500 0.37300 28.86100
C  27.89100 -0.20900 31.93300
C  23.32900 0.74200 30.82400
C  24.31200 0.94800 26.07100
C  28.92600 -0.30300 27.11100
N  25.66500 0.27600 31.19800
C  26.54200 -0.02400 32.23900
C  25.86500 0.18600 33.57000
C  24.28900 0.14700 33.11200
C  24.42500 0.46700 31.61400
C  23.55400 -1.11700 33.31400
C  26.42900 1.57100 34.20300
C  27.00700 1.43400 35.64100
H  26.46600 2.46300 36.71400
N  24.04700 0.83900 28.52600
C  23.09500 0.89200 29.40800
C  21.86300 1.23300 28.73400
C  22.10400 1.34400 27.33900
C  23.49700 0.96600 27.23700
C  20.61100 1.49200 29.51300
C  21.18600 1.74400 26.30300
O  21.53700 1.94800 25.14700
C  19.77000 2.00600 26.62600
N  26.50700 0.05900 26.90300
C  25.63500 0.55300 25.94200
C  26.25700 0.54300 24.52300
C  27.77300 0.33300 24.89400
C  27.76300 0.00700 26.38100
C  25.68900 -0.46000 23.52900
C  28.70800 1.43100 24.36500
C  29.67300 0.90900 23.33500
N  27.96900 -0.18000 29.34800
C  29.01900 -0.36100 28.52100
C  30.20300 -0.74600 29.33200
C  29.82400 -0.56500 30.65600
C  28.47500 -0.29200 30.65600
C  31.47600 -1.14100 28.78400
C  30.23700 -0.54500 31.99000
O  31.34000 -0.75500 32.46400
C  29.02700 -0.17900 32.91500
C  28.80200 -1.32000 33.88300
O  28.42900 -2.41900 33.57400
O  29.02400 -0.91900 35.20400
C  28.76700 -1.91300 36.26300
H  22.45600 0.72400 31.47900
H  23.83200 1.23500 25.13400
H  29.86300 -0.46900 26.57600
H  26.08500 -0.63700 34.25000
H  23.71200 0.86800 33.69100
H  23.12900 -1.54500 32.40600
H  22.73700 -0.89700 34.00100
H  24.13000 -1.89400 33.81600
H  25.66000 2.34200 34.17300
H  27.23800 1.96200 33.58700
H  28.07700 1.59000 35.50000
H  26.72000 0.44700 36.00300
H  20.29000 2.52600 29.39000
H  20.67300 1.16900 30.55200
H  19.89100 0.81400 29.05400
H  19.12300 2.27100 25.79000
H  19.78900 2.90500 27.24300
H  19.36700 1.12200 27.12000
H  26.08400 1.54300 24.12400
H  28.06700 -0.61800 24.44800
H  26.43200 -0.46800 22.73200
H  24.72500 -0.18500 23.10200
H  25.67700 -1.47600 23.92300
H  29.24300 2.03100 25.10200
H  28.05300 2.21100 23.97700
H  29.36100 0.08100 22.69900
H  30.52000 0.62300 23.95900
H  30.19400 1.66600 22.74900
H  32.27400 -0.52200 29.19300
H  31.68800 -1.18300 27.71500
H  31.66400 -2.12500 29.21200
H  29.17400 0.78900 33.39500
H  29.67500 -2.37100 36.65600
H  27.99700 -2.60100 35.91400
H  28.29900 -1.44700 37.13100
Mg -3.10500 34.52000 26.51500
C  -4.28900 33.17200 29.62300
C  -1.21200 36.69700 28.43100
C  -2.65200 36.28100 23.66200
C  -4.84100 32.08500 24.88000
N  -2.85400 34.92200 28.77600
C  -3.29300 34.14700 29.84700
C  -2.67300 34.58900 31.16500
C  -1.91200 35.86300 30.80900
C  -1.97200 35.84300 29.26800
C  -2.41600 37.17100 31.48100
C  -1.87000 33.45800 31.95600
C  -2.45800 33.12800 33.39300
H  -1.48200 33.02200 34.55500
N  -2.08500 36.29800 26.13900
C  -1.29300 36.92800 27.02800
C  -0.56000 37.92700 26.21400
C  -1.04100 37.84100 24.89700
C  -1.92800 36.70500 24.82000
C  0.39000 38.86200 26.88600
C  -0.68400 38.74100 23.73200
O  -0.84900 38.37300 22.56800
C  -0.07200 40.17600 23.96200
N  -3.74300 34.38200 24.57100
C  -3.39600 35.12100 23.51700
C  -3.93800 34.48700 22.18300
C  -4.23500 33.01000 22.60600
C  -4.26300 33.15400 24.12800
C  -5.17900 35.21900 21.59800
C  -3.22900 31.92000 22.14000
C  -3.98000 30.61300 21.83500
N  -4.43100 33.01500 27.08700
C  -4.88200 31.98600 26.28200
C  -5.55900 30.97000 27.16500
C  -5.37200 31.37800 28.44300
C  -4.70300 32.63600 28.38100
C  -6.36000 29.83500 26.63900
C  -5.56500 31.06900 29.88000
O  -6.16800 30.14700 30.41500
C  -4.88300 32.21400 30.62600
C  -5.86600 32.88900 31.49100
O  -6.63300 33.78000 31.16800
O  -5.74600 32.36300 32.76900
C  -6.48300 32.92300 33.80900
H  -0.55900 37.43200 28.90700
H  -2.63700 36.91700 22.77500
H  -5.29200 31.14400 24.55800
H  -3.50100 34.84900 31.82500
H  -0.89000 35.77900 31.17800
H  -2.18300 37.12700 32.54500
H  -3.50300 37.18300 31.40000
H  -1.92400 38.04300 31.05000
H  -0.86100 33.84400 32.10200
H  -1.74400 32.50700 31.43700
H  -2.96900 32.16600 33.37400
H  -3.14800 33.89300 33.74700
H  1.07300 39.22800 26.11900
H  1.02100 38.33300 27.60000
H  -0.13700 39.59800 27.49400
H  -0.47800 40.77100 23.14300
H  1.00300 40.04500 23.84300
H  -0.26400 40.55400 24.96600
H  -3.11700 34.65300 21.48500
H  -5.29000 32.80300 22.43200
H  -5.01000 35.73300 20.65200
H  -5.47400 36.04900 22.24100
H  -6.02200 34.55000 21.42500
H  -2.58300 31.75200 23.00200
H  -2.84400 32.31800 21.20100
H  -3.39300 30.06900 21.09500
H  -4.92500 30.90200 21.37600
H  -4.10000 29.96400 22.70300
H  -6.31200 28.91000 27.21300
H  -6.15000 29.64100 25.58700
H  -7.38800 30.15900 26.79700
H  -4.03600 31.84400 31.20400
H  -5.81000 33.65100 34.26100
H  -6.79700 32.22100 34.58100
H  -7.36900 33.36000 33.34700

