158

Mg 1.70900 -1.40900 44.45400
C  5.07200 -0.53300 43.83500
C  0.89700 1.76000 42.95500
C  -1.51400 -2.36200 43.96400
C  2.74300 -4.47000 45.38700
N  2.87100 0.42200 43.41900
C  4.25000 0.46400 43.36900
C  4.75300 1.82400 42.79200
C  3.39400 2.65800 42.73900
C  2.31300 1.59000 42.98600
C  3.16900 3.72800 43.76600
C  5.47100 1.63600 41.45900
C  6.67700 2.58800 41.09900
H  6.92900 2.86000 39.63800
N  -0.10400 -0.40500 43.62800
C  -0.17200 0.83300 43.11200
C  -1.57200 1.14900 42.80500
C  -2.36900 -0.00000 43.12600
C  -1.35200 -1.01800 43.59900
C  -2.10500 2.47200 42.27800
C  -3.90300 -0.15700 43.04100
O  -4.59800 0.73200 42.59400
C  -4.57700 -1.40200 43.43200
N  0.77500 -3.11600 44.56500
C  -0.57000 -3.31400 44.46200
C  -0.94700 -4.81500 44.79300
C  0.43200 -5.42400 45.22000
C  1.41600 -4.29700 45.02300
C  -2.17500 -5.09000 45.65700
C  0.81300 -6.85500 44.54400
C  1.61900 -7.87600 45.46200
N  3.55200 -2.36800 44.56700
C  3.80000 -3.61600 45.05200
C  5.25400 -3.78300 45.12800
C  5.83800 -2.59200 44.69700
C  4.72800 -1.78500 44.30300
C  5.94600 -4.95600 45.58300
C  7.06700 -1.87000 44.50200
O  8.24100 -2.17700 44.72200
C  6.60300 -0.52900 43.90800
C  7.09600 0.63200 44.71300
O  6.55500 0.96900 45.74900
O  8.22500 1.23100 44.16900
C  8.48400 2.52100 44.70100
H  0.53700 2.72400 42.59100
H  -2.44100 -2.91800 43.81200
H  3.07600 -5.39700 45.85700
H  5.53300 2.32600 43.36300
H  3.15100 3.13900 41.79200
H  2.33400 3.49300 44.42700
H  2.91500 4.64400 43.23200
H  4.09900 3.99900 44.26500
H  4.81900 1.84500 40.61100
H  5.76900 0.59300 41.35900
H  7.59500 2.17300 41.51600
H  6.52100 3.53800 41.61000
H  -3.11500 2.53700 41.87500
H  -1.47100 2.66700 41.41200
H  -1.76000 3.32000 42.87000
H  -5.64700 -1.33400 43.23100
H  -4.45200 -1.52500 44.50800
H  -4.11500 -2.28700 42.99500
H  -1.24800 -5.18600 43.81300
H  0.44800 -5.54000 46.30400
H  -2.62100 -4.12700 45.90600
H  -2.00400 -5.48200 46.66000
H  -2.86000 -5.78500 45.17100
H  1.52600 -6.53500 43.78400
H  0.00400 -7.34900 44.00600
H  0.77300 -8.26100 46.03200
H  2.48800 -7.39600 45.91100
H  2.02800 -8.70900 44.89100
H  7.00500 -4.71200 45.49600
H  5.74400 -5.85300 44.99700
H  5.51200 -5.14600 46.56400
H  7.05700 -0.51300 42.91700
H  7.66400 3.09500 45.13300
H  8.82500 3.27900 43.99600
H  9.35600 2.43500 45.35000
Mg 17.24500 51.33100 26.35400
C  19.21800 49.90900 28.86600
C  14.95300 52.26000 28.81200
C  15.27900 52.44700 23.92700
C  19.34300 49.78300 23.95500
N  17.04700 50.99700 28.62700
C  18.01500 50.48700 29.38300
C  17.66700 50.60300 30.85300
C  16.23600 51.29700 30.86500
C  15.97600 51.48400 29.33900
C  15.19300 50.48600 31.66300
C  18.74200 51.48300 31.62500
C  18.33000 52.35600 32.85400
H  17.53800 51.55400 33.88400
N  15.43000 52.32000 26.38600
C  14.64900 52.67300 27.44500
C  13.51400 53.39900 26.96200
C  13.59700 53.51500 25.55400
C  14.78900 52.72700 25.18800
C  12.43400 54.02500 27.88100
C  12.70400 54.18300 24.59300
O  12.91900 54.16100 23.40400
C  11.41300 54.85400 25.08900
N  17.41900 51.19400 24.27000
C  16.45600 51.80200 23.50300
C  16.69100 51.50200 21.95600
C  18.06700 50.78700 21.90300
C  18.30100 50.57000 23.45300
C  15.45600 50.80100 21.32900
C  19.21400 51.54600 21.06500
C  20.18000 50.66200 20.24000
N  18.93000 50.13700 26.28100
C  19.73200 49.64600 25.30100
C  20.81300 48.86400 25.86900
C  20.60200 48.97500 27.22800
C  19.49600 49.78000 27.48600
C  21.91800 48.28900 25.12000
C  21.27100 48.63700 28.51800
O  22.34600 48.08000 28.72200
C  20.39100 49.31000 29.62900
C  20.08600 48.30300 30.66000
O  19.25600 47.36300 30.45800
O  20.91000 48.55300 31.73600
C  20.68500 47.64200 32.89600
H  14.18000 52.60800 29.50000
H  14.60900 52.73700 23.11500
H  19.95900 49.23100 23.24200
H  17.62100 49.59300 31.26200
H  16.32300 52.28100 31.32700
H  14.40500 50.06000 31.04200
H  14.69600 51.05800 32.44600
H  15.68100 49.69100 32.22500
H  19.41500 52.05700 30.98700
H  19.30700 50.69600 32.12400
H  17.94000 53.30100 32.47500
H  19.23300 52.42700 33.45900
H  12.34100 55.07900 27.61700
H  12.87100 54.18400 28.86700
H  11.44800 53.56800 27.96200
H  10.82800 54.11800 25.64000
H  10.75200 55.24900 24.31800
H  11.56700 55.68600 25.77700
H  16.66400 52.45600 21.43000
H  17.91700 49.78000 21.51400
H  14.62600 50.76700 22.03400
H  15.78100 49.78900 21.08600
H  15.06900 51.28600 20.43300
H  19.81200 52.21200 21.68700
H  18.66900 52.24800 20.43400
H  21.16500 51.01400 20.54500
H  20.08300 50.70900 19.15500
H  20.03200 49.65900 20.64000
H  21.53600 47.83400 24.20600
H  22.44000 47.52400 25.69500
H  22.65000 49.05100 24.85200
H  20.90500 50.11000 30.16300
H  19.65200 47.82600 33.19100
H  21.38700 48.00500 33.64700
H  20.93900 46.65900 32.49900

