158

Mg 53.38400 25.47800 44.79300
C  50.96100 27.71700 43.54300
C  51.41500 22.86300 43.81800
C  56.10700 23.27700 45.06600
C  55.51200 28.14800 45.36700
N  51.54000 25.41600 43.58900
C  50.67400 26.35600 43.23400
C  49.53300 25.84700 42.41900
C  49.41000 24.36800 43.07800
C  50.90000 24.18200 43.55100
C  48.43200 24.19900 44.28200
C  49.70100 25.68000 40.84500
C  48.70300 26.26300 39.89800
H  49.21300 26.61100 38.49700
N  53.77500 23.30000 44.44200
C  52.77200 22.47400 44.10300
C  53.31000 21.17000 44.20100
C  54.63500 21.21700 44.57500
C  54.94000 22.59500 44.67000
C  52.38600 19.92500 43.98600
C  55.50700 19.97100 44.87300
O  55.03000 18.86200 44.87000
C  57.01800 20.01100 45.17800
N  55.57400 25.62600 45.08300
C  56.42700 24.56900 45.23900
C  57.80400 25.11700 45.74100
C  57.62900 26.67300 45.74900
C  56.17000 26.87200 45.32700
C  58.32400 24.38100 47.01700
C  58.58100 27.41600 44.75500
C  59.70100 28.15300 45.46700
N  53.21600 27.50500 44.72000
C  54.20000 28.48100 45.03800
C  53.46700 29.74800 45.05100
C  52.22200 29.47600 44.35600
C  52.16100 28.12700 44.16600
C  53.98900 31.01700 45.61600
C  51.00800 30.09300 43.80900
O  50.77500 31.30300 43.69300
C  50.06000 28.91400 43.24900
C  49.67700 29.14400 41.89600
O  50.45200 29.08700 40.93300
O  48.35100 29.44900 41.86600
C  47.81000 29.85800 40.55600
H  50.61700 22.12700 43.69700
H  56.95100 22.63500 45.32600
H  56.12000 28.97800 45.73400
H  48.69900 26.50000 42.67500
H  49.28100 23.61900 42.29700
H  47.83700 23.31000 44.07200
H  47.72500 25.02700 44.34000
H  48.98100 24.09200 45.21800
H  49.89700 24.65300 40.53900
H  50.52600 26.34200 40.58300
H  48.28700 27.16800 40.34100
H  47.87200 25.56000 39.85000
H  52.88900 19.00400 43.69100
H  51.59300 20.21100 43.29600
H  51.86700 19.71800 44.92200
H  57.31600 18.98900 45.40900
H  57.29100 20.69600 45.98100
H  57.53400 20.46500 44.33300
H  58.56800 24.90200 44.99400
H  57.71900 27.04600 46.76900
H  58.91200 25.03900 47.65800
H  58.92200 23.47800 46.89600
H  57.44300 24.10200 47.59500
H  58.03800 28.12000 44.12400
H  59.15300 26.69700 44.16800
H  60.58400 27.52800 45.33800
H  59.52200 28.19900 46.54200
H  59.87000 29.14900 45.05600
H  54.99400 30.85600 46.00600
H  53.39000 31.34800 46.46500
H  54.00800 31.76300 44.82300
H  49.25400 28.69900 43.95100
H  47.32900 29.02000 40.05300
H  48.61700 30.32700 39.99200
H  46.96700 30.53100 40.71600
Mg 9.34400 48.13000 26.55800
C  7.49000 48.29300 29.62100
C  12.03600 49.53700 28.33200
C  11.11100 48.24600 23.76300
C  6.37400 47.64800 24.91600
N  9.64600 48.78400 28.72700
C  8.76100 48.72300 29.78900
C  9.54600 49.27600 31.11300
C  10.78500 50.04200 30.51800
C  10.83400 49.40100 29.08400
C  10.59600 51.64600 30.56700
C  9.92900 48.08900 32.00900
C  9.71600 48.07900 33.56700
H  9.82800 46.84900 34.44500
N  11.37200 48.61000 26.15300
C  12.35800 49.11000 26.97200
C  13.60500 49.05200 26.37800
C  13.34000 48.58300 25.04000
C  11.88800 48.52100 24.90300
C  14.84300 49.31300 27.08600
C  14.37900 48.16100 23.93100
O  14.00300 47.96100 22.75400
C  15.80500 48.09300 24.31400
N  8.83000 48.10900 24.66200
C  9.73600 48.19700 23.61600
C  9.09200 48.01200 22.23000
C  7.65900 47.55900 22.59900
C  7.60900 47.80000 24.14400
C  9.12700 49.32200 21.41300
C  7.43600 46.08700 22.25100
C  7.71300 44.99300 23.30600
N  7.29800 47.99100 27.12800
C  6.23900 47.77400 26.29900
C  5.04000 47.75400 27.09100
C  5.49100 47.82500 28.42500
C  6.88100 47.98900 28.42100
C  3.67000 47.35200 26.70600
C  5.15900 47.82200 29.76300
O  4.06700 47.93900 30.29100
C  6.47700 47.99300 30.63000
C  6.58400 46.74400 31.38700
O  6.97200 45.68000 30.93500
O  6.28600 46.96300 32.69300
C  6.20800 45.72300 33.55700
H  12.89200 49.95900 28.86200
H  11.62800 48.18400 22.80300
H  5.55700 47.47300 24.21200
H  8.82600 49.92300 31.61300
H  11.70000 49.70600 31.00600
H  9.77600 52.05200 31.16000
H  10.27700 51.81100 29.53800
H  11.41600 52.17700 31.05000
H  11.00500 47.91800 32.04600
H  9.47500 47.18300 31.60600
H  8.65700 48.33700 33.56700
H  10.37400 48.83400 33.99800
H  15.54300 48.51600 26.83600
H  14.89600 49.42800 28.16800
H  15.26400 50.24300 26.70300
H  16.29200 47.56500 23.49400
H  15.84000 47.35000 25.11100
H  16.15700 49.06200 24.66700
H  9.63000 47.26100 21.65200
H  6.96300 48.20500 22.06300
H  10.13500 49.43800 21.01300
H  8.76500 50.23400 21.88800
H  8.60700 49.19700 20.46300
H  7.90300 45.79400 21.31100
H  6.39400 45.99800 21.94600
H  6.83200 44.88900 23.93900
H  8.52400 45.32400 23.95400
H  7.98700 44.03100 22.87500
H  3.46600 47.33200 25.63500
H  2.88400 47.88000 27.24700
H  3.63300 46.31700 27.04400
H  6.44600 48.84300 31.31100
H  5.81600 45.95000 34.54900
H  7.19900 45.31300 33.75400
H  5.59500 44.98300 33.04200

