158

Mg 24.83100 1.42200 29.74500
C  27.10700 1.37400 32.38900
C  22.22700 1.18200 32.04600
C  22.62600 1.07700 27.36000
C  27.47500 0.91800 27.58300
N  24.71500 1.09100 31.93600
C  25.74400 1.45000 32.80800
C  25.22000 1.69300 34.24100
C  23.69300 1.34600 34.09100
C  23.51600 1.17600 32.63000
C  23.23000 0.13700 35.02600
C  25.60400 3.13500 34.77000
C  26.16200 3.14800 36.21100
H  25.42300 3.96900 37.26900
N  22.72500 1.24500 29.66000
C  21.82100 1.22800 30.65400
C  20.49400 1.11300 30.15700
C  20.55400 0.97200 28.79300
C  21.99000 1.10300 28.55200
C  19.27700 1.12800 31.10900
C  19.48900 0.63700 27.69600
O  19.73900 0.43900 26.53600
C  18.14600 0.38600 28.09700
N  25.07600 0.97700 27.76500
C  23.99300 1.01200 26.91100
C  24.37600 1.20100 25.43300
C  25.88000 1.26000 25.51900
C  26.20900 0.92700 26.99300
C  23.76300 0.16000 24.52700
C  26.59300 2.58500 25.01200
C  26.63700 3.71000 25.89800
N  26.88800 1.21300 29.82800
C  27.81100 0.89100 28.89800
C  29.12000 0.77600 29.56700
C  28.89500 1.00200 30.88900
C  27.52800 1.26500 30.99400
C  30.38400 0.46100 28.96000
C  29.52800 1.14200 32.16900
O  30.70600 1.13000 32.52200
C  28.34300 1.38200 33.21200
C  28.35500 0.27500 34.22700
O  28.21700 -0.94100 34.05700
O  28.58000 0.82400 35.45300
C  28.50300 0.05900 36.72200
H  21.43300 0.95300 32.75900
H  21.94500 1.03700 26.50700
H  28.30100 0.80000 26.87900
H  25.70700 1.00000 34.92700
H  23.06000 2.19600 34.34700
H  23.45600 -0.83500 34.58800
H  22.19900 0.31600 35.33100
H  23.82900 0.15100 35.93700
H  24.76900 3.83100 34.70300
H  26.36900 3.51400 34.09200
H  27.11200 3.67700 36.13900
H  26.42400 2.16100 36.59000
H  19.48600 1.59000 32.07400
H  19.02100 0.08100 31.27400
H  18.53000 1.73600 30.60000
H  17.71900 1.31700 28.47000
H  18.20400 -0.42300 28.82500
H  17.70400 0.12800 27.13500
H  23.99200 2.20100 25.23100
H  26.34400 0.47200 24.92700
H  23.48600 -0.71400 25.11700
H  24.34200 -0.12200 23.64800
H  22.81100 0.51400 24.13200
H  26.16600 2.86100 24.04700
H  27.59900 2.30700 24.69900
H  25.82600 3.80800 26.62000
H  26.52600 4.58500 25.25700
H  27.59500 3.80600 26.40800
H  30.91600 1.38300 28.72800
H  30.33300 -0.03800 27.99200
H  30.85600 -0.21900 29.67000
H  28.53200 2.30200 33.76600
H  28.43400 -1.01500 36.55500
H  27.68200 0.35000 37.37700
H  29.39000 0.32900 37.29500
Mg 10.46100 48.17900 26.19200
C  8.36600 47.80000 29.00900
C  12.78600 49.41200 28.01700
C  12.06900 48.66500 23.25400
C  7.47500 47.32800 24.30500
N  10.39900 48.71000 28.25700
C  9.60000 48.24300 29.28000
C  10.19800 48.64200 30.66300
C  11.44000 49.42700 30.24100
C  11.56500 49.16100 28.73200
C  11.60600 50.94600 30.60100
C  10.54800 47.45300 31.62400
C  9.96900 47.48100 33.07100
H  10.49200 46.44900 34.14300
N  12.21000 48.89800 25.74500
C  13.16000 49.25200 26.65100
C  14.49100 49.22800 26.05100
C  14.25500 49.08400 24.69300
C  12.79900 48.81800 24.47400
C  15.71500 49.56400 26.82600
C  15.23100 49.03900 23.55900
O  14.89600 48.88800 22.40800
C  16.67800 49.30600 23.82200
N  9.92600 47.98500 24.05400
C  10.73900 48.33400 23.02800
C  10.01400 48.32000 21.68600
C  8.69200 47.58300 22.04200
C  8.63800 47.70900 23.58900
C  9.85300 49.74000 21.19100
C  8.49100 46.15500 21.37400
C  9.30100 45.05000 22.00000
N  8.36600 47.53000 26.46700
C  7.37900 47.20200 25.66700
C  6.14600 46.92200 26.43200
C  6.49000 47.15100 27.71300
C  7.82900 47.52400 27.69400
C  4.77100 46.56300 25.91300
C  5.94100 47.06600 29.07700
O  4.89300 46.61700 29.55300
C  7.21100 47.49200 29.96000
C  7.45700 46.27500 30.77400
O  7.96500 45.20400 30.37800
O  7.02400 46.51300 32.00500
C  7.00900 45.33000 32.85500
H  13.58400 49.63200 28.72900
H  12.61800 48.88400 22.33600
H  6.68600 46.93300 23.66200
H  9.64100 49.44200 31.14900
H  12.40700 49.07600 30.60100
H  12.33800 51.00500 31.40600
H  10.75600 51.52200 30.96900
H  11.95100 51.44000 29.69300
H  11.63000 47.32900 31.56100
H  10.09700 46.60100 31.11500
H  8.88200 47.55400 33.07400
H  10.29500 48.41200 33.53500
H  16.20400 50.43500 26.39200
H  16.30800 48.64900 26.84400
H  15.36500 49.84700 27.81800
H  16.92700 50.36700 23.80300
H  17.14500 48.58000 23.15700
H  17.00100 49.04200 24.83000
H  10.37300 47.58800 20.96200
H  7.78500 48.10300 21.73600
H  8.82300 50.09100 21.25300
H  9.85600 49.78900 20.10200
H  10.64700 50.39500 21.55000
H  8.64000 46.15100 20.29400
H  7.42300 45.97300 21.48700
H  9.76400 45.41000 22.91900
H  10.04400 44.71000 21.27800
H  8.62600 44.27500 22.36200
H  4.88700 45.64300 25.34000
H  4.31800 47.41300 25.40400
H  4.16000 46.25700 26.76200
H  6.91800 48.30300 30.62700
H  6.73000 45.62300 33.86800
H  8.01400 44.91200 32.90000
H  6.24000 44.63300 32.52300

