158

Mg 40.48200 9.47900 29.55200
C  42.32400 11.06500 32.12000
C  38.12700 8.41400 31.71000
C  39.06300 7.93200 26.90300
C  43.34800 10.16100 27.53700
N  40.33100 9.64300 31.61500
C  41.14500 10.41200 32.53900
C  40.41600 10.49200 33.81800
C  39.35000 9.38200 33.72200
C  39.27400 9.09200 32.24900
C  39.39400 8.07800 34.56100
C  39.88800 11.92900 34.12000
C  39.44400 12.10700 35.60000
H  40.39600 12.89000 36.53600
N  38.65200 8.52700 29.24900
C  37.83400 8.11800 30.34200
C  36.70300 7.45700 29.76100
C  36.94900 7.40200 28.38200
C  38.21900 7.93700 28.07500
C  35.59300 6.90700 30.66400
C  36.11800 6.71300 27.31100
O  36.51300 6.71100 26.14900
C  34.74800 6.10900 27.71500
N  41.19400 9.07600 27.53200
C  40.36900 8.46200 26.60500
C  40.93400 8.39000 25.17700
C  42.29600 9.24700 25.42800
C  42.29600 9.59100 26.92700
C  41.11600 6.99200 24.64500
C  42.56700 10.46900 24.42500
C  42.00700 11.92000 24.66000
N  42.54200 10.43800 29.70300
C  43.52000 10.60300 28.85600
C  44.51200 11.47000 29.31100
C  44.13900 11.63900 30.69500
C  42.91000 10.93900 30.83800
C  45.60300 12.07100 28.57100
C  44.48700 12.28400 31.94800
O  45.38000 13.06900 32.13500
C  43.28300 11.88800 32.96400
C  43.94300 11.05200 34.05700
O  44.78200 10.18300 33.82300
O  43.64100 11.59400 35.31900
C  44.04000 10.73000 36.46200
H  37.41600 8.10000 32.47700
H  38.64300 7.56600 25.96400
H  44.15800 10.47000 26.87300
H  41.06600 10.21400 34.64800
H  38.42900 9.86900 34.04100
H  40.26800 7.51200 34.24000
H  38.52800 7.44900 34.35700
H  39.36400 8.34600 35.61700
H  38.99200 12.12700 33.53100
H  40.63000 12.68900 33.87600
H  39.32900 11.13500 36.08100
H  38.45000 12.55400 35.60300
H  34.58000 7.03200 30.28100
H  35.54700 7.25700 31.69500
H  35.82100 5.84200 30.62200
H  34.09900 6.94100 27.99100
H  34.85400 5.36300 28.50200
H  34.37400 5.67300 26.78900
H  40.23500 8.99000 24.59500
H  43.15100 8.61200 25.19900
H  42.06800 6.83700 24.13500
H  40.30100 6.78000 23.95300
H  41.06000 6.23200 25.42400
H  42.29000 10.13400 23.42600
H  43.65600 10.42900 24.38500
H  41.12900 11.80800 25.29600
H  41.61400 12.36200 23.74500
H  42.77900 12.57000 25.07100
H  45.35500 12.40700 27.56500
H  46.31700 11.26100 28.42100
H  46.02700 12.97100 29.01700
H  42.78400 12.76900 33.36800
H  44.01200 9.70900 36.08300
H  43.25200 10.77000 37.21400
H  45.06200 10.93300 36.78000
Mg 53.46500 24.98300 43.92900
C  50.86700 27.19400 43.33500
C  51.34500 22.46500 42.77300
C  56.05100 22.89000 43.90000
C  55.56400 27.75400 44.10300
N  51.45600 24.87600 42.90300
C  50.53100 25.87400 42.96700
C  49.15500 25.37800 42.49300
C  49.26900 23.82200 42.51700
C  50.79700 23.74700 42.70400
C  48.48200 23.06900 43.63100
C  48.65100 25.93600 41.12600
C  49.58200 26.21300 39.95500
H  49.42000 25.49100 38.66500
N  53.64900 22.97100 43.58300
C  52.65400 22.08400 43.14600
C  53.23700 20.74400 42.91500
C  54.60200 20.75500 43.22000
C  54.84000 22.22000 43.58200
C  52.48400 19.46600 42.43900
C  55.51700 19.60700 43.23400
O  55.18700 18.45700 42.78400
C  56.88300 19.68200 43.97500
N  55.45600 25.28700 43.89400
C  56.38300 24.26900 43.91800
C  57.80200 24.89100 43.94900
C  57.60400 26.41200 43.78600
C  56.11800 26.48000 43.90800
C  58.65000 24.42300 45.17400
C  58.15300 27.03800 42.47600
C  59.01400 28.30500 42.69700
N  53.34100 27.07500 43.83200
C  54.22600 28.09700 44.10400
C  53.55900 29.39600 44.29800
C  52.20700 29.06700 44.05700
C  52.18000 27.63200 43.66700
C  54.15900 30.70300 44.52800
C  50.88800 29.59700 44.01700
O  50.47500 30.69000 44.33300
C  50.02700 28.45300 43.38100
C  49.64200 28.96700 41.97700
O  50.42300 29.18800 41.04300
O  48.31500 29.30600 41.96500
C  47.90100 30.05500 40.71300
H  50.68800 21.63000 42.51900
H  56.92500 22.23600 43.94500
H  56.21100 28.63400 44.09200
H  48.43400 25.74800 43.22200
H  48.96200 23.41100 41.55400
H  47.78200 23.73000 44.14100
H  49.14400 22.63400 44.37900
H  47.90400 22.31200 43.10000
H  48.01500 26.76900 41.42300
H  47.92200 25.21600 40.75200
H  50.47800 25.67000 40.25800
H  49.71700 27.25500 39.66700
H  53.05700 18.79800 41.79500
H  51.46600 19.59200 42.06900
H  52.49900 18.94200 43.39400
H  57.39400 18.71900 44.00900
H  56.75100 20.07500 44.98300
H  57.48000 20.34700 43.35200
H  58.30200 24.42600 43.09900
H  58.00500 26.92800 44.65800
H  58.08400 23.66200 45.71000
H  58.99600 25.30200 45.71900
H  59.49000 23.86300 44.76400
H  57.33900 27.36400 41.82900
H  58.81300 26.30700 42.00900
H  59.18300 28.46800 43.76100
H  58.57500 29.10700 42.10300
H  59.95100 28.09900 42.17900
H  53.99600 31.19900 43.57100
H  55.23300 30.75400 44.70500
H  53.64400 31.28600 45.29200
H  49.10600 28.28400 43.93900
H  46.93100 30.52700 40.87100
H  47.82100 29.32700 39.90600
H  48.55600 30.80600 40.27000

