158

Mg 43.75800 3.75800 47.50100
C  41.44500 6.39800 47.19100
C  41.18500 1.54500 47.49400
C  46.01200 1.19300 47.05700
C  46.35800 5.98700 46.71900
N  41.47500 4.00200 47.06500
C  40.79400 5.16700 47.34900
C  39.23600 4.84700 47.53000
C  39.27300 3.28200 47.63100
C  40.72300 2.87100 47.40600
C  38.62700 2.65900 48.97000
C  38.32100 5.44300 46.39400
C  38.41900 4.77100 44.96500
H  38.36400 5.88200 43.85900
N  43.69000 1.74000 47.45100
C  42.49100 0.99500 47.47300
C  42.80200 -0.37500 47.29400
C  44.17700 -0.51600 47.01100
C  44.73400 0.83900 47.19700
C  41.81700 -1.46900 47.25100
C  44.94300 -1.77300 46.62100
O  44.29100 -2.73800 46.17200
C  46.46600 -1.90400 46.56600
N  45.95700 3.58800 47.31700
C  46.62900 2.46200 47.25300
C  48.13300 2.71500 46.99200
C  48.22800 4.23400 46.70800
C  46.80400 4.65600 46.90300
C  49.01300 2.22300 48.12400
C  48.98700 4.60400 45.33300
C  50.42800 5.04000 45.52700
N  43.89000 5.78800 47.11800
C  45.02600 6.55800 46.82200
C  44.56600 7.97600 46.56100
C  43.21100 7.89100 46.73100
C  42.83700 6.59000 47.05300
C  45.46100 9.18100 46.23600
C  41.95500 8.74000 46.74100
O  41.78600 9.93700 46.65600
C  40.73700 7.73100 46.95100
C  39.91200 8.28700 48.10900
O  39.90400 7.75800 49.21800
O  39.17600 9.33700 47.72800
C  38.24900 9.81800 48.70700
H  40.35700 0.85100 47.65200
H  46.75800 0.46400 46.73300
H  47.02000 6.66600 46.17700
H  38.89500 5.17000 48.51300
H  38.62600 2.79500 46.90200
H  37.99400 1.79100 48.78600
H  37.93000 3.34500 49.45300
H  39.40300 2.26600 49.62600
H  38.26800 6.53100 46.43500
H  37.32600 5.09600 46.67200
H  37.57800 4.10500 44.77000
H  39.32700 4.18300 44.83100
H  41.96300 -2.17600 48.06700
H  42.00300 -1.93600 46.28300
H  40.77100 -1.17400 47.16700
H  46.96300 -1.48200 47.44000
H  46.98300 -1.56900 45.66700
H  46.61600 -2.98300 46.62200
H  48.44100 2.06600 46.17300
H  48.71000 4.70000 47.56800
H  49.64200 1.43200 47.71500
H  48.42900 1.77300 48.92700
H  49.60400 3.04800 48.52100
H  48.34900 5.35000 44.85900
H  49.00500 3.68500 44.74800
H  50.51400 6.00800 45.03300
H  51.07900 4.21700 45.23000
H  50.56000 5.15000 46.60300
H  44.92600 9.86300 45.57400
H  46.26300 8.79000 45.61000
H  45.85000 9.69000 47.11800
H  40.14900 7.65600 46.03700
H  38.78700 9.99200 49.63900
H  37.40000 9.18500 48.96300
H  37.91000 10.80700 48.39700
Mg 35.41500 1.35200 29.37100
C  33.51400 2.53000 32.16000
C  38.19400 1.43100 31.56300
C  37.42800 0.94600 26.86400
C  32.76200 2.01500 27.33600
N  35.76300 1.94400 31.57800
C  34.81400 2.38200 32.48000
C  35.36600 2.36700 33.90600
C  36.91600 2.21600 33.69900
C  37.00800 1.86600 32.15700
C  37.77900 3.46300 34.06400
C  34.75000 1.10400 34.67300
C  34.28600 1.29700 36.10000
H  34.63500 2.61600 36.77200
N  37.58300 1.11400 29.23600
C  38.48100 1.07000 30.24200
C  39.75500 0.66400 29.68900
C  39.59900 0.67200 28.24900
C  38.14200 0.90500 28.08400
C  40.99000 0.46800 30.53400
C  40.64600 0.43600 27.20900
O  40.42500 0.28900 25.99100
C  42.05800 0.27600 27.61200
N  35.07200 1.28300 27.43600
C  36.07800 1.16100 26.55400
C  35.57000 1.08500 25.09400
C  34.00800 1.21100 25.22600
C  33.95600 1.47400 26.76900
C  36.21600 2.16400 24.13900
C  33.13200 0.03900 24.75000
C  31.90100 0.45200 23.97200
N  33.47300 2.02200 29.62700
C  32.53100 2.25800 28.69300
C  31.30900 2.81600 29.35000
C  31.68000 2.91100 30.68900
C  33.01400 2.44500 30.84900
C  30.05900 3.30200 28.73500
C  31.15000 3.27300 31.99300
O  30.00600 3.57400 32.23600
C  32.30200 3.06200 33.02500
C  32.45800 4.40600 33.68500
O  33.23300 5.23300 33.20900
O  31.83100 4.48600 34.86400
C  31.78000 5.86000 35.31800
H  39.07100 1.33000 32.20500
H  38.08700 0.86000 25.99800
H  31.98200 2.26200 26.61300
H  35.05300 3.24100 34.47700
H  37.41200 1.40900 34.23900
H  38.47400 3.19900 34.86000
H  37.18100 4.21000 34.58500
H  38.43700 3.80100 33.26300
H  35.40000 0.22900 34.69300
H  33.91300 0.84800 34.02300
H  34.57000 0.43300 36.70100
H  33.19800 1.24600 36.15200
H  41.25200 -0.59000 30.53300
H  40.77300 0.60100 31.59400
H  41.81800 1.10000 30.21100
H  42.08300 -0.69100 28.11300
H  42.30900 1.15100 28.21200
H  42.61100 0.25000 26.67300
H  35.95200 0.14100 24.70500
H  33.56100 2.05000 24.69400
H  37.14100 1.83600 23.66400
H  36.46900 3.04900 24.72400
H  35.41800 2.44800 23.45400
H  32.96800 -0.48700 25.69000
H  33.77800 -0.66500 24.22500
H  31.72500 1.47200 24.31400
H  31.10500 -0.20200 24.32900
H  32.03900 0.42400 22.89100
H  29.25500 2.56700 28.70300
H  30.35600 3.52600 27.71100
H  29.83400 4.23700 29.24800
H  31.99500 2.33400 33.77600
H  30.96400 5.84600 36.04000
H  31.64500 6.55100 34.48500
H  32.67200 6.22800 35.82500

