158

Mg 52.65200 24.59800 44.68700
C  49.83400 26.72600 44.01000
C  50.95500 22.01500 43.03000
C  55.48900 23.00200 44.38600
C  54.41100 27.59700 45.72800
N  50.68800 24.53600 43.47100
C  49.68000 25.44300 43.43900
C  48.42300 24.87300 42.80300
C  48.73900 23.28300 42.80100
C  50.24900 23.24800 43.12700
C  47.77900 22.44500 43.69800
C  48.23300 25.55500 41.39100
C  49.02400 24.98500 40.20200
H  48.21600 24.33000 39.07600
N  53.14800 22.74600 43.92500
C  52.33000 21.74500 43.37700
C  53.02700 20.54300 43.25600
C  54.38800 20.82800 43.64500
C  54.45200 22.24300 44.01300
C  52.30300 19.12500 42.98600
C  55.48900 19.73700 43.75000
O  55.26700 18.52800 43.46400
C  56.87600 20.13200 44.31600
N  54.71600 25.23300 44.96600
C  55.66100 24.29700 44.80200
C  57.00000 24.82900 45.24600
C  56.63500 26.31800 45.75500
C  55.20900 26.44300 45.38700
C  57.72900 23.95900 46.34300
C  57.49100 27.42800 45.11000
C  58.43100 28.09200 46.16400
N  52.16900 26.69500 45.07600
C  53.01600 27.68300 45.53600
C  52.22800 28.85800 45.66800
C  50.91800 28.53400 45.15800
C  50.97300 27.21400 44.73800
C  52.68700 30.18000 46.18600
C  49.58200 29.03400 44.80000
O  49.12800 30.16800 45.00300
C  48.73300 27.83600 44.19200
C  48.04600 28.44800 42.98800
O  48.56800 29.02300 42.06000
O  46.69500 28.35000 43.26300
C  45.89600 29.00200 42.18400
H  50.31500 21.18600 42.71900
H  56.45500 22.50900 44.25600
H  54.97300 28.50200 45.96700
H  47.55100 25.08400 43.42100
H  48.62700 22.76100 41.85100
H  47.21500 23.13200 44.32800
H  48.31500 21.71100 44.29900
H  47.09400 21.89400 43.05300
H  48.48200 26.61500 41.44900
H  47.17400 25.43400 41.16500
H  49.73500 24.24900 40.57700
H  49.68900 25.76100 39.82400
H  52.27900 18.65200 43.96800
H  52.60700 18.44300 42.19100
H  51.27900 19.34300 42.68100
H  57.50800 19.24400 44.35900
H  56.73300 20.48200 45.33800
H  57.34700 20.83700 43.63100
H  57.77900 24.75500 44.48800
H  56.69900 26.33800 46.84300
H  57.07300 23.16300 46.69500
H  58.06600 24.71400 47.05300
H  58.62100 23.54300 45.87500
H  56.97600 28.16400 44.49200
H  58.12300 26.89900 44.39700
H  58.05000 29.06200 46.48400
H  59.45500 28.19400 45.80500
H  58.57000 27.34200 46.94300
H  53.23700 30.73500 45.42500
H  53.31700 30.03900 47.06500
H  51.76500 30.65500 46.51900
H  48.00300 27.60300 44.96600
H  44.85500 29.24900 42.39300
H  45.92000 28.40600 41.27200
H  46.38000 29.95100 41.95200
Mg 0.17700 43.47400 25.51700
C  2.37400 43.05500 28.22600
C  -2.51400 42.91100 27.70300
C  -2.01600 43.36100 22.98800
C  2.81900 43.92900 23.40300
N  0.03500 43.09300 27.64400
C  0.98500 43.10000 28.56900
C  0.43700 42.97700 30.00700
C  -0.99500 42.54900 29.76700
C  -1.19100 42.94000 28.30900
C  -1.31800 41.02800 30.01300
C  0.44600 44.29500 30.87500
C  -0.14100 44.22800 32.32000
H  -0.14500 42.74900 32.93300
N  -1.98300 43.07800 25.35700
C  -2.88400 42.87600 26.37900
C  -4.25500 42.78600 25.86300
C  -4.12900 42.87000 24.44600
C  -2.69300 43.09600 24.18400
C  -5.43200 42.47900 26.72100
C  -5.22100 42.75600 23.43800
O  -5.00400 43.00600 22.26600
C  -6.63500 42.41600 23.86000
N  0.37500 43.54500 23.50300
C  -0.70000 43.52200 22.66400
C  -0.12500 43.55600 21.26400
C  1.31300 43.97500 21.38200
C  1.53800 43.73500 22.83900
C  -0.36400 42.12100 20.64800
C  1.63100 45.42000 20.93900
C  1.01800 46.58800 21.71700
N  2.21300 43.44800 25.72900
C  3.20400 43.70200 24.78200
C  4.55700 43.46200 25.40300
C  4.21800 43.29400 26.76300
C  2.79300 43.36100 26.90200
C  5.89900 43.31400 24.79200
C  4.76400 42.99300 28.02800
O  5.94100 42.71300 28.37700
C  3.66100 43.04300 29.05200
C  3.65600 41.86900 29.89300
O  3.59600 40.71200 29.51900
O  3.93300 42.34500 31.15700
C  4.23700 41.27400 32.09900
H  -3.26700 42.74900 28.47700
H  -2.61800 43.23400 22.08600
H  3.64900 44.13200 22.72300
H  0.97000 42.20200 30.55800
H  -1.71600 43.20300 30.25800
H  -1.53600 40.50500 29.08200
H  -2.14700 40.89700 30.70800
H  -0.38300 40.59700 30.37200
H  -0.03100 45.10700 30.32600
H  1.44400 44.72300 30.96200
H  -1.09800 44.74400 32.39700
H  0.42500 44.85500 33.00900
H  -5.92400 43.35000 27.15400
H  -4.97200 41.90700 27.52600
H  -6.03600 41.67100 26.30700
H  -7.04400 43.01900 24.67100
H  -6.60600 41.38200 24.20500
H  -7.30000 42.52200 23.00300
H  -0.73500 44.27100 20.71300
H  1.99800 43.28000 20.89700
H  0.57500 41.57200 20.57700
H  -0.82000 42.24100 19.66500
H  -0.97800 41.59100 21.37600
H  1.27500 45.39700 19.90900
H  2.71400 45.53300 20.98800
H  1.83200 47.30900 21.78300
H  0.50900 46.39700 22.66200
H  0.35300 47.12800 21.04400
H  5.80800 42.81100 23.82900
H  6.56600 42.81800 25.49700
H  6.28200 44.31800 24.61000
H  3.70100 44.00300 29.56600
H  4.64200 41.73000 33.00200
H  4.94600 40.61200 31.60300
H  3.31000 40.74200 32.31500

