158

Mg 28.24300 56.46900 40.40200
C  25.85900 53.85900 39.53200
C  30.79400 54.38000 39.32300
C  30.28900 59.03500 40.41800
C  25.54300 58.73000 40.41800
N  28.27300 54.42500 39.25600
C  27.22300 53.52100 39.17600
C  27.67600 52.17600 38.59800
C  29.24600 52.28900 38.91400
C  29.50400 53.79400 39.18400
C  29.73800 51.39700 40.18600
C  27.32100 52.01100 37.15000
C  26.72400 53.20500 36.35500
H  26.93100 53.19900 34.87800
N  30.29300 56.61600 40.19100
C  31.12300 55.67100 39.70100
C  32.47900 56.16600 39.77300
C  32.37200 57.48900 40.24100
C  30.96300 57.76900 40.36800
C  33.66600 55.38500 39.38900
C  33.45200 58.50900 40.53600
O  34.59200 58.17200 40.26700
C  33.34300 59.80600 41.18000
N  27.95200 58.60900 40.42800
C  28.94200 59.47300 40.42300
C  28.49400 60.91100 40.61300
C  26.95600 60.81300 40.54100
C  26.78000 59.31000 40.47700
C  29.14400 61.66600 41.92400
C  26.42500 61.55000 39.22300
C  26.28800 63.04300 39.29600
N  26.25200 56.30200 40.27400
C  25.25600 57.32300 40.32000
C  23.93500 56.71300 40.27300
C  24.17100 55.35800 40.08800
C  25.56100 55.14500 40.04600
C  22.65500 57.45500 40.46200
C  23.48700 54.07100 40.09100
O  22.36700 53.72300 40.36200
C  24.58300 53.07400 39.61900
C  24.67300 52.01400 40.67000
O  24.02700 50.95500 40.67400
O  25.37100 52.49700 41.82200
C  25.63400 51.44700 42.85600
H  31.65300 53.70700 39.28400
H  30.88400 59.94200 40.28800
H  24.70400 59.42900 40.42300
H  27.21400 51.34100 39.12400
H  29.81600 52.01700 38.02600
H  30.04000 51.99000 41.05000
H  30.64600 50.84800 39.93500
H  28.97700 50.74500 40.61300
H  26.59900 51.19700 37.08100
H  28.21900 51.73200 36.59800
H  26.88600 54.17100 36.83300
H  25.64800 53.13900 36.51400
H  33.49500 54.66900 38.58600
H  34.02700 54.75400 40.20100
H  34.43500 56.10000 39.09800
H  32.42800 59.76800 41.77300
H  33.18100 60.53200 40.38300
H  34.23200 60.09500 41.74000
H  28.94600 61.47200 39.79500
H  26.44500 61.27200 41.38700
H  29.87600 62.43300 41.67000
H  29.69600 60.95300 42.53600
H  28.45500 62.05000 42.67700
H  25.47100 61.11000 38.93100
H  27.14500 61.34300 38.43200
H  26.86800 63.40200 40.14600
H  25.23500 63.31000 39.38200
H  26.77800 63.39400 38.38800
H  22.51700 57.73800 39.41800
H  22.58800 58.32800 41.11100
H  21.84800 56.78400 40.75700
H  24.18600 52.58400 38.73000
H  24.80800 50.73800 42.90600
H  25.65800 51.97600 43.80900
H  26.62000 50.99100 42.76900
Mg -6.46500 25.56600 27.37300
C  -5.14100 27.35500 29.98400
C  -8.07800 23.55200 29.57600
C  -7.66900 24.13900 24.71300
C  -4.23700 27.40500 25.22800
N  -6.38300 25.40500 29.46200
C  -5.93000 26.29500 30.37900
C  -6.39800 25.96500 31.83200
C  -6.85700 24.48000 31.69000
C  -7.14200 24.43000 30.12000
C  -5.82000 23.40000 32.07900
C  -7.33500 26.96900 32.48100
C  -7.23200 27.05600 34.04400
H  -6.75600 25.81300 34.85900
N  -7.81400 24.06100 27.17200
C  -8.43200 23.40900 28.22000
C  -9.32800 22.36300 27.64300
C  -9.24000 22.47000 26.18500
C  -8.28700 23.64900 25.91100
C  -10.24200 21.49700 28.53300
C  -9.93500 21.68400 25.09300
O  -9.60500 21.76600 23.98400
C  -10.90800 20.50900 25.44900
N  -5.89200 25.67000 25.27500
C  -6.68200 25.04100 24.40500
C  -6.21700 25.22100 22.94600
C  -5.18900 26.39400 23.13200
C  -5.10300 26.51000 24.60300
C  -5.54200 23.97700 22.29800
C  -5.65400 27.68100 22.38500
C  -5.29600 27.79900 20.90500
N  -4.92900 27.05600 27.47300
C  -4.11900 27.68300 26.57800
C  -3.34500 28.73000 27.22700
C  -3.69300 28.61800 28.58800
C  -4.66400 27.64200 28.68400
C  -2.42300 29.70200 26.47800
C  -3.55300 29.18100 29.85600
O  -2.83900 30.09700 30.23900
C  -4.42800 28.37600 30.83800
C  -3.49000 27.60700 31.73200
O  -2.72000 26.70100 31.45100
O  -3.66300 28.21600 33.00300
C  -2.83300 27.63300 34.01600
H  -8.49000 22.82600 30.27900
H  -7.95400 23.65900 23.77400
H  -3.49500 27.77900 24.51900
H  -5.55500 25.92900 32.52300
H  -7.73600 24.27800 32.30300
H  -6.36400 22.70300 32.71600
H  -5.03800 23.90100 32.65100
H  -5.43000 22.91500 31.18500
H  -8.37200 26.69600 32.28100
H  -6.98700 27.96300 32.20000
H  -8.22200 27.44600 34.27800
H  -6.56400 27.89900 34.22300
H  -11.30600 21.73400 28.53300
H  -10.01700 21.57300 29.59700
H  -10.14000 20.43400 28.31800
H  -10.21700 19.73900 25.79200
H  -11.41800 20.05600 24.59900
H  -11.58000 20.81100 26.25300
H  -7.08200 25.54300 22.36700
H  -4.20500 26.12000 22.75200
H  -4.45700 24.01400 22.39400
H  -5.80500 23.86900 21.24600
H  -5.84000 23.00500 22.69100
H  -5.37400 28.58200 22.93100
H  -6.73800 27.58900 22.32300
H  -4.88600 26.85400 20.55000
H  -4.64900 28.66600 20.77400
H  -6.19100 28.12200 20.37400
H  -2.52500 30.64500 27.01500
H  -2.82000 29.89800 25.48200
H  -1.40500 29.32400 26.38500
H  -4.95600 29.09900 31.46000
H  -2.78200 28.32500 34.85700
H  -1.77300 27.56200 33.77100
H  -3.27700 26.65200 34.18200

