158

Mg 3.03800 -2.29000 45.20700
C  6.37900 -1.66300 44.75400
C  2.22300 0.01000 42.91400
C  -0.01900 -3.48500 45.30200
C  4.06400 -4.99300 47.34400
N  4.19700 -0.93000 43.92500
C  5.54400 -0.83300 43.96200
C  5.95700 0.42400 43.06900
C  4.54500 1.07700 42.82600
C  3.61000 0.02900 43.24100
C  4.26200 2.39900 43.60200
C  6.82100 -0.04500 41.83000
C  8.18200 0.63100 41.61900
H  8.45500 1.09000 40.16800
N  1.35400 -1.86200 44.13000
C  1.21800 -0.87400 43.28200
C  -0.14800 -0.80100 42.84700
C  -0.87700 -1.75200 43.57600
C  0.18700 -2.37700 44.42700
C  -0.68100 0.25900 42.01600
C  -2.38100 -2.08800 43.46800
O  -3.02700 -1.59800 42.53300
C  -3.19200 -3.10300 44.27700
N  2.19900 -4.00400 46.14400
C  0.88100 -4.23800 46.07600
C  0.43800 -5.58300 46.69600
C  1.72500 -5.94900 47.40500
C  2.75600 -4.93900 46.97800
C  -0.89200 -5.60300 47.49200
C  2.06600 -7.47200 47.25000
C  1.95800 -8.35500 48.46100
N  4.84300 -3.17600 45.97200
C  5.13700 -4.27100 46.80700
C  6.59000 -4.43300 46.96300
C  7.09500 -3.33900 46.25700
C  5.98800 -2.69200 45.62700
C  7.31500 -5.43700 47.76500
C  8.35400 -2.66600 45.89700
O  9.46100 -2.91000 46.31500
C  7.95800 -1.50000 44.98100
C  8.11900 -0.26400 45.75400
O  7.76700 -0.11100 46.92400
O  8.69200 0.71400 44.98000
C  8.98800 1.97500 45.64600
H  2.03900 0.79600 42.17900
H  -1.01400 -3.93300 45.33000
H  4.40100 -5.87100 47.90000
H  6.46300 1.09500 43.76300
H  4.37000 1.19600 41.75700
H  5.28100 2.68700 43.86300
H  3.64800 2.13600 44.46400
H  3.79900 3.13400 42.94400
H  6.18200 0.13100 40.96400
H  6.98000 -1.11400 41.96900
H  8.99400 -0.00200 41.97600
H  8.15600 1.55500 42.19600
H  -0.69500 -0.12100 40.99400
H  -0.24000 1.25300 42.08500
H  -1.68100 0.47500 42.39300
H  -3.15600 -2.93200 45.35300
H  -2.80200 -4.09700 44.05700
H  -4.24300 -3.05900 43.99300
H  0.38900 -6.12300 45.75100
H  1.55300 -5.72400 48.45800
H  -1.42400 -6.54200 47.33900
H  -1.48200 -4.70200 47.32400
H  -0.61100 -5.64100 48.54400
H  3.07100 -7.56900 46.84000
H  1.39400 -8.07000 46.63400
H  2.84200 -8.37100 49.09900
H  1.71300 -9.35900 48.11400
H  1.18200 -7.88800 49.06700
H  8.38900 -5.27600 47.86000
H  6.96600 -6.41800 47.44200
H  6.89500 -5.35500 48.76800
H  8.52200 -1.51100 44.04900
H  8.07400 2.55500 45.76800
H  9.78800 2.41400 45.05000
H  9.47800 1.85500 46.61200
Mg 17.88600 51.49700 26.27300
C  19.55200 49.97600 28.71400
C  15.38800 52.45100 28.50000
C  15.92300 52.43200 23.72200
C  20.10100 50.10400 23.89700
N  17.52200 51.17300 28.38400
C  18.38800 50.61800 29.24400
C  18.00100 50.79300 30.70100
C  16.50400 51.37100 30.51900
C  16.47300 51.68700 29.04700
C  15.32400 50.34000 30.88500
C  18.94600 51.81800 31.52000
C  18.32600 52.48800 32.81900
H  17.48300 51.61300 33.68200
N  16.04400 52.42800 26.10600
C  15.24100 52.80400 27.17600
C  14.05500 53.51000 26.70700
C  14.15100 53.44500 25.29100
C  15.38200 52.82200 24.98300
C  13.26600 54.41000 27.62100
C  13.12200 53.97300 24.25600
O  13.39700 54.26900 23.07900
C  11.79400 54.47200 24.74000
N  18.02000 51.38500 23.98400
C  17.01000 51.72000 23.23700
C  17.25800 51.31500 21.76900
C  18.71000 50.83700 21.79200
C  19.02300 50.86800 23.28700
C  16.24500 50.33700 21.14300
C  19.78100 51.72100 21.01700
C  19.77500 53.25100 21.29600
N  19.46100 50.24500 26.27000
C  20.34800 49.87200 25.27300
C  21.50000 49.15600 25.79500
C  21.30000 49.18500 27.22400
C  20.03400 49.82500 27.42300
C  22.58800 48.59300 24.90400
C  21.75600 48.76800 28.59100
O  22.68100 48.07100 29.02800
C  20.65500 49.40500 29.55500
C  20.17700 48.27300 30.41200
O  19.80100 47.16200 30.03600
O  20.12900 48.70500 31.71600
C  19.57100 47.73200 32.66600
H  14.57900 52.66200 29.20200
H  15.28200 52.72400 22.88800
H  20.78600 49.64200 23.18300
H  17.99900 49.82200 31.19600
H  16.35900 52.27500 31.11000
H  15.01500 50.50300 31.91700
H  15.70400 49.31900 30.93300
H  14.47700 50.31700 30.19900
H  19.30100 52.58700 30.83400
H  19.81500 51.27700 31.89600
H  17.74300 53.31100 32.40500
H  19.15300 52.86700 33.42000
H  13.83400 54.66700 28.51500
H  12.27500 54.00500 27.82500
H  13.06000 55.32700 27.07000
H  11.56500 54.00900 25.69900
H  11.08000 54.02700 24.04600
H  11.85200 55.55700 24.65400
H  17.11700 52.24100 21.21200
H  18.82300 49.85100 21.34000
H  15.59600 50.16200 22.00100
H  16.61400 49.34000 20.90000
H  15.79300 50.88600 20.31700
H  19.57600 51.66100 19.94800
H  20.71700 51.22600 21.27400
H  20.75200 53.65900 21.55800
H  19.08700 53.26300 22.14100
H  19.45000 53.81800 20.42400
H  23.31100 48.20900 25.62400
H  22.98200 49.37100 24.25000
H  22.24100 47.72700 24.34100
H  21.16000 50.12400 30.20000
H  19.87100 46.70800 32.44500
H  18.49800 47.92000 32.62700
H  20.00600 47.95600 33.64000

