158

Mg 17.02100 -1.86100 28.42500
C  16.13900 0.05000 31.16100
C  19.08900 -3.80500 30.51700
C  18.25500 -3.52700 25.74100
C  15.22800 0.17900 26.44900
N  17.52200 -1.85000 30.68100
C  16.99100 -1.00900 31.61200
C  17.48200 -1.38100 33.00000
C  18.59900 -2.51400 32.71700
C  18.38700 -2.74800 31.18900
C  20.00600 -2.11400 33.12200
C  16.30800 -1.82500 33.83500
C  16.38800 -1.73000 35.38400
H  17.77800 -1.84500 36.09500
N  18.27200 -3.58300 28.18500
C  19.10300 -4.13500 29.21600
C  19.89400 -5.16100 28.63200
C  19.61500 -5.22400 27.21300
C  18.69800 -4.08800 26.99600
C  20.76900 -6.05700 29.42100
C  20.20900 -6.05300 26.08900
O  19.91200 -5.86300 24.90100
C  21.12200 -7.16600 26.46400
N  16.90200 -1.63200 26.47200
C  17.38600 -2.48600 25.53100
C  17.17700 -1.87400 24.15300
C  16.00600 -0.84900 24.42500
C  16.01500 -0.78700 25.86900
C  18.47600 -1.33800 23.45000
C  14.56300 -1.13800 23.75600
C  14.28800 -0.11200 22.64700
N  15.92800 -0.18000 28.73200
C  15.21600 0.52600 27.77300
C  14.48500 1.53300 28.43800
C  14.77900 1.37000 29.80100
C  15.70500 0.31000 29.86500
C  13.72800 2.57600 27.71800
C  14.62700 1.96000 31.09600
O  13.88900 2.81600 31.52400
C  15.56600 1.16200 32.05200
C  16.57100 1.97400 32.66700
O  17.50400 2.49400 32.12900
O  16.40000 1.92200 34.04200
C  17.35100 2.59800 34.93300
H  19.74500 -4.25100 31.26700
H  18.64300 -4.05000 24.86400
H  14.51500 0.70800 25.81300
H  17.89900 -0.51100 33.50700
H  18.41000 -3.40600 33.31400
H  20.31000 -2.70100 33.98900
H  20.12600 -1.07100 33.41400
H  20.68000 -2.37800 32.30700
H  16.13300 -2.86800 33.57200
H  15.46600 -1.31300 33.37000
H  15.77200 -2.51700 35.81900
H  15.87100 -0.81700 35.68100
H  21.07900 -5.54100 30.33000
H  21.72200 -6.29100 28.94800
H  20.28700 -6.98300 29.73500
H  22.06300 -6.79900 26.87300
H  21.41600 -7.80000 25.62800
H  20.69200 -7.80000 27.23900
H  16.84600 -2.68600 23.50600
H  16.40200 0.09200 24.04100
H  19.35400 -1.39700 24.09300
H  18.29500 -0.27900 23.26500
H  18.70500 -1.90000 22.54500
H  13.68500 -1.15500 24.40200
H  14.60400 -2.15100 23.35400
H  14.96100 -0.33200 21.81900
H  14.45400 0.92400 22.94500
H  13.24900 -0.24400 22.34700
H  12.98000 2.04100 27.13200
H  14.27600 3.24000 27.05100
H  13.28100 3.08500 28.57200
H  14.89400 0.72400 32.79000
H  16.71600 2.89500 35.76800
H  17.79300 3.41100 34.35600
H  18.12900 1.90000 35.24100
Mg 40.43600 8.87600 28.90200
C  42.33100 10.01700 31.70100
C  38.62600 7.12100 31.22600
C  38.91700 7.44200 26.43400
C  42.97800 9.97100 26.81900
N  40.51500 8.58500 31.17100
C  41.29700 9.23600 32.13000
C  40.90100 8.93000 33.56800
C  39.85100 7.75300 33.31000
C  39.68400 7.77800 31.82800
C  40.36600 6.39500 33.82600
C  40.29900 10.14000 34.22600
C  39.58600 9.90600 35.55600
H  39.97900 10.70700 36.71300
N  38.84200 7.55900 28.77900
C  38.22600 6.95700 29.85900
C  37.07500 6.22400 29.38700
C  37.08100 6.44000 27.92400
C  38.28700 7.21400 27.68300
C  36.05800 5.49400 30.21200
C  36.07000 6.02600 26.91300
O  36.08700 6.44800 25.76500
C  35.05100 5.07000 27.34000
N  40.90500 8.65200 26.92700
C  40.16200 8.00500 26.11200
C  40.62300 8.11300 24.59600
C  41.82500 9.01700 24.69800
C  41.92600 9.25600 26.24400
C  40.87600 6.68400 23.93900
C  41.70100 10.38600 23.88100
C  41.03600 11.70300 24.54000
N  42.26100 9.77100 29.13800
C  43.15100 10.16300 28.19000
C  44.27400 10.87900 28.82700
C  43.95600 10.92900 30.20900
C  42.81100 10.13700 30.35800
C  45.43000 11.56000 28.17300
C  44.30600 11.42800 31.54800
O  45.28400 12.05400 31.85700
C  43.29000 10.81400 32.58300
C  44.01400 10.09900 33.53000
O  44.66100 9.08000 33.31600
O  43.92500 10.70400 34.74700
C  44.34600 9.88900 35.89000
H  38.05700 6.56800 31.97500
H  38.44600 6.94600 25.58300
H  43.71600 10.41900 26.15100
H  41.74200 8.63000 34.19300
H  38.92200 7.89700 33.86200
H  40.80100 5.73400 33.07600
H  39.59500 5.88000 34.39900
H  41.13800 6.51800 34.58500
H  39.65700 10.68100 33.53100
H  41.13700 10.81600 34.39400
H  39.71600 8.85800 35.82900
H  38.53300 10.14200 35.40400
H  35.04900 5.75600 29.89300
H  36.10300 5.87000 31.23500
H  36.20100 4.41400 30.18500
H  34.31500 5.42700 28.06000
H  35.52800 4.19600 27.78400
H  34.67900 4.74200 26.36900
H  39.84500 8.54900 23.96900
H  42.76600 8.63500 24.30300
H  40.89900 5.85200 24.64300
H  41.75300 6.78500 23.30100
H  40.02200 6.46600 23.29700
H  41.18000 10.12100 22.96200
H  42.71900 10.65800 23.60100
H  40.52400 11.47400 25.47400
H  40.29000 12.05200 23.82600
H  41.73700 12.53800 24.58000
H  46.33600 11.06600 28.52500
H  45.53400 12.63100 28.35000
H  45.31900 11.46600 27.09300
H  42.61100 11.55700 33.00200
H  43.57500 9.73300 36.64400
H  45.12500 10.48600 36.36400
H  44.82700 8.92600 35.72100

