158

Mg 47.25600 25.85900 28.37100
C  48.29500 27.99000 30.84700
C  46.42600 23.45900 30.78500
C  46.62600 23.64300 25.91400
C  48.48600 28.16400 25.99600
N  47.54300 25.75900 30.50900
C  47.73400 26.80300 31.40300
C  47.68900 26.42200 32.82600
C  47.31900 24.87400 32.69100
C  47.07700 24.64100 31.20600
C  48.27000 23.81000 33.35000
C  46.62700 27.25200 33.66300
C  47.29800 28.04100 34.76900
H  46.50100 28.17100 36.09700
N  46.62700 23.77900 28.33300
C  46.29700 23.02300 29.46400
C  45.78300 21.68600 28.94700
C  45.79500 21.71500 27.52500
C  46.32900 23.06300 27.21100
C  45.09300 20.66200 29.97600
C  45.35400 20.66500 26.50500
O  45.45400 20.81700 25.27700
C  44.85200 19.39000 27.08400
N  47.53100 25.91200 26.22700
C  47.12700 24.89200 25.43300
C  47.33800 25.23900 23.89600
C  47.92600 26.68600 23.94200
C  47.92300 26.95600 25.44900
C  48.31400 24.20700 23.25300
C  47.02500 27.76100 23.22100
C  47.60000 29.16900 22.88500
N  48.12000 27.69800 28.34500
C  48.61400 28.50000 27.33300
C  49.16300 29.71500 27.90200
C  49.12400 29.53800 29.23900
C  48.41600 28.30100 29.48000
C  49.58200 30.98000 27.21200
C  49.22700 30.25600 30.50700
O  49.54800 31.42500 30.66400
C  48.78600 29.26600 31.62400
C  49.94500 28.91100 32.41800
O  50.75500 27.98400 32.26500
O  49.98900 29.73700 33.52400
C  50.93800 29.38900 34.59500
H  46.00100 22.80600 31.55000
H  46.38900 22.92300 25.12800
H  48.64300 29.02500 25.34400
H  48.72400 26.63100 33.09600
H  46.38300 24.66100 33.20700
H  49.12200 24.35000 33.76300
H  48.66800 23.19800 32.54100
H  47.80600 23.17700 34.10700
H  45.87500 26.68800 34.21500
H  46.06400 28.01700 33.12800
H  47.47700 29.07000 34.45600
H  48.25700 27.57000 34.98500
H  44.00800 20.70100 29.88000
H  45.26000 20.94700 31.01500
H  45.52300 19.66400 29.88400
H  45.52500 18.80300 27.70900
H  44.47400 18.81100 26.24200
H  43.98700 19.78800 27.61600
H  46.34600 25.18900 23.44500
H  48.95800 26.70400 23.59300
H  48.47400 23.37500 23.93800
H  49.24100 24.71500 22.98800
H  47.82200 23.94600 22.31600
H  46.06200 27.84200 23.72600
H  46.85000 27.30900 22.24500
H  48.66300 28.92900 22.88000
H  47.25900 29.81700 23.69200
H  47.30900 29.51600 21.89400
H  50.62500 30.82500 26.93800
H  49.44300 31.84400 27.86100
H  49.05400 31.09900 26.26600
H  47.99000 29.52300 32.32300
H  51.91600 29.54400 34.13900
H  50.80600 28.39400 35.01900
H  50.86600 30.10600 35.41200
Mg -5.83100 25.29400 26.14600
C  -4.36400 26.65100 28.99000
C  -7.53900 23.14500 28.20200
C  -6.92800 23.82300 23.41900
C  -3.56500 27.24000 24.22300
N  -5.89800 24.94900 28.33100
C  -5.30900 25.67400 29.31700
C  -5.68400 25.19200 30.69800
C  -6.43900 23.83700 30.42400
C  -6.65600 23.95800 28.87100
C  -5.58000 22.55200 30.79700
C  -6.45200 26.31300 31.43700
C  -6.17000 26.67400 32.91100
H  -5.35500 25.57000 33.81600
N  -7.19500 23.80200 25.81200
C  -7.83300 23.08100 26.76100
C  -8.80600 22.19000 26.14800
C  -8.55700 22.33000 24.76400
C  -7.52000 23.35500 24.60400
C  -9.90400 21.45600 27.02800
C  -9.18600 21.49000 23.64800
O  -8.96500 21.73900 22.45000
C  -9.99100 20.27400 23.99500
N  -5.29300 25.51400 24.06100
C  -5.91900 24.75600 23.13500
C  -5.29500 24.97800 21.70700
C  -4.26000 26.11800 21.97600
C  -4.36600 26.32400 23.51000
C  -4.76000 23.71800 20.89800
C  -4.45600 27.39100 21.20400
C  -3.32900 27.76600 20.16700
N  -4.19000 26.47800 26.46800
C  -3.42000 27.26600 25.58500
C  -2.60000 28.17800 26.33800
C  -2.91900 27.96700 27.70400
C  -3.87700 26.88700 27.69200
C  -1.62700 29.08800 25.83400
C  -2.65200 28.43000 29.04000
O  -1.87100 29.30400 29.46500
C  -3.53000 27.52200 29.96000
C  -2.60900 26.58500 30.67100
O  -2.24400 25.52500 30.27400
O  -2.48800 27.01200 31.96900
C  -1.53000 26.10000 32.69800
H  -8.04700 22.42600 28.84800
H  -7.25900 23.38800 22.47300
H  -2.90800 27.94800 23.71200
H  -4.79700 24.93800 31.27800
H  -7.41800 23.73000 30.89200
H  -6.22700 22.09500 31.54600
H  -4.56700 22.79200 31.11900
H  -5.58300 21.94900 29.88900
H  -7.52900 26.15600 31.38000
H  -6.30500 27.19300 30.81200
H  -7.13500 26.77100 33.41000
H  -5.69800 27.64600 33.05200
H  -9.67700 20.39300 27.10900
H  -10.89700 21.54800 26.58700
H  -10.04500 21.78500 28.05800
H  -9.59100 19.70000 24.83100
H  -10.03600 19.64300 23.10800
H  -11.03800 20.54400 24.13900
H  -6.04700 25.49000 21.10600
H  -3.32400 25.57200 21.85700
H  -5.41600 23.60100 20.03600
H  -4.84000 22.79200 21.46700
H  -3.77100 23.67700 20.44100
H  -4.42500 28.22400 21.90600
H  -5.37100 27.32600 20.61600
H  -2.54500 27.00800 20.17400
H  -2.91400 28.71300 20.51100
H  -3.67200 28.02600 19.16500
H  -1.53800 29.84900 26.60900
H  -1.95500 29.44400 24.85700
H  -0.75200 28.47700 25.60900
H  -4.33500 28.01700 30.50400
H  -0.68100 25.99600 32.02200
H  -1.89500 25.07900 32.79900
H  -1.22400 26.54800 33.64300

