158

Mg 3.01000 -0.62000 43.66400
C  5.92200 1.38600 43.46500
C  1.30400 2.03000 42.16900
C  0.28700 -2.54100 43.67700
C  5.00700 -3.17100 44.98300
N  3.56300 1.42100 42.85400
C  4.79300 2.13100 43.07300
C  4.65900 3.63000 42.61400
C  3.13900 3.79100 42.48300
C  2.63000 2.32600 42.48800
C  2.46800 4.57900 43.57200
C  5.36500 4.06900 41.30500
C  5.26800 3.17000 40.08600
H  5.28000 3.87700 38.71900
N  1.03700 -0.29400 43.00100
C  0.58200 0.76800 42.32100
C  -0.76300 0.54300 41.95500
C  -1.21700 -0.65600 42.53500
C  0.02900 -1.20500 43.11900
C  -1.55200 1.56700 41.08200
C  -2.56700 -1.30900 42.40300
O  -3.54600 -0.68500 41.95200
C  -2.78500 -2.63200 42.97500
N  2.73500 -2.55000 44.23000
C  1.47900 -3.13800 44.13500
C  1.49200 -4.60100 44.66500
C  2.95100 -4.74100 45.16000
C  3.59900 -3.41000 44.76300
C  0.38200 -4.93000 45.67200
C  3.82100 -6.02300 44.58800
C  4.23600 -6.98200 45.62900
N  5.07700 -1.00900 43.95100
C  5.71400 -2.04000 44.63200
C  7.15500 -1.72900 44.84500
C  7.27400 -0.42300 44.30600
C  5.96300 -0.02300 43.82500
C  8.18100 -2.58900 45.48500
C  8.16400 0.71200 44.00500
O  9.34000 0.88300 44.26000
C  7.34500 1.84700 43.42300
C  7.48200 2.98800 44.26300
O  7.76300 4.14300 43.93200
O  7.22200 2.65800 45.61700
C  7.37100 3.69600 46.61300
H  0.85100 2.85100 41.60900
H  -0.50300 -3.29500 43.72100
H  5.49900 -4.03600 45.43200
H  5.16200 4.14200 43.43500
H  2.85600 4.35200 41.59300
H  2.21600 3.94500 44.42200
H  1.53700 4.92500 43.12400
H  3.14900 5.40000 43.80100
H  6.38700 4.35700 41.55100
H  4.89400 4.99000 40.96200
H  4.30800 2.66900 40.20800
H  6.12000 2.49100 40.09000
H  -2.11100 0.95800 40.37200
H  -0.94200 2.22800 40.46700
H  -2.28500 2.16300 41.62600
H  -3.79300 -3.03600 42.87600
H  -2.49000 -2.78100 44.01300
H  -2.22400 -3.35000 42.37700
H  1.38400 -5.33300 43.86500
H  2.97900 -4.75100 46.25000
H  0.73400 -5.04900 46.69700
H  0.13700 -5.90900 45.26200
H  -0.45100 -4.22800 45.63600
H  4.70900 -5.65700 44.07100
H  3.16900 -6.49300 43.85200
H  4.07200 -6.59500 46.63500
H  5.29000 -7.09100 45.37300
H  3.88400 -7.99900 45.45400
H  9.00600 -1.99000 45.86800
H  8.66900 -3.39600 44.93800
H  7.67000 -3.02700 46.34200
H  7.59900 2.05500 42.38400
H  8.03300 4.46400 46.21300
H  7.78800 3.36700 47.56500
H  6.41900 4.21800 46.70300
Mg 0.59200 42.72600 26.10100
C  2.87000 42.69500 28.77100
C  -1.80400 41.61700 28.26200
C  -1.31500 42.04100 23.52100
C  3.42800 43.02200 23.90800
N  0.60000 42.08600 28.27900
C  1.56500 42.32200 29.16400
C  0.98800 42.29700 30.59500
C  -0.52900 41.90700 30.43700
C  -0.54800 41.82400 28.87700
C  -0.88000 40.50300 31.17000
C  1.15600 43.69500 31.41600
C  1.58900 43.64000 32.89800
H  1.29600 42.34300 33.66100
N  -1.39100 42.04900 25.96600
C  -2.22900 41.70300 26.93400
C  -3.43200 41.19500 26.40800
C  -3.29200 41.28700 24.98400
C  -1.97900 41.78100 24.74700
C  -4.64400 40.72300 27.17900
C  -4.34100 40.92100 23.86500
O  -3.97900 41.15200 22.68000
C  -5.73900 40.32900 24.24000
N  0.99100 42.79800 23.97700
C  0.02100 42.38400 23.18800
C  0.45900 42.36400 21.69600
C  1.90900 42.83200 21.73200
C  2.16300 42.85700 23.25200
C  0.29700 40.89500 21.08500
C  2.20200 44.07900 20.90300
C  2.15600 45.37900 21.63200
N  2.69600 42.95400 26.28100
C  3.70600 43.09900 25.29600
C  4.95100 43.32300 25.92600
C  4.71100 43.17800 27.38100
C  3.33900 42.95000 27.44900
C  6.22800 43.72000 25.30300
C  5.27100 43.15800 28.67800
O  6.40900 43.37300 29.10800
C  4.16200 42.84500 29.64800
C  4.61500 41.61900 30.34500
O  4.38500 40.49500 29.90000
O  5.19100 41.88400 31.55900
C  5.48600 40.83500 32.49000
H  -2.66600 41.45300 28.91100
H  -1.87900 41.81400 22.61400
H  4.23100 43.29500 23.22000
H  1.49800 41.44300 31.04200
H  -1.29900 42.63500 30.69200
H  -1.91500 40.66100 31.47200
H  -0.25500 40.34600 32.05000
H  -0.84000 39.71200 30.42100
H  0.18900 44.18200 31.29200
H  1.75300 44.42200 30.86400
H  0.85700 44.37000 33.24400
H  2.57100 44.02800 33.16800
H  -5.48300 41.41500 27.10700
H  -4.52300 40.64100 28.25900
H  -4.94000 39.77000 26.73800
H  -6.11200 40.79200 25.15400
H  -5.70700 39.29500 24.58200
H  -6.40700 40.54100 23.40600
H  -0.22700 43.04000 21.18600
H  2.58100 42.09200 21.29700
H  1.20700 40.29700 21.13800
H  0.15000 41.14800 20.03500
H  -0.50600 40.33600 21.56600
H  1.70500 44.04100 19.93400
H  3.27000 44.01900 20.69300
H  3.08100 45.69800 22.11400
H  1.29300 45.39500 22.29700
H  1.87600 46.13400 20.89700
H  7.06700 43.05900 25.52000
H  6.43100 44.66100 25.81500
H  6.10800 43.91200 24.23700
H  4.11200 43.60600 30.42600
H  6.56900 40.73300 32.56000
H  5.01600 39.91000 32.15400
H  5.08200 41.18900 33.43900

