158

Mg 47.64900 24.59500 28.14400
C  48.77500 26.63300 30.83900
C  46.97400 22.21100 30.67300
C  46.60100 22.67100 25.75800
C  48.76500 26.93500 25.95200
N  47.89000 24.41000 30.54100
C  48.20000 25.42000 31.37700
C  48.04700 25.02700 32.83200
C  47.70900 23.54200 32.69400
C  47.46800 23.37600 31.22300
C  48.88200 22.56800 33.14300
C  46.94700 25.95600 33.56100
C  47.25600 26.90700 34.70700
H  46.37000 26.83400 35.89400
N  46.68500 22.74700 28.20800
C  46.61200 21.89800 29.29200
C  45.92900 20.67400 28.82500
C  45.73000 20.80700 27.40100
C  46.35100 22.12300 27.05000
C  45.56200 19.59300 29.90600
C  45.06900 19.87900 26.37200
O  44.90900 20.23800 25.21800
C  44.38800 18.68000 26.90300
N  47.63200 24.78300 26.09600
C  47.16600 23.84700 25.31200
C  47.33200 24.22800 23.80600
C  47.96500 25.63600 23.90800
C  48.13100 25.85000 25.42600
C  48.14200 23.19500 22.99100
C  47.30800 26.87400 23.20100
C  48.17900 27.88700 22.57000
N  48.64200 26.31200 28.32200
C  49.00200 27.24300 27.35300
C  49.52600 28.43300 27.84100
C  49.46800 28.17500 29.26400
C  48.87700 26.89800 29.47000
C  50.08500 29.62500 27.13600
C  49.83800 28.81400 30.44500
O  50.53300 29.78100 30.65900
C  49.28300 27.86100 31.58500
C  50.35500 27.66200 32.64900
O  51.04900 26.64800 32.68900
O  50.44200 28.76000 33.47700
C  51.22000 28.58900 34.71400
H  46.68600 21.60100 31.53200
H  46.19900 22.05400 24.95200
H  49.34800 27.57100 25.28200
H  49.01900 25.19900 33.29500
H  46.79600 23.22400 33.19600
H  48.48700 21.61400 33.49400
H  49.46300 23.10300 33.89300
H  49.66800 22.37600 32.41200
H  46.22900 25.24300 33.96600
H  46.52000 26.52600 32.73600
H  47.08700 27.94100 34.40900
H  48.26400 26.81800 35.11300
H  45.15600 18.66000 29.51700
H  44.84100 19.95600 30.63900
H  46.48400 19.41200 30.45800
H  45.18900 18.07300 27.32500
H  43.92400 18.22000 26.03000
H  43.63600 18.91600 27.65600
H  46.35000 24.32600 23.34400
H  49.01600 25.61200 23.61900
H  48.31100 22.32000 23.61900
H  49.12900 23.40400 22.58000
H  47.58500 22.95800 22.08400
H  46.63300 27.37500 23.89500
H  46.65300 26.34600 22.50800
H  47.68900 28.06700 21.61300
H  49.13200 27.45300 22.26800
H  48.39600 28.79900 23.12600
H  50.37600 30.33100 27.91400
H  49.24400 29.94900 26.52200
H  50.89100 29.32900 26.46400
H  48.43500 28.41300 31.99300
H  51.22300 29.54000 35.24700
H  52.23500 28.19200 34.69200
H  50.52900 28.01600 35.33300
Mg -1.46200 35.21300 26.80500
C  -3.24500 33.41200 29.25500
C  -0.33300 37.26000 29.46900
C  0.07600 37.11700 24.65600
C  -2.76000 33.19000 24.44900
N  -1.89100 35.43900 29.14600
C  -2.45600 34.45200 29.89200
C  -2.25600 34.71800 31.43200
C  -1.42600 35.98600 31.39000
C  -1.19000 36.28500 29.91800
C  -2.10300 37.08800 32.27300
C  -1.67200 33.59300 32.26600
C  -2.52700 33.03000 33.45900
H  -1.80700 33.01900 34.83600
N  -0.27300 36.94500 27.00200
C  0.11700 37.55900 28.14800
C  0.98600 38.60700 27.84700
C  1.20500 38.53400 26.44100
C  0.32700 37.48100 25.94000
C  1.59000 39.61300 28.84800
C  2.16000 39.33700 25.56900
O  2.23900 39.09000 24.37900
C  3.07700 40.34600 26.18800
N  -1.53400 35.20200 24.75900
C  -0.71800 36.18700 24.10900
C  -0.83200 35.91300 22.62800
C  -1.66200 34.52200 22.51400
C  -2.00300 34.24500 23.96200
C  -1.56800 37.03300 21.86800
C  -0.86500 33.44100 21.76300
C  0.35900 32.83400 22.53800
N  -2.87200 33.72200 26.79300
C  -3.25800 32.99500 25.72100
C  -3.92400 31.83400 26.16100
C  -4.04700 31.95600 27.58400
C  -3.35000 33.14600 27.89500
C  -4.28000 30.69200 25.23400
C  -4.46900 31.31800 28.84200
O  -5.09400 30.28500 29.06800
C  -3.94000 32.26100 29.94500
C  -5.04000 32.81300 30.70500
O  -5.85500 33.66900 30.32000
O  -5.16500 32.24900 31.90600
C  -6.25700 32.58400 32.78300
H  0.11100 37.79800 30.30900
H  0.32000 37.87000 23.90400
H  -2.91100 32.40100 23.70900
H  -3.28700 34.82100 31.77000
H  -0.41100 35.81100 31.74800
H  -1.34900 37.42200 32.98700
H  -2.99900 36.76900 32.80500
H  -2.35400 37.84100 31.52600
H  -0.67900 33.84800 32.63800
H  -1.39200 32.81400 31.55800
H  -2.79700 32.01300 33.17400
H  -3.40000 33.66100 33.62900
H  1.19900 39.42300 29.84800
H  1.44900 40.66900 28.61600
H  2.66400 39.45700 28.94600
H  3.67200 39.85300 26.95600
H  2.45600 41.13300 26.61500
H  3.75100 40.78500 25.45200
H  0.19200 35.78300 22.27900
H  -2.57700 34.61700 21.93000
H  -1.81100 37.93500 22.43000
H  -2.47100 36.67600 21.37200
H  -0.95800 37.34600 21.02000
H  -0.56200 33.77200 20.77000
H  -1.55900 32.60000 21.78900
H  -0.06100 31.83700 22.67000
H  0.41500 33.39800 23.46900
H  1.33800 32.75300 22.06500
H  -4.33300 29.82100 25.88700
H  -3.49400 30.50400 24.50300
H  -5.17500 30.78800 24.61800
H  -3.22900 31.69400 30.54500
H  -6.11400 32.20900 33.79700
H  -7.20900 32.15700 32.46700
H  -6.24800 33.66300 32.93900

