158

Mg 43.99600 3.20900 48.24500
C  41.58900 5.54100 47.22200
C  41.47700 0.75000 48.04100
C  46.31000 0.92000 48.34500
C  46.44900 5.82300 47.76500
N  41.86900 3.14800 47.47400
C  41.06200 4.21400 47.19300
C  39.59700 3.86500 46.93100
C  39.56500 2.42100 47.55500
C  41.14400 2.04200 47.59800
C  38.80200 2.37300 48.95000
C  39.14000 3.89100 45.41800
C  38.06400 4.93000 45.10200
H  38.51500 5.91500 43.98300
N  43.89900 1.06100 48.24100
C  42.80500 0.29900 48.20900
C  43.22800 -1.09500 48.50100
C  44.65600 -1.15700 48.50700
C  45.07600 0.31800 48.39900
C  42.21800 -2.21800 48.71700
C  45.54000 -2.39400 48.76200
O  45.09200 -3.51600 48.89600
C  47.09200 -2.22800 48.92500
N  46.11600 3.41900 48.08900
C  46.84400 2.23000 48.17900
C  48.37900 2.59000 48.37100
C  48.32100 4.15200 48.49600
C  46.88500 4.49900 47.97700
C  49.05400 1.91800 49.56400
C  49.47000 4.84400 47.68300
C  50.29700 5.98100 48.34500
N  44.06900 5.26600 47.62500
C  45.11300 6.22800 47.60000
C  44.51900 7.45300 47.23300
C  43.18500 7.29900 47.16600
C  42.90500 5.91300 47.39000
C  45.22100 8.80500 47.29000
C  41.92800 7.98800 47.08000
O  41.66800 9.19100 47.02200
C  40.78900 6.84700 46.99000
C  39.79600 7.06200 48.01400
O  39.91900 6.57100 49.12700
O  38.75500 7.81700 47.60400
C  37.73600 8.25000 48.57600
H  40.66400 0.02000 48.06400
H  47.12400 0.21300 48.51500
H  47.22600 6.58400 47.85600
H  39.01300 4.57400 47.51800
H  39.00600 1.71900 46.93600
H  38.32600 3.23800 49.41300
H  39.55200 2.01200 49.65400
H  38.05100 1.62300 48.70600
H  38.77300 2.91900 45.08600
H  39.96300 4.21500 44.78200
H  37.62500 5.46800 45.94100
H  37.19500 4.39300 44.72100
H  41.33300 -1.92300 49.28000
H  42.56200 -3.16800 49.12600
H  41.98500 -2.62600 47.73300
H  47.52700 -1.77000 48.03700
H  47.46200 -3.25100 49.00100
H  47.30500 -1.66800 49.83500
H  48.89500 2.24100 47.47700
H  48.34300 4.33100 49.57100
H  48.19200 1.71700 50.20000
H  49.69800 2.52400 50.20100
H  49.59200 1.01000 49.29300
H  49.02000 5.11100 46.72700
H  50.17100 4.02300 47.53000
H  51.32100 5.77700 48.03600
H  50.41800 6.03600 49.42700
H  49.97700 6.95300 47.97000
H  44.39400 9.43800 46.96900
H  46.08200 8.80900 46.62100
H  45.62500 8.98700 48.28600
H  40.44700 6.80300 45.95600
H  37.88800 7.81700 49.56400
H  36.72400 8.08300 48.20600
H  37.84900 9.33100 48.50800
Mg -8.63800 40.59300 42.52300
C  -7.65700 37.20000 41.82300
C  -5.83300 41.60900 40.66500
C  -9.85100 43.75500 42.70800
C  -11.77600 39.34900 43.53800
N  -7.03200 39.49400 41.40100
C  -6.73100 38.12800 41.32500
C  -5.36000 37.86800 40.67000
C  -4.73400 39.29400 40.60200
C  -5.91400 40.21200 40.89500
C  -3.59100 39.48700 41.58200
C  -5.45200 37.21700 39.29700
C  -4.69700 35.89000 38.93900
H  -4.05800 35.95500 37.56900
N  -7.92100 42.51400 41.83400
C  -6.74600 42.68200 41.14000
C  -6.53100 44.14800 41.11600
C  -7.64100 44.74400 41.76000
C  -8.51800 43.72000 42.07500
C  -5.31500 44.75300 40.50000
C  -7.76000 46.28700 41.95900
O  -6.93100 47.01800 41.48800
C  -8.89000 46.90500 42.77700
N  -10.54300 41.46100 43.09900
C  -10.76400 42.80100 43.13800
C  -12.22500 43.10100 43.50800
C  -12.81000 41.71400 43.77500
C  -11.65500 40.76800 43.41400
C  -12.37900 44.13000 44.67600
C  -14.08900 41.36300 42.85800
C  -15.24400 40.64600 43.65700
N  -9.50200 38.72700 42.88100
C  -10.78900 38.34900 43.21100
C  -10.82900 36.95200 43.28600
C  -9.64400 36.46000 42.71500
C  -8.82100 37.56900 42.51600
C  -11.93900 36.14700 43.82400
C  -8.98800 35.22300 42.46000
O  -9.38600 34.10200 42.67400
C  -7.64300 35.69300 41.77700
C  -6.43400 35.19800 42.47300
O  -6.05300 35.51000 43.60200
O  -5.80400 34.23000 41.68600
C  -4.55100 33.59700 42.20800
H  -4.93200 41.84300 40.09400
H  -10.19300 44.78000 42.86700
H  -12.75800 38.96300 43.81800
H  -4.91900 37.19300 41.40400
H  -4.25300 39.60200 39.67400
H  -3.69300 40.34000 42.25300
H  -2.72500 39.82700 41.01300
H  -3.22000 38.56600 42.03100
H  -5.21600 38.03700 38.61900
H  -6.49900 36.92900 39.19400
H  -5.50000 35.15700 39.02400
H  -3.90100 35.69700 39.65800
H  -5.52100 45.08800 39.48300
H  -4.55700 43.97200 40.45300
H  -4.97400 45.58800 41.11200
H  -8.89500 47.98600 42.92100
H  -8.90200 46.38800 43.73700
H  -9.81600 46.55700 42.32000
H  -12.81800 43.54000 42.70500
H  -12.98200 41.58800 44.84400
H  -12.89000 45.00700 44.27900
H  -11.40100 44.52600 44.94700
H  -13.05200 43.64000 45.38000
H  -13.88000 40.66300 42.04900
H  -14.48500 42.29100 42.44500
H  -15.41800 39.61800 43.33900
H  -16.20300 41.16200 43.62400
H  -14.82500 40.63600 44.66300
H  -11.54800 35.21400 44.22800
H  -12.67000 35.94300 43.04200
H  -12.61300 36.65500 44.51500
H  -7.60500 35.35600 40.74100
H  -4.00600 33.13200 41.38600
H  -4.90300 32.94400 43.00700
H  -3.91500 34.35200 42.67000

