158

Mg 30.51100 57.98700 40.45500
C  27.65700 55.99900 39.46400
C  32.51000 55.60000 39.12500
C  33.01000 60.04400 40.72500
C  28.19500 60.46300 41.30400
N  30.13700 56.03700 39.48800
C  28.94800 55.44500 39.19700
C  29.13600 54.03600 38.56500
C  30.70900 53.92400 38.49400
C  31.18400 55.25100 39.15400
C  31.35200 52.66700 39.20300
C  28.52300 53.79000 37.19400
C  28.68100 54.89500 36.12300
H  27.43000 55.38000 35.33000
N  32.53000 57.82100 40.04400
C  33.16700 56.76800 39.49300
C  34.59000 57.05100 39.36900
C  34.81900 58.30200 39.97700
C  33.43500 58.82600 40.26600
C  35.52600 56.07600 38.77500
C  36.14600 58.99700 40.10300
O  37.20500 58.42000 39.81700
C  36.15100 60.43100 40.63000
N  30.60000 59.97000 40.80200
C  31.74600 60.60700 41.01900
C  31.41800 62.06400 41.44500
C  29.92200 62.06500 41.88600
C  29.54100 60.71200 41.28800
C  32.38800 62.59100 42.43000
C  29.07800 63.21900 41.18900
C  27.98500 63.89200 42.12900
N  28.33900 58.28200 40.44000
C  27.55700 59.29100 40.82300
C  26.14700 59.05100 40.60600
C  26.15800 57.69100 40.12500
C  27.49300 57.32300 39.98700
C  25.07600 60.05600 40.85000
C  25.23300 56.59900 39.66300
O  24.05600 56.41700 39.51600
C  26.23500 55.45200 39.19800
C  25.95200 54.16200 39.90100
O  26.50000 53.74900 40.89300
O  24.84200 53.58600 39.38700
C  24.36600 52.37100 40.09300
H  33.22500 54.87600 38.72800
H  33.84800 60.68400 41.01000
H  27.46600 61.24300 41.53200
H  28.66800 53.29300 39.21000
H  31.00600 54.05800 37.45300
H  32.08700 52.96600 39.95100
H  31.74100 51.97000 38.46200
H  30.59200 52.10400 39.74400
H  27.51000 53.42600 37.36600
H  29.11300 52.94600 36.83800
H  29.52300 54.60400 35.49500
H  29.02100 55.84700 36.53000
H  36.35400 56.56300 38.25900
H  35.10600 55.50800 37.94500
H  36.01600 55.37600 39.45200
H  35.64100 61.10800 39.94400
H  37.20000 60.71800 40.70100
H  35.83600 60.46200 41.67300
H  31.58400 62.50700 40.46300
H  29.75000 62.24400 42.94700
H  33.07300 61.82300 42.78900
H  31.91100 62.98300 43.32800
H  32.98800 63.40400 42.02200
H  28.51200 62.97400 40.29000
H  29.76300 63.98900 40.83400
H  27.22800 64.42500 41.55400
H  28.41700 64.64400 42.79000
H  27.61400 63.14800 42.83300
H  25.26400 60.80600 41.61800
H  24.11900 59.54400 40.95700
H  24.90000 60.50800 39.87400
H  26.09600 55.12300 38.16800
H  24.39000 51.43200 39.53900
H  23.30800 52.59900 40.22300
H  24.57600 52.14400 41.13900
Mg -10.01100 39.54200 39.73100
C  -9.12200 36.22900 39.02500
C  -6.95100 40.48700 38.77800
C  -11.27800 42.62300 39.69300
C  -13.30200 38.30800 40.47600
N  -8.24000 38.43200 39.01500
C  -8.07000 37.13400 38.72500
C  -6.61600 36.82000 38.30600
C  -5.86500 38.14500 38.62200
C  -7.09400 39.10700 38.89400
C  -4.93000 37.98300 39.89300
C  -6.59900 36.34000 36.81100
C  -6.73500 37.46600 35.77600
H  -7.85600 37.36100 34.72800
N  -9.20500 41.25300 39.25800
C  -7.94300 41.44400 38.83500
C  -7.69800 42.87000 38.63700
C  -8.92500 43.55200 38.94000
C  -9.89700 42.50200 39.41000
C  -6.38700 43.49700 38.19500
C  -9.11300 45.05700 38.75200
O  -8.20900 45.72100 38.24500
C  -10.36800 45.78200 39.24500
N  -12.14300 40.31100 39.99300
C  -12.26200 41.65700 39.95500
C  -13.74500 42.06600 40.10100
C  -14.42300 40.64400 40.30600
C  -13.24700 39.65800 40.20300
C  -14.03600 43.15200 41.19500
C  -15.61700 40.36700 39.30400
C  -16.71400 39.32300 39.71900
N  -11.06000 37.70900 39.75600
C  -12.31400 37.35300 40.27800
C  -12.49100 35.91300 40.41800
C  -11.26900 35.44800 39.95300
C  -10.44600 36.58400 39.48000
C  -13.68100 35.25800 40.84900
C  -10.53800 34.21800 39.45500
O  -10.87900 33.06900 39.41600
C  -9.04900 34.69600 39.04100
C  -8.26000 34.23200 40.20000
O  -8.61200 34.25800 41.41000
O  -6.95400 33.89000 39.78000
C  -6.12500 33.31300 40.77900
H  -5.96700 40.82100 38.44500
H  -11.64300 43.65000 39.74100
H  -14.22900 37.91000 40.89400
H  -6.26600 35.98300 38.91000
H  -5.22200 38.56300 37.84700
H  -5.46900 38.23900 40.80500
H  -4.14600 38.73100 39.77000
H  -4.42200 37.02000 39.84800
H  -7.46200 35.67400 36.79000
H  -5.64700 35.86800 36.56800
H  -5.72700 37.63600 35.39600
H  -7.04700 38.37000 36.29900
H  -6.53600 44.08000 37.28600
H  -5.82100 42.61400 37.90000
H  -5.89700 44.03800 39.00500
H  -10.55600 45.52500 40.28800
H  -11.18800 45.61400 38.54800
H  -10.27300 46.86200 39.13600
H  -13.91000 42.40100 39.07700
H  -14.80000 40.58100 41.32600
H  -14.71100 43.95700 40.90700
H  -13.12400 43.68900 41.45600
H  -14.26000 42.62800 42.12400
H  -15.23800 40.11200 38.31400
H  -16.06300 41.35700 39.20400
H  -17.20700 38.80400 38.89700
H  -17.50300 39.82200 40.28100
H  -16.24400 38.63100 40.41800
H  -14.48500 35.64800 40.22500
H  -13.89100 35.47500 41.89600
H  -13.56600 34.19700 40.62900
H  -8.83900 34.27500 38.05800
H  -6.67400 32.82400 41.58400
H  -5.70400 34.24600 41.15200
H  -5.34700 32.67700 40.35700

