158

Mg 53.33800 23.37800 43.74600
C  50.42800 25.38900 43.54000
C  51.40300 20.76600 42.70900
C  56.17100 21.67600 43.48600
C  55.28100 26.43900 44.05300
N  51.13400 23.08700 43.13700
C  50.13200 24.03900 43.21100
C  48.73200 23.35300 43.14800
C  49.08100 21.83800 43.24000
C  50.63200 21.87200 43.01000
C  48.61800 21.17000 44.50700
C  47.77700 23.90000 42.04000
C  48.32000 24.19600 40.58400
H  47.78100 23.41000 39.39000
N  53.73900 21.48200 43.14800
C  52.80800 20.50500 42.80700
C  53.52600 19.26100 42.72700
C  54.90800 19.50800 42.91000
C  55.00500 20.90600 43.22600
C  52.87500 17.94800 42.26100
C  56.02700 18.48100 42.80200
O  55.82500 17.37100 42.50200
C  57.48300 18.82000 42.99200
N  55.36200 23.99300 43.72000
C  56.39100 23.05800 43.70900
C  57.75300 23.63400 43.92700
C  57.43500 25.21200 43.88200
C  55.89600 25.24900 43.88700
C  58.53300 23.16700 45.17600
C  58.16200 25.94000 42.68700
C  57.62200 25.57300 41.26000
N  53.01000 25.53100 43.94400
C  53.83900 26.60000 44.05700
C  52.98500 27.78500 44.37700
C  51.65100 27.35400 44.14800
C  51.70900 25.93600 43.86700
C  53.46300 29.17200 44.85400
C  50.26700 27.74100 44.13500
O  49.66300 28.73000 44.47500
C  49.48500 26.51000 43.51400
C  49.09700 26.96500 42.18300
O  49.90100 27.23000 41.20400
O  47.82600 27.34900 42.24000
C  47.15200 27.71400 40.98700
H  50.64700 20.01800 42.46100
H  57.15300 21.20300 43.42300
H  55.89400 27.33200 44.18900
H  48.17900 23.63000 44.04600
H  48.64700 21.32100 42.38400
H  49.46200 20.93100 45.15300
H  47.94700 20.35600 44.23200
H  48.05000 21.85900 45.13200
H  47.25600 24.79900 42.36900
H  46.95300 23.20700 41.86900
H  49.40500 24.12600 40.50400
H  47.97900 25.21200 40.38100
H  53.14900 17.86100 41.21000
H  51.78600 17.92900 42.27000
H  53.32000 17.15200 42.85900
H  57.75300 19.52400 42.20500
H  58.17100 17.97900 42.90000
H  57.61600 19.27200 43.97500
H  58.33500 23.26800 43.08100
H  57.75900 25.67200 44.81500
H  59.47100 22.77600 44.78100
H  57.90600 22.48400 45.74900
H  58.92700 23.99200 45.77000
H  59.21900 25.68800 42.77000
H  57.88800 26.99300 42.74100
H  58.48300 25.24600 40.67600
H  57.19400 26.47000 40.81300
H  56.91000 24.74900 41.21200
H  54.52900 29.07900 45.06500
H  52.86300 29.33900 45.74800
H  53.24500 29.83600 44.01800
H  48.63800 26.40600 44.19200
H  47.71100 27.48500 40.08000
H  46.94900 28.78400 41.03500
H  46.24500 27.10900 41.00000
Mg 34.89900 49.81300 25.48600
C  34.76600 47.89900 28.33500
C  33.27200 52.34300 27.27000
C  34.04700 51.30200 22.62900
C  35.67700 46.90900 23.66500
N  34.05300 50.07400 27.61200
C  34.19700 49.16500 28.57100
C  33.90800 49.84400 30.00800
C  33.13400 51.16800 29.57700
C  33.57300 51.20800 28.12700
C  31.61700 51.28300 29.77900
C  35.22000 50.12300 30.83800
C  35.14900 49.54800 32.29500
H  33.77600 49.45400 32.92400
N  34.03300 51.69900 25.00900
C  33.42500 52.55600 25.85100
C  32.96700 53.75200 25.10200
C  33.24100 53.42500 23.73700
C  33.79000 52.15800 23.71100
C  32.29500 54.91200 25.71700
C  32.94100 54.27600 22.41500
O  33.20600 53.85300 21.24900
C  32.38300 55.68800 22.64200
N  34.91200 49.20000 23.43300
C  34.48100 49.97200 22.48900
C  34.67500 49.29400 21.03600
C  35.45100 48.03800 21.45100
C  35.38800 48.08700 22.94300
C  33.39800 48.98200 20.18500
C  36.97200 48.00400 20.87900
C  38.11600 48.82800 21.61800
N  35.17900 47.76400 25.90100
C  35.45300 46.70200 25.08500
C  35.82100 45.60300 25.91700
C  35.57500 46.01900 27.21700
C  35.07000 47.32700 27.13500
C  36.34800 44.32500 25.40800
C  35.53200 45.57400 28.64300
O  35.82800 44.54000 29.21700
C  34.93100 46.80100 29.44100
C  33.77600 46.26600 30.18900
O  32.59600 46.12200 29.71900
O  34.12500 45.84900 31.44300
C  33.02000 45.44000 32.33300
H  32.79700 53.12800 27.86200
H  33.88300 51.67900 21.61700
H  35.97300 46.02000 23.10400
H  33.29000 49.12900 30.55000
H  33.61900 52.05200 29.99100
H  31.18400 51.49800 28.80200
H  31.55100 52.06200 30.53700
H  31.11900 50.38400 30.14200
H  35.37000 51.20300 30.84300
H  36.04700 49.77900 30.21700
H  35.63800 50.24200 32.97900
H  35.65100 48.58200 32.22900
H  31.21800 54.98500 25.57100
H  32.77100 55.81200 25.32800
H  32.40800 55.08600 26.78700
H  32.15700 56.20200 21.70800
H  33.15400 56.35300 23.03000
H  31.49900 55.65500 23.27800
H  35.30700 49.92200 20.40800
H  35.06300 47.10200 21.04800
H  33.54800 49.50900 19.24200
H  32.50500 49.43000 20.62200
H  33.18800 47.93900 19.94900
H  37.06200 48.27600 19.82700
H  37.27600 46.95800 20.85500
H  38.56800 48.31700 22.46800
H  37.62200 49.68600 22.07400
H  38.79500 49.32300 20.92300
H  37.31000 44.43700 24.90900
H  35.66700 43.79300 24.74400
H  36.68200 43.67000 26.21400
H  35.70700 47.11300 30.14000
H  32.19700 46.15200 32.38900
H  33.42400 45.23500 33.32400
H  32.54800 44.55500 31.90500

