158

Mg 16.85100 52.74000 26.97100
C  18.98200 51.25000 29.32400
C  14.61300 53.38000 29.65500
C  14.83600 54.24200 24.89200
C  18.98300 51.85200 24.50400
N  16.79300 52.32900 29.22800
C  17.82200 51.76700 29.94500
C  17.57600 51.91800 31.46700
C  16.01700 52.12100 31.43000
C  15.73200 52.63900 30.03800
C  15.11200 50.87900 31.74100
C  18.30100 53.07800 32.08800
C  18.78700 52.81600 33.51200
H  17.74300 52.24900 34.48300
N  15.01900 53.74400 27.23700
C  14.30900 53.93100 28.44300
C  13.19900 54.81400 28.16200
C  13.30200 55.23100 26.79300
C  14.39500 54.37000 26.24000
C  12.22300 55.20600 29.24000
C  12.60400 56.40900 26.00500
O  12.69900 56.66800 24.79400
C  11.59500 57.20000 26.67900
N  16.81600 52.81700 24.90700
C  15.88500 53.52800 24.27500
C  16.03600 53.27500 22.68200
C  17.46900 52.70400 22.58800
C  17.76300 52.34600 24.06900
C  14.86000 52.39900 22.05700
C  18.45500 53.80300 22.04000
C  18.78800 54.99600 22.91500
N  18.68100 51.61800 26.87400
C  19.42600 51.34000 25.78800
C  20.61700 50.66100 26.16600
C  20.52400 50.61500 27.60500
C  19.31700 51.21200 27.95500
C  21.73900 50.07400 25.25700
C  21.12000 50.15100 28.83500
O  22.16700 49.56000 29.09600
C  20.18200 50.64700 29.98300
C  19.84100 49.50400 30.85300
O  19.09900 48.60000 30.62200
O  20.56200 49.63500 32.02700
C  20.48700 48.48800 33.01800
H  13.95600 53.48600 30.52000
H  14.08900 54.69100 24.23400
H  19.56700 51.59200 23.61900
H  17.72700 50.96300 31.97000
H  15.68600 52.91800 32.09600
H  14.55200 50.87200 32.67700
H  15.61000 49.91100 31.79600
H  14.40100 50.69400 30.93600
H  17.59700 53.91000 32.10200
H  19.09700 53.30900 31.38000
H  19.17900 53.67800 34.05100
H  19.57800 52.08400 33.34400
H  11.31100 54.98100 28.68700
H  12.23600 56.25300 29.54300
H  12.30800 54.47900 30.04700
H  10.92400 57.77000 26.03600
H  12.17900 57.84700 27.33400
H  10.99700 56.54800 27.31500
H  16.12200 54.26200 22.22600
H  17.47200 51.78800 21.99800
H  14.42500 52.83500 21.15800
H  14.15700 52.21800 22.87000
H  15.22500 51.43100 21.71400
H  17.97800 54.25200 21.16800
H  19.35900 53.38700 21.59500
H  19.34400 55.69400 22.28900
H  19.47000 54.64700 23.69000
H  17.95600 55.49600 23.41200
H  22.63700 49.82400 25.82300
H  22.03000 50.92200 24.63700
H  21.45200 49.29700 24.54900
H  20.78100 51.29100 30.62600
H  21.34500 48.59300 33.68100
H  20.46000 47.53400 32.49200
H  19.57800 48.49200 33.62000
Mg -5.09400 25.69700 25.38000
C  -3.99000 26.98600 28.45500
C  -6.93200 23.26600 27.23400
C  -5.65200 23.87200 22.62300
C  -2.85400 27.63800 23.80600
N  -5.37700 25.19000 27.59100
C  -4.84600 25.87900 28.64800
C  -5.53400 25.42900 29.95300
C  -6.19400 24.04700 29.56800
C  -6.13300 24.11500 28.05200
C  -5.36200 22.84900 30.14200
C  -6.56300 26.48500 30.50700
C  -6.35000 26.96700 31.95300
H  -6.05400 25.97800 33.09900
N  -6.18800 23.92400 25.01600
C  -6.90600 23.09500 25.85100
C  -7.63800 22.11000 25.09100
C  -7.27400 22.25100 23.73900
C  -6.35700 23.36100 23.76300
C  -8.42200 21.03700 25.74100
C  -7.71800 21.43500 22.50100
O  -7.34000 21.64600 21.37700
C  -8.67300 20.17900 22.69000
N  -4.23500 25.65200 23.50700
C  -4.66300 24.89100 22.49600
C  -3.98600 25.25300 21.15300
C  -3.05600 26.49700 21.58600
C  -3.44600 26.67000 23.03300
C  -3.21200 24.09200 20.52100
C  -3.09300 27.73800 20.75100
C  -4.48700 28.12400 20.28500
N  -3.72100 27.07400 25.95300
C  -2.89000 27.81200 25.19400
C  -2.08100 28.72400 26.00500
C  -2.55700 28.46500 27.31400
C  -3.40000 27.36000 27.22800
C  -1.03800 29.70300 25.55300
C  -2.52600 28.90200 28.68300
O  -1.87700 29.76600 29.23600
C  -3.40400 27.86400 29.54300
C  -2.51500 27.17900 30.56900
O  -1.84800 26.19900 30.30000
O  -2.67200 27.79700 31.81400
C  -1.92800 27.25200 32.99900
H  -7.59600 22.58500 27.77100
H  -5.92700 23.42400 21.66600
H  -2.14900 28.27600 23.26900
H  -4.77200 25.49700 30.73000
H  -7.20700 23.97800 29.96600
H  -4.68600 22.40200 29.41300
H  -6.07100 22.09800 30.49000
H  -4.86700 23.18300 31.05300
H  -7.55300 26.03500 30.43400
H  -6.55300 27.28900 29.77100
H  -7.19300 27.61400 32.19800
H  -5.55900 27.71200 31.86600
H  -7.94500 20.08900 25.49400
H  -9.43600 21.03200 25.34300
H  -8.53000 21.12300 26.82200
H  -8.30500 19.54400 23.49600
H  -8.63300 19.62100 21.75500
H  -9.69400 20.52100 22.86100
H  -4.84700 25.59900 20.58100
H  -2.02600 26.16100 21.70800
H  -3.51400 23.19200 21.05700
H  -2.17100 24.03500 20.83800
H  -3.31400 24.08700 19.43600
H  -2.38100 27.42700 19.98700
H  -2.44800 28.46200 21.24800
H  -4.70000 29.19200 20.32800
H  -5.22200 27.74600 20.99500
H  -4.66200 27.64600 19.32100
H  -0.81600 29.48400 24.50900
H  -0.17900 29.76300 26.22100
H  -1.72100 30.54800 25.46400
H  -4.19000 28.41300 30.06200
H  -0.97600 26.78900 32.73900
H  -2.68700 26.56100 33.36600
H  -1.81900 27.96700 33.81400

