158

Mg 48.73700 34.92500 27.06200
C  46.62600 33.87100 29.77400
C  49.15700 37.92500 28.85400
C  50.05600 36.27100 24.33600
C  47.79100 32.09600 25.22300
N  48.02400 35.72800 29.12600
C  47.36300 35.05400 30.06600
C  47.55700 35.72200 31.47200
C  47.90600 37.17500 31.02300
C  48.41800 36.98400 29.59000
C  46.78400 38.25900 31.25500
C  48.76700 35.03600 32.18800
C  48.63400 34.92100 33.73000
H  47.72100 35.93000 34.52200
N  49.37600 36.85600 26.62600
C  49.63700 37.90000 27.49700
C  50.19800 39.05700 26.79500
C  50.40500 38.61000 25.47300
C  49.95600 37.18400 25.47100
C  50.44200 40.41000 27.45500
C  51.00000 39.24800 24.23200
O  50.88600 38.79000 23.10000
C  51.70300 40.64900 24.34400
N  48.75900 34.27400 25.10300
C  49.46800 34.96700 24.16800
C  49.66300 34.22600 22.87900
C  49.22400 32.75500 23.22600
C  48.60300 33.03000 24.62100
C  48.93600 34.83800 21.59900
C  50.41500 31.69400 23.14700
C  51.53500 31.76000 22.06800
N  47.60800 33.32100 27.41200
C  47.24800 32.25900 26.56700
C  46.43700 31.29600 27.30400
C  46.17700 31.94400 28.48900
C  46.83000 33.16100 28.53300
C  45.89900 29.94500 26.86100
C  45.45400 31.79200 29.72800
O  44.87100 30.79900 30.14400
C  45.62200 33.08300 30.62900
C  45.98000 32.69100 31.96300
O  46.83000 31.86100 32.30900
O  45.07400 33.20600 32.87900
C  45.05900 32.82800 34.31300
H  49.38800 38.88000 29.33100
H  50.59800 36.50700 23.41800
H  47.63600 31.14700 24.70400
H  46.65600 35.64300 32.08100
H  48.65300 37.43600 31.77300
H  46.89200 38.97400 32.07100
H  45.78600 37.84100 31.38900
H  46.71700 38.89400 30.37200
H  49.76500 35.40900 31.96000
H  48.96900 34.01500 31.86500
H  49.62300 35.01200 34.18100
H  48.31500 33.91500 34.00000
H  51.38000 40.53000 27.99700
H  49.57000 40.64500 28.06400
H  50.35600 41.17800 26.68600
H  51.04000 41.51400 24.35500
H  52.40400 40.81100 23.52600
H  52.25100 40.66100 25.28600
H  50.72500 34.23000 22.63200
H  48.40500 32.38500 22.61000
H  49.02300 35.91300 21.75800
H  47.89700 34.51000 21.59200
H  49.45600 34.41500 20.73900
H  50.09400 30.66700 22.97100
H  50.93700 31.87100 24.08700
H  51.16200 32.39500 21.26500
H  51.68400 30.74000 21.71200
H  52.54000 32.03500 22.38800
H  45.73500 29.90000 25.78400
H  44.94700 29.83400 27.38000
H  46.55900 29.15900 27.22700
H  44.72300 33.69700 30.57600
H  44.43400 33.56100 34.82300
H  46.04000 32.70300 34.77300
H  44.59800 31.85100 34.45700
Mg 26.90600 50.93300 26.43000
C  24.93500 51.63900 29.10900
C  29.46900 49.89400 28.64300
C  29.00200 50.25300 23.86900
C  24.58400 52.32200 24.36600
N  27.11500 50.68200 28.49200
C  26.06700 50.89800 29.39700
C  26.49600 50.57800 30.82800
C  28.04600 50.46400 30.71100
C  28.28300 50.38200 29.18400
C  28.80900 51.55700 31.41100
C  25.70400 49.44300 31.40800
C  25.18800 49.46600 32.87800
H  26.18300 49.93500 33.94000
N  28.94100 50.27200 26.24600
C  29.79200 49.88300 27.27600
C  31.04000 49.38800 26.73900
C  30.89300 49.39000 25.27200
C  29.56000 49.95900 25.01600
C  32.12500 48.82600 27.64500
C  31.93700 48.82000 24.28400
O  31.79200 49.00800 23.05100
C  33.13200 48.21300 24.78900
N  26.84000 51.29700 24.44200
C  27.76600 50.90700 23.51700
C  27.18400 50.88100 22.07400
C  25.72500 51.48500 22.29900
C  25.69100 51.67100 23.85100
C  28.04400 51.30800 20.84100
C  24.50100 50.66000 21.79900
C  23.56900 51.24200 20.69600
N  25.03900 51.72400 26.56800
C  24.27400 52.36900 25.70400
C  23.07100 52.79600 26.40900
C  23.26500 52.62500 27.76100
C  24.52700 51.99000 27.81100
C  21.73000 53.38200 25.83300
C  22.79300 52.73700 29.11900
O  21.71000 53.17200 29.48500
C  23.85100 52.08600 30.09900
C  24.31000 53.15100 31.02100
O  24.87800 54.21800 30.76700
O  23.85500 52.75200 32.29400
C  23.91300 53.82000 33.31800
H  30.13700 49.53100 29.42700
H  29.53200 49.89000 22.98600
H  23.72800 52.37200 23.68900
H  26.22300 51.50300 31.33600
H  28.41500 49.56100 31.19700
H  29.35300 50.94000 32.12700
H  28.24200 52.33900 31.91700
H  29.47700 52.11300 30.75300
H  26.14900 48.44800 31.37400
H  24.80400 49.43900 30.79300
H  24.82400 48.45100 33.03800
H  24.31600 50.12100 32.87100
H  32.11700 47.73900 27.72800
H  32.16100 49.28000 28.63500
H  33.13200 49.00600 27.26900
H  32.88700 47.39800 25.47000
H  33.75300 48.99600 25.22500
H  33.56900 47.66500 23.95400
H  26.95700 49.81800 21.99800
H  25.76700 52.50600 21.91900
H  28.42700 50.36100 20.46100
H  28.87900 51.91100 21.19500
H  27.51800 51.99000 20.17300
H  23.86000 50.45100 22.65600
H  24.87900 49.73100 21.37500
H  23.71700 50.71800 19.75200
H  23.71300 52.32100 20.64100
H  22.60200 50.99600 21.13600
H  22.00800 54.41500 25.62300
H  21.00100 53.23000 26.62900
H  21.43900 52.81400 24.95000
H  23.43000 51.22300 30.61400
H  23.83800 54.85700 32.99100
H  24.79600 53.70300 33.94500
H  22.97900 53.73300 33.87400

