158

Mg 49.21500 44.80100 43.06800
C  45.86300 45.41000 42.02000
C  48.92800 41.62100 41.79400
C  52.50600 44.66900 43.04000
C  49.43000 48.37500 43.69000
N  47.52900 43.62100 42.10300
C  46.30100 44.08800 41.75300
C  45.55100 43.03500 40.95300
C  46.32100 41.76900 41.29500
C  47.68800 42.35300 41.74200
C  45.66100 40.83100 42.30200
C  45.56800 43.38800 39.46200
C  44.39400 42.76000 38.59700
H  44.77200 41.91900 37.32900
N  50.53200 43.32100 42.65100
C  50.21300 42.06400 42.14700
C  51.35800 41.23800 42.24100
C  52.45500 42.09400 42.51800
C  51.87000 43.44600 42.75900
C  51.34500 39.70700 41.91100
C  53.86900 41.67400 42.81100
O  54.15700 40.45800 42.76400
C  55.03000 42.63100 43.12800
N  50.79100 46.36600 43.20900
C  52.08800 45.95600 43.33700
C  52.95100 47.14100 43.84600
C  52.00200 48.38600 44.09000
C  50.63500 47.67200 43.67900
C  53.87700 46.83300 45.03600
C  52.39100 49.66500 43.21700
C  52.63100 50.95000 43.97700
N  47.89600 46.53600 42.95500
C  48.15500 47.84100 43.30500
C  46.93000 48.59500 43.23500
C  46.03300 47.68700 42.73100
C  46.60700 46.43100 42.62400
C  46.77400 50.08400 43.43500
C  44.68100 47.65700 42.20600
O  43.84600 48.55100 41.94500
C  44.51100 46.03600 41.80100
C  43.31200 45.38900 42.36400
O  42.69300 44.38900 41.88400
O  42.92600 46.08500 43.46900
C  41.60200 45.82500 43.98200
H  48.70500 40.60600 41.46000
H  53.59700 44.63000 43.07300
H  49.48000 49.42200 43.99500
H  44.54300 42.83400 41.31400
H  46.48400 41.19200 40.38500
H  45.49800 39.86300 41.82900
H  44.67000 41.18700 42.58500
H  46.23700 40.67400 43.21300
H  46.49000 43.00000 39.03100
H  45.55300 44.47700 39.42400
H  43.71800 43.57400 38.33500
H  43.85400 42.12400 39.29700
H  51.59200 39.08000 42.76800
H  51.88700 39.50300 40.98800
H  50.37100 39.30100 41.63700
H  56.00600 42.19600 43.34300
H  54.80300 43.26400 43.98600
H  55.19400 43.24400 42.24200
H  53.56800 47.40900 42.98900
H  51.96500 48.62800 45.15200
H  53.99300 47.74600 45.62100
H  54.89400 46.78500 44.64600
H  53.61900 45.86300 45.46200
H  51.50200 49.91200 42.63700
H  53.09500 49.45700 42.41100
H  53.07700 50.64400 44.92300
H  51.65800 51.39900 44.17800
H  53.27600 51.66600 43.46700
H  45.79700 50.16600 43.91200
H  46.76700 50.46000 42.41200
H  47.56800 50.58500 43.98800
H  44.32600 46.02400 40.72700
H  41.54600 44.79900 44.34600
H  40.97400 46.31300 43.23600
H  41.49700 46.36000 44.92500
Mg -2.24000 34.58700 26.49700
C  -3.92700 32.65500 29.02000
C  -1.25100 36.72300 28.96700
C  -1.03400 36.63300 24.05400
C  -4.05800 32.84100 24.12500
N  -2.49200 34.57100 28.77800
C  -3.18300 33.67700 29.56400
C  -2.91700 33.99900 31.06300
C  -2.28400 35.47000 30.97500
C  -1.94300 35.62300 29.51400
C  -2.86700 36.73000 31.64000
C  -2.14900 32.88100 31.72600
C  -2.78100 32.19900 32.94300
H  -2.05500 32.11000 34.24500
N  -1.16100 36.37900 26.51500
C  -0.81600 37.05800 27.64000
C  0.06200 38.16400 27.24100
C  0.15900 38.07700 25.80900
C  -0.77000 37.04400 25.39100
C  0.88100 38.99100 28.23900
C  1.05600 38.80500 24.84300
O  0.99400 38.65200 23.60700
C  2.17500 39.58300 25.46100
N  -2.54400 34.72400 24.48300
C  -1.90400 35.60300 23.71800
C  -2.36800 35.50300 22.29000
C  -2.91100 34.06200 22.21800
C  -3.20200 33.82500 23.70700
C  -3.50700 36.50400 21.81800
C  -1.89000 33.08300 21.50500
C  -0.55900 32.61900 22.14600
N  -3.64300 33.11600 26.49700
C  -4.25500 32.44500 25.44600
C  -5.07800 31.31300 25.89300
C  -4.93200 31.40300 27.31400
C  -4.04200 32.45200 27.59100
C  -5.83400 30.39400 25.10800
C  -5.36300 30.76800 28.59300
O  -6.12600 29.79600 28.77600
C  -4.71400 31.54000 29.66700
C  -5.82000 32.14500 30.42700
O  -6.37800 33.19200 30.13800
O  -6.04100 31.49700 31.64400
C  -6.94300 32.17800 32.57600
H  -0.99400 37.36700 29.81200
H  -0.63900 37.17200 23.19100
H  -4.66200 32.40800 23.32500
H  -3.90100 34.11800 31.51800
H  -1.36000 35.38200 31.54600
H  -3.88300 36.47800 31.94400
H  -3.11200 37.50800 30.91600
H  -2.21300 37.17300 32.39100
H  -1.18200 33.31000 31.98900
H  -1.98600 32.18500 30.90300
H  -3.07400 31.19200 32.64400
H  -3.80000 32.55500 33.10000
H  0.53100 39.03500 29.27100
H  0.84000 40.01000 27.85400
H  1.93200 38.70500 28.20600
H  2.86400 39.60700 24.61700
H  2.71900 38.97500 26.18400
H  1.92100 40.60600 25.73700
H  -1.62800 35.72800 21.52100
H  -3.86700 33.92100 21.71400
H  -3.30400 36.89400 20.82000
H  -3.57500 37.38600 22.45400
H  -4.42600 35.91600 21.83500
H  -1.64200 33.47800 20.52000
H  -2.49600 32.18200 21.41200
H  0.20800 32.48200 21.38300
H  -0.55400 31.62000 22.58300
H  -0.10500 33.26900 22.89400
H  -5.74100 30.61000 24.04400
H  -6.88300 30.53600 25.37100
H  -5.61400 29.33300 25.23100
H  -4.19000 30.97700 30.44000
H  -7.76400 31.53700 32.89700
H  -7.43000 33.03800 32.11600
H  -6.44400 32.49400 33.49300

