158

Mg 40.99500 9.13400 29.44000
C  42.45400 10.28600 32.53900
C  38.53600 7.72700 31.28200
C  39.96400 7.64300 26.76800
C  43.99800 10.01400 28.00900
N  40.60300 8.98500 31.64600
C  41.21500 9.64500 32.73300
C  40.38500 9.62000 34.03900
C  39.15600 8.74500 33.63400
C  39.39700 8.49500 32.08500
C  39.08500 7.45700 34.41900
C  40.04900 11.08200 34.45600
C  39.03300 11.24700 35.65400
H  39.58300 11.42800 37.07300
N  39.40100 7.92300 29.05400
C  38.48400 7.47700 29.92900
C  37.40900 6.72400 29.18400
C  37.74700 6.79600 27.82300
C  39.04800 7.49300 27.86200
C  36.33200 5.93000 29.92200
C  37.03200 6.27500 26.62800
O  37.46100 6.24800 25.46200
C  35.64100 5.64800 26.82900
N  41.97400 8.64600 27.67800
C  41.24200 8.20500 26.62600
C  41.79500 8.39500 25.24100
C  43.07200 9.21800 25.65900
C  43.00900 9.38500 27.19200
C  42.26400 7.16400 24.44800
C  43.23700 10.56000 24.93300
C  42.03100 11.49200 25.02600
N  42.70900 10.10000 30.00800
C  43.86900 10.33400 29.33100
C  44.82000 11.10200 30.04700
C  44.23400 11.23300 31.30600
C  43.02700 10.49300 31.27800
C  46.08800 11.57300 29.61900
C  44.43400 11.78400 32.65200
O  45.22100 12.64300 33.08900
C  43.33000 11.11800 33.49000
C  43.86500 10.15200 34.55700
O  44.81400 9.38200 34.47500
O  43.00700 10.12000 35.65100
C  43.45000 9.23100 36.77200
H  37.65700 7.37500 31.82700
H  39.53600 7.22500 25.85500
H  44.83600 10.50000 27.50600
H  41.00400 9.14100 34.79800
H  38.15900 9.18300 33.59500
H  39.09700 6.57500 33.77900
H  38.17200 7.40000 35.01100
H  39.91400 7.51200 35.12500
H  39.60300 11.62200 33.62100
H  40.95700 11.53200 34.85600
H  38.40600 10.36500 35.78700
H  38.31400 12.04300 35.46400
H  36.45100 5.97600 31.00400
H  36.28200 4.85500 29.74600
H  35.40100 6.41600 29.63000
H  35.74800 4.87400 27.58800
H  35.30700 5.31300 25.84600
H  34.83200 6.31100 27.13600
H  41.20900 8.95500 24.51300
H  44.02300 8.74300 25.41600
H  43.20700 6.77600 24.83300
H  42.46300 7.48200 23.42500
H  41.62600 6.29300 24.59500
H  43.38300 10.33000 23.87800
H  44.03100 11.13300 25.41400
H  42.19100 12.48300 25.45100
H  41.30400 11.11000 25.74200
H  41.43000 11.66600 24.13300
H  46.08000 12.38700 28.89500
H  46.46700 10.71800 29.06000
H  46.82500 11.72800 30.40700
H  42.74100 11.93000 33.91600
H  44.38200 9.59100 37.20700
H  43.56600 8.18300 36.49500
H  42.76800 9.21900 37.62300
Mg 53.46200 24.35900 44.82000
C  51.05000 26.71100 43.92200
C  51.35900 21.91300 43.46500
C  56.16900 22.20200 44.76000
C  55.71900 27.03400 45.24800
N  51.55500 24.28300 43.52800
C  50.75800 25.37400 43.40800
C  49.46100 24.96600 42.63300
C  49.41300 23.43600 42.90100
C  50.85700 23.15500 43.25900
C  48.40800 23.06300 43.99200
C  49.52100 25.20500 41.15000
C  50.82000 25.47700 40.46200
H  50.77700 25.98500 39.00700
N  53.73900 22.32800 44.27100
C  52.70400 21.45800 43.84000
C  53.24900 20.09400 43.73300
C  54.58900 20.15200 44.08700
C  54.87400 21.58700 44.40900
C  52.45500 18.95000 43.15300
C  55.49600 19.04700 44.17300
O  55.15000 17.95800 43.91100
C  56.89500 19.16400 44.48900
N  55.69500 24.61900 44.50400
C  56.53800 23.55400 44.74500
C  58.00500 24.00000 45.02600
C  57.76100 25.58600 45.09000
C  56.30600 25.77400 44.92000
C  58.75700 23.33400 46.25600
C  58.65700 26.38000 44.00200
C  58.13600 26.37100 42.56100
N  53.38200 26.43300 44.82500
C  54.32100 27.44200 45.16700
C  53.64000 28.69400 45.27100
C  52.36200 28.49300 44.78300
C  52.24300 27.11100 44.54300
C  54.36800 29.91800 45.68300
C  51.12500 29.11600 44.49300
O  50.81300 30.26100 44.65500
C  50.22800 27.96100 43.95000
C  49.64800 28.43000 42.66700
O  50.26700 28.50800 41.61800
O  48.26900 28.57400 42.67300
C  47.68800 28.60000 41.30500
H  50.58500 21.14900 43.36500
H  57.03800 21.57700 44.97400
H  56.47000 27.77000 45.54500
H  48.56600 25.47200 42.99300
H  49.16200 22.82800 42.03200
H  48.31600 23.88800 44.70000
H  48.58200 22.19600 44.62900
H  47.42700 22.82000 43.58400
H  48.74600 25.95900 41.01000
H  49.15900 24.39300 40.52000
H  51.51000 24.64600 40.60900
H  51.22500 26.40200 40.87300
H  52.96700 18.61200 42.25300
H  51.45500 19.31700 42.92300
H  52.40500 18.05400 43.77200
H  57.15900 18.10600 44.47600
H  56.89100 19.50900 45.52300
H  57.44300 19.82100 43.81400
H  58.60800 23.73800 44.15700
H  58.06600 25.91000 46.08500
H  59.54500 22.66600 45.91000
H  58.05500 22.76600 46.86700
H  59.21300 24.10900 46.87300
H  59.63100 25.89200 43.96500
H  58.82000 27.41900 44.28800
H  57.71800 27.31900 42.22100
H  57.47600 25.52400 42.37400
H  59.01200 26.17000 41.94600
H  55.39500 29.78500 45.34200
H  54.32400 30.07400 46.76100
H  53.99800 30.81800 45.19300
H  49.34400 27.83800 44.57600
H  47.76000 29.62400 40.93800
H  46.66200 28.27200 41.47400
H  48.18200 27.92000 40.61000

