158

Mg 8.70000 4.34500 27.83300
C  9.98200 2.41300 30.45900
C  6.62000 6.03000 29.99900
C  7.17200 5.55600 25.25700
C  10.25700 1.77000 25.70300
N  8.29800 4.14800 29.96300
C  9.05000 3.39400 30.87800
C  8.76800 3.90300 32.31400
C  7.71100 5.06700 32.10500
C  7.44600 5.05400 30.58600
C  6.45200 4.81600 32.92100
C  10.07300 4.42000 32.97100
C  9.95800 5.26400 34.31500
H  10.12300 4.52500 35.65100
N  7.26600 5.82600 27.67500
C  6.44200 6.34500 28.64900
C  5.66100 7.37800 28.02800
C  5.91800 7.39500 26.61900
C  6.85600 6.22100 26.43400
C  4.66900 8.21900 28.83400
C  5.42200 8.33300 25.50000
O  5.79800 8.23300 24.35000
C  4.49000 9.41600 25.88000
N  8.62900 3.66000 25.80400
C  7.98000 4.45500 24.98800
C  8.06500 3.85500 23.54000
C  9.13300 2.71000 23.64800
C  9.28000 2.73400 25.15600
C  6.76400 3.50400 22.89800
C  10.45600 2.92500 22.89200
C  11.05800 1.59200 22.33000
N  9.99800 2.55000 27.96400
C  10.48900 1.64900 27.07100
C  11.45600 0.77900 27.66800
C  11.28200 1.00100 29.07000
C  10.31700 2.06900 29.16500
C  12.38200 -0.15600 27.02000
C  11.64300 0.57300 30.36200
O  12.33700 -0.35000 30.75400
C  10.90400 1.57400 31.31200
C  10.12500 0.76800 32.28000
O  9.05800 0.26500 31.99300
O  10.78400 0.65000 33.47200
C  10.02600 0.02000 34.53000
H  6.02200 6.59000 30.72100
H  6.55300 6.04400 24.50200
H  10.67800 1.05800 24.99000
H  8.43300 3.00500 32.83300
H  8.06100 6.07000 32.35100
H  5.63500 5.01000 32.22600
H  6.39500 5.39000 33.84500
H  6.25700 3.75600 33.08600
H  10.59900 5.07600 32.27700
H  10.75200 3.57900 33.11000
H  9.09500 5.92700 34.37100
H  10.78200 5.96800 34.19700
H  5.10000 9.20500 29.00600
H  4.53000 7.71600 29.79100
H  3.74800 8.35600 28.26700
H  4.29900 10.00000 24.98000
H  5.07000 9.99600 26.59700
H  3.53600 9.20700 26.36400
H  8.38600 4.63900 22.85400
H  8.66300 1.76600 23.37300
H  5.94400 3.62800 23.60600
H  7.00400 2.52500 22.48500
H  6.57500 4.05100 21.97400
H  11.18700 3.39000 23.55400
H  10.29100 3.66400 22.10800
H  12.00300 1.46600 22.85900
H  11.29100 1.72600 21.27400
H  10.35100 0.80700 22.60000
H  13.02900 0.41700 26.35600
H  11.89100 -0.94500 26.45100
H  13.06800 -0.68700 27.68100
H  11.75100 2.14100 31.70000
H  9.77500 0.84900 35.19200
H  10.67400 -0.59600 35.15300
H  9.26100 -0.69500 34.22700
Mg 26.31200 49.85600 27.09200
C  24.22800 51.39400 29.42000
C  28.43000 49.15800 29.65000
C  28.46500 48.74500 24.76100
C  24.16500 51.05600 24.49400
N  26.28300 50.19900 29.25200
C  25.30000 50.71300 30.00600
C  25.57800 50.53500 31.49200
C  27.08600 50.24000 31.49700
C  27.21700 49.76900 30.08800
C  28.04500 51.39000 31.97100
C  24.64400 49.44800 32.21700
C  23.92400 49.89800 33.50000
H  24.64900 50.48300 34.68400
N  28.15000 49.03500 27.20800
C  28.85900 48.75500 28.36000
C  30.13000 48.17000 28.04300
C  30.19200 48.08400 26.61400
C  28.86300 48.59600 26.10000
C  31.02100 47.68700 29.20800
C  31.33300 47.63900 25.70200
O  31.10300 47.50600 24.49500
C  32.73700 47.39200 26.16800
N  26.45200 50.10900 24.84800
C  27.36300 49.47200 24.17600
C  27.06100 49.54800 22.64300
C  25.55200 49.91400 22.65900
C  25.30700 50.34100 24.06800
C  28.00600 50.54600 21.92500
C  24.61100 48.74200 22.19100
C  24.77400 47.33100 22.97400
N  24.55400 51.08400 26.92300
C  23.78200 51.48800 25.81500
C  22.64100 52.31900 26.26900
C  22.74400 52.20200 27.66100
C  23.91200 51.47400 28.01300
C  21.48700 52.90500 25.41500
C  22.13900 52.67000 28.94600
O  21.21100 53.44200 29.20900
C  23.02400 52.07800 30.12100
C  23.38300 53.26900 31.08800
O  23.94100 54.25500 30.78800
O  22.80900 52.98300 32.35900
C  23.01200 54.13800 33.27500
H  29.14800 48.90700 30.43400
H  29.05700 48.17700 24.04000
H  23.53300 51.35900 23.65700
H  25.38600 51.51400 31.93200
H  27.26100 49.37200 32.13200
H  28.92500 50.99400 32.47800
H  27.46700 52.01600 32.65100
H  28.42700 51.93900 31.11100
H  25.31600 48.65000 32.53000
H  23.99200 49.07000 31.42900
H  23.46200 48.97500 33.84900
H  23.10400 50.56700 33.23700
H  30.50000 47.22400 30.04700
H  31.35000 48.61600 29.67500
H  31.78500 47.05700 28.75300
H  33.45800 47.57600 25.37200
H  32.84700 46.31300 26.28100
H  32.93200 47.92000 27.10200
H  27.16000 48.56300 22.18600
H  25.49000 50.68000 21.88500
H  27.43700 51.41300 21.58700
H  28.55100 50.03700 21.13000
H  28.77300 50.94400 22.58900
H  24.85800 48.64800 21.13400
H  23.56600 48.99400 22.37400
H  25.00100 46.52800 22.27300
H  23.84300 47.21500 23.52800
H  25.57600 47.43900 23.70400
H  21.07900 52.14900 24.74400
H  21.95400 53.66500 24.78900
H  20.66200 53.39200 25.93500
H  22.35500 51.41900 30.67600
H  22.96000 55.08600 32.74000
H  24.05800 54.23100 33.56900
H  22.34800 54.01500 34.13100

