158

Mg -0.76500 34.06600 26.86900
C  -2.58100 32.35700 29.30500
C  0.78500 35.80600 29.25400
C  0.60100 35.86800 24.35600
C  -2.55100 32.22400 24.35000
N  -1.04800 34.23600 29.09200
C  -1.72100 33.31600 29.88800
C  -1.41600 33.63200 31.41500
C  -0.48800 34.83800 31.34300
C  -0.18200 34.99000 29.83600
C  -1.16900 36.10200 31.96300
C  -0.68400 32.38300 32.03400
C  -1.52200 31.65500 33.09600
H  -0.94200 31.42300 34.51900
N  0.49100 35.55100 26.79700
C  1.12500 36.07800 27.87800
C  2.00100 37.12100 27.48200
C  1.88900 37.24000 26.05000
C  0.93400 36.19600 25.66600
C  2.91500 37.85600 28.45900
C  2.68400 38.16100 25.09900
O  2.72900 38.15500 23.82700
C  3.62600 39.14500 25.73400
N  -1.06100 34.18700 24.55900
C  -0.32400 35.03300 23.80800
C  -0.74200 34.84400 22.29800
C  -1.65900 33.58600 22.39900
C  -1.78900 33.28500 23.86700
C  -1.43800 36.03400 21.69200
C  -0.97300 32.38200 21.67300
C  -0.11200 31.29500 22.36500
N  -2.15900 32.56300 26.76000
C  -2.78000 31.92300 25.65700
C  -3.69500 30.96800 26.18000
C  -3.64300 31.09400 27.58900
C  -2.69100 32.06800 27.89500
C  -4.46000 29.95000 25.44600
C  -4.13600 30.52000 28.78400
O  -4.88500 29.56900 28.93700
C  -3.43700 31.30000 30.00800
C  -4.55100 31.81100 30.86000
O  -5.43300 32.58200 30.51100
O  -4.61500 31.12000 32.04200
C  -5.61700 31.42800 33.02200
H  1.40400 36.21900 30.05300
H  1.04400 36.50300 23.58600
H  -2.98600 31.50300 23.65500
H  -2.44400 33.71100 31.76700
H  0.40100 34.74000 31.96600
H  -2.02300 35.70700 32.51400
H  -1.51300 36.79300 31.19400
H  -0.54500 36.62900 32.68400
H  0.31700 32.59700 32.40900
H  -0.54100 31.63300 31.25600
H  -1.63800 30.67900 32.62300
H  -2.50800 32.11400 33.17200
H  3.93200 37.64400 28.12900
H  2.92900 37.56800 29.51000
H  2.65600 38.91200 28.37700
H  2.98100 39.59900 26.48600
H  3.92600 39.83900 24.94900
H  4.58000 38.74400 26.07600
H  0.15100 34.79900 21.67600
H  -2.67000 33.81100 22.05900
H  -1.24600 35.95600 20.62100
H  -1.10600 37.01500 22.03200
H  -2.51200 35.95700 21.85900
H  -0.33700 32.78700 20.88600
H  -1.77800 31.76100 21.28000
H  0.15500 31.45600 23.40900
H  0.89600 31.43100 21.97300
H  -0.51200 30.29000 22.23000
H  -3.81900 29.59700 24.63800
H  -5.39300 30.39800 25.10500
H  -4.76300 29.10300 26.06100
H  -2.87700 30.52900 30.53900
H  -5.08800 31.59000 33.96100
H  -6.25400 30.54700 33.10600
H  -6.26500 32.28300 32.82900
Mg -13.42200 17.08900 41.29500
C  -10.66800 14.84600 41.05600
C  -11.44600 19.55500 39.98800
C  -16.13500 18.81800 40.92900
C  -15.32800 14.34700 42.48400
N  -11.31500 17.15400 40.59900
C  -10.41200 16.13500 40.55400
C  -9.01000 16.65800 40.13500
C  -9.21900 18.18000 39.88000
C  -10.75600 18.33000 40.19700
C  -8.25700 19.10600 40.59200
C  -8.50300 15.91700 38.81100
C  -6.91600 15.67400 38.87900
H  -6.11400 16.45400 37.80000
N  -13.76400 18.95300 40.57800
C  -12.82500 19.84600 40.07000
C  -13.49000 21.13800 39.83400
C  -14.84800 20.86400 39.98500
C  -15.00100 19.49100 40.53300
C  -12.69800 22.40000 39.45500
C  -15.96200 21.89500 39.73400
O  -15.69300 22.99600 39.32300
C  -17.40700 21.57200 39.84100
N  -15.38500 16.61700 41.62200
C  -16.37100 17.54200 41.43200
C  -17.79200 17.10300 41.88600
C  -17.52600 15.67700 42.45200
C  -15.95800 15.53400 42.21900
C  -18.65300 18.10000 42.70000
C  -18.43400 14.51400 41.81400
C  -19.20700 13.71500 42.78800
N  -13.11200 14.97900 41.69900
C  -13.99800 14.00400 42.26900
C  -13.23400 12.75000 42.43000
C  -11.91400 13.01400 42.00600
C  -11.93500 14.34500 41.48900
C  -13.72500 11.50800 43.02900
C  -10.50800 12.51000 41.97200
O  -9.95400 11.46300 42.36900
C  -9.75400 13.59600 41.18700
C  -8.51700 13.96300 42.01300
O  -8.48100 14.69600 42.99100
O  -7.38700 13.30300 41.53500
C  -6.11200 13.64400 42.17300
H  -10.98900 20.46600 39.59700
H  -17.12000 19.28300 40.85400
H  -15.93500 13.67600 43.09600
H  -8.29800 16.49800 40.94400
H  -9.06100 18.53900 38.86300
H  -7.70700 19.76400 39.92000
H  -7.50700 18.48900 41.08800
H  -8.75500 19.71900 41.34300
H  -8.82900 16.46800 37.92800
H  -8.89300 14.90000 38.86000
H  -6.91200 14.61000 38.64100
H  -6.57800 15.74300 39.91300
H  -12.56100 22.42500 38.37400
H  -11.76400 22.30000 40.00800
H  -13.16000 23.31900 39.81700
H  -17.57300 20.68600 39.22900
H  -18.05400 22.36900 39.47400
H  -17.64600 21.27900 40.86300
H  -18.28800 16.98700 40.92300
H  -17.73000 15.76200 43.51900
H  -18.12300 19.05300 42.71500
H  -18.73200 17.74400 43.72700
H  -19.61000 18.16800 42.18300
H  -17.87300 13.92100 41.09100
H  -19.16300 15.04900 41.20500
H  -19.10500 12.63500 42.68200
H  -20.25400 13.94200 42.58700
H  -18.86600 13.92600 43.80100
H  -13.26500 10.64400 42.54900
H  -14.78700 11.30900 42.88400
H  -13.44400 11.26500 44.05300
H  -9.32300 13.26900 40.24100
H  -5.94400 13.09600 43.10000
H  -5.90900 14.70700 42.30100
H  -5.35200 13.26700 41.48800

