158

Mg -1.73100 17.00400 26.79400
C  -2.33600 14.91500 29.57800
C  -2.13900 19.67900 28.86800
C  -1.15900 19.01100 24.10200
C  -2.28500 14.29100 24.82500
N  -2.31300 17.26300 28.97900
C  -2.40400 16.29000 29.95400
C  -2.51300 16.90000 31.34000
C  -2.55300 18.44100 31.11300
C  -2.32700 18.50700 29.56000
C  -3.91500 19.11800 31.65200
C  -1.38400 16.31600 32.35400
C  -0.89800 17.25200 33.48900
H  -0.38300 16.58700 34.76900
N  -1.56100 19.02400 26.52400
C  -1.81000 20.02100 27.53600
C  -1.52500 21.32600 26.97600
C  -1.21800 21.11900 25.58800
C  -1.26800 19.63100 25.34200
C  -1.74400 22.60400 27.76300
C  -0.94900 22.20800 24.55600
O  -0.79700 22.05100 23.37200
C  -0.82800 23.58700 24.99800
N  -1.84600 16.74100 24.78000
C  -1.52200 17.63700 23.85000
C  -1.67500 17.13200 22.44300
C  -2.16300 15.70400 22.74000
C  -2.01900 15.50900 24.16100
C  -2.72600 17.98800 21.63000
C  -1.64900 14.57800 21.78700
C  -0.40500 13.75700 22.05200
N  -1.99000 14.91900 27.10800
C  -2.18200 13.94800 26.17500
C  -2.44000 12.64200 26.74700
C  -2.39200 12.97500 28.10900
C  -2.25000 14.38400 28.26500
C  -2.93100 11.33200 26.11400
C  -2.63100 12.52700 29.52500
O  -2.96100 11.41900 29.90500
C  -2.41200 13.70000 30.52300
C  -1.16200 13.41000 31.32100
O  -0.00700 13.60000 30.99900
O  -1.52100 12.75300 32.46800
C  -0.51700 12.24200 33.37500
H  -2.27200 20.53300 29.53600
H  -0.98900 19.62400 23.21500
H  -2.54300 13.45800 24.16700
H  -3.39600 16.44300 31.78800
H  -1.64600 18.94600 31.44700
H  -4.46200 19.50800 30.79400
H  -3.68000 19.97700 32.28000
H  -4.57900 18.42100 32.16500
H  -0.46400 16.13800 31.79700
H  -1.69600 15.41800 32.88600
H  -1.73800 17.91900 33.68400
H  -0.05000 17.75800 33.02700
H  -1.93300 22.44700 28.82500
H  -2.63200 23.14900 27.44400
H  -0.82000 23.17500 27.67800
H  -0.09700 23.76800 25.78700
H  -1.81100 23.95600 25.29200
H  -0.56000 24.23900 24.16600
H  -0.65100 17.09500 22.07100
H  -3.21700 15.59100 22.48400
H  -3.01000 18.88500 22.18000
H  -3.68700 17.47100 21.63200
H  -2.49600 18.21500 20.59000
H  -1.53100 15.03900 20.80600
H  -2.46800 13.85900 21.77100
H  -0.24200 13.58700 23.11700
H  0.44900 14.18600 21.52800
H  -0.60300 12.81600 21.53900
H  -3.76800 11.60700 25.47100
H  -3.16700 10.64800 26.92900
H  -2.14400 10.91200 25.48700
H  -3.30000 13.78200 31.15000
H  -0.38300 11.21700 33.02900
H  -0.94600 12.14500 34.37300
H  0.42200 12.79100 33.29600
Mg 24.93100 1.24200 29.80000
C  27.03500 0.84000 32.68900
C  22.22400 0.97400 31.99200
C  23.00400 1.32900 27.13700
C  27.68000 0.52200 27.88000
N  24.70300 0.83000 32.08400
C  25.70000 0.86400 33.05500
C  25.19700 1.07700 34.43800
C  23.64100 0.97300 34.19400
C  23.47600 0.84200 32.66500
C  22.88500 -0.08600 34.97100
C  25.58700 2.51600 35.01100
C  26.68200 2.67600 36.08200
H  26.50500 3.48400 37.33200
N  22.88500 1.06100 29.60300
C  21.95400 0.98800 30.59900
C  20.63000 0.93300 29.99000
C  20.83600 1.07400 28.56300
C  22.24100 1.14400 28.37000
C  19.31400 0.56700 30.78300
C  19.79100 1.03000 27.49600
O  20.00200 1.02400 26.31000
C  18.33300 0.73200 27.81300
N  25.28300 0.88200 27.83400
C  24.40000 1.21900 26.91300
C  24.98300 1.27200 25.45000
C  26.39900 0.64400 25.70800
C  26.51600 0.78400 27.24000
C  24.20900 0.63000 24.25800
C  27.56000 1.29900 24.90800
C  28.21500 2.47000 25.46000
N  26.97000 0.96200 30.15200
C  27.91100 0.61900 29.23700
C  29.24100 0.43500 29.89500
C  28.95600 0.58600 31.25200
C  27.55700 0.80500 31.35600
C  30.55800 0.08100 29.30900
C  29.42700 0.52700 32.50900
O  30.56900 0.38100 32.86800
C  28.27700 0.82800 33.49600
C  28.34200 -0.05100 34.65800
O  27.78200 -1.15500 34.66600
O  29.11600 0.40300 35.66100
C  29.40200 -0.35900 36.88800
H  21.35800 0.96900 32.65600
H  22.38300 1.47000 26.24900
H  28.61900 0.29900 27.36900
H  25.60800 0.36700 35.15600
H  23.07100 1.88600 34.36900
H  22.34500 -0.79400 34.34200
H  22.14400 0.46400 35.55000
H  23.46800 -0.68400 35.67200
H  24.73000 3.10200 35.34000
H  26.05000 3.07500 34.19700
H  27.60400 3.02600 35.61700
H  27.05100 1.73200 36.48200
H  19.46000 0.10700 31.76100
H  18.86700 -0.17900 30.12600
H  18.73400 1.47400 30.95300
H  17.87100 1.23900 28.66000
H  18.15200 -0.31200 28.06600
H  17.70400 0.87400 26.93500
H  24.98400 2.34200 25.24300
H  26.34600 -0.39900 25.39600
H  23.17800 0.33200 24.44500
H  24.82500 -0.19600 23.90400
H  24.24100 1.31500 23.41100
H  27.15800 1.60500 23.94200
H  28.30400 0.52400 24.72200
H  28.34000 3.21300 24.67300
H  29.21300 2.32300 25.87300
H  27.70300 3.03100 26.24200
H  30.72500 0.26700 28.24900
H  30.60600 -0.98900 29.51500
H  31.28800 0.67600 29.85800
H  28.57300 1.80600 33.87500
H  28.61600 -0.35800 37.64200
H  30.29800 0.05700 37.35000
H  29.40200 -1.44800 36.83100

