158

Mg 46.47700 17.02700 29.00400
C  44.83500 16.48300 31.98300
C  48.80600 18.97900 30.68000
C  47.80000 18.11500 25.98700
C  43.82600 15.58500 27.28500
N  46.80800 17.56800 31.13200
C  46.04100 17.16100 32.15400
C  46.56600 17.68900 33.47400
C  47.73300 18.71700 32.98700
C  47.82000 18.42400 31.52500
C  47.45600 20.24900 33.18500
C  47.13400 16.51100 34.34200
C  47.40500 16.82400 35.78100
H  46.99600 18.19100 36.34700
N  48.20000 18.13500 28.46800
C  49.09900 18.79500 29.26300
C  50.17900 19.28000 28.51300
C  49.83600 19.12900 27.11100
C  48.54600 18.45600 27.13800
C  51.37600 19.85000 29.18500
C  50.62800 19.49800 25.84800
O  50.12500 19.41900 24.69700
C  52.04100 20.09200 26.00800
N  45.96300 16.86300 26.99800
C  46.59000 17.42100 25.91500
C  45.97500 17.04400 24.62500
C  44.80300 16.14500 25.00500
C  44.89600 16.12300 26.53500
C  45.46300 18.12300 23.64100
C  44.82400 14.72800 24.44600
C  45.53400 13.75800 25.29800
N  44.77400 16.08700 29.47500
C  43.83100 15.49900 28.70300
C  42.72800 14.98200 29.48700
C  43.09000 15.38200 30.81800
C  44.29400 16.07800 30.75300
C  41.51900 14.28600 29.02100
C  42.72900 15.38800 32.20000
O  41.70700 15.09200 32.78500
C  43.79700 16.15500 32.99300
C  43.08400 17.32600 33.66000
O  42.67600 18.32200 33.13000
O  43.10900 17.13200 35.03200
C  42.47400 18.20700 35.86400
H  49.51500 19.63100 31.19500
H  48.09700 18.30200 24.95300
H  43.01800 15.09500 26.73700
H  45.77700 18.28100 33.93800
H  48.71100 18.53000 33.43000
H  46.59100 20.31600 33.84500
H  47.29100 20.66700 32.19200
H  48.22800 20.80700 33.71400
H  48.09600 16.30300 33.87500
H  46.45100 15.67600 34.18700
H  48.48300 16.78900 35.93800
H  46.97900 15.98400 36.32900
H  51.52800 19.56000 30.22500
H  51.43000 20.93800 29.22300
H  52.25100 19.43800 28.68300
H  52.01700 21.06800 26.49400
H  52.61300 20.12500 25.08100
H  52.65800 19.37600 26.55100
H  46.77700 16.44400 24.19500
H  43.83000 16.56600 24.75300
H  46.15400 18.96500 23.61000
H  44.47800 18.56600 23.78900
H  45.39800 17.65700 22.65800
H  45.23100 14.62300 23.44000
H  43.78400 14.44000 24.29100
H  46.47500 14.20400 25.62000
H  45.95400 13.02900 24.60500
H  45.00000 13.27100 26.11400
H  41.70800 13.26200 28.69800
H  41.01200 14.94200 28.31300
H  40.90800 14.12100 29.90800
H  44.16400 15.39000 33.67700
H  41.40000 18.03100 35.92100
H  42.77700 19.19700 35.52300
H  42.85200 18.26600 36.88400
Mg 26.75400 50.50800 26.85200
C  24.97300 51.76800 29.65500
C  29.38900 49.79900 28.97300
C  28.78700 50.04500 24.13800
C  24.37000 51.96400 24.82400
N  27.03700 50.50900 29.05100
C  26.11700 51.01200 29.97400
C  26.63200 50.71200 31.36700
C  28.14800 50.49500 31.07500
C  28.22900 50.26900 29.60100
C  29.11700 51.65500 31.57600
C  25.86000 49.42800 31.84100
C  25.22100 49.49800 33.26200
H  25.97100 50.21300 34.38400
N  28.72600 49.75300 26.60800
C  29.64700 49.53200 27.61800
C  30.85700 49.08200 27.03800
C  30.79600 49.23700 25.60200
C  29.40900 49.71900 25.37100
C  31.98100 48.50900 27.84800
C  31.90600 49.00500 24.57600
O  31.73100 49.40500 23.41100
C  33.21700 48.43600 24.87800
N  26.59300 50.93500 24.86900
C  27.51500 50.55500 23.89400
C  26.88100 50.73900 22.49000
C  25.45100 51.24500 22.71900
C  25.44200 51.40700 24.24900
C  27.68600 51.71000 21.51000
C  24.34000 50.28900 22.23800
C  24.34000 48.77600 22.75700
N  24.97500 51.59000 27.09000
C  24.12900 52.20300 26.20500
C  23.08900 52.90200 26.84600
C  23.34600 52.74600 28.21500
C  24.56800 51.99100 28.31400
C  21.96200 53.60800 26.08300
C  22.85800 53.00000 29.59200
O  21.86000 53.67700 29.90000
C  23.92800 52.43600 30.59300
C  24.49100 53.47500 31.50900
O  25.58400 53.99200 31.34900
O  23.59400 53.94300 32.37200
C  24.11200 55.07700 33.14500
H  30.23100 49.61900 29.64400
H  29.33400 49.98800 23.19400
H  23.56500 52.32100 24.17800
H  26.46200 51.53800 32.05700
H  28.51200 49.57300 31.52800
H  29.87400 51.25900 32.25300
H  28.65200 52.44300 32.16900
H  29.60700 52.24300 30.80000
H  26.48100 48.53300 31.87600
H  25.01400 49.15400 31.21100
H  25.05600 48.43300 33.42600
H  24.25100 49.96500 33.09200
H  32.86800 49.14100 27.81800
H  32.15600 47.50500 27.46000
H  31.70400 48.45700 28.90100
H  33.78300 48.92300 25.67200
H  33.94200 48.55000 24.07200
H  32.98600 47.41800 25.19200
H  26.89200 49.74100 22.05300
H  25.45000 52.19700 22.18900
H  28.46300 52.21200 22.08700
H  27.11700 52.42400 20.91300
H  28.22900 51.17400 20.73200
H  24.42900 50.25400 21.15300
H  23.45000 50.91200 22.32500
H  23.36200 48.52200 23.16600
H  25.13300 48.57400 23.47700
H  24.57700 48.09300 21.94100
H  22.28200 54.08200 25.15500
H  21.52700 54.45100 26.62000
H  21.18000 52.87000 25.90900
H  23.58900 51.66400 31.28300
H  24.45700 55.96200 32.61000
H  24.91700 54.73300 33.79400
H  23.31900 55.41100 33.81500

