158

Mg 26.71400 50.36600 26.19500
C  24.81100 51.51800 28.88500
C  29.10100 49.38800 28.56700
C  28.62100 49.48200 23.76200
C  24.36300 51.76400 24.03800
N  27.01300 50.63600 28.54200
C  25.94400 50.95400 29.29200
C  26.40500 50.66800 30.76100
C  27.81300 50.09800 30.74000
C  28.05900 50.02200 29.21700
C  29.02600 50.95300 31.31700
C  25.36200 49.89400 31.61800
C  24.81000 50.69600 32.86900
H  24.62500 49.89500 34.14100
N  28.58700 49.54300 26.19700
C  29.35800 49.11200 27.20700
C  30.51100 48.35400 26.71100
C  30.44200 48.40700 25.31500
C  29.20300 49.24300 25.05100
C  31.55200 47.78200 27.49200
C  31.46900 47.92600 24.24900
O  31.35800 48.12200 23.09700
C  32.71900 47.13700 24.66500
N  26.64300 50.84800 24.17400
C  27.44000 50.15600 23.38100
C  27.07000 50.21600 21.87900
C  25.66600 50.93200 22.01500
C  25.49700 51.13000 23.51000
C  27.98200 50.82900 20.91700
C  24.42800 50.18900 21.39700
C  23.75600 51.01800 20.31800
N  24.92700 51.39800 26.40400
C  24.07100 51.92700 25.39700
C  23.05600 52.70100 26.04200
C  23.34300 52.46400 27.41000
C  24.42800 51.75300 27.56900
C  21.99300 53.54000 25.40700
C  22.79000 52.78300 28.75000
O  21.78000 53.44900 29.03600
C  23.73600 52.16300 29.75700
C  24.23400 53.29600 30.56100
O  25.15400 54.01700 30.18200
O  23.45000 53.57500 31.65900
C  24.11300 54.48700 32.63400
H  29.73500 48.81900 29.25100
H  29.21300 49.00200 22.98000
H  23.62000 52.03400 23.28400
H  26.61400 51.65700 31.16800
H  27.74300 49.13500 31.24500
H  28.65100 51.92900 31.62500
H  29.70600 51.36900 30.57400
H  29.60300 50.39600 32.05500
H  25.78400 48.95400 31.97300
H  24.45900 49.59200 31.08700
H  23.84500 51.11400 32.58400
H  25.57200 51.44400 33.08600
H  31.46000 47.93300 28.56700
H  32.52300 48.20700 27.23700
H  31.54200 46.71500 27.27000
H  33.62400 47.68300 24.93300
H  32.93600 46.55900 23.76600
H  32.63600 46.42300 25.48400
H  26.91100 49.16800 21.62700
H  25.81500 51.91200 21.56000
H  28.78600 51.36800 21.41800
H  27.49500 51.48500 20.19600
H  28.34000 49.98700 20.32500
H  23.75700 49.86000 22.19000
H  24.78100 49.30100 20.87200
H  23.69800 50.47800 19.37300
H  24.30200 51.89100 19.96100
H  22.73600 51.27300 20.60700
H  21.99400 53.59800 24.31900
H  21.97200 54.54800 25.82300
H  21.07700 53.00400 25.65900
H  23.21400 51.38100 30.30800
H  23.99800 55.55900 32.47400
H  25.17800 54.27100 32.71600
H  23.74500 54.35300 33.65200
Mg 0.77300 43.49600 26.14700
C  2.93100 42.98500 28.86000
C  -1.78900 42.46800 28.09100
C  -1.27300 43.49200 23.40600
C  3.63500 43.88900 24.10300
N  0.61700 42.94800 28.25700
C  1.62600 42.83800 29.24100
C  1.02400 42.71100 30.60200
C  -0.47400 42.29800 30.26500
C  -0.57700 42.58100 28.74200
C  -0.76100 40.76500 30.42300
C  1.12400 44.00600 31.44200
C  1.63000 43.87700 32.88200
H  1.01000 42.86400 33.82600
N  -1.28500 43.12800 25.77500
C  -2.18400 42.76200 26.80700
C  -3.49400 42.78700 26.30000
C  -3.36400 43.15600 24.89200
C  -1.95300 43.26200 24.60900
C  -4.78900 42.49000 27.16900
C  -4.48100 43.35800 23.82100
O  -4.22600 43.55700 22.65900
C  -5.92500 43.48100 24.24500
N  1.16000 43.62300 24.08200
C  0.12600 43.71600 23.18700
C  0.69300 43.81500 21.72900
C  2.16900 44.28100 21.96900
C  2.34900 43.90300 23.48300
C  0.59400 42.43700 20.99200
C  2.51800 45.70700 21.67300
C  1.55900 46.79600 22.12600
N  2.87400 43.55700 26.42300
C  3.92100 43.76500 25.52300
C  5.12600 43.68500 26.18100
C  4.82600 43.40400 27.50600
C  3.42400 43.31600 27.60600
C  6.51300 43.78900 25.58800
C  5.43900 43.16400 28.78000
O  6.62300 43.10900 29.10800
C  4.20000 43.04100 29.73000
C  4.29500 41.77100 30.58500
O  4.06200 40.67000 30.10300
O  4.59000 42.09900 31.85800
C  4.52100 41.07200 32.83800
H  -2.60600 42.17600 28.75300
H  -1.80700 43.79400 22.50200
H  4.43900 44.05300 23.38300
H  1.47100 41.90500 31.18300
H  -1.19200 42.90100 30.82000
H  -1.09900 40.28000 29.50700
H  -1.37700 40.45900 31.26800
H  0.17300 40.28400 30.71500
H  0.20500 44.58800 31.37700
H  1.77000 44.74700 30.97300
H  1.65800 44.85100 33.36900
H  2.69900 43.67900 32.81100
H  -5.76300 42.77200 26.76700
H  -4.69800 42.72700 28.22900
H  -4.72700 41.40300 27.22600
H  -6.23000 42.44400 24.38900
H  -6.44800 43.85200 23.36400
H  -6.01300 44.18700 25.07100
H  0.15800 44.63400 21.24700
H  2.83900 43.61100 21.43100
H  0.45100 41.63900 21.72000
H  1.45300 42.28000 20.34000
H  -0.28000 42.38700 20.34200
H  2.54000 45.82600 20.59000
H  3.46800 45.99500 22.12200
H  1.20400 47.30200 21.22700
H  1.99100 47.54100 22.79400
H  0.69200 46.35700 22.61900
H  7.01300 44.72400 25.84100
H  6.38500 43.71700 24.50800
H  7.11600 42.94400 25.92000
H  4.30200 43.93000 30.35300
H  3.92800 41.50900 33.64100
H  5.52900 40.89200 33.21300
H  4.07300 40.14900 32.46900

