158

Mg 43.99800 3.36200 48.26200
C  42.04300 6.27500 47.75300
C  41.07300 1.49500 47.70300
C  45.89000 0.79900 48.08600
C  46.81500 5.47300 48.21600
N  41.77300 3.88400 47.94000
C  41.20500 5.13700 47.69500
C  39.75600 4.97700 47.21700
C  39.42900 3.47800 47.53200
C  40.85200 2.90200 47.77400
C  38.38600 3.17100 48.70000
C  39.50100 5.29300 45.78000
C  38.23500 6.12600 45.44500
H  38.12400 6.78600 44.13400
N  43.58200 1.37000 48.02200
C  42.33700 0.78500 47.71400
C  42.56700 -0.61300 47.64900
C  43.94700 -0.84300 47.72400
C  44.54000 0.44700 48.05700
C  41.41300 -1.55700 47.38600
C  44.62600 -2.18600 47.46300
O  43.93400 -3.18800 47.20400
C  46.06400 -2.36200 47.52800
N  46.09800 3.15000 47.89000
C  46.64100 1.90200 48.07700
C  48.24900 1.95600 48.06200
C  48.47000 3.46100 48.22400
C  47.05100 4.10200 48.06000
C  48.92200 1.05700 49.19400
C  49.48900 4.15600 47.21800
C  50.76200 4.75900 47.83300
N  44.38800 5.38900 48.18900
C  45.58600 6.13800 48.16500
C  45.29000 7.55800 48.12400
C  43.94300 7.58400 47.87900
C  43.44300 6.27000 47.95500
C  46.25500 8.69700 48.17100
C  42.83900 8.54000 47.73100
O  42.86500 9.78200 47.66800
C  41.54700 7.67900 47.60800
C  40.60300 8.02700 48.70600
O  40.89300 8.08700 49.91800
O  39.31800 8.15900 48.16100
C  38.24000 8.49600 49.16100
H  40.18300 0.93600 47.40600
H  46.64100 0.01400 47.97500
H  47.71900 6.08500 48.24500
H  39.19700 5.56400 47.94700
H  39.03700 3.09000 46.59200
H  38.03600 4.12500 49.09400
H  38.83000 2.55200 49.47900
H  37.56800 2.72100 48.13700
H  39.57000 4.40800 45.14600
H  40.35200 5.81400 45.34200
H  38.04200 6.88900 46.19900
H  37.43500 5.38600 45.45300
H  41.55000 -2.15700 46.48700
H  40.47900 -1.02200 47.21700
H  41.30200 -2.30000 48.17700
H  46.65900 -1.83900 46.77900
H  46.34800 -3.40900 47.42700
H  46.36000 -2.04900 48.52900
H  48.70200 1.68600 47.10800
H  48.70100 3.77300 49.24300
H  49.52600 0.24200 48.79600
H  48.15500 0.64600 49.85000
H  49.52000 1.70700 49.83300
H  48.93900 4.85500 46.58800
H  49.86400 3.46600 46.46200
H  51.57700 4.10500 47.52300
H  50.74200 4.74600 48.92300
H  50.94900 5.80200 47.57600
H  47.06700 8.32500 48.79500
H  45.84100 9.56500 48.68600
H  46.68700 8.86900 47.18600
H  40.99100 7.80600 46.67900
H  38.52500 8.17600 50.16400
H  37.27000 8.10600 48.85100
H  38.15700 9.58000 49.22700
Mg 7.93600 48.51400 27.88400
C  6.10800 47.79900 30.76500
C  10.65800 49.15100 29.72300
C  9.51700 49.65100 25.05100
C  4.92700 48.75000 26.08900
N  8.35600 48.37000 30.05500
C  7.47600 48.08300 31.08200
C  8.07100 48.20700 32.42000
C  9.52400 48.77900 32.07100
C  9.61200 48.76000 30.52800
C  9.83800 50.20100 32.61100
C  8.06300 46.89200 33.24300
C  9.20100 46.58500 34.19700
H  8.83500 45.60700 35.35500
N  9.87800 49.02500 27.37400
C  10.87300 49.11400 28.32700
C  12.14600 49.32800 27.70100
C  11.83300 49.47200 26.32900
C  10.35300 49.38400 26.19800
C  13.54600 49.45400 28.41400
C  12.72900 49.71400 25.05700
O  12.27500 49.97600 23.94800
C  14.20300 49.80600 25.29100
N  7.27100 49.14700 25.83800
C  8.13500 49.56400 24.93100
C  7.41200 50.02700 23.70400
C  5.97900 49.54000 23.87000
C  6.02600 49.01600 25.29500
C  7.56400 51.46600 23.35800
C  5.42900 48.46200 22.82200
C  6.22900 47.13200 22.50900
N  5.94900 48.17500 28.27400
C  4.86200 48.31300 27.42100
C  3.65800 47.86200 28.23400
C  4.07700 47.62900 29.47700
C  5.40200 47.92600 29.50800
C  2.22300 47.86200 27.75400
C  3.67700 47.32000 30.79500
O  2.59900 46.99700 31.31700
C  4.95100 47.41900 31.67100
C  5.01800 46.08400 32.25800
O  5.46600 45.07200 31.71800
O  4.42800 46.11400 33.53800
C  4.62100 44.92200 34.33700
H  11.56800 49.33100 30.29900
H  9.85000 49.94000 24.05200
H  3.98400 48.79700 25.54000
H  7.51000 48.96900 32.96200
H  10.26100 48.03500 32.37500
H  9.98600 50.96400 31.84700
H  10.74300 50.08000 33.20700
H  9.13200 50.54100 33.36800
H  7.84200 46.07100 32.56100
H  7.19900 46.93600 33.90600
H  9.63000 47.52800 34.53400
H  9.95100 46.22000 33.49600
H  13.79700 50.50600 28.55100
H  14.24600 48.92100 27.77100
H  13.55000 48.95300 29.38200
H  14.61700 50.30700 24.41600
H  14.73500 48.86600 25.43900
H  14.32300 50.49900 26.12400
H  7.92000 49.37100 22.99800
H  5.23700 50.33400 23.78300
H  8.19000 51.93700 24.11600
H  6.66900 52.08300 23.44500
H  8.01400 51.63900 22.38100
H  5.11900 48.90100 21.87300
H  4.42500 48.31000 23.21800
H  5.58500 46.25300 22.54300
H  7.07700 46.84300 23.13000
H  6.63400 47.29800 21.51100
H  1.96400 48.74400 27.17000
H  1.49600 47.67500 28.54500
H  2.19800 47.04600 27.03200
H  4.71200 48.17700 32.41800
H  4.59600 45.31500 35.35300
H  5.64000 44.58600 34.14400
H  3.98900 44.07000 34.09100

