158

Mg 40.97000 9.24600 29.60900
C  42.77600 10.37700 32.46700
C  38.61900 7.84300 31.73800
C  39.32100 8.72000 26.96600
C  43.69300 10.61900 27.67100
N  40.83800 9.03300 31.85100
C  41.70600 9.56600 32.80500
C  41.13000 9.29100 34.21000
C  39.89200 8.31300 33.94900
C  39.71700 8.44000 32.45400
C  40.18400 6.84300 34.38900
C  40.78900 10.55000 35.02200
C  41.27300 10.41700 36.49300
H  41.18000 11.54400 37.40200
N  39.27100 8.37800 29.39000
C  38.41900 7.91100 30.35600
C  37.24100 7.43200 29.64400
C  37.43400 7.71500 28.28300
C  38.75400 8.29600 28.20100
C  36.24200 6.68400 30.38100
C  36.35100 7.64200 27.15600
O  36.48600 8.07800 26.05000
C  35.11200 6.93700 27.47200
N  41.53400 9.47300 27.55900
C  40.55400 9.29700 26.66500
C  41.07400 9.39700 25.17100
C  42.46900 10.09300 25.46300
C  42.55900 10.14300 27.03900
C  41.12500 8.06200 24.42100
C  42.70400 11.49100 24.84400
C  41.65900 12.57500 25.17000
N  42.82100 10.16300 29.95500
C  43.85700 10.62100 29.09200
C  44.92100 11.25900 29.78800
C  44.47500 11.23700 31.09300
C  43.24900 10.57200 31.16000
C  46.14200 12.03800 29.28100
C  44.89800 11.62600 32.36800
O  45.90900 12.19300 32.78100
C  43.77900 11.10900 33.33200
C  44.52100 10.29200 34.36800
O  44.87500 9.16600 34.22800
O  44.87000 11.03200 35.51100
C  45.40600 10.29500 36.63100
H  37.98300 7.36900 32.48900
H  38.68300 8.51900 26.10200
H  44.42100 11.12500 27.03300
H  41.87200 8.76700 34.81300
H  39.08300 8.57900 34.63000
H  39.38400 6.54900 35.07000
H  41.14700 6.87000 34.89800
H  40.20000 6.13100 33.56300
H  39.70200 10.53900 35.09300
H  40.97800 11.47100 34.46900
H  42.30200 10.06000 36.52500
H  40.67300 9.61600 36.92300
H  35.38700 7.33900 30.20900
H  36.34800 6.51700 31.45200
H  36.06900 5.76000 29.83000
H  34.51700 7.56400 28.13600
H  35.20700 6.01700 28.05000
H  34.43200 6.72100 26.64900
H  40.39700 10.04500 24.61400
H  43.31700 9.49400 25.12900
H  41.93200 8.09100 23.68900
H  40.18800 7.75000 23.95900
H  41.35500 7.22700 25.08200
H  42.84900 11.37100 23.77000
H  43.62300 11.92400 25.23800
H  42.21000 13.47300 25.44900
H  40.90000 12.24200 25.87700
H  41.24300 12.85300 24.20200
H  46.33300 11.88800 28.21900
H  46.99700 11.71100 29.87400
H  46.02200 13.09000 29.53800
H  43.34100 11.99900 33.78500
H  45.56500 9.22000 36.54800
H  44.76900 10.36000 37.51200
H  46.34700 10.72000 36.98100
Mg -5.93100 25.77500 25.71700
C  -4.21200 26.88300 28.69100
C  -7.64200 23.54800 27.85800
C  -6.76400 23.80500 23.06000
C  -3.56100 27.53600 23.87500
N  -5.94500 25.38700 27.99700
C  -5.26900 26.00100 28.95400
C  -5.69700 25.53400 30.39700
C  -6.63400 24.33000 30.11900
C  -6.80200 24.43500 28.53100
C  -5.97000 23.01600 30.53700
C  -6.45000 26.67900 31.12600
C  -6.59800 26.68600 32.67800
H  -5.93500 25.47300 33.41400
N  -7.16100 23.99300 25.49300
C  -7.80900 23.27400 26.46700
C  -8.59200 22.24600 25.87200
C  -8.31200 22.21800 24.52200
C  -7.40500 23.35300 24.28200
C  -9.59200 21.32300 26.61000
C  -8.96700 21.38100 23.40800
O  -8.53100 21.44200 22.29500
C  -10.10900 20.39000 23.61400
N  -5.32000 25.72800 23.74500
C  -5.80800 24.82500 22.86100
C  -5.11000 24.98100 21.49500
C  -4.07400 26.13000 21.75800
C  -4.40200 26.60400 23.20300
C  -4.43700 23.59100 21.12400
C  -4.06600 27.26900 20.67800
C  -2.66100 27.60900 20.08400
N  -4.36300 27.15900 26.15700
C  -3.49100 27.80300 25.27000
C  -2.60100 28.66200 26.01100
C  -2.82200 28.32100 27.33900
C  -3.88600 27.36800 27.39100
C  -1.46900 29.50100 25.38200
C  -2.32600 28.50500 28.77100
O  -1.38000 29.20900 29.20600
C  -3.27000 27.61000 29.65800
C  -2.25300 26.73600 30.24200
O  -1.51600 25.99000 29.60600
O  -2.32000 26.81800 31.56700
C  -1.79500 25.78300 32.38100
H  -8.22200 22.82000 28.42900
H  -7.07400 23.25300 22.17000
H  -2.81800 28.03400 23.24700
H  -4.88100 25.30000 31.08100
H  -7.59200 24.39800 30.63300
H  -5.01400 23.20900 31.02400
H  -5.79000 22.43900 29.63000
H  -6.63400 22.44500 31.18600
H  -7.44500 26.84100 30.71200
H  -5.97400 27.63700 30.91500
H  -7.64900 26.75300 32.95900
H  -6.04600 27.58900 32.93700
H  -10.55500 21.76700 26.36000
H  -9.25700 21.34500 27.64800
H  -9.72500 20.29500 26.27400
H  -10.54000 20.10200 22.65500
H  -10.89400 20.82200 24.23500
H  -9.78700 19.50800 24.16800
H  -5.94900 25.31700 20.88600
H  -3.10200 25.64300 21.83600
H  -4.71900 23.30800 20.11000
H  -4.83500 22.80500 21.76600
H  -3.35000 23.63800 21.05700
H  -4.60700 28.09500 21.13900
H  -4.72400 26.95900 19.86600
H  -1.81400 27.09500 20.53800
H  -2.52900 28.68000 19.93100
H  -2.51500 27.20900 19.08100
H  -0.62900 29.62100 26.06600
H  -1.87900 30.45400 25.04900
H  -1.09500 28.91900 24.53900
H  -3.69100 28.19200 30.47800
H  -2.53000 24.99900 32.56200
H  -1.65000 26.33100 33.31200
H  -0.80500 25.37800 32.17000

