158

Mg 25.18700 1.06600 28.97300
C  27.24900 0.75900 31.73100
C  22.53000 1.80700 31.27100
C  23.21600 1.73600 26.48700
C  27.76300 0.20700 26.76700
N  24.89900 1.11200 31.14900
C  25.93000 1.16200 32.06200
C  25.50500 1.56300 33.46600
C  24.03000 1.84000 33.25400
C  23.79800 1.66400 31.75600
C  22.95900 0.91700 33.97100
C  26.31300 2.75400 34.10600
C  26.73100 2.75700 35.59300
H  26.06800 3.77800 36.51700
N  23.15200 1.45700 28.90500
C  22.23300 1.69400 29.91500
C  20.90400 1.90700 29.33400
C  21.13200 2.08600 27.91000
C  22.55900 1.72400 27.72700
C  19.62200 2.05000 30.25400
C  20.10400 2.45100 26.87500
O  20.30600 2.31900 25.65600
C  18.69000 3.01600 27.11900
N  25.41200 0.83100 26.89700
C  24.42600 1.24700 26.07200
C  24.84600 1.31000 24.56600
C  26.36500 0.96100 24.69800
C  26.52800 0.61800 26.17400
C  24.19300 0.25700 23.71800
C  27.40900 1.95000 24.10600
C  27.75200 3.18100 25.02200
N  27.11200 0.42100 29.20800
C  28.08700 0.10000 28.19100
C  29.30300 -0.10800 28.89800
C  29.02100 0.11800 30.28100
C  27.69100 0.52600 30.36800
C  30.60100 -0.45300 28.29900
C  29.62600 0.07600 31.62100
O  30.71900 -0.19400 31.99900
C  28.44700 0.56400 32.58000
C  28.29600 -0.46100 33.65700
O  27.44100 -1.30400 33.53600
O  28.95500 -0.22300 34.80200
C  28.49700 -0.97400 35.97700
H  21.66800 1.99800 31.91400
H  22.69800 1.92400 25.54400
H  28.54500 0.12600 26.00800
H  25.53800 0.67000 34.09100
H  23.90700 2.89100 33.51500
H  22.65000 0.10200 33.31600
H  22.18600 1.63800 34.23600
H  23.36200 0.48300 34.88600
H  25.75700 3.66600 33.89100
H  27.17400 2.99800 33.48500
H  27.80900 2.79000 35.75300
H  26.41300 1.76800 35.92300
H  19.45100 3.09600 30.50900
H  19.75200 1.41700 31.13200
H  18.78100 1.68400 29.66500
H  18.74000 3.55700 28.06400
H  17.95100 2.21400 27.10600
H  18.35400 3.57600 26.24600
H  24.60700 2.29700 24.17100
H  26.68400 -0.01600 24.33400
H  24.83400 -0.36900 23.09800
H  23.65100 0.74200 22.90600
H  23.40200 -0.21400 24.30200
H  26.93800 2.49000 23.28500
H  28.34700 1.48900 23.79700
H  27.14500 3.20000 25.92800
H  27.71400 4.11500 24.46300
H  28.78700 3.10800 25.35700
H  30.27000 -1.04500 27.44500
H  31.15800 -1.14000 28.93500
H  31.28700 0.37700 28.13000
H  28.82000 1.49400 33.01100
H  27.44800 -0.70700 36.10000
H  29.09100 -0.89200 36.88700
H  28.48500 -2.02700 35.69600
Mg 47.52500 16.15700 28.90600
C  45.67100 15.59400 31.82400
C  49.60100 18.25200 30.74700
C  49.35000 16.80100 26.12300
C  45.13800 14.60300 27.07200
N  47.50700 16.88300 31.05200
C  46.75300 16.46000 32.05700
C  47.33600 16.82000 33.45400
C  48.37100 17.89500 32.99100
C  48.54300 17.60800 31.49400
C  48.15400 19.41100 33.18500
C  47.86900 15.51000 34.18800
C  47.78500 15.53700 35.71400
H  47.39700 16.91100 36.40400
N  49.32200 17.30800 28.50100
C  50.00600 18.05300 29.40500
C  51.19800 18.47800 28.72900
C  51.09800 18.23000 27.35600
C  49.90700 17.45100 27.24800
C  52.28400 19.20300 29.54200
C  52.13100 18.55400 26.14400
O  51.98700 18.22100 24.99500
C  53.44500 19.22600 26.54500
N  47.30400 15.75900 26.93100
C  48.19600 16.08500 26.00100
C  47.65000 15.74400 24.57500
C  46.43400 14.87000 24.94300
C  46.22300 15.17200 26.38200
C  47.27000 16.98000 23.67200
C  46.51800 13.37400 24.48100
C  45.73900 13.09600 23.11600
N  45.79700 15.19000 29.29900
C  44.89000 14.62100 28.47300
C  43.88800 13.97600 29.22500
C  44.18200 14.27300 30.57600
C  45.33300 15.06300 30.59300
C  42.65000 13.13300 28.74700
C  43.68000 14.08600 31.93000
O  42.66500 13.56000 32.37400
C  44.66400 15.02500 32.80500
C  43.96800 16.15800 33.49100
O  43.75200 17.30800 33.13900
O  43.67000 15.70300 34.76300
C  43.23800 16.73000 35.77200
H  50.29200 18.86000 31.33400
H  49.81700 16.80000 25.13600
H  44.48100 13.95600 26.48700
H  46.41900 17.20500 33.89800
H  49.31400 17.69700 33.50100
H  49.00300 19.92200 33.63900
H  47.28400 19.60300 33.81300
H  47.96400 19.84000 32.20100
H  48.86600 15.30200 33.80000
H  47.19000 14.70400 33.91200
H  48.75600 15.19300 36.06800
H  47.01200 14.85500 36.07000
H  52.99600 19.72200 28.90000
H  52.93100 18.47800 30.03700
H  51.89900 19.96200 30.22300
H  53.94700 18.70500 27.36100
H  53.25500 20.25900 26.83700
H  54.05400 19.35100 25.65000
H  48.41700 15.11700 24.12100
H  45.52900 15.28400 24.49800
H  47.55600 17.85200 24.26100
H  46.22100 16.99400 23.37500
H  47.84900 16.87500 22.75500
H  46.25500 12.72800 25.31900
H  47.54700 13.14300 24.20800
H  45.26100 12.14300 23.34200
H  46.39000 12.90800 22.26200
H  44.88600 13.71100 22.82900
H  42.83800 12.72700 27.75300
H  41.69300 13.65400 28.77200
H  42.57700 12.34900 29.50100
H  45.10500 14.49100 33.64600
H  43.54600 16.41200 36.76800
H  42.15300 16.80900 35.83800
H  43.72100 17.69900 35.64500

