158

Mg 31.23600 58.78400 41.29700
C  28.22100 57.41500 40.01000
C  32.88000 56.10600 39.97000
C  33.99400 60.50800 41.82800
C  29.25100 61.73900 42.02400
N  30.63100 57.06900 39.94300
C  29.31800 56.64900 39.63100
C  29.37600 55.23500 39.00800
C  30.86700 54.75700 39.33200
C  31.55400 56.06700 39.79000
C  30.98200 53.62200 40.37500
C  28.96800 55.38900 37.49900
C  27.63900 54.74400 36.98900
H  27.50400 54.48900 35.49900
N  33.15300 58.33500 41.05100
C  33.59400 57.17600 40.43800
C  35.02100 57.23700 40.46400
C  35.44100 58.50000 40.97400
C  34.14800 59.17500 41.25800
C  35.80800 56.08600 39.83300
C  36.87000 59.00800 41.16700
O  37.76100 58.19200 40.95000
C  37.20100 60.28000 41.74600
N  31.59800 60.85700 41.91400
C  32.86500 61.29100 42.13200
C  32.84100 62.81200 42.37800
C  31.32600 63.18100 42.63000
C  30.67300 61.84500 42.19100
C  33.74200 63.36000 43.44600
C  30.80800 64.36600 41.79900
C  29.87800 65.33500 42.55200
N  29.18100 59.53000 41.17300
C  28.51400 60.66800 41.52800
C  27.09800 60.54700 41.33900
C  26.94800 59.28700 40.85200
C  28.22300 58.66100 40.70400
C  26.00700 61.49200 41.78100
C  25.95500 58.42100 40.39400
O  24.73400 58.55600 40.31100
C  26.69000 57.10400 39.85800
C  26.29500 55.88800 40.53300
O  26.87600 55.30900 41.48300
O  25.16300 55.32500 40.01100
C  24.61000 54.01200 40.54300
H  33.45100 55.29500 39.51500
H  34.88400 61.13800 41.89200
H  28.67400 62.59400 42.38400
H  28.62200 54.67100 39.55700
H  31.31500 54.37900 38.41300
H  30.07300 53.36500 40.91900
H  31.82600 53.82500 41.03400
H  31.31100 52.78200 39.76300
H  29.81300 55.35700 36.81100
H  28.74900 56.45000 37.37900
H  26.95400 55.57000 37.17500
H  27.20000 53.92400 37.55800
H  35.62200 56.00300 38.76200
H  35.44200 55.18300 40.32100
H  36.83900 56.21800 40.16100
H  36.70600 60.48000 42.69600
H  36.84600 61.05900 41.07100
H  38.24400 60.39400 42.04100
H  33.12700 63.33000 41.46300
H  30.99100 63.32700 43.65700
H  34.11700 62.61400 44.14600
H  33.22200 64.08800 44.06800
H  34.56400 63.82400 42.90000
H  30.25900 64.01200 40.92700
H  31.66600 64.89900 41.38900
H  28.91500 64.82400 42.56400
H  29.72300 66.30400 42.07800
H  30.32800 65.53400 43.52500
H  25.83400 62.19800 40.96900
H  26.32900 61.93400 42.72400
H  25.08900 60.96800 42.04600
H  26.47400 56.90800 38.80800
H  23.91300 54.13700 41.37200
H  25.36500 53.28700 40.84700
H  24.08200 53.54600 39.71100
Mg -9.43500 39.65000 41.64400
C  -8.35400 36.24700 41.32100
C  -6.28200 40.57000 40.39400
C  -10.74300 42.60700 40.88600
C  -12.76300 38.34200 42.15700
N  -7.53300 38.54200 40.98400
C  -7.35300 37.17300 40.92300
C  -5.98500 36.87700 40.39700
C  -5.24700 38.30800 40.44700
C  -6.43200 39.21700 40.63100
C  -4.07800 38.52300 41.48000
C  -6.15100 36.26700 38.96800
C  -5.71500 34.77300 38.85800
H  -4.98600 34.35600 37.56300
N  -8.57900 41.36900 40.80700
C  -7.32500 41.54400 40.40600
C  -7.25400 42.92200 39.82500
C  -8.47900 43.57900 40.13500
C  -9.29900 42.50500 40.64000
C  -6.10000 43.55000 39.18800
C  -8.86100 45.07500 39.86400
O  -8.12100 45.81300 39.16000
C  -10.15600 45.69200 40.22500
N  -11.45400 40.37000 41.47800
C  -11.69600 41.65000 41.31900
C  -13.21300 42.07800 41.73800
C  -13.77000 40.63200 42.01900
C  -12.60800 39.71400 41.89300
C  -13.27400 43.07600 42.93800
C  -15.05900 40.21300 41.18800
C  -16.35500 40.00900 42.00300
N  -10.44400 37.70900 41.79100
C  -11.76200 37.34600 42.00500
C  -11.84800 35.98500 42.04200
C  -10.56300 35.48000 41.85400
C  -9.68100 36.56700 41.63600
C  -13.15200 35.29100 42.21900
C  -9.74200 34.28900 41.76300
O  -10.06900 33.14100 41.88400
C  -8.29200 34.72400 41.38000
C  -7.30000 34.26800 42.45200
O  -6.94300 34.81800 43.46100
O  -6.75600 33.15500 41.91600
C  -5.54000 32.63400 42.65500
H  -5.23900 40.81700 40.18100
H  -11.10300 43.63600 40.81700
H  -13.77300 38.13200 42.51400
H  -5.51600 36.10800 41.01000
H  -4.89500 38.53700 39.44100
H  -4.17000 39.25800 42.28000
H  -3.39500 39.04500 40.81000
H  -3.71800 37.57300 41.87500
H  -5.42000 36.74200 38.31400
H  -7.17300 36.48600 38.65900
H  -6.65500 34.24500 38.70100
H  -5.26900 34.43100 39.79200
H  -6.27700 43.91300 38.17500
H  -5.33100 42.77900 39.14000
H  -5.63800 44.31700 39.81000
H  -10.44700 45.43700 41.24400
H  -10.87200 45.31400 39.49600
H  -10.09100 46.78000 40.23100
H  -13.57300 42.50800 40.80400
H  -13.97000 40.61500 43.09100
H  -12.24700 43.33100 43.19800
H  -13.73700 42.70500 43.85200
H  -13.88400 43.92700 42.63300
H  -14.84000 39.30100 40.63300
H  -15.32100 41.07000 40.56900
H  -16.25900 40.12900 43.08200
H  -16.66800 38.96900 41.91000
H  -17.03100 40.73700 41.55500
H  -13.40800 34.98600 41.20400
H  -14.00700 35.82900 42.62800
H  -13.14600 34.45200 42.91500
H  -8.02500 34.19400 40.46600
H  -4.84500 32.14700 41.97100
H  -5.86800 31.92700 43.41700
H  -5.05800 33.44700 43.19800

