158

Mg 1.09600 6.84800 26.21600
C  1.32900 8.99900 29.08400
C  1.47300 4.17400 28.39400
C  0.78200 4.84400 23.61200
C  1.20100 9.70600 24.19500
N  1.39600 6.63200 28.49700
C  1.26400 7.61700 29.38500
C  1.31000 7.08300 30.82500
C  1.54600 5.55500 30.63300
C  1.53200 5.43200 29.07100
C  2.86100 5.01700 31.28100
C  -0.01200 7.38500 31.61200
C  -0.04900 7.46000 33.17000
H  1.25200 7.19800 33.92800
N  1.06400 4.79600 26.00800
C  1.28900 3.82200 27.02900
C  1.15700 2.50300 26.45700
C  0.89500 2.68500 25.08100
C  0.92200 4.15200 24.82400
C  1.29800 1.17500 27.22400
C  0.57300 1.61400 24.04900
O  0.34000 1.86300 22.88300
C  0.55500 0.12300 24.44100
N  1.02800 7.23400 24.21500
C  0.79600 6.23200 23.36300
C  0.62300 6.80900 21.89900
C  0.47200 8.35800 22.05100
C  0.89100 8.44500 23.60400
C  1.72500 6.31500 20.98700
C  -0.99100 8.82200 21.88200
C  -1.17300 10.00000 20.84200
N  1.32500 8.93600 26.47800
C  1.32700 9.93900 25.54000
C  1.57300 11.21500 26.18100
C  1.55700 10.86700 27.55000
C  1.43000 9.50200 27.71100
C  1.61200 12.61100 25.52600
C  1.56200 11.46700 28.92400
O  1.63700 12.67000 29.28500
C  1.38600 10.32500 29.86000
C  2.55300 10.32200 30.80900
O  3.68500 9.92000 30.68200
O  2.15900 11.04800 31.91200
C  3.16800 11.22500 32.98300
H  1.43400 3.35700 29.11700
H  0.64100 4.30000 22.67600
H  1.07300 10.55600 23.52100
H  2.14600 7.53000 31.36200
H  0.68100 5.05000 31.06300
H  3.44100 5.79300 31.78000
H  3.57500 4.42900 30.70400
H  2.42700 4.30700 31.98500
H  -0.77500 6.67200 31.30100
H  -0.35700 8.36000 31.26900
H  -0.68200 6.63500 33.49700
H  -0.33900 8.48600 33.40000
H  0.31100 0.72300 27.12700
H  1.39000 1.39500 28.28700
H  2.20800 0.67600 26.89000
H  -0.30900 -0.04800 25.08400
H  1.46000 -0.24100 24.92700
H  0.45600 -0.44100 23.51300
H  -0.34600 6.43100 21.57300
H  1.25200 8.89400 21.51000
H  2.53000 5.81200 21.52300
H  2.19100 7.13300 20.43900
H  1.28600 5.60300 20.28800
H  -1.41800 9.18900 22.81600
H  -1.64800 8.02500 21.53400
H  -0.15200 10.32400 20.64000
H  -1.68700 10.88200 21.22600
H  -1.76700 9.74200 19.96500
H  1.13400 13.27700 26.24500
H  0.93400 12.64300 24.67300
H  2.60900 13.01100 25.34200
H  0.42500 10.31000 30.37400
H  3.98500 11.89500 32.71600
H  3.62500 10.26000 33.20500
H  2.78100 11.63100 33.91800
Mg -1.28400 34.19700 27.38800
C  -3.02800 32.90900 30.07100
C  0.37300 36.34600 29.40100
C  -0.34800 36.10400 24.64900
C  -3.32700 32.39800 25.16000
N  -1.31700 34.51500 29.51700
C  -2.04100 33.80500 30.50300
C  -1.65500 34.21300 31.92000
C  -0.63800 35.39100 31.68600
C  -0.41700 35.35300 30.11200
C  -1.25000 36.76400 32.23500
C  -1.01900 33.03000 32.71500
C  -1.71000 32.54600 34.03500
H  -0.78000 32.08600 35.15100
N  -0.07700 35.99900 27.06100
C  0.50300 36.65500 28.04000
C  1.38400 37.72100 27.48600
C  1.08100 37.78600 26.11500
C  0.17200 36.60100 25.87600
C  2.42900 38.41800 28.29700
C  1.53100 38.72600 25.08700
O  1.24300 38.70100 23.92400
C  2.43800 39.85600 25.47600
N  -1.71000 34.11800 25.24300
C  -1.17900 35.01700 24.33300
C  -1.71700 34.68800 22.93300
C  -2.17300 33.26900 23.00100
C  -2.37900 33.21100 24.60600
C  -2.65400 35.73900 22.24300
C  -1.31100 32.09600 22.42700
C  -0.30500 31.51300 23.35100
N  -2.84700 32.97100 27.58800
C  -3.62600 32.32500 26.56500
C  -4.55000 31.40600 27.21800
C  -4.36400 31.58500 28.57200
C  -3.35800 32.62900 28.76200
C  -5.38700 30.39900 26.51500
C  -4.74700 31.06400 29.84900
O  -5.47600 30.19000 30.22700
C  -3.91100 31.94600 30.85200
C  -4.84300 32.71900 31.66200
O  -5.25300 33.83500 31.29700
O  -5.13400 32.18200 32.84800
C  -6.01900 32.96900 33.66700
H  1.06100 36.95500 29.99200
H  0.01500 36.72100 23.82400
H  -3.86100 31.81100 24.40900
H  -2.59000 34.58400 32.34000
H  0.35700 35.15400 32.06400
H  -2.10800 36.52300 32.86200
H  -1.49500 37.33600 31.34100
H  -0.40900 37.23000 32.75000
H  0.04900 33.18800 32.86100
H  -1.08700 32.25100 31.95600
H  -2.26100 31.63500 33.79900
H  -2.52400 33.21400 34.31800
H  3.33600 38.72800 27.77900
H  2.78800 37.81200 29.12900
H  1.96800 39.29100 28.76000
H  3.43300 39.50600 25.75200
H  2.01800 40.39000 26.32900
H  2.57800 40.62100 24.71300
H  -0.76700 34.62000 22.40300
H  -3.17700 33.12200 22.60200
H  -2.31800 36.19400 21.31200
H  -2.80800 36.61800 22.86800
H  -3.60100 35.22100 22.08600
H  -0.74900 32.53600 21.60200
H  -2.00100 31.39700 21.95500
H  0.67200 31.98400 23.24500
H  -0.26700 30.43900 23.16700
H  -0.70600 31.47600 24.36400
H  -4.75400 29.64900 26.04100
H  -6.00200 30.84300 25.73300
H  -6.06600 30.06200 27.29800
H  -3.35400 31.34600 31.57200
H  -6.48100 32.23000 34.32200
H  -6.68900 33.71900 33.24600
H  -5.37100 33.65000 34.21900

