158

Mg 1.00100 8.36100 26.40300
C  1.81500 10.22800 29.11700
C  1.19600 5.49900 28.46700
C  0.79400 6.49500 23.67400
C  1.37800 11.19600 24.35000
N  1.41900 7.93000 28.57000
C  1.51600 8.91100 29.44300
C  1.52600 8.36400 30.90400
C  1.56600 6.74800 30.68300
C  1.40500 6.71200 29.11200
C  2.82600 5.95800 31.21700
C  0.32800 8.95100 31.79500
C  -0.09700 8.28300 33.16800
H  1.07200 7.71300 33.97100
N  0.95500 6.25000 26.10700
C  1.09600 5.23600 27.06000
C  1.03400 3.99200 26.39100
C  0.79700 4.28400 24.95000
C  0.89200 5.75600 24.86600
C  0.96800 2.71900 27.13400
C  0.51600 3.33000 23.87100
O  -0.02600 3.69000 22.83200
C  0.72200 1.94300 24.04400
N  1.05200 8.85600 24.31900
C  0.77800 7.85500 23.44400
C  0.62300 8.39900 22.01100
C  0.46600 9.93200 22.31800
C  0.98900 10.06100 23.75900
C  1.76400 7.90500 21.09200
C  -0.95300 10.45900 22.15600
C  -1.33000 10.70600 20.69500
N  1.67000 10.29100 26.61100
C  1.82200 11.31300 25.69500
C  2.13300 12.51600 26.42500
C  2.21300 12.14100 27.74400
C  1.88800 10.77300 27.81400
C  2.46400 13.83400 25.81800
C  2.58800 12.54400 29.08900
O  2.89500 13.68200 29.49100
C  2.22500 11.33700 30.07000
C  3.45200 10.93600 30.79100
O  4.38400 10.23600 30.27500
O  3.51000 11.52200 32.02500
C  4.76600 11.49900 32.77000
H  1.17400 4.60300 29.09000
H  0.65400 5.85100 22.80400
H  1.37300 12.11300 23.75700
H  2.50600 8.63500 31.29700
H  0.64000 6.23800 30.94800
H  3.57500 6.53700 31.75700
H  3.28300 5.45300 30.36600
H  2.44200 5.24800 31.95000
H  -0.53000 8.93800 31.12200
H  0.59100 9.99100 31.99200
H  -0.86900 7.52600 33.03000
H  -0.56000 9.04700 33.79300
H  0.26300 2.01000 26.70000
H  0.74600 2.76800 28.20000
H  1.91500 2.18600 27.04300
H  1.66200 1.71700 24.54700
H  0.86500 1.56200 23.03300
H  -0.13100 1.40500 24.45900
H  -0.25100 8.00300 21.49500
H  1.13300 10.54300 21.71100
H  2.34300 7.09600 21.53800
H  2.51000 8.69700 21.16500
H  1.41400 7.76400 20.07000
H  -1.01700 11.30200 22.84500
H  -1.59200 9.70100 22.60800
H  -0.50300 10.44200 20.03500
H  -1.36500 11.79000 20.58400
H  -2.31300 10.38000 20.35500
H  1.48300 14.30700 25.84000
H  3.03100 13.81600 24.88700
H  3.06200 14.41400 26.52200
H  1.53800 11.76600 30.80000
H  5.05700 12.52700 32.98300
H  5.56500 10.83900 32.43200
H  4.51300 11.20900 33.79000
Mg 41.25000 8.67300 30.18900
C  42.73100 9.59400 33.30900
C  38.92600 6.95300 31.99000
C  40.00300 7.49300 27.29700
C  44.06100 9.95000 28.49700
N  41.07100 8.27900 32.36500
C  41.62400 8.80600 33.47400
C  40.97200 8.36200 34.74200
C  39.90500 7.29600 34.28700
C  39.92300 7.51700 32.76000
C  40.32100 5.80200 34.63100
C  40.38500 9.48000 35.55500
C  40.85200 9.61500 36.99300
H  41.03600 11.02200 37.54500
N  39.67400 7.43900 29.72900
C  38.71000 6.91800 30.58400
C  37.60100 6.24900 29.84000
C  37.89100 6.51200 28.44300
C  39.25500 7.12100 28.45100
C  36.37000 5.73400 30.46700
C  37.11000 6.06200 27.17600
O  37.50300 6.17300 26.00900
C  35.71400 5.67400 27.34800
N  41.97700 8.53800 28.19800
C  41.26900 8.06000 27.12800
C  41.91400 8.41000 25.77700
C  43.23000 9.11400 26.23700
C  43.08700 9.20600 27.72100
C  42.22500 7.22900 24.87500
C  43.34700 10.52100 25.50900
C  42.53700 11.66800 26.02000
N  43.09300 9.54500 30.75700
C  44.05600 10.05200 29.92900
C  44.91900 10.84300 30.79300
C  44.50600 10.70400 32.10300
C  43.40800 9.86500 32.02300
C  46.03800 11.71600 30.30300
C  44.75500 10.98100 33.48600
O  45.61400 11.72200 33.96100
C  43.61500 10.27100 34.33200
C  44.31400 9.32400 35.16600
O  44.98300 8.37000 34.79500
O  44.25500 9.82300 36.49000
C  45.00500 9.04100 37.54300
H  38.21500 6.45000 32.64800
H  39.53500 7.36500 26.31900
H  44.78900 10.53700 27.93300
H  41.68200 7.86700 35.40400
H  38.85100 7.47000 34.50500
H  41.34700 5.72800 34.99200
H  40.18500 5.07300 33.83200
H  39.71200 5.48900 35.47900
H  39.31400 9.31800 35.68200
H  40.52100 10.45900 35.09600
H  41.77800 9.10700 37.26000
H  40.06500 9.17300 37.60500
H  36.38800 5.66300 31.55500
H  36.25500 4.75200 30.00800
H  35.41500 6.24800 30.35500
H  35.21200 5.73400 26.38200
H  35.12200 6.27200 28.04100
H  35.61300 4.64100 27.68000
H  41.33600 9.18500 25.27300
H  44.19100 8.63800 26.04300
H  41.75800 6.32000 25.25300
H  43.30600 7.10500 24.80800
H  41.78600 7.42800 23.89700
H  42.91800 10.40100 24.51400
H  44.37800 10.87500 25.49300
H  43.22600 12.48600 26.23100
H  41.95900 11.57300 26.93900
H  41.75200 11.99000 25.33600
H  46.85500 11.70300 31.02400
H  45.70300 12.74500 30.43900
H  46.46600 11.35800 29.36700
H  43.15100 11.10900 34.85200
H  45.17200 8.00800 37.23700
H  44.62900 8.94600 38.56200
H  45.98200 9.52300 37.58500

