158

Mg 40.29000 9.69000 29.47400
C  42.27400 10.63800 32.12800
C  37.96100 8.61400 31.57400
C  38.51500 8.53000 26.79700
C  43.11700 10.37700 27.28400
N  40.25200 9.46800 31.65600
C  41.06900 10.01100 32.57300
C  40.54600 9.90700 34.02900
C  39.23900 9.05300 33.74100
C  39.11800 9.06400 32.18900
C  39.19400 7.63700 34.42600
C  40.25000 11.33200 34.69800
C  39.52700 11.44300 35.99000
H  40.25600 11.96600 37.27200
N  38.44300 8.80600 29.23500
C  37.57200 8.49400 30.22000
C  36.36100 8.01100 29.65900
C  36.46400 7.96700 28.24200
C  37.82600 8.46000 28.01800
C  35.25900 7.71100 30.67500
C  35.44800 7.47100 27.11400
O  35.63000 7.50200 25.88300
C  34.10700 7.04300 27.64400
N  40.70900 9.59700 27.32000
C  39.86200 8.96300 26.47900
C  40.51000 8.74000 25.03100
C  41.93200 9.36600 25.25900
C  41.93300 9.88600 26.66200
C  40.37700 7.33100 24.44200
C  42.46900 10.42600 24.27000
C  42.10300 11.95800 24.52500
N  42.27100 10.37400 29.60100
C  43.23000 10.70100 28.68700
C  44.40400 11.35900 29.32400
C  43.93300 11.47900 30.63700
C  42.70600 10.82800 30.78400
C  45.66000 11.90500 28.74200
C  44.36400 11.89500 31.93000
O  45.42900 12.45000 32.27600
C  43.27100 11.42000 32.95900
C  43.89200 10.52000 33.93700
O  44.33200 9.37000 33.73500
O  43.90700 11.18700 35.10300
C  44.38800 10.50900 36.30000
H  37.18300 8.35300 32.29500
H  37.89200 8.29300 25.93100
H  44.05000 10.40000 26.71800
H  41.34400 9.38900 34.56200
H  38.38900 9.65600 34.06200
H  39.30700 6.91600 33.61500
H  38.21500 7.55900 34.89900
H  40.04500 7.52500 35.09900
H  39.80000 11.92100 33.90000
H  41.17400 11.90400 34.77200
H  39.29000 10.40600 36.22700
H  38.66900 12.10600 35.88600
H  35.29900 8.50800 31.41800
H  35.50900 6.76200 31.14900
H  34.24500 7.69000 30.27600
H  34.25300 6.35300 28.47500
H  33.46800 6.61300 26.87300
H  33.67400 7.96200 28.03700
H  39.99500 9.42100 24.35300
H  42.55500 8.47300 25.32200
H  41.23800 6.96200 23.88400
H  39.47600 7.23000 23.83700
H  40.20000 6.72600 25.33100
H  42.11200 10.06300 23.30700
H  43.55000 10.33200 24.16900
H  41.27500 12.03400 25.23000
H  41.68800 12.37100 23.60500
H  42.95500 12.59800 24.75100
H  45.84800 11.31000 27.84800
H  46.46700 11.77900 29.46400
H  45.62700 12.97600 28.54100
H  42.80900 12.27500 33.45300
H  43.49300 10.40700 36.91400
H  45.14900 11.11100 36.79600
H  44.76400 9.49100 36.20100
Mg 42.60800 42.24000 25.82200
C  41.33300 44.35900 28.26300
C  43.81500 40.23500 28.24000
C  43.60700 40.06400 23.44100
C  41.57500 44.50300 23.44600
N  42.39100 42.23400 28.02300
C  41.91200 43.21500 28.86300
C  42.07600 42.94900 30.31200
C  43.00200 41.60700 30.30100
C  43.15900 41.35100 28.74700
C  44.39400 41.75800 30.96300
C  40.77400 42.74000 31.16800
C  40.83500 43.43400 32.55300
H  39.60700 43.58400 33.44900
N  43.63600 40.39900 25.81900
C  43.95500 39.73600 26.97500
C  44.49500 38.44800 26.57500
C  44.57300 38.39600 25.17200
C  43.92500 39.59300 24.73000
C  44.96600 37.38100 27.64800
C  45.31300 37.44700 24.31200
O  45.35900 37.64900 23.08500
C  46.08700 36.30900 24.83600
N  42.63000 42.25800 23.75200
C  43.16500 41.32000 22.92500
C  43.18300 41.82400 21.46500
C  42.36300 43.09100 21.51700
C  42.15600 43.34500 22.97500
C  44.58500 42.00800 20.82000
C  41.07800 42.88100 20.69000
C  40.52000 44.18800 19.96300
N  41.53200 44.02800 25.78000
C  41.17400 44.85100 24.75400
C  40.55300 46.08100 25.21200
C  40.59000 45.89700 26.65300
C  41.19400 44.66600 26.87200
C  40.00600 47.21100 24.42800
C  40.25200 46.46400 27.96900
O  39.70600 47.52100 28.24300
C  40.67600 45.52900 29.05700
C  41.74700 46.13000 29.82300
O  42.85200 46.29900 29.38600
O  41.28300 46.54000 31.02200
C  42.32600 47.10100 31.88100
H  44.24600 39.58000 29.00000
H  43.99100 39.45000 22.62400
H  41.19000 45.23500 22.73300
H  42.68200 43.73500 30.76300
H  42.56500 40.72600 30.77100
H  44.63000 41.07800 31.78100
H  44.55100 42.69000 31.50400
H  45.21500 41.76000 30.24600
H  40.71800 41.67000 31.36500
H  39.95100 43.05300 30.52600
H  41.49300 44.30200 32.52100
H  41.53300 42.82400 33.12600
H  44.32500 37.59400 28.50400
H  46.01000 37.56000 27.90600
H  44.84500 36.33500 27.36600
H  46.59600 35.74100 24.05800
H  45.45000 35.63000 25.40300
H  46.81200 36.74100 25.52600
H  42.72400 40.95900 20.98700
H  42.92100 44.00300 21.30200
H  44.76600 43.06400 20.62000
H  44.57000 41.44000 19.88900
H  45.27600 41.53700 21.51900
H  40.34400 42.51200 21.40600
H  41.34100 42.14600 19.93000
H  39.49600 44.44700 20.23000
H  40.56600 43.95900 18.89900
H  41.12400 45.07600 20.15100
H  39.54400 47.96700 25.06300
H  39.27700 46.83900 23.70900
H  40.80200 47.73400 23.89900
H  39.88700 45.19000 29.72800
H  43.04400 46.34400 32.19800
H  41.90400 47.64300 32.72700
H  42.86900 47.78300 31.22600

