158

Mg -1.93400 17.19900 26.24300
C  -2.14200 14.92500 28.97000
C  -2.47600 19.84700 28.54600
C  -2.37800 19.23900 23.66500
C  -2.44500 14.44000 24.20600
N  -2.04400 17.36700 28.50200
C  -2.07000 16.32000 29.39100
C  -2.41200 16.88100 30.84100
C  -2.49000 18.44800 30.66500
C  -2.35800 18.58700 29.11600
C  -3.84700 19.09800 31.13000
C  -1.37900 16.38800 31.91500
C  -1.08900 17.32800 33.08600
H  -0.41100 16.75000 34.21300
N  -2.27400 19.17700 26.13300
C  -2.44500 20.12700 27.15500
C  -2.55800 21.40500 26.60400
C  -2.40000 21.31400 25.16600
C  -2.35500 19.85300 24.92800
C  -2.88300 22.61300 27.44600
C  -2.61400 22.32200 24.09200
O  -2.62100 22.12900 22.88700
C  -2.82500 23.68700 24.49200
N  -2.46300 16.86400 24.17200
C  -2.46700 17.87000 23.30200
C  -2.63400 17.44700 21.83600
C  -2.63500 15.89200 22.04300
C  -2.51400 15.69200 23.60300
C  -3.96800 18.00400 21.29800
C  -1.56900 15.18400 21.29900
C  -1.78300 15.21900 19.76200
N  -2.31300 15.14500 26.45800
C  -2.32500 14.15200 25.55700
C  -2.40000 12.84500 26.11700
C  -2.29200 13.10800 27.52700
C  -2.27700 14.50200 27.64900
C  -2.69300 11.54400 25.41100
C  -2.27800 12.48600 28.80800
O  -2.20800 11.28100 29.05900
C  -2.26300 13.69100 29.83100
C  -1.20900 13.30800 30.78300
O  -0.02500 13.45600 30.58600
O  -1.83900 12.78100 31.91900
C  -0.92100 12.35700 32.96900
H  -2.65800 20.60800 29.30800
H  -2.48400 19.85300 22.76800
H  -2.52700 13.66200 23.44400
H  -3.35700 16.36000 30.99600
H  -1.72200 18.96000 31.24500
H  -4.46500 19.37600 30.27600
H  -3.58100 20.01800 31.65000
H  -4.33600 18.38000 31.78900
H  -0.54400 16.14100 31.26100
H  -1.78100 15.46700 32.33900
H  -1.95100 17.94700 33.33400
H  -0.37400 18.10200 32.80900
H  -3.92400 22.88600 27.27300
H  -2.32600 23.50400 27.15600
H  -2.81100 22.48400 28.52600
H  -2.96500 24.36600 23.65100
H  -1.90100 24.00500 24.97300
H  -3.68300 23.76500 25.16000
H  -1.82600 17.81600 21.20500
H  -3.64700 15.52400 21.87100
H  -4.17400 18.91700 21.85800
H  -4.69900 17.19800 21.25000
H  -3.69500 18.37800 20.31200
H  -1.31900 14.14900 21.53100
H  -0.67100 15.78500 21.43600
H  -1.17900 16.04200 19.37800
H  -2.83200 15.45400 19.58100
H  -1.45800 14.33500 19.21400
H  -2.09200 11.41700 24.51100
H  -3.74400 11.64600 25.13900
H  -2.48200 10.66200 26.01500
H  -3.25100 13.76900 30.28600
H  -0.26000 13.19000 33.20800
H  -0.36100 11.49900 32.59600
H  -1.52400 12.27400 33.87300
Mg 0.14700 7.43700 25.46500
C  1.11200 9.54900 28.13600
C  0.54400 4.75400 27.44100
C  -0.46300 5.57600 22.82700
C  0.60900 10.28100 23.31200
N  0.89900 7.20200 27.58900
C  1.07300 8.15000 28.48800
C  1.23400 7.55600 29.90500
C  1.36300 6.03300 29.57500
C  0.98700 5.94200 28.09700
C  2.81000 5.42400 29.66800
C  -0.05600 7.92200 30.76500
C  -0.46300 7.04800 31.99000
H  0.68400 6.63400 32.98800
N  -0.02900 5.39000 25.21500
C  0.09600 4.42800 26.11400
C  -0.27600 3.14200 25.54300
C  -0.36600 3.40200 24.12000
C  -0.22300 4.83200 24.00500
C  -0.17300 1.88500 26.39900
C  -0.56200 2.33600 22.99100
O  -0.66200 2.67300 21.78200
C  -0.51700 0.83200 23.32900
N  0.05100 7.86300 23.35500
C  -0.46300 6.98600 22.52400
C  -0.74600 7.46600 21.16300
C  -0.51600 9.06200 21.39500
C  0.20500 9.08800 22.73900
C  0.01700 6.97800 19.96400
C  -1.84100 9.86900 21.51200
C  -2.01900 10.80900 20.30300
N  0.72300 9.52700 25.66500
C  0.78700 10.51500 24.67500
C  1.20000 11.73600 25.32400
C  1.32600 11.43700 26.72500
C  1.11700 10.05300 26.82600
C  1.13900 13.08800 24.69000
C  1.66600 11.88200 28.01400
O  1.89500 13.02100 28.38100
C  1.43100 10.69800 29.05400
C  2.65700 10.61800 29.75000
O  3.72800 10.24300 29.32500
O  2.39900 10.82100 31.10800
C  3.44700 10.22300 31.98900
H  0.61000 3.88800 28.10300
H  -0.91100 4.92900 22.07100
H  0.53300 11.14900 22.65400
H  2.13500 7.92400 30.39500
H  0.73100 5.39600 30.19300
H  2.81300 4.46400 30.18300
H  3.36800 6.14300 30.26800
H  3.29800 5.17700 28.72500
H  -0.89300 8.07800 30.08400
H  0.22400 8.88300 31.19500
H  -0.90200 6.16600 31.52500
H  -1.23100 7.67000 32.44900
H  0.31100 1.11900 25.79200
H  -1.18700 1.52100 26.56800
H  0.34500 2.08400 27.33700
H  -0.57500 0.31700 22.36900
H  -1.32200 0.66600 24.04600
H  0.45600 0.62700 23.77500
H  -1.81300 7.39800 20.95200
H  0.16100 9.35300 20.59200
H  0.48300 6.04000 20.26700
H  0.72800 7.70000 19.56300
H  -0.74000 6.75500 19.21200
H  -1.80000 10.42400 22.44900
H  -2.75800 9.28800 21.60600
H  -1.88800 10.14800 19.44700
H  -1.21300 11.52700 20.14900
H  -3.00400 11.27300 20.35400
H  2.14900 13.29600 24.33600
H  0.82700 13.74400 25.50300
H  0.43200 13.10800 23.86100
H  0.52900 10.98000 29.59800
H  4.46300 10.55300 31.77300
H  3.43800 9.13500 32.04200
H  3.36100 10.43100 33.05600

