158

Mg 46.76200 24.81500 28.53000
C  47.60600 27.04400 31.11300
C  46.07300 22.52200 30.95800
C  46.41100 22.63400 26.00900
C  47.86600 27.25800 26.24700
N  46.80800 24.87200 30.77300
C  47.06500 25.85200 31.58900
C  46.92500 25.47100 33.10500
C  46.72200 23.96500 32.98600
C  46.40400 23.76500 31.47600
C  47.76000 22.89000 33.47600
C  45.64000 26.21700 33.74000
C  45.86100 26.48000 35.24100
H  44.71400 26.27500 36.22300
N  46.18100 22.82600 28.48600
C  45.97800 22.11200 29.63200
C  45.68900 20.80800 29.18500
C  45.66800 20.80300 27.69400
C  46.07800 22.15100 27.31500
C  45.39300 19.66600 30.23400
C  45.36500 19.63800 26.69600
O  45.49400 19.72700 25.45700
C  44.91600 18.36600 27.25900
N  47.24400 24.91100 26.47100
C  47.03100 23.89000 25.63400
C  47.43600 24.27100 24.18200
C  47.40800 25.81300 24.22300
C  47.42000 26.05800 25.72200
C  48.85100 23.73900 23.56500
C  46.22700 26.43100 23.49300
C  44.85200 26.17000 24.23500
N  47.61300 26.76800 28.59300
C  47.94000 27.64700 27.58800
C  48.40500 28.88400 28.21400
C  48.31700 28.65600 29.57100
C  47.91600 27.36300 29.75800
C  49.11500 30.01700 27.42100
C  48.51500 29.28700 30.82500
O  48.88500 30.40500 31.11200
C  48.06100 28.28000 31.89800
C  49.04800 28.05900 32.96900
O  50.21200 27.67600 32.77200
O  48.40200 28.39800 34.18300
C  49.32800 28.48100 35.33800
H  45.84500 21.78500 31.73100
H  46.43200 21.99100 25.12700
H  48.19500 27.96500 25.48300
H  47.86700 25.73800 33.58500
H  45.78500 23.63200 33.43200
H  48.24100 22.28300 32.70800
H  47.33700 22.16800 34.17400
H  48.53200 23.46300 33.98900
H  44.78200 25.57900 33.52500
H  45.48100 27.17900 33.25300
H  46.13700 27.51200 35.45800
H  46.70300 25.87800 35.58500
H  45.47200 19.89400 31.29700
H  46.05400 18.79900 30.22200
H  44.39600 19.24600 30.10200
H  44.81300 17.58200 26.50900
H  44.04400 18.42200 27.91200
H  45.71700 18.01300 27.90900
H  46.61400 24.07700 23.49200
H  48.33300 26.19300 23.79000
H  49.55300 24.54700 23.35900
H  48.64600 23.25800 22.60800
H  49.12700 22.90500 24.21000
H  46.12300 26.10600 22.45800
H  46.30800 27.51700 23.45200
H  43.95900 26.09300 23.61400
H  44.66900 27.01100 24.90300
H  44.85600 25.16600 24.65900
H  49.41500 29.76900 26.40300
H  49.99600 30.29800 27.99900
H  48.49300 30.91300 27.41100
H  47.11800 28.73900 32.19600
H  48.83400 27.99400 36.17900
H  49.45100 29.55100 35.50600
H  50.24600 27.92200 35.15600
Mg -4.65000 25.23100 26.24200
C  -3.59000 26.75500 29.14600
C  -6.27700 22.87400 28.40900
C  -5.88000 23.65500 23.60000
C  -2.93200 27.46100 24.38900
N  -4.94000 24.89000 28.58700
C  -4.41900 25.72900 29.49900
C  -4.98000 25.42600 30.87100
C  -5.59800 23.98200 30.69800
C  -5.69500 23.93100 29.10700
C  -4.74700 22.89100 31.21200
C  -6.03800 26.49900 31.35200
C  -6.04800 26.86500 32.80700
H  -5.57400 25.80400 33.79300
N  -5.85400 23.45400 26.08900
C  -6.41700 22.66000 27.06500
C  -7.31300 21.64500 26.38900
C  -7.18100 21.87500 24.97200
C  -6.30300 23.01800 24.85400
C  -7.93600 20.46900 27.07000
C  -7.81300 21.11500 23.81000
O  -7.71600 21.42200 22.64300
C  -8.56000 19.81000 24.07800
N  -4.40500 25.45700 24.21100
C  -5.06700 24.75700 23.29200
C  -4.77700 25.32600 21.88700
C  -3.66300 26.38200 22.12600
C  -3.76700 26.50400 23.65500
C  -4.27900 24.33300 20.82800
C  -3.85400 27.63100 21.28000
C  -4.76600 28.63300 21.95700
N  -3.42700 26.72100 26.61300
C  -2.75100 27.60600 25.78700
C  -1.84800 28.47500 26.45900
C  -2.25600 28.15600 27.77300
C  -3.22100 27.14800 27.82100
C  -1.01300 29.62000 25.94200
C  -2.03500 28.63200 29.07800
O  -1.21600 29.49200 29.41100
C  -2.94300 27.73000 30.06400
C  -2.03900 27.11400 31.00900
O  -1.36100 26.07100 30.78800
O  -2.06800 27.89600 32.15900
C  -1.32700 27.21300 33.24900
H  -6.75700 22.20400 29.12600
H  -6.20600 23.14600 22.69000
H  -2.35800 28.01200 23.64100
H  -4.24000 25.34300 31.66600
H  -6.59200 23.89200 31.13600
H  -4.05700 23.22400 31.98700
H  -4.01900 22.42800 30.54600
H  -5.27000 22.12400 31.78400
H  -7.09300 26.28500 31.17900
H  -5.85200 27.47000 30.89400
H  -7.07800 27.03600 33.12200
H  -5.55700 27.83000 32.93500
H  -8.91300 20.26600 26.62900
H  -8.12500 20.69200 28.12000
H  -7.33600 19.56000 27.05700
H  -9.43600 20.05100 24.68000
H  -7.85500 19.10600 24.52100
H  -8.82000 19.18600 23.22300
H  -5.64000 25.88600 21.52800
H  -2.69100 25.93200 21.92600
H  -4.96500 24.25500 19.98500
H  -4.23600 23.31100 21.20600
H  -3.26700 24.56900 20.50000
H  -4.02300 27.32600 20.24700
H  -2.90900 28.17500 21.26600
H  -4.19600 29.27400 22.62900
H  -5.50700 27.99000 22.43200
H  -5.24800 29.26600 21.21200
H  0.03900 29.47400 26.18600
H  -1.30000 30.55900 26.41600
H  -1.01900 29.73200 24.85700
H  -3.82700 28.21000 30.48400
H  -0.28500 27.05600 32.97000
H  -1.63900 26.20800 33.53500
H  -1.29700 27.81400 34.15800

