158

Mg 9.07500 3.06100 27.69700
C  10.42800 1.77100 30.67300
C  7.09200 5.14000 29.67400
C  7.52300 4.02000 25.06300
C  10.56800 0.29000 26.10700
N  8.60000 3.16400 29.93300
C  9.49300 2.75500 30.90400
C  9.20800 3.40300 32.27800
C  7.91400 4.21700 31.95300
C  7.88000 4.20900 30.38900
C  6.63100 3.58400 32.52400
C  10.43200 4.27600 32.75500
C  10.88900 4.12800 34.21200
H  9.90400 3.65100 35.20800
N  7.60500 4.54600 27.37400
C  7.01100 5.32200 28.29000
C  6.25200 6.26600 27.57000
C  6.24300 5.96000 26.19900
C  7.13000 4.80300 26.10800
C  5.58600 7.50700 28.27100
C  5.50500 6.62200 25.06000
O  5.63100 6.16100 23.91600
C  4.49800 7.86300 25.31700
N  9.23900 2.41700 25.81300
C  8.38800 2.90100 24.89500
C  8.61700 2.29700 23.48200
C  9.44500 1.10800 23.92100
C  9.77700 1.21900 25.38800
C  7.32300 1.87600 22.71800
C  10.68500 0.87400 23.06900
C  10.65600 -0.40400 22.23700
N  10.45000 1.52800 28.22100
C  10.94000 0.52600 27.44000
C  11.81400 -0.31700 28.25500
C  11.69500 0.12900 29.52000
C  10.73000 1.16100 29.45800
C  12.70600 -1.37600 27.70300
C  12.14300 -0.00500 30.86700
O  13.06300 -0.68900 31.29800
C  11.27000 1.03800 31.65800
C  10.46400 0.30000 32.75100
O  9.30300 -0.12500 32.65300
O  11.27200 0.04800 33.85400
C  10.59700 -0.65600 34.86700
H  6.46600 5.88000 30.17700
H  7.16100 4.35000 24.08700
H  10.76500 -0.64900 25.58600
H  8.93900 2.62100 32.98900
H  7.95100 5.22700 32.36100
H  6.37500 4.15900 33.41400
H  6.98200 2.58400 32.78000
H  5.89300 3.39600 31.74500
H  10.12100 5.31200 32.61700
H  11.18700 4.17700 31.97600
H  11.24700 5.12700 34.45600
H  11.79900 3.52900 34.24400
H  6.01600 7.78300 29.23400
H  4.51100 7.34300 28.33700
H  5.68400 8.38300 27.62900
H  3.89900 8.11500 24.44200
H  5.12700 8.72400 25.54400
H  3.84400 7.59600 26.14700
H  9.25500 3.00800 22.95700
H  8.81400 0.22000 23.90800
H  6.49100 2.02500 23.40600
H  7.23800 0.88200 22.27900
H  7.26500 2.47100 21.80700
H  11.58700 0.96200 23.67500
H  10.72400 1.58300 22.24200
H  11.32600 -0.30800 21.38300
H  9.69700 -0.68600 21.80300
H  11.09400 -1.27000 22.73400
H  13.55500 -1.58400 28.35400
H  13.01700 -1.20900 26.67100
H  11.98100 -2.18900 27.65900
H  12.02500 1.71600 32.05600
H  11.14700 -0.52100 35.79800
H  10.56300 -1.72500 34.65600
H  9.58000 -0.31800 35.06400
Mg -4.75900 24.58800 26.47400
C  -2.82500 26.35400 28.70700
C  -5.79600 22.62200 29.09500
C  -6.17400 22.54000 24.11600
C  -3.11600 26.34800 23.94100
N  -4.43200 24.57700 28.64700
C  -3.56700 25.40800 29.33800
C  -3.81300 25.23200 30.78000
C  -4.40600 23.79400 30.98900
C  -4.94600 23.63100 29.50900
C  -3.35600 22.68100 31.35700
C  -4.64800 26.38600 31.40500
C  -4.34200 26.77300 32.86500
H  -5.34000 26.41200 33.91300
N  -5.72700 22.78500 26.61700
C  -6.05300 22.19100 27.75800
C  -6.79300 21.01500 27.35400
C  -7.08500 20.97800 25.95900
C  -6.34000 22.21400 25.51700
C  -7.17900 19.98700 28.45900
C  -7.88800 20.06100 25.13100
O  -8.17200 20.36900 23.97300
C  -8.40200 18.76100 25.78200
N  -4.71800 24.49400 24.36900
C  -5.37400 23.56800 23.60200
C  -5.23500 23.86900 22.05700
C  -4.27100 25.10900 22.06400
C  -3.93800 25.27200 23.57600
C  -4.77300 22.67900 21.23900
C  -4.88000 26.40100 21.43200
C  -4.09900 27.11200 20.35000
N  -3.44800 26.10900 26.32000
C  -2.85100 26.70900 25.19500
C  -1.91900 27.76300 25.59100
C  -1.87000 27.65600 26.96600
C  -2.79800 26.60600 27.32900
C  -1.11300 28.67900 24.61800
C  -1.25500 28.15400 28.20300
O  -0.41300 29.05000 28.34100
C  -1.85300 27.34100 29.37600
C  -0.74000 26.64100 30.17900
O  0.02900 25.86200 29.66200
O  -0.75000 27.05900 31.46300
C  0.27200 26.36400 32.28900
H  -6.14100 22.08100 29.97900
H  -6.82000 22.13600 23.33300
H  -2.75000 26.89900 23.07200
H  -2.81100 25.19700 31.20600
H  -5.29400 23.84300 31.61900
H  -3.38100 21.75500 30.78400
H  -3.24000 22.56300 32.43400
H  -2.37500 23.08000 31.09700
H  -5.67400 26.02300 31.34600
H  -4.64800 27.29000 30.79600
H  -4.28300 27.85300 32.73700
H  -3.31300 26.41600 32.92600
H  -7.34100 20.33400 29.48000
H  -6.41000 19.23400 28.28400
H  -8.17700 19.60500 28.24400
H  -8.75600 18.02600 25.06000
H  -9.16100 19.04800 26.50900
H  -7.58300 18.25600 26.29600
H  -6.25000 24.10500 21.73700
H  -3.31100 24.76900 21.67700
H  -4.36900 21.79100 21.72300
H  -4.08200 22.93300 20.43400
H  -5.66900 22.45600 20.65900
H  -5.05700 27.06600 22.27600
H  -5.88900 26.12000 21.13200
H  -3.10000 26.71400 20.17000
H  -3.90200 28.14700 20.63000
H  -4.64800 27.07300 19.41000
H  -0.63300 29.52900 25.10400
H  -1.88700 29.11100 23.98500
H  -0.36900 27.97700 24.24200
H  -2.39200 28.00700 30.04900
H  1.16000 26.97800 32.14100
H  0.35600 25.30900 32.02600
H  0.00800 26.53800 33.33200

