158

Mg 7.92800 3.05500 27.49100
C  9.60300 2.00600 30.32900
C  6.51100 5.60400 29.44000
C  6.30800 4.17800 24.73500
C  9.34200 0.55600 25.60900
N  8.10600 3.76000 29.61500
C  8.70900 3.03800 30.57800
C  8.53800 3.76100 32.00700
C  7.51700 4.84400 31.60500
C  7.33200 4.68700 30.11200
C  6.03600 4.74400 32.31500
C  9.88200 4.42400 32.46500
C  9.76700 5.22800 33.80100
H  10.77000 4.82000 34.97000
N  6.63800 4.64000 27.14500
C  6.14500 5.57200 28.08900
C  5.27700 6.52800 27.39300
C  5.08800 6.00600 26.00100
C  5.99800 4.86000 25.90700
C  4.54000 7.76700 28.09800
C  4.25400 6.55400 24.84900
O  4.26600 6.06600 23.70000
C  3.56500 7.87200 25.05600
N  7.72400 2.30400 25.44000
C  7.02000 3.00200 24.49900
C  7.12300 2.34400 23.07900
C  8.20700 1.21400 23.38800
C  8.48600 1.34800 24.88700
C  5.83100 1.67900 22.49800
C  9.49900 1.03900 22.53600
C  10.75600 1.89900 22.87100
N  9.11600 1.53300 27.86900
C  9.71800 0.61100 26.97900
C  10.59500 -0.22200 27.74000
C  10.64100 0.30500 29.05800
C  9.64400 1.34700 29.09900
C  11.44100 -1.38000 27.16300
C  11.17100 0.07900 30.34300
O  11.96000 -0.74000 30.78500
C  10.47900 1.24400 31.27700
C  9.81600 0.62700 32.49200
O  8.84700 -0.04500 32.55500
O  10.67900 0.89300 33.53900
C  10.33600 0.36900 34.90000
H  6.23900 6.41200 30.12200
H  5.85100 4.56300 23.82200
H  9.63500 -0.26800 24.95500
H  8.12100 3.10900 32.77500
H  7.81700 5.88000 31.76800
H  5.16200 4.96600 31.70300
H  5.93300 5.45000 33.13900
H  5.80300 3.81400 32.83500
H  10.20900 5.07200 31.65100
H  10.65000 3.68700 32.69900
H  8.76900 5.18100 34.23700
H  9.95300 6.25700 33.49400
H  4.96500 8.75200 27.90200
H  4.55400 7.64900 29.18100
H  3.46200 7.73400 27.93900
H  2.68100 7.68000 25.66400
H  3.09200 8.23800 24.14400
H  4.24900 8.59000 25.50800
H  7.57500 3.06000 22.39400
H  7.62300 0.29400 23.38200
H  5.05100 1.60200 23.25500
H  6.04200 0.66000 22.17500
H  5.46300 2.23900 21.63800
H  9.34600 1.34900 21.50200
H  9.76000 -0.01400 22.63600
H  10.44000 2.70800 23.52900
H  11.16500 2.39700 21.99200
H  11.56400 1.26300 23.23300
H  11.05800 -1.85300 26.25900
H  11.41900 -2.18100 27.90100
H  12.47300 -1.08000 26.97800
H  11.32100 1.91300 31.45600
H  9.33800 0.68000 35.20900
H  11.08600 0.75600 35.59000
H  10.42800 -0.71200 34.79200
Mg 41.85200 40.74300 26.51800
C  41.05200 43.16400 29.11600
C  43.04500 38.78500 28.98400
C  42.56300 38.64900 24.06000
C  41.33600 43.34000 24.17800
N  41.93300 41.02700 28.77800
C  41.43400 41.92800 29.64100
C  41.42800 41.46800 31.08100
C  42.30100 40.22300 31.03000
C  42.40600 39.93000 29.47600
C  43.71600 40.32900 31.69000
C  40.00300 41.35700 31.71200
C  39.87600 42.12500 33.07700
H  38.92600 41.59400 34.17100
N  42.59600 38.97900 26.50600
C  43.20500 38.36000 27.62500
C  43.68100 37.10900 27.24000
C  43.33200 36.93900 25.88200
C  42.78500 38.17100 25.38600
C  44.35600 36.15600 28.22100
C  43.53800 35.73400 24.89800
O  43.23700 35.76500 23.74100
C  44.36000 34.47800 25.43800
N  42.13000 41.07300 24.43700
C  42.31900 39.95900 23.64000
C  42.24900 40.36100 22.19900
C  41.78000 41.83600 22.20500
C  41.76000 42.13100 23.73400
C  43.49700 40.14400 21.32600
C  40.35300 42.13500 21.55700
C  40.08500 43.64800 20.98000
N  41.36300 42.83100 26.52200
C  41.16900 43.67800 25.52800
C  40.79800 44.96900 26.08700
C  40.72000 44.77500 27.45900
C  41.12000 43.46900 27.75100
C  40.44600 46.15700 25.31100
C  40.29600 45.43100 28.67100
O  39.87800 46.52600 28.75700
C  40.52900 44.41700 29.77300
C  41.57500 44.94300 30.71700
O  42.76900 45.06000 30.39400
O  41.05100 45.14000 32.01200
C  42.03900 45.55800 33.04400
H  43.28900 38.08200 29.78300
H  42.81700 37.98300 23.23200
H  41.05300 44.14900 23.50100
H  42.11200 42.08600 31.66300
H  41.72900 39.41400 31.48600
H  43.93300 39.33700 32.08800
H  43.64700 41.05000 32.50500
H  44.55800 40.53900 31.03100
H  39.63900 40.34700 31.89900
H  39.27300 41.75800 31.00800
H  39.57500 43.14300 32.82900
H  40.88100 42.15900 33.49600
H  44.47200 36.64200 29.19000
H  45.33800 35.77900 27.93600
H  43.70900 35.29400 28.38400
H  43.85400 33.87500 26.19200
H  45.16300 34.89700 26.04300
H  44.65800 33.87400 24.58100
H  41.41100 39.76400 21.83900
H  42.50000 42.53900 21.78600
H  44.08100 41.06200 21.39800
H  43.23600 39.99200 20.27800
H  44.02200 39.31300 21.79700
H  39.66500 41.77500 22.32300
H  40.18500 41.39900 20.77000
H  39.50900 44.29300 21.64400
H  39.39700 43.61400 20.13500
H  41.05800 43.93300 20.57900
H  40.77000 46.06200 24.27400
H  41.09500 46.97200 25.63300
H  39.43400 46.44600 25.59400
H  39.59000 44.21000 30.28500
H  41.98200 44.76800 33.79300
H  41.56600 46.43800 33.48000
H  43.07400 45.65300 32.71700

