158

Mg -2.83900 17.17100 27.33200
C  -2.94900 15.17100 30.32000
C  -3.20700 19.97200 29.27100
C  -2.83600 18.86900 24.45800
C  -3.19600 14.11900 25.56400
N  -3.10500 17.49600 29.46800
C  -3.08000 16.54000 30.51700
C  -3.03500 17.27500 31.82900
C  -3.36200 18.78200 31.49900
C  -3.21500 18.76100 29.95700
C  -4.72700 19.25400 31.90600
C  -1.78100 17.06000 32.67000
C  -1.37100 18.07800 33.75100
H  -0.77600 17.41600 35.01700
N  -3.02800 19.11900 26.91900
C  -3.14400 20.15400 27.81400
C  -3.23500 21.40500 27.13200
C  -3.03400 21.11100 25.74300
C  -2.94400 19.64800 25.66200
C  -3.58200 22.64600 27.85200
C  -2.87400 22.06400 24.53100
O  -2.75200 21.68000 23.39900
C  -2.86000 23.57500 24.77200
N  -3.15900 16.59600 25.40700
C  -2.87700 17.47800 24.35600
C  -2.91600 16.83100 22.98700
C  -2.78300 15.34400 23.38200
C  -3.12500 15.32900 24.86100
C  -4.21000 17.21500 22.18800
C  -1.36000 14.78100 23.09600
C  -1.14900 14.45200 21.60600
N  -2.85200 15.11900 27.77700
C  -2.98200 14.03300 26.94700
C  -2.87100 12.79400 27.64800
C  -2.93500 13.20100 28.98100
C  -2.93500 14.64400 29.01400
C  -2.89300 11.45000 27.11500
C  -3.07000 12.69200 30.34200
O  -3.18400 11.60200 30.84500
C  -2.86100 13.97600 31.29600
C  -1.44500 13.88600 31.79300
O  -0.42100 14.35000 31.28600
O  -1.43100 13.11100 32.93300
C  -0.23500 12.97300 33.63800
H  -3.18600 20.86800 29.89400
H  -2.61500 19.39900 23.52900
H  -3.17700 13.19000 24.99100
H  -3.91500 16.89500 32.34900
H  -2.66200 19.44000 32.01400
H  -4.63400 20.32100 32.10900
H  -5.00100 18.73600 32.82500
H  -5.45600 18.91100 31.17300
H  -0.96700 16.88000 31.96800
H  -1.69200 16.11700 33.20900
H  -2.18400 18.68000 34.15800
H  -0.55200 18.62500 33.28400
H  -3.78200 23.48500 27.18500
H  -2.64200 22.91800 28.33300
H  -4.35400 22.52500 28.61100
H  -3.93400 23.76300 24.77900
H  -2.36400 24.27300 24.09700
H  -2.38400 23.73000 25.74000
H  -2.03900 17.21300 22.46600
H  -3.44800 14.72900 22.77500
H  -4.78400 17.70500 22.97500
H  -4.66300 16.30700 21.79100
H  -3.90700 17.94100 21.43300
H  -1.16100 13.91400 23.72600
H  -0.61500 15.55000 23.30100
H  -0.44000 15.12500 21.12500
H  -2.05800 14.40300 21.00600
H  -0.68000 13.46800 21.58500
H  -3.96700 11.30100 26.99600
H  -2.41800 10.74100 27.79200
H  -2.52100 11.49300 26.09100
H  -3.55200 14.08600 32.13200
H  -0.32900 13.39200 34.64000
H  0.61100 13.38100 33.08600
H  -0.00400 11.91300 33.74300
Mg 48.61000 35.89000 28.36500
C  46.71800 34.49100 30.86600
C  48.71000 38.93300 30.20400
C  49.86900 37.63400 25.63500
C  47.95400 33.11500 26.31700
N  47.96400 36.54700 30.29500
C  47.29600 35.73200 31.18400
C  47.45400 36.43100 32.60800
C  47.68800 37.96900 32.26100
C  48.16800 37.80900 30.79200
C  46.31300 38.70600 32.28300
C  48.55900 35.73500 33.45400
C  49.48500 36.63700 34.29100
H  48.80900 37.66100 35.28200
N  49.43800 37.94200 28.12700
C  49.24600 39.04400 28.94300
C  49.90400 40.19600 28.37200
C  50.18600 39.87000 26.96800
C  49.83000 38.42900 26.84700
C  50.18500 41.51300 29.14500
C  50.82300 40.68800 25.88000
O  50.81200 40.32400 24.71800
C  51.36500 42.02600 26.25100
N  48.90800 35.50300 26.33500
C  49.48700 36.32700 25.40400
C  49.59700 35.66400 24.02500
C  49.19900 34.19600 24.31500
C  48.61900 34.26000 25.74700
C  48.60700 36.22100 22.97000
C  50.36200 33.15500 24.30900
C  50.21700 32.01700 23.22400
N  47.71600 34.05300 28.51000
C  47.53900 33.03800 27.64300
C  46.81800 31.92200 28.29400
C  46.48400 32.48600 29.55600
C  46.99300 33.82100 29.62000
C  46.52900 30.49000 27.81300
C  45.76500 32.17100 30.71800
O  45.18000 31.15200 31.00600
C  45.76400 33.49200 31.62000
C  46.05100 33.09500 33.05500
O  46.99300 32.41400 33.41800
O  45.11600 33.62300 33.87700
C  45.00300 33.12100 35.24000
H  48.66300 39.85800 30.78300
H  50.17300 38.13500 24.71300
H  47.77700 32.31400 25.59600
H  46.45500 36.30000 33.02400
H  48.32600 38.49200 32.97300
H  46.53800 39.66500 32.75100
H  45.56700 38.14100 32.84200
H  45.93700 38.74700 31.26100
H  49.23100 35.14300 32.83300
H  48.15300 34.96000 34.10400
H  50.06500 37.14400 33.52000
H  50.11800 35.91400 34.80500
H  49.22400 41.96700 29.38700
H  50.76500 42.30700 28.67500
H  50.74000 41.18400 30.02400
H  51.74600 42.51100 25.35200
H  52.19800 41.81300 26.92100
H  50.57500 42.65500 26.66100
H  50.62300 35.83800 23.70200
H  48.30900 33.79800 23.82800
H  49.14000 36.91200 22.31600
H  47.74500 36.69600 23.43800
H  48.26500 35.44600 22.28400
H  50.43900 32.68600 25.29000
H  51.24700 33.75000 24.08400
H  50.06900 31.11200 23.81300
H  51.11500 31.86800 22.62500
H  49.41300 32.28500 22.53800
H  46.88600 30.50400 26.78300
H  45.49000 30.16200 27.76600
H  46.98300 29.71800 28.43400
H  44.76300 33.92500 31.61900
H  43.91900 33.05000 35.33100
H  45.45900 33.67600 36.06000
H  45.41600 32.11400 35.18600

