158

Mg 2.03300 -1.73300 44.23400
C  5.32400 -1.11000 43.38900
C  1.20200 1.03800 42.30900
C  -1.08300 -2.87100 43.92000
C  3.08300 -4.56700 45.92600
N  3.20900 -0.28100 42.82300
C  4.54400 -0.14500 42.79000
C  5.01800 1.03000 41.92000
C  3.67900 1.84100 41.77400
C  2.59800 0.85000 42.30500
C  3.69600 3.11000 42.66700
C  5.71800 0.60900 40.60700
C  6.81800 1.57600 40.06600
H  6.28900 2.50800 38.92200
N  0.24700 -0.90600 43.37500
C  0.14200 0.25900 42.72600
C  -1.28000 0.57800 42.49900
C  -1.98500 -0.65300 42.87800
C  -0.93900 -1.57900 43.34600
C  -1.73600 1.89200 42.10800
C  -3.52100 -0.75100 42.94100
O  -4.19800 0.18000 42.58500
C  -4.27700 -1.90200 43.56200
N  1.07500 -3.36500 44.93400
C  -0.19600 -3.71500 44.58200
C  -0.50600 -5.16300 44.98700
C  0.88700 -5.75400 45.37600
C  1.73000 -4.43500 45.52400
C  -1.59600 -5.29400 46.02800
C  1.27200 -6.98400 44.54100
C  1.53100 -8.22800 45.42400
N  3.76700 -2.59600 44.69000
C  4.08300 -3.70700 45.42900
C  5.53100 -3.90300 45.53900
C  6.02600 -2.85600 44.81100
C  4.91900 -2.15500 44.20900
C  6.22100 -5.02700 46.34200
C  7.26200 -2.17900 44.40200
O  8.41400 -2.42600 44.69800
C  6.86200 -1.00000 43.51100
C  7.37700 0.22000 44.11900
O  6.97500 0.61700 45.23100
O  8.25400 0.90600 43.28300
C  8.37000 2.32600 43.46200
H  0.83700 1.94900 41.82900
H  -2.03400 -3.36200 43.70500
H  3.31400 -5.56500 46.30300
H  5.73200 1.66300 42.44600
H  3.34300 1.95900 40.74400
H  3.02900 3.05800 43.52700
H  3.28700 3.86500 41.99600
H  4.64200 3.39700 43.12700
H  4.98000 0.54400 39.80800
H  6.19500 -0.36600 40.71200
H  7.69100 1.05700 39.67100
H  7.25800 2.30600 40.74600
H  -1.12300 2.21600 41.26700
H  -1.55200 2.55300 42.95500
H  -2.79600 1.92700 41.85400
H  -5.25400 -1.64800 43.97200
H  -3.79200 -2.26400 44.46900
H  -4.36400 -2.69400 42.81800
H  -0.86300 -5.63000 44.06900
H  0.73900 -6.05400 46.41300
H  -2.15100 -4.35500 46.04000
H  -1.10400 -5.39000 46.99600
H  -2.31800 -6.11000 46.00900
H  2.15800 -6.64700 44.00400
H  0.52300 -7.36700 43.84800
H  2.55200 -8.57800 45.26900
H  0.83500 -9.01900 45.14200
H  1.50700 -8.09100 46.50500
H  5.56400 -5.68500 46.91000
H  6.88100 -4.43400 46.97500
H  6.74700 -5.65400 45.62100
H  7.33600 -1.12700 42.53800
H  7.71400 2.85200 42.76800
H  9.37800 2.68200 43.24700
H  8.12000 2.57900 44.49300
Mg 6.61900 54.46500 41.61500
C  5.80600 50.96000 41.57500
C  9.61600 53.50000 40.07700
C  7.05400 57.67400 40.76900
C  3.32800 55.12800 42.63200
N  7.53200 52.40000 40.87100
C  7.06100 51.13700 41.04900
C  8.00600 50.14600 40.39400
C  9.33700 50.98200 40.34200
C  8.83000 52.43300 40.40200
C  10.30900 50.72900 41.54600
C  7.61400 49.62500 38.94600
C  6.71200 50.58600 38.06800
H  7.46700 51.23300 36.87500
N  8.14000 55.43400 40.61700
C  9.28600 54.87500 40.13500
C  10.18000 55.92900 39.84600
C  9.50800 57.17800 39.95800
C  8.18100 56.81800 40.47600
C  11.60800 55.61400 39.37000
C  10.01600 58.50500 39.52700
O  11.15300 58.70300 39.06400
C  9.17100 59.77300 39.68000
N  5.20200 56.20700 41.47000
C  5.79300 57.43600 41.30500
C  4.73100 58.54400 41.67300
C  3.51600 57.69000 42.25500
C  4.07100 56.25300 42.10300
C  5.32500 59.54800 42.64900
C  2.20600 57.80000 41.44900
C  0.86800 57.87000 42.23500
N  4.91400 53.32100 42.08800
C  3.61300 53.70500 42.48600
C  2.89600 52.49900 42.95100
C  3.73500 51.44800 42.62000
C  4.92100 51.99100 41.98600
C  1.61500 52.42900 43.70800
C  3.89300 49.94300 42.62700
O  3.28500 49.11400 43.26000
C  5.24500 49.59300 41.92100
C  4.88100 48.75900 40.74000
O  4.31000 49.21500 39.75300
O  5.09300 47.41700 41.03300
C  4.62600 46.47100 40.02100
H  10.61500 53.18300 39.77100
H  7.13100 58.76300 40.75800
H  2.38000 55.22000 43.16700
H  8.25000 49.27400 41.00200
H  9.76200 50.79000 39.35700
H  11.27400 51.01000 41.12600
H  10.40700 49.67900 41.82200
H  10.07700 51.38100 42.38900
H  7.13700 48.64700 39.01900
H  8.53200 49.53100 38.36700
H  6.47300 51.51100 38.59300
H  5.78900 50.19400 37.64200
H  11.55100 54.93500 38.51900
H  12.02300 55.10200 40.23800
H  12.34300 56.37900 39.12000
H  8.23500 59.52000 39.18100
H  9.56900 60.62400 39.12800
H  9.14300 60.00800 40.74400
H  4.34100 59.05100 40.79000
H  3.29000 57.89800 43.30100
H  4.77700 60.49000 42.66600
H  6.35800 59.83200 42.45000
H  5.37500 59.08300 43.63400
H  2.10800 56.89300 40.85300
H  2.24800 58.65400 40.77300
H  1.06900 57.53300 43.25100
H  0.15200 57.25100 41.69400
H  0.55500 58.91400 42.24300
H  0.77500 52.98600 43.29400
H  1.83000 52.86900 44.68100
H  1.26300 51.39800 43.74500
H  5.87800 49.11200 42.66600
H  5.17100 46.54300 39.07900
H  3.54200 46.42200 39.91600
H  4.87200 45.53100 40.51300

