158

Mg 1.63900 -1.57100 43.42500
C  5.01800 -0.67600 43.05700
C  0.85700 1.31200 41.80900
C  -1.49300 -2.76100 43.15900
C  2.65300 -4.62700 44.66100
N  2.87300 0.01500 42.33500
C  4.20400 0.23900 42.39900
C  4.64100 1.60700 41.82600
C  3.26200 2.27100 41.58000
C  2.23400 1.15100 41.91800
C  2.99200 3.45400 42.51900
C  5.51400 1.49900 40.55700
C  6.44600 2.70200 40.33900
H  6.42900 3.27000 38.97900
N  -0.07600 -0.82900 42.58900
C  -0.24900 0.42000 42.00200
C  -1.63700 0.71600 41.75900
C  -2.33800 -0.42000 42.19000
C  -1.35000 -1.46400 42.58300
C  -2.14200 1.96200 41.08500
C  -3.90000 -0.55300 42.20600
O  -4.68100 0.37200 41.92900
C  -4.60300 -1.84800 42.47900
N  0.79300 -3.53600 43.79100
C  -0.54400 -3.69800 43.67200
C  -1.02800 -5.08500 44.15600
C  0.30200 -5.70700 44.70400
C  1.28100 -4.58600 44.39600
C  -2.30000 -5.18700 45.08500
C  0.72200 -7.11400 44.02100
C  1.30300 -8.10100 44.96700
N  3.43500 -2.45100 43.80800
C  3.72600 -3.70900 44.35300
C  5.17500 -3.80600 44.58300
C  5.68400 -2.59500 44.12200
C  4.60400 -1.84800 43.64800
C  5.96600 -4.98000 45.28800
C  6.87000 -1.76800 44.11400
O  7.99800 -1.95200 44.58400
C  6.48500 -0.52000 43.25100
C  6.83900 0.75700 44.02300
O  6.36800 1.04300 45.14200
O  7.75900 1.48400 43.28200
C  8.05400 2.75100 43.92500
H  0.57500 2.27900 41.38700
H  -2.53400 -3.08200 43.08000
H  2.85000 -5.62400 45.06000
H  5.11300 2.22000 42.59400
H  3.13400 2.60500 40.55000
H  3.80700 3.71800 43.19400
H  2.13900 3.25500 43.16700
H  2.82700 4.33300 41.89500
H  4.98600 1.31200 39.62100
H  6.10600 0.58500 40.59200
H  7.40400 2.36200 40.73200
H  6.15800 3.52300 40.99600
H  -2.68000 2.59800 41.78700
H  -2.89900 1.69200 40.34800
H  -1.42300 2.52900 40.49400
H  -5.62600 -1.57800 42.21800
H  -4.59600 -1.95600 43.56400
H  -4.13300 -2.60700 41.85400
H  -1.28200 -5.62300 43.24300
H  0.24500 -5.90600 45.77400
H  -3.17500 -5.65900 44.63900
H  -2.56200 -4.15700 45.32800
H  -2.09100 -5.66300 46.04300
H  1.48100 -6.86700 43.27900
H  -0.09700 -7.54000 43.44100
H  0.57600 -8.80900 45.36400
H  1.80400 -7.53600 45.75300
H  2.12300 -8.63200 44.48500
H  7.03000 -4.76400 45.38300
H  5.98500 -5.90700 44.71600
H  5.55300 -5.19900 46.27300
H  7.11500 -0.47900 42.36300
H  8.91300 3.03400 43.31600
H  8.40300 2.56400 44.94100
H  7.16800 3.38500 43.91300
Mg 1.03700 8.28300 26.83400
C  1.80900 10.50900 29.35400
C  1.44500 5.70300 29.29700
C  0.72400 6.00900 24.44600
C  1.06800 10.88500 24.57000
N  1.52100 8.15600 29.05200
C  1.61900 9.23600 29.84000
C  1.38000 8.77100 31.32100
C  1.58400 7.26000 31.29000
C  1.47600 7.03200 29.81200
C  2.95700 6.77600 31.81700
C  -0.04400 9.31400 31.72600
C  -0.19100 9.31000 33.28500
H  0.98500 8.78300 34.18600
N  1.05600 6.16600 26.81500
C  1.17500 5.28900 27.87700
C  1.05300 3.91000 27.47100
C  1.01900 4.02700 26.01400
C  0.90900 5.46000 25.68500
C  1.09100 2.74600 28.41400
C  1.19000 2.93400 24.95900
O  1.26700 3.14100 23.76900
C  1.38400 1.50700 25.43700
N  1.10800 8.44500 24.74000
C  0.73900 7.34800 23.97500
C  0.39100 7.76500 22.52800
C  0.30800 9.36200 22.64300
C  0.86500 9.59600 24.05500
C  1.39000 7.31400 21.42400
C  -1.04400 10.03000 22.34000
C  -0.92500 11.16500 21.25800
N  1.48600 10.29500 26.92000
C  1.50600 11.19800 25.94900
C  1.93900 12.51600 26.47500
C  2.08200 12.32500 27.90400
C  1.79700 10.92100 28.03300
C  2.29200 13.78900 25.65900
C  2.49000 12.85700 29.16300
O  2.96300 13.93600 29.45400
C  2.16800 11.68400 30.18500
C  3.32300 11.51400 31.04900
O  4.35500 10.91700 30.80400
O  3.14700 12.24500 32.21300
C  4.18600 12.29600 33.28600
H  1.34600 4.91000 30.04100
H  0.39700 5.29500 23.68700
H  0.97000 11.67600 23.82300
H  2.10700 9.30600 31.93300
H  0.84800 6.70400 31.87100
H  2.80400 6.09500 32.65500
H  3.56800 7.65400 32.02900
H  3.47900 6.20300 31.05100
H  -0.72800 8.52300 31.41800
H  -0.41800 10.25900 31.33200
H  -1.03900 8.67900 33.55200
H  -0.42200 10.35900 33.47000
H  1.10100 3.08200 29.45100
H  2.03900 2.21900 28.31100
H  0.25900 2.06600 28.23200
H  0.43500 0.99400 25.59400
H  2.09200 1.58700 26.26100
H  1.92700 0.92700 24.69100
H  -0.58600 7.38600 22.22900
H  1.12700 9.74600 22.03500
H  2.34800 7.10400 21.89800
H  1.64500 8.00000 20.61700
H  0.90800 6.45900 20.95000
H  -1.25900 10.61400 23.23500
H  -1.85100 9.34900 22.06900
H  -0.88200 12.05900 21.88000
H  -1.71000 11.26200 20.50800
H  -0.02600 11.04200 20.65300
H  3.14000 14.33300 26.07700
H  1.51500 14.54900 25.57800
H  2.44000 13.51700 24.61400
H  1.31000 12.08200 30.72600
H  4.08400 13.20900 33.87200
H  5.17600 12.23600 32.83300
H  4.03600 11.49200 34.00600

