158

Mg 55.71000 23.35700 45.37400
C  53.27500 25.90500 44.68200
C  53.52900 21.01300 44.02400
C  58.07500 21.16500 45.71500
C  57.83000 25.93800 46.51200
N  53.74900 23.53900 44.27900
C  52.93600 24.63000 44.17100
C  51.63700 24.18900 43.49900
C  51.55100 22.70000 43.73200
C  53.04900 22.33100 44.02000
C  50.52300 22.18000 44.82300
C  51.46400 24.68600 42.04300
C  50.02400 25.05900 41.54700
H  49.69800 24.67600 40.08400
N  55.83300 21.33800 44.82500
C  54.80900 20.54300 44.35500
C  55.28100 19.19800 44.29500
C  56.62900 19.18600 44.76600
C  56.93300 20.58400 45.09200
C  54.47200 18.05700 43.76700
C  57.46900 17.94300 44.79300
O  57.00600 16.81300 44.54200
C  58.96500 18.04800 45.10100
N  57.68000 23.51700 46.02000
C  58.38700 22.42800 46.13400
C  59.71600 22.69700 46.86900
C  59.72300 24.25100 46.92100
C  58.33100 24.61300 46.44500
C  59.85700 22.06000 48.24000
C  60.75800 24.99100 46.07000
C  61.32400 26.28600 46.65200
N  55.61900 25.49400 45.56900
C  56.50000 26.40600 46.10300
C  55.96600 27.75900 46.17600
C  54.68700 27.54300 45.68300
C  54.51700 26.21400 45.27900
C  56.56000 29.05000 46.58100
C  53.42500 28.20200 45.36900
O  53.05300 29.35500 45.49900
C  52.53700 27.12600 44.71200
C  52.26200 27.70600 43.39200
O  53.01800 27.89000 42.48000
O  50.91700 28.01300 43.24800
C  50.60000 28.88600 42.14800
H  52.76400 20.31000 43.68700
H  58.84900 20.45500 46.01200
H  58.50200 26.64600 47.00300
H  50.77700 24.55200 44.06100
H  51.24300 22.24500 42.79100
H  50.98400 21.44500 45.48200
H  49.69200 21.67200 44.33400
H  50.21300 22.93900 45.54100
H  51.81900 23.83400 41.46300
H  52.09600 25.57400 42.04400
H  49.94500 26.14600 41.53800
H  49.21000 24.56900 42.08100
H  55.10300 17.43300 43.13400
H  53.57200 18.37200 43.24000
H  54.20900 17.39600 44.59300
H  59.53600 18.69300 44.43200
H  59.40500 17.08600 44.84000
H  59.13300 18.44300 46.10300
H  60.47200 22.34800 46.16600
H  59.84200 24.64100 47.93200
H  58.99800 21.49800 48.60500
H  60.17000 22.76800 49.00800
H  60.62300 21.29700 48.10100
H  60.31300 25.26700 45.11400
H  61.62600 24.34700 45.93300
H  61.73700 26.84300 45.81100
H  62.18600 25.90100 47.19700
H  60.71100 26.84900 47.35500
H  56.04000 29.48500 47.43400
H  56.45000 29.64700 45.67600
H  57.64400 28.98400 46.66900
H  51.56800 26.99100 45.19300
H  51.29400 29.71600 42.01300
H  49.56900 29.21300 42.28100
H  50.53500 28.19000 41.31200
Mg 50.67300 45.30200 42.09900
C  47.75100 46.73000 40.64000
C  49.72300 42.32200 40.81900
C  53.78500 44.33400 42.43800
C  51.66000 48.74200 42.82000
N  48.97800 44.63100 40.76200
C  47.82400 45.29900 40.46000
C  46.81000 44.35400 39.75600
C  47.38800 42.89900 40.15300
C  48.76500 43.29800 40.72200
C  46.50500 42.05200 41.08700
C  46.73200 44.64900 38.20600
C  45.28000 44.88300 37.64200
H  44.86500 43.88600 36.53400
N  51.63000 43.47600 41.66500
C  51.08500 42.31900 41.14200
C  52.11400 41.32000 41.11400
C  53.30300 41.85500 41.55600
C  52.97900 43.28900 41.92100
C  51.78600 39.96800 40.61000
C  54.62300 41.04500 41.71000
O  54.71000 39.88800 41.34000
C  55.81600 41.66300 42.21500
N  52.43400 46.45500 42.47100
C  53.54400 45.69800 42.71200
C  54.82800 46.61900 43.10600
C  54.04200 48.00200 43.31000
C  52.62600 47.70600 42.87900
C  55.69100 46.07900 44.29300
C  54.76700 49.06500 42.41500
C  54.84700 50.64500 42.87100
N  49.83500 47.34200 41.93200
C  50.42400 48.55400 42.18400
C  49.56100 49.57900 41.76200
C  48.46100 48.88900 41.13300
C  48.66200 47.55900 41.25800
C  49.80500 51.08600 41.87000
C  47.21600 49.10100 40.41600
O  46.66500 50.14500 40.07900
C  46.62700 47.77000 40.15000
C  45.32000 47.60000 40.80100
O  45.07700 46.86100 41.74600
O  44.40400 48.36800 40.17900
C  43.10500 48.25900 40.87800
H  49.36400 41.33800 40.51100
H  54.84900 44.09900 42.36400
H  51.81800 49.76600 43.16500
H  45.79000 44.47800 40.12000
H  47.55300 42.20900 39.32600
H  45.48200 42.39900 40.94200
H  46.81400 42.15300 42.12700
H  46.42400 40.98200 40.89700
H  47.02100 43.73700 37.68300
H  47.27900 45.57300 38.01900
H  45.04400 45.90100 37.33400
H  44.50200 44.92400 38.40400
H  52.47100 39.65900 39.82100
H  50.81200 39.90400 40.12400
H  51.96500 39.23800 41.39900
H  55.68900 42.03900 43.23000
H  56.00900 42.49200 41.53500
H  56.72500 41.07200 42.09700
H  55.58800 46.60900 42.32400
H  54.13200 48.15200 44.38600
H  56.65200 45.68700 43.96000
H  55.13200 45.21500 44.65400
H  55.67600 46.78900 45.12000
H  54.25100 49.05400 41.45500
H  55.78800 48.76900 42.17400
H  54.60100 50.64000 43.93300
H  54.16400 51.25600 42.28000
H  55.82700 51.05400 42.62900
H  50.85300 51.38200 41.93300
H  49.37100 51.34300 42.83600
H  49.26200 51.50800 41.02400
H  46.49800 47.66700 39.07200
H  42.31000 48.70000 40.27600
H  43.11900 48.70900 41.87100
H  42.81400 47.22200 41.04800

