158

Mg 6.68300 53.67900 41.69800
C  5.69400 50.21000 41.01600
C  9.74300 52.83700 40.68600
C  7.29800 56.88600 41.60400
C  3.29400 54.28900 42.46700
N  7.48600 51.79000 40.81300
C  6.94900 50.55000 40.63000
C  7.91500 49.57100 40.03500
C  9.33200 50.25700 40.42000
C  8.85500 51.73900 40.64700
C  10.10900 49.62900 41.64100
C  7.74700 49.14400 38.60000
C  7.46900 50.29300 37.52500
H  6.67500 50.04400 36.31400
N  8.19700 54.74000 41.07700
C  9.47800 54.21300 40.79100
C  10.37500 55.33400 40.56500
C  9.63900 56.50600 40.88100
C  8.32600 56.04100 41.22100
C  11.77000 55.17500 40.17500
C  10.28300 57.87100 40.71400
O  11.41600 58.11200 40.40700
C  9.53900 59.08300 41.00600
N  5.44100 55.37600 41.88400
C  5.99700 56.60900 41.97300
C  4.88000 57.64000 42.13700
C  3.61200 56.80200 42.55000
C  4.11300 55.36600 42.23000
C  5.26500 58.79500 43.11900
C  2.24300 57.08700 41.76900
C  1.59700 58.51300 42.10100
N  4.82000 52.50500 41.79700
C  3.55000 52.91300 42.21900
C  2.68800 51.72000 42.34200
C  3.49600 50.66800 41.82800
C  4.77100 51.20300 41.58800
C  1.22000 51.72600 42.89900
C  3.50100 49.28700 41.49200
O  2.59800 48.47000 41.51600
C  4.94400 48.93300 40.96700
C  4.81100 48.24700 39.61100
O  4.39600 48.74800 38.58700
O  4.91100 46.88200 39.81800
C  4.35900 46.01800 38.76900
H  10.78000 52.58500 40.45800
H  7.47600 57.96200 41.64300
H  2.30000 54.49700 42.86900
H  7.78100 48.70900 40.68900
H  10.04000 50.34500 39.59600
H  10.20200 50.39600 42.40900
H  11.06700 49.23100 41.30600
H  9.46200 48.81900 41.97800
H  7.06400 48.29900 38.51400
H  8.77200 48.79400 38.47600
H  8.42500 50.61400 37.11100
H  7.05400 51.20200 37.96200
H  12.37600 55.69900 40.91400
H  12.21700 55.54400 39.25200
H  12.10100 54.14900 40.33700
H  8.72700 59.16000 40.28400
H  10.01800 60.05900 40.92600
H  9.23100 58.97500 42.04600
H  4.71800 58.03200 41.13300
H  3.41700 56.80300 43.62200
H  4.48600 58.87000 43.87800
H  5.38000 59.72100 42.55500
H  6.18300 58.50400 43.62900
H  1.43200 56.42400 42.07000
H  2.50100 57.00600 40.71300
H  2.32700 59.12700 42.63000
H  0.69200 58.29000 42.66600
H  1.40700 58.93600 41.11500
H  0.49900 51.59900 42.09200
H  1.12500 52.71800 43.34300
H  1.30300 50.94700 43.65700
H  5.34700 48.31900 41.77200
H  4.88200 46.28300 37.85100
H  3.28600 46.20600 38.74400
H  4.45900 44.95100 38.96600
Mg 9.06200 48.70900 26.21600
C  6.89000 49.00400 28.91900
C  11.65500 49.70800 28.44200
C  11.29500 48.81000 23.65600
C  6.48400 48.40300 24.02600
N  9.18400 49.47200 28.35300
C  8.23800 49.25400 29.27900
C  8.68400 49.53700 30.74900
C  10.07900 50.20000 30.44400
C  10.37200 49.71200 28.98300
C  10.32300 51.68900 30.65600
C  8.64900 48.26000 31.70300
C  9.69000 47.97300 32.83000
H  9.13500 47.65500 34.23600
N  11.19300 49.07500 26.06300
C  12.05600 49.42800 27.13900
C  13.42100 49.50800 26.61800
C  13.31400 49.10800 25.23100
C  11.88400 49.05300 24.89600
C  14.64400 49.69900 27.41500
C  14.39900 48.72600 24.15900
O  14.16000 48.51000 22.96500
C  15.81000 48.68000 24.64900
N  8.99100 48.48600 24.23100
C  9.97200 48.57800 23.37800
C  9.56900 48.59900 21.84100
C  8.04800 48.28600 22.02500
C  7.76500 48.40700 23.53300
C  9.81300 49.96600 21.03400
C  7.62900 46.99700 21.43700
C  6.95000 46.98200 20.03600
N  7.07000 48.67100 26.40600
C  6.07600 48.51100 25.40400
C  4.74200 48.72600 26.03000
C  4.98700 48.78500 27.45000
C  6.42100 48.80900 27.59100
C  3.39800 48.70800 25.27600
C  4.37900 48.79500 28.72200
O  3.20900 48.68000 29.04500
C  5.64500 48.87000 29.73400
C  5.74200 47.44600 30.32100
O  6.08700 46.48800 29.66300
O  5.38900 47.43500 31.64300
C  5.76500 46.28100 32.46700
H  12.47200 50.01600 29.09700
H  11.98500 48.90200 22.81500
H  5.68300 48.26200 23.29700
H  8.07100 50.33500 31.16900
H  10.95300 49.86800 31.00400
H  9.56700 52.08600 31.33300
H  10.11500 52.15000 29.69100
H  11.34700 51.84100 30.99700
H  8.41100 47.37500 31.11400
H  7.71200 48.45700 32.22500
H  10.27300 48.88600 32.94600
H  10.42200 47.25500 32.46000
H  14.40900 50.02800 28.42700
H  15.38900 50.37600 26.99900
H  15.13200 48.72500 27.38500
H  16.55300 48.51500 23.86800
H  15.89100 47.86900 25.37200
H  16.13700 49.56800 25.18900
H  10.12700 47.74900 21.45000
H  7.37300 48.98500 21.53100
H  10.40400 50.67200 21.61800
H  8.89200 50.44000 20.69600
H  10.39500 49.76700 20.13400
H  6.92900 46.50800 22.11400
H  8.50100 46.34300 21.41800
H  6.11800 46.28100 20.10800
H  7.67000 46.46100 19.40500
H  6.49800 47.89900 19.65700
H  3.52100 49.30000 24.36900
H  2.60700 48.88100 26.00500
H  3.33700 47.71400 24.83300
H  5.36700 49.51500 30.56700
H  6.60300 45.77400 31.98900
H  4.93700 45.59700 32.65300
H  6.15800 46.60000 33.43300

