158

Mg 0.51500 8.00300 25.75400
C  1.23300 10.02600 28.33400
C  0.48800 5.30600 27.75200
C  0.17100 6.03200 22.94700
C  0.68500 10.78300 23.65700
N  0.99100 7.69600 27.87800
C  1.08100 8.70600 28.77200
C  1.14700 8.20400 30.19600
C  1.09000 6.62200 30.01300
C  0.74700 6.53400 28.42700
C  2.47900 5.84600 30.22700
C  0.04300 8.80500 31.03800
C  0.45400 8.97700 32.49800
H  1.60300 8.12000 33.11800
N  0.41100 5.99000 25.43700
C  0.36900 5.00600 26.38200
C  0.21800 3.71600 25.72900
C  0.08600 3.87300 24.36500
C  0.17500 5.33100 24.18000
C  0.14800 2.41500 26.56700
C  -0.13400 2.92400 23.21800
O  -0.16900 3.17800 21.97900
C  -0.16400 1.42900 23.56900
N  0.43800 8.31400 23.62000
C  0.26700 7.39900 22.65100
C  -0.05800 7.96400 21.30100
C  0.05400 9.44800 21.51700
C  0.52200 9.50400 23.04100
C  0.98000 7.52800 20.22800
C  -1.33500 10.20500 21.28700
C  -1.27400 11.13800 20.16300
N  0.88000 10.05200 25.93500
C  0.91700 11.03100 24.99600
C  1.23300 12.32500 25.59900
C  1.42800 11.96200 26.92400
C  1.13900 10.60000 27.04100
C  1.31100 13.65800 24.89800
C  1.88600 12.39900 28.19400
O  2.36600 13.45300 28.56700
C  1.60000 11.20900 29.17300
C  2.85300 11.08600 29.91700
O  3.94100 10.56400 29.51300
O  2.65200 11.54600 31.16400
C  3.90900 11.82800 31.92100
H  0.48100 4.45500 28.43600
H  -0.06900 5.36100 22.11900
H  0.89600 11.61600 22.98200
H  2.13400 8.51300 30.54000
H  0.29800 6.21400 30.64100
H  2.81200 5.40300 29.28800
H  2.57600 5.01800 30.92900
H  3.25400 6.56900 30.48200
H  -0.76300 8.07300 31.01200
H  -0.16100 9.78700 30.61000
H  -0.40200 8.72800 33.12600
H  0.62300 10.05300 32.54500
H  -0.90300 2.15100 26.44500
H  0.42300 2.53400 27.61500
H  0.80500 1.67200 26.11600
H  -0.87000 1.13900 24.34700
H  0.85500 1.10800 23.78700
H  -0.45900 0.79900 22.72900
H  -1.09900 7.67400 21.15800
H  0.89500 9.85700 20.95700
H  1.57700 6.69800 20.60500
H  1.72300 8.29000 19.99200
H  0.52800 7.21500 19.28700
H  -1.50400 10.70300 22.24200
H  -2.15300 9.49600 21.16400
H  -0.39000 11.02400 19.53600
H  -1.35500 12.11900 20.63100
H  -2.14600 11.03500 19.51700
H  1.63400 14.42500 25.60200
H  0.31400 13.88600 24.51800
H  2.10200 13.54300 24.15700
H  0.78800 11.51000 29.83400
H  4.53500 12.50600 31.34100
H  4.37200 10.85400 32.07800
H  3.60700 12.30700 32.85300
Mg 49.13000 45.11200 43.49300
C  45.72000 45.17900 42.36800
C  49.28600 41.81600 42.44600
C  52.39200 45.24000 43.57200
C  48.90300 48.55200 43.79700
N  47.73000 43.77100 42.41600
C  46.35900 43.95200 42.14400
C  45.75400 42.70500 41.41500
C  46.69200 41.65600 41.97300
C  48.01000 42.42600 42.30000
C  46.19200 40.86400 43.24100
C  45.61000 42.87700 39.84300
C  44.25000 42.45500 39.14100
H  44.37100 41.42100 37.98700
N  50.61500 43.74800 43.16200
C  50.53000 42.42900 42.77900
C  51.75200 41.77300 42.68300
C  52.74600 42.73000 42.87000
C  51.96600 43.98600 43.25200
C  51.89600 40.30900 42.28000
C  54.18700 42.44500 42.67700
O  54.61500 41.36000 42.22300
C  55.26800 43.49300 42.93800
N  50.45300 46.66300 43.49900
C  51.76700 46.41000 43.82100
C  52.42500 47.66600 44.42600
C  51.30600 48.75000 44.38100
C  50.11300 47.88100 43.94100
C  53.16500 47.37300 45.78700
C  51.61700 49.95100 43.33600
C  51.61700 51.34200 43.98500
N  47.59600 46.60500 43.39600
C  47.63900 47.93900 43.55700
C  46.35000 48.59400 43.43100
C  45.55900 47.47400 43.01400
C  46.36700 46.28800 42.92100
C  46.11000 50.09800 43.52400
C  44.20500 47.06300 42.58200
O  43.15900 47.74100 42.43800
C  44.31200 45.61000 42.09900
C  43.19800 44.72800 42.69800
O  42.49400 43.91500 42.11700
O  43.03800 45.03700 44.08200
C  41.95600 44.28200 44.69100
H  49.21000 40.76000 42.17900
H  53.45200 45.11800 43.80200
H  48.88100 49.59900 44.10600
H  44.76300 42.37400 41.72500
H  46.79500 40.81900 41.28300
H  46.09200 39.79100 43.07900
H  45.16300 41.13400 43.48100
H  46.95500 41.01700 44.00500
H  46.44600 42.35000 39.38300
H  45.94900 43.87500 39.56600
H  43.86700 43.36300 38.67600
H  43.47900 42.19400 39.86600
H  52.19900 40.20100 41.23800
H  51.01800 39.73600 42.57900
H  52.68500 39.85000 42.87600
H  56.28100 43.22300 42.64000
H  55.22800 43.53900 44.02600
H  55.17300 44.52000 42.58600
H  53.15200 47.99900 43.68400
H  51.11000 49.01900 45.41900
H  53.01100 46.33400 46.08000
H  52.86500 48.09900 46.54200
H  54.22800 47.56000 45.64000
H  50.84400 50.01200 42.56900
H  52.59000 49.86600 42.85300
H  50.77700 51.94900 43.64800
H  52.46400 51.93700 43.64200
H  51.65000 51.19300 45.06400
H  46.27200 50.56300 42.55200
H  46.74000 50.66400 44.21000
H  45.08100 50.30900 43.81600
H  44.22900 45.67900 41.01400
H  41.17100 44.40700 43.94500
H  41.67100 44.63900 45.68000
H  42.18500 43.21700 44.65000

