158

Mg -2.15500 16.90900 25.68800
C  -2.60600 14.84300 28.15900
C  -2.68500 19.63200 27.71400
C  -1.63300 18.98500 23.00400
C  -2.00000 14.21100 23.32900
N  -2.58100 17.23500 27.71300
C  -2.64100 16.16500 28.57700
C  -2.95400 16.67300 30.01800
C  -3.07100 18.24700 29.80200
C  -2.72900 18.38600 28.32500
C  -4.34900 18.87500 30.33300
C  -1.82600 16.39000 31.06900
C  -1.82800 17.27200 32.34800
H  -1.48400 16.45900 33.65800
N  -2.11500 18.98200 25.39100
C  -2.35800 19.97800 26.38300
C  -2.35200 21.25500 25.77900
C  -1.80600 21.08300 24.42000
C  -1.88700 19.65100 24.16200
C  -2.78900 22.47400 26.48700
C  -1.49000 22.14900 23.46400
O  -1.36100 21.97700 22.23300
C  -1.16400 23.54900 24.02100
N  -1.98100 16.62000 23.49300
C  -1.74500 17.65600 22.67100
C  -1.72300 17.16700 21.22400
C  -1.99700 15.67100 21.31100
C  -1.84500 15.47700 22.82100
C  -2.73400 17.87600 20.22900
C  -1.06300 14.78300 20.43400
C  -1.72400 13.74500 19.45900
N  -2.20600 14.86800 25.64600
C  -2.09000 13.86600 24.68100
C  -2.14000 12.60000 25.39400
C  -2.45900 12.95900 26.74000
C  -2.39900 14.31500 26.84900
C  -1.90900 11.28800 24.67900
C  -2.79300 12.35800 28.08200
O  -2.97400 11.24300 28.46600
C  -2.71300 13.59600 29.06500
C  -1.51100 13.37800 29.89400
O  -0.34700 13.72300 29.69700
O  -1.94300 12.74800 31.05100
C  -0.97600 12.08600 31.91300
H  -2.76400 20.46000 28.42100
H  -1.33600 19.67600 22.21300
H  -2.08200 13.33600 22.68000
H  -3.87600 16.19900 30.35400
H  -2.27100 18.77400 30.32200
H  -4.90300 19.25300 29.47300
H  -4.11200 19.69700 31.00800
H  -4.91600 18.07900 30.81600
H  -0.85400 16.46700 30.58200
H  -2.00100 15.39500 31.47800
H  -2.69600 17.86300 32.64300
H  -0.93800 17.87200 32.15600
H  -3.20000 23.25500 25.84700
H  -2.17600 22.97200 27.23800
H  -3.64900 22.17800 27.08800
H  -0.48100 24.09700 23.37100
H  -0.57000 23.24300 24.88100
H  -2.04200 24.16800 24.20500
H  -0.67700 17.25800 20.93200
H  -3.00200 15.42300 20.97000
H  -3.14300 18.78700 20.66700
H  -3.60500 17.25600 20.02000
H  -2.25100 18.05200 19.26800
H  -0.40700 14.16800 21.04900
H  -0.51500 15.42300 19.74300
H  -2.78700 13.98700 19.46800
H  -1.65200 12.72800 19.84400
H  -1.34000 13.75900 18.43900
H  -1.84700 10.45000 25.37300
H  -1.00300 11.36100 24.07600
H  -2.72000 11.09100 23.97800
H  -3.63400 13.54500 29.64600
H  -1.54100 11.75000 32.78300
H  -0.14500 12.73500 32.18600
H  -0.53800 11.22300 31.41100
Mg 26.98300 50.27100 26.89200
C  24.62400 51.13000 29.45100
C  29.12000 49.34900 29.53300
C  29.19200 49.95400 24.55500
C  24.71300 51.65400 24.57500
N  26.87300 50.28100 29.26600
C  25.80200 50.59300 30.03900
C  26.09500 50.47600 31.55500
C  27.55700 49.90900 31.54600
C  27.88400 49.83100 30.02000
C  28.66800 50.73100 32.27300
C  25.01900 49.45500 32.22700
C  24.62800 49.80000 33.70500
H  24.97500 48.83000 34.85600
N  28.84200 49.67400 27.00300
C  29.56800 49.30900 28.15900
C  30.91000 48.88300 27.76600
C  31.04100 49.22700 26.35200
C  29.64100 49.60100 25.88300
C  31.97900 48.28100 28.67000
C  32.18000 49.33100 25.42200
O  32.12400 49.88600 24.35000
C  33.55400 48.86400 25.89800
N  27.02600 51.02700 24.93800
C  27.96900 50.44100 24.12000
C  27.56000 50.42000 22.61800
C  26.13600 50.79000 22.62700
C  25.90400 51.18600 24.15200
C  28.46200 51.28100 21.78100
C  25.15700 49.74200 22.15600
C  24.19300 50.22900 21.07200
N  25.13900 51.29600 26.97400
C  24.33800 51.75600 25.91400
C  23.12600 52.23800 26.39100
C  23.22700 52.01600 27.79600
C  24.45900 51.36600 28.07400
C  21.98600 52.66600 25.49600
C  22.32700 52.09400 28.97300
O  21.15800 52.40000 29.12800
C  23.28000 51.61600 30.11800
C  23.58400 52.79500 30.96900
O  24.56000 53.50100 30.86100
O  22.61500 52.85700 31.87100
C  22.79100 53.74100 33.03100
H  29.78600 49.02900 30.33700
H  29.89100 49.68900 23.75900
H  24.00100 51.96900 23.81000
H  25.92200 51.43800 32.03600
H  27.45200 48.86900 31.85400
H  28.44200 51.54200 32.96500
H  29.25900 51.18100 31.47500
H  29.12300 49.92000 32.84200
H  25.42600 48.44400 32.20500
H  24.11000 49.37700 31.63100
H  23.53800 49.76200 33.72200
H  24.95800 50.79800 33.99300
H  31.61200 48.06100 29.67200
H  32.83800 48.94400 28.76800
H  32.32500 47.34500 28.22900
H  33.50000 47.97400 26.52500
H  33.87900 49.74000 26.45900
H  34.31600 48.73600 25.12900
H  27.67000 49.40700 22.23100
H  26.05900 51.67500 21.99600
H  28.93500 50.63700 21.04000
H  29.12200 51.78000 22.49000
H  27.95000 52.16100 21.39100
H  24.51800 49.55400 23.01900
H  25.71700 48.82500 21.97000
H  24.57300 51.15100 20.63300
H  23.20000 50.39400 21.49100
H  24.11500 49.42300 20.34200
H  22.04200 53.73300 25.27700
H  21.05900 52.30800 25.94400
H  22.04700 52.08700 24.57500
H  22.81700 50.84800 30.73700
H  23.66700 54.38600 32.95900
H  23.08100 53.13300 33.88800
H  21.85100 54.16800 33.37900

