158

Mg 44.13000 4.33700 47.36900
C  42.13900 7.08400 47.05000
C  41.47100 2.36000 47.04600
C  46.24000 1.73400 46.89800
C  46.82000 6.57800 47.77400
N  42.02300 4.73900 46.88700
C  41.48200 5.91700 46.85900
C  39.94600 5.78200 46.69500
C  39.71000 4.28500 46.96600
C  41.13900 3.76700 46.98300
C  39.03100 3.81700 48.33100
C  39.39100 6.23800 45.32100
C  40.37500 6.36700 44.21400
H  39.95700 6.26400 42.74200
N  43.87900 2.30500 47.09400
C  42.63800 1.71400 46.92200
C  42.90200 0.30800 46.68700
C  44.30500 0.08600 46.69900
C  44.92600 1.38000 46.88500
C  41.76600 -0.70500 46.72700
C  44.95600 -1.24700 46.62500
O  44.40600 -2.28900 46.35900
C  46.48400 -1.34300 46.83000
N  46.22800 4.18600 47.30000
C  46.84000 2.97200 47.21200
C  48.35200 3.16600 47.23700
C  48.52600 4.64300 47.80100
C  47.12500 5.19600 47.62900
C  48.98700 2.13000 48.14600
C  49.67600 5.43300 47.14700
C  51.03400 4.80500 46.73000
N  44.50600 6.39500 47.29600
C  45.57500 7.15800 47.58500
C  45.25800 8.57200 47.71000
C  43.90000 8.57300 47.52700
C  43.51600 7.25600 47.23200
C  46.12900 9.70400 48.18400
C  42.70100 9.49100 47.32600
O  42.63200 10.73600 47.30900
C  41.57000 8.53900 47.03500
C  40.59000 8.72000 48.12000
O  40.81700 8.30000 49.26200
O  39.41900 9.30700 47.70800
C  38.36200 9.23100 48.62700
H  40.54300 1.79900 46.91900
H  46.99700 0.99900 46.61700
H  47.59100 7.31000 48.02300
H  39.45300 6.36100 47.47600
H  39.24000 3.82700 46.09600
H  38.74500 4.81300 48.66900
H  39.75200 3.44800 49.06000
H  38.15200 3.17500 48.28600
H  38.87900 7.19900 45.36200
H  38.63700 5.56200 44.91600
H  41.08100 5.54900 44.35400
H  40.89900 7.32100 44.27600
H  41.91600 -1.44000 45.93600
H  40.76400 -0.27700 46.75600
H  41.84900 -1.09500 47.74100
H  47.05700 -0.89200 46.02000
H  46.76700 -2.39600 46.86200
H  46.64600 -0.88900 47.80700
H  48.69500 3.02200 46.21300
H  48.57400 4.64800 48.89000
H  48.18800 1.48700 48.51700
H  49.45300 2.69700 48.95200
H  49.69500 1.57100 47.53500
H  49.84900 6.28800 47.80000
H  49.27100 5.85200 46.22600
H  51.35500 5.21900 45.77400
H  50.76400 3.77400 46.50500
H  51.93400 5.00100 47.31400
H  46.73800 9.99500 47.32900
H  46.69800 9.43600 49.07400
H  45.52900 10.58000 48.42900
H  41.11400 8.75100 46.06800
H  37.38400 9.03900 48.18500
H  38.26800 10.23200 49.04800
H  38.55400 8.51600 49.42700
Mg 9.46100 47.63300 26.58700
C  7.35700 47.56300 29.39500
C  12.12300 48.28900 28.62500
C  11.34100 47.86900 23.85200
C  6.61700 47.44000 24.45400
N  9.64900 48.21800 28.78300
C  8.65200 47.97900 29.74500
C  9.36200 48.03000 31.23100
C  10.85200 48.38700 30.84300
C  10.90300 48.30200 29.34300
C  11.39200 49.77100 31.42300
C  9.23700 46.63600 32.01700
C  10.39000 46.29500 33.12700
H  10.15100 45.35100 34.29600
N  11.45600 47.97100 26.30000
C  12.44400 48.15000 27.23700
C  13.72500 48.18900 26.60800
C  13.51200 48.11500 25.14200
C  12.04800 48.01200 25.05500
C  14.95500 48.32200 27.47000
C  14.48100 48.29200 23.99900
O  14.12000 48.41100 22.78200
C  15.92000 48.34000 24.38800
N  9.03800 47.68200 24.44000
C  10.02100 47.70500 23.49200
C  9.48600 47.46400 22.03600
C  7.99100 47.16000 22.34100
C  7.83900 47.41000 23.84700
C  9.77600 48.55900 20.96100
C  7.53800 45.73500 21.94300
C  8.21600 44.59300 22.73500
N  7.43200 47.51700 26.83300
C  6.42400 47.34400 25.86800
C  5.16800 47.04600 26.57500
C  5.47700 47.09400 27.92600
C  6.89600 47.45200 28.03300
C  3.78300 46.82100 26.00300
C  4.94600 47.00600 29.30000
O  3.85400 46.71800 29.68800
C  6.13200 47.34700 30.33400
C  6.21700 46.10200 31.11300
O  6.78000 45.05000 30.74400
O  5.59400 46.20300 32.33300
C  5.58800 44.99400 33.10500
H  12.97200 48.33600 29.31100
H  11.88500 47.74700 22.91300
H  5.80700 47.11200 23.79900
H  8.95900 48.85200 31.82200
H  11.56700 47.62700 31.15700
H  11.98000 50.30500 30.67700
H  12.12400 49.55000 32.20000
H  10.62000 50.35200 31.92800
H  9.31200 45.83200 31.28500
H  8.23000 46.52400 32.42000
H  10.74800 47.25700 33.49300
H  11.16700 45.73900 32.60200
H  15.41200 49.30700 27.57100
H  15.77600 47.65200 27.21800
H  14.80600 47.95900 28.48700
H  16.01500 49.21300 25.03200
H  16.55900 48.25700 23.50900
H  16.00700 47.53600 25.11900
H  10.00800 46.57100 21.69100
H  7.46900 47.98700 21.85900
H  10.46100 49.29500 21.38200
H  8.92000 49.19900 20.74600
H  10.28400 48.18900 20.07100
H  7.82700 45.73800 20.89200
H  6.45000 45.67100 21.98100
H  8.73100 43.92500 22.04400
H  7.47000 43.90200 23.12500
H  9.00300 45.03000 23.35000
H  3.25600 47.67100 26.43700
H  3.32400 45.88700 26.32600
H  3.67600 46.97600 24.92900
H  5.78100 48.11900 31.01900
H  5.04800 45.28800 34.00400
H  6.58100 44.63700 33.37800
H  5.06300 44.13000 32.69800

