158

Mg 49.81300 44.63400 42.80400
C  46.61300 44.78300 41.84100
C  49.76500 41.07600 42.22600
C  53.23300 44.52700 43.21700
C  49.96800 48.11300 43.13300
N  48.32900 43.03900 42.24000
C  47.00000 43.43900 41.89000
C  46.17900 42.17100 41.35900
C  47.11000 40.99500 41.90400
C  48.47700 41.70200 42.12400
C  46.72200 40.09700 43.08100
C  46.13600 42.21300 39.76600
C  44.68900 42.31800 39.25500
H  44.28200 43.41000 38.28900
N  51.28700 43.06000 42.75300
C  51.06300 41.65800 42.52500
C  52.28200 40.94200 42.55700
C  53.32000 41.85400 42.86300
C  52.67100 43.23400 42.94700
C  52.43400 39.51300 42.12100
C  54.81700 41.44300 43.01200
O  55.21000 40.27900 42.94600
C  55.84800 42.58100 43.01900
N  51.34200 46.08400 43.45200
C  52.66000 45.80200 43.34000
C  53.51900 47.04100 43.59900
C  52.42000 48.17800 43.68100
C  51.18800 47.40400 43.43500
C  54.41100 47.12300 44.83300
C  52.78300 49.42100 42.73300
C  52.45500 50.84800 43.14300
N  48.57300 46.15500 42.64900
C  48.77200 47.49900 42.73200
C  47.44100 48.08200 42.44600
C  46.55500 47.08900 42.19100
C  47.32700 45.91700 42.24600
C  47.19100 49.58200 42.46600
C  45.21000 46.76300 41.82300
O  44.18000 47.44400 41.70100
C  45.17500 45.26000 41.56200
C  44.16100 44.80000 42.57000
O  44.19200 44.72700 43.82700
O  42.94400 44.64300 41.84000
C  41.69800 44.49800 42.59400
H  49.77900 39.99200 42.09600
H  54.31500 44.53700 43.36800
H  49.99600 49.20500 43.10400
H  45.22000 42.27400 41.86600
H  47.20600 40.29700 41.07300
H  47.23900 40.31800 44.01400
H  46.85200 39.05800 42.77900
H  45.67700 40.31800 43.30000
H  46.65300 41.34400 39.36000
H  46.59800 43.07800 39.29000
H  43.88300 42.10600 39.95700
H  44.76700 41.51000 38.52700
H  51.53600 39.27700 41.55000
H  52.48900 38.81700 42.95800
H  53.29700 39.29100 41.49200
H  55.66600 43.35800 42.27700
H  56.76800 42.14200 42.63400
H  55.87700 43.06900 43.99400
H  54.04300 47.19000 42.65600
H  52.32000 48.56600 44.69500
H  54.05000 47.87700 45.53200
H  55.34900 47.55000 44.47900
H  54.52900 46.11800 45.23900
H  52.34700 49.28200 41.74400
H  53.85500 49.37900 42.53900
H  53.35400 51.46000 43.21000
H  51.85500 50.85500 44.05300
H  51.82900 51.24000 42.34100
H  46.29900 49.85300 43.03200
H  47.14300 49.94800 41.44000
H  48.05700 50.07600 42.90800
H  44.76500 45.09500 40.56500
H  40.97800 44.42500 41.77900
H  41.51200 45.30200 43.30700
H  41.75500 43.54700 43.12300
Mg 27.01700 51.32900 26.74800
C  24.92000 52.29300 29.62700
C  29.35300 50.39100 28.99900
C  28.93300 50.55700 24.15700
C  24.58500 52.73700 24.67200
N  27.10600 51.50600 29.14200
C  26.11200 51.67200 30.08400
C  26.56300 51.31200 31.51300
C  28.04200 50.68000 31.26100
C  28.21400 50.87500 29.72600
C  29.15000 51.28500 32.03600
C  25.65700 50.24100 32.09800
C  26.16500 49.39100 33.32700
H  25.33600 49.24600 34.61700
N  28.90300 50.67500 26.62000
C  29.74500 50.33500 27.66400
C  31.02600 49.74500 27.19500
C  30.96400 49.84000 25.70600
C  29.54700 50.33800 25.40400
C  32.18300 49.32900 28.06600
C  32.07900 49.59200 24.69600
O  31.89600 49.86100 23.51500
C  33.33200 48.88200 25.06000
N  26.75300 51.65700 24.68500
C  27.69500 51.18100 23.74800
C  27.22500 51.46100 22.30600
C  25.70200 51.87500 22.48700
C  25.66900 52.05700 24.07300
C  28.00400 52.42900 21.40900
C  24.68800 50.84600 22.02100
C  23.28300 51.48200 21.83500
N  25.11100 52.38400 27.05700
C  24.28800 52.89800 26.03400
C  23.14300 53.48400 26.73700
C  23.28500 53.21600 28.13000
C  24.54400 52.55000 28.26900
C  21.84100 53.96500 26.04900
C  22.71400 53.35100 29.48600
O  21.72500 54.00400 29.80900
C  23.73100 52.72100 30.49600
C  24.04300 53.66900 31.57200
O  25.03200 54.40000 31.55700
O  23.13300 53.62400 32.61700
C  23.37600 54.48500 33.75900
H  30.12100 49.96600 29.64900
H  29.54800 50.43300 23.26400
H  23.65500 52.98100 24.15500
H  26.63900 52.25100 32.06200
H  27.95300 49.60100 31.38300
H  29.70900 50.57000 32.63900
H  28.63500 51.92800 32.75100
H  29.75500 51.93300 31.40200
H  25.42900 49.46300 31.36900
H  24.75700 50.80000 32.35200
H  27.16200 49.71000 33.63000
H  26.32700 48.32900 33.14300
H  32.38100 48.28000 27.84400
H  32.06300 49.59400 29.11600
H  33.00300 49.91600 27.65300
H  33.82900 48.55800 24.14500
H  32.99900 48.02700 25.64900
H  33.88200 49.61600 25.64700
H  27.28900 50.49300 21.80800
H  25.49200 52.80200 21.95400
H  29.04900 52.39700 21.71500
H  27.52400 53.40800 21.41900
H  28.00700 51.95500 20.42700
H  24.53700 50.19000 22.87900
H  24.98200 50.38700 21.07700
H  22.97100 51.69200 20.81200
H  23.29900 52.51100 22.19500
H  22.55600 50.97100 22.46800
H  21.77100 53.54000 25.04800
H  21.82800 55.05300 25.99100
H  21.07900 53.62500 26.75000
H  23.29700 51.76200 30.77900
H  23.56400 55.51600 33.46100
H  24.22900 54.24100 34.39300
H  22.56900 54.50400 34.49100

