158

Mg 0.31400 7.26500 25.78800
C  1.16800 9.41200 28.73000
C  0.90000 4.62100 27.93900
C  0.08200 5.48900 23.20500
C  0.48000 10.25400 23.89000
N  1.03600 7.10300 28.05500
C  1.11500 8.02500 29.04400
C  1.23100 7.47000 30.44000
C  1.38600 5.95000 30.08400
C  1.12900 5.85900 28.56200
C  2.78800 5.30900 30.44400
C  -0.07900 7.84800 31.27000
C  -0.09600 7.53800 32.73600
H  1.29700 7.39900 33.43100
N  0.46600 5.30900 25.63400
C  0.60200 4.34700 26.60200
C  0.46600 3.07600 25.98800
C  0.05900 3.31900 24.65600
C  0.19500 4.74500 24.41900
C  0.92500 1.80400 26.71500
C  -0.18800 2.20700 23.63100
O  -0.19900 2.49900 22.47500
C  -0.36100 0.74400 23.87000
N  0.47600 7.83700 23.84800
C  0.15500 6.84300 22.93800
C  -0.26000 7.46300 21.57600
C  -0.23200 8.99500 21.83000
C  0.23300 9.07700 23.26000
C  0.53900 6.93500 20.33200
C  -1.56800 9.80000 21.59400
C  -1.34000 11.09700 20.74800
N  0.69100 9.45900 26.19700
C  0.77300 10.48400 25.24000
C  1.08400 11.73200 25.93800
C  1.16500 11.30200 27.24400
C  1.03100 9.93900 27.40700
C  1.20300 13.09400 25.25100
C  1.47700 11.81800 28.56300
O  1.81400 12.92400 28.86400
C  1.40500 10.59900 29.63800
C  2.71200 10.57900 30.32400
O  3.79700 10.49700 29.75700
O  2.48100 10.77400 31.66900
C  3.64000 10.87700 32.50900
H  0.95600 3.76700 28.61700
H  -0.19400 4.78800 22.41400
H  0.35700 11.13200 23.25200
H  2.08600 7.88400 30.97500
H  0.67800 5.37900 30.68600
H  2.70200 4.45700 31.11800
H  3.25700 5.98300 31.16000
H  3.45100 5.07100 29.61200
H  -0.86000 7.31000 30.73400
H  -0.26100 8.92200 31.23900
H  -0.68200 6.61900 32.73300
H  -0.71700 8.28100 33.23600
H  1.39600 1.05200 26.08300
H  0.06400 1.46900 27.29500
H  1.80100 2.08300 27.30100
H  -0.69500 0.68400 24.90600
H  0.59100 0.25900 23.65300
H  -1.18300 0.47300 23.20800
H  -1.26200 7.06700 21.41100
H  0.51900 9.46100 21.19300
H  1.17300 7.71400 19.90900
H  -0.09300 6.57900 19.51900
H  1.20200 6.09100 20.52100
H  -2.04200 10.04700 22.54300
H  -2.19300 9.23700 20.90000
H  -1.44700 10.86700 19.68800
H  -0.34900 11.53800 20.85700
H  -2.15600 11.71400 21.12300
H  0.58400 13.02100 24.35600
H  2.23100 13.34200 24.98900
H  0.77600 13.86900 25.88700
H  0.54300 10.68400 30.29900
H  4.30000 10.05200 32.24400
H  3.44300 10.82700 33.58000
H  4.28600 11.73400 32.31700
Mg 26.13000 0.93900 28.80700
C  28.14200 0.42100 31.71600
C  23.55000 1.64300 30.79500
C  24.21200 0.73000 26.03800
C  28.77600 -0.37800 26.93000
N  25.89700 1.20600 31.07800
C  26.80700 0.95300 32.05200
C  26.30500 1.21300 33.46300
C  24.78600 1.53400 33.11600
C  24.73800 1.53800 31.53100
C  23.75700 0.47900 33.69000
C  27.06800 2.34400 34.24100
C  27.46500 2.06800 35.72900
H  26.68300 2.92500 36.84000
N  24.14900 1.22500 28.50200
C  23.25200 1.55400 29.42100
C  21.95300 1.46100 28.88500
C  22.05500 1.14500 27.48000
C  23.56100 1.07900 27.27300
C  20.69500 1.76500 29.62500
C  20.96700 0.92900 26.47300
O  21.20400 0.74300 25.27400
C  19.54200 1.09900 26.93600
N  26.37000 0.23000 26.82500
C  25.53000 0.44900 25.78700
C  26.07100 0.31000 24.39100
C  27.59900 0.18800 24.75100
C  27.59000 0.02500 26.28700
C  25.46500 -0.66500 23.36600
C  28.52900 1.33900 24.40800
C  29.84600 0.91100 23.85300
N  28.04200 0.15100 29.18400
C  28.93300 -0.36700 28.29800
C  30.21600 -0.60600 29.02600
C  29.98000 -0.31200 30.34600
C  28.65300 0.16000 30.38300
C  31.54100 -1.02700 28.37900
C  30.47700 -0.35000 31.79200
O  31.55000 -0.64400 32.27300
C  29.33300 0.10800 32.68400
C  28.84700 -1.05400 33.48600
O  27.88100 -1.75000 33.18200
O  29.62100 -1.13800 34.64100
C  29.02300 -2.09300 35.60100
H  22.68800 1.82700 31.44000
H  23.78100 0.83000 25.03900
H  29.68700 -0.51800 26.34500
H  26.50600 0.31000 34.03900
H  24.57500 2.51300 33.54600
H  23.77300 -0.52200 33.25900
H  22.74700 0.88400 33.62100
H  24.01000 0.23200 34.72100
H  26.50900 3.27800 34.28700
H  27.97800 2.56500 33.68300
H  28.51200 2.36700 35.74600
H  27.30300 1.00000 35.87800
H  20.06600 2.51300 29.14200
H  20.86200 2.18500 30.61600
H  20.14900 0.86400 29.90600
H  18.95000 0.79400 26.07300
H  19.30800 2.13600 27.17900
H  19.13500 0.28800 27.53900
H  25.98700 1.27600 23.89300
H  28.06400 -0.71800 24.36100
H  26.20600 -1.27900 22.85500
H  24.93000 -0.13800 22.57600
H  24.68100 -1.23100 23.87000
H  28.51800 2.08200 25.20500
H  28.05500 1.83100 23.55900
H  29.95200 1.11400 22.78700
H  30.07700 -0.14600 23.98000
H  30.60300 1.51100 24.35900
H  32.34700 -1.04900 29.11300
H  31.77800 -0.26100 27.64000
H  31.48100 -2.00400 27.90100
H  29.67400 0.88400 33.36900
H  29.14700 -3.15900 35.40700
H  27.94800 -2.02600 35.76500
H  29.31500 -1.89200 36.63100

