158

Mg 2.13500 -0.25400 42.89600
C  5.66100 -0.03800 42.61400
C  1.82700 2.53400 40.93200
C  -1.08100 -0.98800 42.41800
C  2.67400 -3.46000 44.23600
N  3.55700 1.09500 41.87800
C  4.98300 1.03200 41.91800
C  5.57300 2.12700 41.06500
C  4.36800 3.12300 40.89700
C  3.20100 2.20100 41.18200
C  4.39500 4.37100 41.90500
C  6.04200 1.58500 39.67200
C  7.46300 2.06200 39.23800
H  7.55500 2.52200 37.77500
N  0.54200 0.69500 41.97000
C  0.64800 1.85000 41.23400
C  -0.70900 2.20000 40.83600
C  -1.59900 1.32600 41.38900
C  -0.74500 0.25900 41.93500
C  -1.04200 3.57100 40.03200
C  -3.21900 1.46400 41.41200
O  -3.75200 2.38100 40.87200
C  -4.07500 0.39500 42.00600
N  0.96200 -2.07400 43.14200
C  -0.36700 -2.04300 43.00100
C  -0.98000 -3.32400 43.52500
C  0.11700 -4.02200 44.31700
C  1.34800 -3.18100 43.85700
C  -2.26200 -3.08400 44.42200
C  0.41800 -5.54100 43.97500
C  -0.28200 -6.57300 44.87400
N  3.77600 -1.47300 43.47200
C  3.78000 -2.73200 43.96500
C  5.21400 -3.22800 44.06700
C  5.98100 -2.13800 43.58800
C  5.04500 -1.13700 43.26200
C  5.71500 -4.58700 44.61200
C  7.28300 -1.68700 43.35400
O  8.34000 -2.31900 43.52900
C  7.14100 -0.29200 42.67900
C  7.80100 0.76500 43.54800
O  7.71500 0.82600 44.76300
O  8.59000 1.65000 42.77700
C  9.11400 2.85800 43.42400
H  1.71000 3.43000 40.31800
H  -2.14000 -1.23300 42.31600
H  2.84500 -4.39000 44.78200
H  6.33400 2.70100 41.59300
H  4.22800 3.50500 39.88600
H  5.44900 4.64200 41.95500
H  3.97200 3.96100 42.82300
H  3.83800 5.23900 41.55300
H  5.28400 1.80500 38.92000
H  5.99200 0.49800 39.73300
H  8.25800 1.34100 39.42900
H  7.75900 2.91800 39.84600
H  -0.17500 4.04600 39.57300
H  -1.44600 4.22200 40.80700
H  -1.79400 3.55100 39.24300
H  -5.13900 0.54100 41.82200
H  -3.86500 0.29200 43.07100
H  -3.91600 -0.58200 41.55100
H  -1.33600 -3.84100 42.63400
H  0.13000 -3.73000 45.36700
H  -2.29500 -2.01400 44.62600
H  -2.15400 -3.63800 45.35500
H  -3.13900 -3.42200 43.87100
H  1.46800 -5.83300 43.96900
H  0.05100 -5.72200 42.96500
H  -1.06900 -5.97600 45.33600
H  0.31900 -7.05300 45.64700
H  -0.80500 -7.29500 44.24800
H  4.98500 -5.29600 45.00200
H  6.44400 -4.42300 45.40600
H  6.26800 -5.08000 43.81200
H  7.69100 -0.33200 41.73900
H  8.61200 3.72000 42.98400
H  10.15600 2.95500 43.11800
H  9.10700 2.78200 44.51100
Mg 9.75000 47.82000 26.51700
C  8.08500 47.61200 29.48300
C  12.45000 48.99200 28.37400
C  11.30100 48.24800 23.54900
C  6.60700 47.45500 24.74800
N  10.20600 48.23400 28.70800
C  9.32400 48.15000 29.71500
C  9.93500 48.67800 31.03400
C  11.09300 49.59400 30.56900
C  11.30100 48.89200 29.12700
C  10.84100 51.22000 30.58900
C  10.35500 47.49200 31.93300
C  9.88600 47.55500 33.38600
H  9.98400 46.19200 34.11800
N  11.68400 48.32100 26.07900
C  12.60800 48.76900 27.00600
C  13.82100 48.74400 26.31700
C  13.51200 48.51200 24.92600
C  12.07600 48.37300 24.76700
C  15.17400 48.97800 27.03200
C  14.47900 48.50600 23.73100
O  14.17900 48.19600 22.60700
C  15.91300 48.66900 23.92400
N  9.01300 47.90100 24.39200
C  9.87400 48.03000 23.40800
C  9.21300 48.06700 22.01000
C  7.68200 47.79400 22.42200
C  7.74400 47.61800 23.97600
C  9.45500 49.30900 21.03700
C  7.01200 46.62100 21.65900
C  6.57300 46.99000 20.20200
N  7.74700 47.46700 26.99600
C  6.64500 47.37300 26.22900
C  5.51900 47.19600 27.09700
C  5.99400 47.27600 28.39400
C  7.38500 47.46400 28.22700
C  4.14800 46.97000 26.58300
C  5.71100 47.17700 29.80500
O  4.69800 46.99300 30.43600
C  7.06000 47.43100 30.50900
C  7.27800 46.18500 31.28300
O  7.73500 45.11700 30.92400
O  6.75900 46.31200 32.51400
C  6.42100 45.07800 33.28200
H  13.32700 49.33700 28.92700
H  11.81800 48.34000 22.59200
H  5.63600 47.30500 24.27200
H  9.18200 49.24600 31.58000
H  11.94400 49.51700 31.24600
H  10.98800 51.40000 29.52400
H  11.76600 51.53600 31.07300
H  9.93300 51.56900 31.08100
H  11.44300 47.46200 31.97800
H  10.18400 46.51300 31.48400
H  8.85500 47.90200 33.32900
H  10.33900 48.40300 33.90000
H  15.27300 48.77400 28.09800
H  15.46500 49.95400 26.64300
H  15.84200 48.18100 26.70300
H  16.43100 48.77800 22.97100
H  16.19600 47.74700 24.43100
H  16.29800 49.49800 24.51900
H  9.52800 47.21600 21.40600
H  7.07500 48.69000 22.29300
H  8.52300 49.72400 20.65400
H  10.02300 49.03300 20.14900
H  10.00800 50.06800 21.59100
H  6.09800 46.37600 22.19900
H  7.65200 45.74400 21.76000
H  6.71700 48.05200 20.00200
H  5.54000 46.75900 19.94100
H  7.13800 46.37500 19.50200
H  4.07000 46.36400 25.68100
H  3.61700 47.91100 26.43800
H  3.48600 46.48600 27.30000
H  6.93800 48.21600 31.25500
H  6.87300 45.13200 34.27200
H  6.65000 44.11100 32.83400
H  5.34500 45.12600 33.44500

