158

Mg 54.54000 24.23300 44.04200
C  51.94000 26.50600 43.12500
C  52.67000 21.70900 42.58300
C  57.27800 22.33500 43.81500
C  56.37400 26.86900 45.14300
N  52.54800 24.21300 42.88900
C  51.66900 25.20100 42.68900
C  50.46000 24.67500 41.94600
C  50.50800 23.13600 42.15400
C  52.00200 22.98400 42.49100
C  49.60400 22.57900 43.25900
C  50.36500 25.08500 40.37900
C  51.68600 25.27800 39.61000
H  51.46500 25.93500 38.20700
N  54.94900 22.19200 43.49000
C  53.98500 21.35200 42.91600
C  54.57200 20.05900 42.81000
C  55.96400 20.19600 43.24600
C  56.12700 21.60700 43.58000
C  53.72700 18.83500 42.45900
C  56.86100 19.03300 43.34800
O  56.52000 17.93600 42.91600
C  58.21900 19.12900 43.99300
N  56.55700 24.60800 44.23600
C  57.55600 23.68400 44.18100
C  58.98600 24.29400 44.46100
C  58.59900 25.70500 44.99300
C  57.09700 25.72400 44.80100
C  59.69800 23.34500 45.51300
C  59.30500 26.90800 44.29500
C  59.64500 28.12100 45.18800
N  54.22100 26.27900 44.31300
C  55.04600 27.19500 44.85100
C  54.38700 28.48600 44.90900
C  53.09900 28.25500 44.31100
C  53.09400 26.93000 43.90000
C  54.81000 29.69800 45.61900
C  51.86700 28.86100 43.93700
O  51.45100 29.98500 44.13800
C  51.04500 27.77600 43.23200
C  50.50500 28.16700 41.97200
O  51.15400 28.22400 40.88300
O  49.15100 28.46700 42.07600
C  48.38300 28.53700 40.80100
H  51.98700 20.90400 42.30300
H  58.15300 21.70800 43.63200
H  56.92600 27.79000 45.34300
H  49.59700 25.17900 42.38100
H  50.22000 22.57800 41.26400
H  49.08300 23.45000 43.65700
H  50.09700 22.05900 44.08000
H  49.00500 21.86900 42.68800
H  49.69100 25.93400 40.26900
H  49.93200 24.22700 39.86500
H  52.18600 24.31200 39.53400
H  52.49700 25.82500 40.09000
H  52.64700 18.97600 42.51100
H  53.85200 17.97700 43.12000
H  54.08700 18.48400 41.49200
H  58.26400 19.83700 44.82100
H  58.88900 19.41600 43.18200
H  58.39700 18.12000 44.36600
H  59.59600 24.39400 43.56300
H  58.51900 25.88300 46.06600
H  59.04600 22.53600 45.84400
H  59.91700 23.93000 46.40700
H  60.61800 22.91700 45.11500
H  58.66600 27.20700 43.46400
H  60.29000 26.51500 44.04000
H  59.29200 28.02200 46.21500
H  59.44400 29.10200 44.75700
H  60.72400 28.14000 45.34200
H  54.80200 29.38600 46.66300
H  54.11400 30.53700 45.58300
H  55.79300 30.13700 45.45000
H  50.18200 27.45500 43.81600
H  47.90600 29.51500 40.74800
H  47.70800 27.68300 40.85000
H  48.92600 28.47400 39.85700
Mg 36.32300 49.49600 25.76700
C  36.34200 47.70100 28.73300
C  34.67000 52.09700 27.45700
C  35.70200 51.07900 22.73400
C  37.23100 46.64200 24.07500
N  35.57900 49.81200 27.88900
C  35.85600 49.00200 28.97500
C  35.87300 49.82800 30.28200
C  35.06700 51.03400 29.85900
C  35.07900 51.03000 28.27500
C  33.65700 51.18400 30.38600
C  37.33900 50.02000 30.74500
C  37.64500 49.73700 32.20500
H  36.42200 49.80000 33.30100
N  35.48400 51.42800 25.23500
C  34.76900 52.22400 26.03400
C  34.18800 53.30700 25.28500
C  34.45800 53.08000 23.91500
C  35.27700 51.85000 23.89900
C  33.50900 54.49700 25.92300
C  33.98800 53.89300 22.64100
O  34.22900 53.55800 21.49200
C  33.07700 55.14300 22.82800
N  36.31000 48.97600 23.64200
C  36.25000 49.80700 22.59000
C  36.58400 49.18800 21.28600
C  37.21000 47.84700 21.78400
C  36.93000 47.83200 23.29500
C  35.40600 49.09000 20.29700
C  38.75200 47.76800 21.54000
C  39.31100 46.43300 20.91200
N  36.66700 47.57200 26.19900
C  37.16200 46.55300 25.47700
C  37.35600 45.35700 26.30000
C  37.05100 45.75200 27.60000
C  36.63800 47.08800 27.47700
C  37.98400 44.10500 25.72300
C  37.05900 45.35000 28.93400
O  37.19600 44.27200 29.47300
C  36.65700 46.65800 29.75100
C  35.63500 46.32700 30.78300
O  34.46300 46.37400 30.64600
O  36.30200 46.05200 31.95200
C  35.58000 45.40200 33.08400
H  34.20300 52.89600 28.03600
H  35.66500 51.63800 21.79600
H  37.50900 45.72400 23.55200
H  35.30300 49.29700 31.04600
H  35.56400 51.96800 30.12100
H  33.47400 52.22100 30.66800
H  33.50200 50.54100 31.25200
H  32.89200 50.94200 29.64700
H  37.72500 50.98800 30.42400
H  37.88900 49.23200 30.23300
H  38.27000 50.55700 32.55900
H  38.21300 48.80700 32.19900
H  33.78000 55.37200 25.33200
H  33.69800 54.61100 26.99000
H  32.44700 54.34500 25.72500
H  33.53600 56.10100 23.07600
H  32.41300 54.84300 23.63800
H  32.56600 55.26000 21.87200
H  37.35500 49.89900 20.99000
H  36.73100 46.98400 21.32200
H  34.54600 49.01000 20.96200
H  35.52200 48.18200 19.70600
H  35.25200 49.99300 19.70500
H  39.26400 47.87800 22.49600
H  39.01000 48.55500 20.83100
H  38.74700 45.53100 21.14900
H  40.36800 46.27000 21.12300
H  39.18500 46.78800 19.88900
H  37.60600 43.75600 24.76200
H  38.01900 43.27200 26.42500
H  39.06400 44.20800 25.61400
H  37.59100 46.88900 30.26500
H  34.56800 45.14400 32.77300
H  35.47600 46.16700 33.85300
H  36.25500 44.63100 33.45700

