158

Mg -11.86000 38.48500 42.02400
C  -9.62300 36.04800 40.74900
C  -9.70700 40.95800 40.70100
C  -14.35700 40.77500 42.28700
C  -13.98800 35.90700 42.97300
N  -9.93900 38.43200 40.88300
C  -9.23600 37.33700 40.48900
C  -8.03900 37.78000 39.64000
C  -8.05600 39.28900 39.76900
C  -9.35400 39.61800 40.45100
C  -6.83900 39.89700 40.57300
C  -8.04100 37.27900 38.16900
C  -6.94900 36.33300 37.66800
H  -5.88100 36.91400 36.73900
N  -11.96300 40.55400 41.59100
C  -10.90200 41.40300 41.23100
C  -11.39600 42.84200 41.13900
C  -12.77800 42.78100 41.58300
C  -13.11400 41.35200 41.82900
C  -10.50200 44.09600 40.85200
C  -13.72500 44.03100 41.70400
O  -13.39000 45.13600 41.29300
C  -15.08600 43.92600 42.26700
N  -13.86400 38.38800 42.44800
C  -14.64500 39.47600 42.68900
C  -16.13100 39.02900 43.26600
C  -15.95600 37.50100 43.24100
C  -14.51100 37.24300 42.77900
C  -16.40300 39.60300 44.70800
C  -17.01100 36.83200 42.28400
C  -17.03000 37.13500 40.76500
N  -11.86100 36.37700 41.91400
C  -12.69100 35.46700 42.44000
C  -12.14300 34.10700 42.40200
C  -10.93100 34.26700 41.67000
C  -10.81700 35.67700 41.39000
C  -12.79900 32.85000 42.92000
C  -9.74600 33.62100 41.04600
O  -9.38800 32.45700 40.95700
C  -8.90300 34.79600 40.46700
C  -7.58900 34.68400 41.17700
O  -7.33200 35.19100 42.23400
O  -6.76300 33.98200 40.34100
C  -5.34900 34.00100 40.66100
H  -9.16900 41.70900 40.11900
H  -15.21600 41.42200 42.48000
H  -14.63100 35.16600 43.45200
H  -7.18100 37.33700 40.14500
H  -8.30900 39.75100 38.81500
H  -6.88200 40.97300 40.74200
H  -5.87000 39.71400 40.10800
H  -6.84200 39.27300 41.46700
H  -8.13100 38.03000 37.38400
H  -8.97900 36.72800 38.11200
H  -7.43300 35.43800 37.27700
H  -6.25000 35.98900 38.43000
H  -9.53800 43.91900 41.32900
H  -10.94400 44.93200 41.39600
H  -10.44800 44.24200 39.77300
H  -15.70100 43.32200 41.60200
H  -15.51800 44.92600 42.22100
H  -15.08400 43.51900 43.27900
H  -16.87200 39.41200 42.56400
H  -16.00500 37.19800 44.28700
H  -16.01100 40.61200 44.83600
H  -16.01500 38.94200 45.48200
H  -17.44500 39.63300 45.02900
H  -17.98200 37.11200 42.69000
H  -17.00200 35.74300 42.33200
H  -15.99500 37.34600 40.49600
H  -17.73200 37.93100 40.51800
H  -17.39700 36.24000 40.26200
H  -12.15500 32.05400 42.54600
H  -13.82000 32.80700 42.54200
H  -12.61800 32.86000 43.99500
H  -8.89600 34.63900 39.38800
H  -4.67100 33.65600 39.88000
H  -5.17700 33.25100 41.43200
H  -5.10300 34.98400 41.06200
Mg -11.12100 16.50600 42.06500
C  -8.23600 14.54100 41.69900
C  -9.46900 18.89800 40.33300
C  -14.09900 18.03400 41.70800
C  -12.74400 13.53300 43.17400
N  -9.15300 16.63600 41.01300
C  -8.14000 15.74700 41.03700
C  -6.94600 16.20200 40.22200
C  -7.26900 17.69700 40.01700
C  -8.71800 17.78100 40.50800
C  -6.28100 18.69500 40.62400
C  -6.73600 15.36400 38.94200
C  -5.43500 14.54300 38.90900
H  -4.54900 14.78500 37.64500
N  -11.60800 18.30700 41.27900
C  -10.76600 19.22100 40.66200
C  -11.49400 20.51700 40.38000
C  -12.83000 20.23700 40.69800
C  -12.92900 18.82200 41.22700
C  -10.83100 21.62900 39.68400
C  -14.00600 21.13300 40.39000
O  -13.85600 22.29300 39.92400
C  -15.40800 20.65600 40.60500
N  -13.15200 15.79000 42.34800
C  -14.17600 16.66100 42.11800
C  -15.57400 15.94400 42.34500
C  -15.18700 14.69700 43.22000
C  -13.59100 14.62500 42.91200
C  -16.67400 16.88400 42.91600
C  -16.04800 13.44000 43.06900
C  -16.69400 12.88700 44.31900
N  -10.64600 14.41900 42.47100
C  -11.40000 13.39100 42.88600
C  -10.48400 12.25700 43.14800
C  -9.23000 12.71300 42.66100
C  -9.40500 14.00200 42.28300
C  -10.87900 10.93800 43.76100
C  -7.91400 12.22600 42.43100
O  -7.43300 11.10500 42.56800
C  -7.19400 13.40400 41.74600
C  -6.08100 13.83600 42.71600
O  -6.21600 14.17800 43.89800
O  -4.87400 13.76200 42.07300
C  -3.73200 14.12100 42.92800
H  -8.89600 19.67600 39.82500
H  -15.08100 18.51000 41.66600
H  -13.05800 12.60000 43.64600
H  -6.15300 16.11500 40.96400
H  -7.28900 17.92400 38.95100
H  -5.49600 18.15100 41.14900
H  -6.70700 19.41900 41.31900
H  -5.81900 19.23100 39.79500
H  -6.73800 16.09600 38.13400
H  -7.57300 14.68500 38.78100
H  -5.73700 13.49800 38.84300
H  -4.81000 14.82200 39.75700
H  -9.79000 21.66600 40.00500
H  -11.16200 22.65000 39.87600
H  -10.85600 21.53800 38.59800
H  -16.16800 21.30700 40.17500
H  -15.62200 20.60400 41.67300
H  -15.50300 19.69700 40.09600
H  -15.84700 15.58000 41.35500
H  -15.25600 15.01300 44.26100
H  -16.37100 17.48300 43.77500
H  -17.53600 16.40400 43.38000
H  -16.98800 17.54900 42.11200
H  -15.52600 12.56400 42.68200
H  -16.88000 13.59700 42.38400
H  -16.42100 11.83700 44.41700
H  -17.77300 13.02300 44.25300
H  -16.35100 13.41100 45.21200
H  -10.43400 11.08200 44.74500
H  -10.31100 10.25000 43.13400
H  -11.94600 10.72200 43.70100
H  -6.85500 13.06800 40.76600
H  -2.87400 14.25400 42.26900
H  -3.46500 13.37700 43.67800
H  -4.05500 15.06100 43.37600

