158

Mg 35.50000 2.50100 29.61500
C  33.34200 3.87100 32.13000
C  37.90800 2.39500 31.95900
C  37.67500 1.76400 27.22500
C  33.08700 3.44300 27.28700
N  35.61400 3.11700 31.79700
C  34.59200 3.51300 32.61400
C  35.03400 3.58100 34.06000
C  36.51400 3.36400 33.96900
C  36.71000 2.87900 32.47600
C  37.37600 4.64000 34.19900
C  34.15400 2.53100 34.81600
C  33.66100 2.93100 36.18600
H  34.26800 4.16200 36.90900
N  37.46400 1.99700 29.67700
C  38.27000 1.89200 30.73800
C  39.54900 1.37800 30.33200
C  39.53600 1.27100 28.88800
C  38.15000 1.70600 28.53100
C  40.71900 1.05700 31.30600
C  40.54300 0.72500 27.87500
O  40.33100 0.78500 26.68100
C  41.74400 0.10200 28.38700
N  35.38700 2.55000 27.58400
C  36.38700 2.18300 26.78300
C  35.90500 2.07700 25.30100
C  34.46700 2.60600 25.33100
C  34.26400 2.85700 26.80400
C  36.80700 2.84700 24.38900
C  33.39200 1.49400 25.00700
C  32.06600 1.93600 24.24700
N  33.61900 3.42800 29.58800
C  32.70800 3.69100 28.62600
C  31.50700 4.13300 29.12700
C  31.75100 4.31200 30.49800
C  33.01800 3.85400 30.74100
C  30.30200 4.40400 28.33200
C  31.05800 4.69700 31.69400
O  29.91700 5.10900 31.91100
C  32.08500 4.35900 32.87600
C  32.31000 5.54400 33.71400
O  33.04800 6.44100 33.31500
O  31.52300 5.54500 34.80900
C  31.32600 6.79200 35.51500
H  38.78600 2.31300 32.60300
H  38.27600 1.45700 26.36700
H  32.43000 3.80000 26.49100
H  34.84900 4.56800 34.48400
H  36.77500 2.63100 34.73300
H  36.77800 5.54300 34.32000
H  38.08200 4.82300 33.38900
H  37.87100 4.58700 35.16900
H  34.74600 1.62300 34.92800
H  33.39200 2.06700 34.19100
H  33.77200 2.03900 36.80200
H  32.57200 2.91200 36.23400
H  41.50600 1.76500 31.04700
H  41.15600 0.06400 31.19700
H  40.37500 1.24900 32.32200
H  41.47400 -0.83200 28.87900
H  42.25200 0.72000 29.12700
H  42.47600 -0.10300 27.60500
H  35.90600 1.07000 24.88300
H  34.36900 3.53900 24.77600
H  36.39700 3.84600 24.23800
H  36.84400 2.29200 23.45200
H  37.82600 2.92300 24.76900
H  33.15500 0.90100 25.89000
H  33.90900 0.78200 24.36400
H  31.98100 3.02200 24.28000
H  31.23900 1.59300 24.86900
H  31.94400 1.55700 23.23200
H  30.55500 5.14500 27.57400
H  29.56500 4.96600 28.90600
H  29.92200 3.52200 27.81600
H  31.50000 3.59900 33.39500
H  31.15200 7.59900 34.80300
H  32.20000 7.09300 36.09400
H  30.48200 6.80200 36.20500
Mg 42.25700 41.11700 25.84200
C  41.42800 43.45900 28.44300
C  43.65200 39.17900 28.38800
C  43.41000 39.15400 23.49600
C  41.85300 43.70700 23.62700
N  42.48500 41.37100 28.09700
C  42.00700 42.33300 28.93800
C  42.07300 41.95700 30.45700
C  42.95200 40.62600 30.40100
C  43.06700 40.34000 28.83800
C  44.30700 40.62700 31.16300
C  40.62100 41.75300 31.12800
C  40.22900 42.85000 32.15900
H  39.56300 42.30700 33.41300
N  43.31800 39.41300 25.92700
C  43.71000 38.65600 27.02100
C  44.26000 37.41600 26.58800
C  44.13100 37.36800 25.12500
C  43.53500 38.69300 24.78100
C  44.89100 36.41800 27.53200
C  44.60200 36.27900 24.21100
O  44.41400 36.23800 23.02800
C  45.34300 35.16000 24.72800
N  42.57900 41.42200 23.87800
C  42.95200 40.40200 23.03100
C  42.79400 40.70700 21.53200
C  42.60200 42.28000 21.64000
C  42.39700 42.53900 23.14500
C  43.98600 40.33800 20.71100
C  41.43400 42.71600 20.71400
C  41.65000 44.13500 20.03100
N  41.57900 43.14500 25.94500
C  41.52600 44.06100 24.91300
C  41.16600 45.38400 25.47300
C  41.09400 45.10500 26.83300
C  41.41400 43.78500 27.07300
C  40.88400 46.69000 24.77300
C  40.71400 45.80100 28.08700
O  40.24400 46.95500 28.30400
C  40.88100 44.66500 29.18100
C  41.87200 45.23600 30.13100
O  43.05000 45.37800 29.87200
O  41.29200 45.70700 31.23500
C  42.02900 46.40700 32.24700
H  44.15400 38.66900 29.21300
H  43.60000 38.44000 22.69200
H  41.72000 44.48900 22.87600
H  42.63800 42.70000 31.02000
H  42.36100 39.79300 30.78000
H  45.16900 40.57800 30.49800
H  44.33000 39.76800 31.83400
H  44.46400 41.49400 31.80500
H  40.64500 40.84500 31.73100
H  39.78800 41.66200 30.43100
H  39.52400 43.60300 31.80800
H  41.11500 43.43300 32.41300
H  44.43300 35.42900 27.54900
H  44.93800 36.78300 28.55800
H  45.89900 36.29500 27.13700
H  46.32000 35.52900 25.04000
H  45.50600 34.30400 24.07400
H  44.97000 34.72900 25.65700
H  41.90900 40.20900 21.13500
H  43.53600 42.81500 21.47000
H  43.73500 39.46100 20.11400
H  44.87900 40.22900 21.32700
H  44.24500 41.09300 19.96900
H  40.60200 42.89300 21.39500
H  41.36700 41.94400 19.94600
H  40.68000 44.25400 19.54800
H  42.40600 44.11000 19.24700
H  41.72900 44.97500 20.72100
H  41.66600 47.19700 24.20800
H  40.75800 47.38600 25.60200
H  39.98700 46.65300 24.15500
H  39.90600 44.60300 29.66500
H  42.42500 45.67100 32.94700
H  41.42600 47.12400 32.80500
H  42.88300 46.95800 31.85200

