158

Mg 42.41300 3.67500 46.74500
C  40.62000 6.71500 46.51400
C  39.23500 2.12200 46.51700
C  43.95500 0.79300 46.37100
C  45.28800 5.47200 46.06000
N  40.19900 4.41100 46.54600
C  39.76400 5.60300 46.54000
C  38.23300 5.65000 46.64200
C  37.82800 4.14600 46.81800
C  39.17600 3.48200 46.72100
C  37.21200 3.80900 48.27100
C  37.62100 6.25100 45.29000
C  38.03300 5.44400 43.99800
H  38.65400 6.25400 42.91000
N  41.73800 1.66000 46.55200
C  40.37900 1.27900 46.51500
C  40.25900 -0.14000 46.34800
C  41.64300 -0.53800 46.25100
C  42.55000 0.62700 46.43400
C  38.93400 -0.97300 46.23700
C  42.09300 -1.94700 45.84600
O  41.26400 -2.83300 45.65100
C  43.49700 -2.37600 45.44700
N  44.36700 3.15600 46.32400
C  44.79600 1.87400 46.37400
C  46.29000 1.80400 46.05200
C  46.72100 3.33600 45.98400
C  45.36200 4.04500 46.08200
C  47.11100 0.92700 47.01800
C  47.67700 3.68700 44.88300
C  49.12700 3.98900 45.33400
N  42.91000 5.69900 46.42600
C  44.14000 6.29900 46.11900
C  44.06000 7.74300 46.21700
C  42.67500 7.89100 46.28200
C  42.02400 6.66100 46.38600
C  45.07800 8.80400 46.04400
C  41.67400 9.00600 46.30800
O  41.77400 10.21400 46.32300
C  40.32000 8.21200 46.44700
C  39.39900 8.62100 47.54200
O  39.47200 8.26900 48.67600
O  38.39600 9.32400 47.07600
C  37.48400 9.93600 48.00400
H  38.28400 1.59300 46.59900
H  44.55300 -0.12100 46.33700
H  46.18600 6.09100 45.99400
H  37.94700 6.17000 47.55700
H  37.28400 3.61500 46.03700
H  37.16700 4.66100 48.95000
H  37.83000 3.02300 48.70300
H  36.25600 3.29000 48.19500
H  37.80200 7.32400 45.23500
H  36.53100 6.24400 45.30700
H  37.18900 4.87200 43.61300
H  38.73600 4.63400 44.19500
H  38.14000 -0.58100 46.87300
H  39.16100 -1.94100 46.68400
H  38.64600 -1.14200 45.20000
H  44.18600 -2.41300 46.29000
H  43.89700 -1.86500 44.57100
H  43.53200 -3.38100 45.02600
H  46.40100 1.25700 45.11600
H  47.17500 3.57100 46.94700
H  46.45900 0.46100 47.75800
H  47.88900 1.48500 47.54000
H  47.49200 0.08300 46.44300
H  47.34500 4.48900 44.22400
H  47.60600 2.73700 44.35300
H  49.26000 4.35700 46.35200
H  49.58800 4.67800 44.62700
H  49.81700 3.14600 45.37500
H  44.57100 9.76900 46.06900
H  45.73600 8.67900 45.18400
H  45.72100 8.84900 46.92300
H  39.78000 8.35400 45.51100
H  37.73500 10.98400 48.16600
H  37.49000 9.43800 48.97400
H  36.43000 9.80400 47.75900
Mg 42.99000 41.41800 25.42200
C  42.24000 43.84000 27.83900
C  43.76200 39.27900 27.88500
C  43.54600 39.31500 23.00100
C  41.95300 43.92100 22.94000
N  43.19200 41.62000 27.63900
C  42.72300 42.61500 28.42100
C  42.81900 42.23000 29.94100
C  43.36300 40.75400 29.88400
C  43.46300 40.50200 28.38700
C  44.74000 40.56200 30.70500
C  41.49600 42.41500 30.76400
C  41.42300 41.71100 32.14200
H  41.45800 42.66100 33.33000
N  43.64500 39.59100 25.43800
C  43.84900 38.80400 26.53700
C  44.10000 37.48800 26.09700
C  44.20300 37.48900 24.71000
C  43.79900 38.85200 24.29200
C  44.22300 36.28100 27.12100
C  44.51700 36.33100 23.76700
O  44.76500 36.41400 22.55300
C  44.43300 34.91200 24.22600
N  42.65300 41.60000 23.31400
C  43.01200 40.51500 22.53700
C  42.77700 40.76000 20.97000
C  42.11200 42.14400 21.03500
C  42.19900 42.58200 22.49300
C  44.14700 40.76300 20.17500
C  40.68200 42.12100 20.46900
C  39.66600 41.37900 21.29200
N  42.44200 43.46800 25.34800
C  42.10000 44.30400 24.28200
C  41.90100 45.62500 24.83800
C  41.76800 45.41400 26.20500
C  42.13300 44.14000 26.47300
C  41.61400 46.84800 24.02200
C  41.45600 46.17600 27.37300
O  41.07000 47.31300 27.50300
C  41.64600 45.09300 28.57200
C  42.71700 45.64000 29.41100
O  43.89500 45.81800 29.17600
O  42.11200 46.12700 30.62500
C  43.06600 46.84900 31.48200
H  43.79800 38.50200 28.65100
H  43.79700 38.55400 22.25900
H  41.67500 44.67000 22.19500
H  43.44400 42.93200 30.49300
H  42.67900 39.97800 30.22800
H  44.75300 39.90300 31.57400
H  45.13200 41.55900 30.90500
H  45.45500 40.07600 30.04200
H  40.69900 42.25000 30.03800
H  41.34300 43.48800 30.87600
H  42.27900 41.06400 32.33200
H  40.51300 41.11300 32.19900
H  43.50400 35.49900 26.87900
H  43.86200 36.51200 28.12300
H  45.26700 35.96800 27.10600
H  43.54300 34.76600 24.83700
H  45.27000 34.55600 24.82600
H  44.47400 34.23000 23.37600
H  42.04000 40.05400 20.58600
H  42.67500 42.88900 20.47300
H  44.98400 40.35600 20.74300
H  44.42100 41.79100 19.93900
H  44.07200 40.12800 19.29300
H  40.72400 41.62200 19.50000
H  40.38100 43.16200 20.36000
H  39.17400 40.56700 20.75600
H  38.95100 42.13200 21.62200
H  40.03300 40.85200 22.17300
H  42.53000 47.22100 23.56600
H  41.30200 47.71300 24.60700
H  40.77100 46.56000 23.39300
H  40.68900 44.92600 29.06600
H  43.54800 47.71300 31.02400
H  43.88700 46.23100 31.84600
H  42.51000 47.21800 32.34400

