158

Mg 24.36600 0.55600 29.69800
C  26.46100 0.55400 32.56200
C  21.68700 0.55100 31.75100
C  22.45500 0.53100 26.97300
C  27.31300 -0.10600 27.76100
N  24.15000 0.69100 31.90500
C  25.09600 0.74600 32.88100
C  24.44200 1.00700 34.28000
C  22.92100 0.67000 33.88900
C  22.85700 0.63600 32.45500
C  22.52400 -0.74600 34.36200
C  24.83100 2.42100 34.78100
C  24.50900 2.58300 36.27200
H  25.55100 2.23300 37.28500
N  22.32200 0.65200 29.39200
C  21.35000 0.59400 30.38400
C  19.99600 0.67700 29.71600
C  20.25300 0.67800 28.28500
C  21.70300 0.61200 28.18800
C  18.67300 0.66000 30.43500
C  19.33000 0.77300 27.15200
O  19.54200 0.53300 25.97500
C  17.94800 1.09400 27.56900
N  24.84900 0.15000 27.66400
C  23.89800 0.40800 26.73000
C  24.48800 0.19000 25.29100
C  26.02500 0.10600 25.55400
C  26.06000 0.09100 27.10700
C  23.92200 -1.08100 24.60500
C  26.93900 1.20300 24.98600
C  27.15200 2.45600 25.78700
N  26.44500 0.22200 29.98700
C  27.53100 0.02100 29.11600
C  28.76500 0.03200 29.86300
C  28.41300 0.26800 31.13000
C  27.02000 0.28800 31.23300
C  30.13100 -0.20500 29.20400
C  28.93900 0.53700 32.46800
O  30.10700 0.65100 32.87400
C  27.65800 0.70600 33.45400
C  27.79500 -0.41100 34.43400
O  27.09000 -1.36400 34.46100
O  28.82200 -0.08700 35.27500
C  28.91300 -0.90000 36.43200
H  20.73600 0.67300 32.27500
H  21.88300 0.57700 26.04300
H  28.12900 -0.19400 27.04000
H  24.90000 0.38100 35.04600
H  22.24400 1.40500 34.32400
H  23.22600 -0.84300 35.19000
H  22.56400 -1.62600 33.72000
H  21.56000 -0.72700 34.87200
H  24.24100 3.16100 34.24100
H  25.89300 2.43100 34.53300
H  23.53700 2.12000 36.44500
H  24.27500 3.64700 36.29700
H  18.03500 1.46800 30.07800
H  18.76800 0.74100 31.51800
H  18.17800 -0.30200 30.29900
H  17.99200 2.05400 28.08200
H  17.58000 0.28400 28.19900
H  17.31600 1.36200 26.72200
H  24.24000 0.99500 24.60000
H  26.34300 -0.89800 25.27600
H  22.85200 -1.26800 24.70300
H  24.42000 -1.97900 24.97000
H  24.08600 -0.93700 23.53700
H  26.37400 1.57300 24.13000
H  27.86500 0.76300 24.61700
H  26.66000 2.59700 26.75000
H  27.14100 3.38400 25.21700
H  28.21400 2.34000 26.00300
H  30.12100 -0.12600 28.11700
H  30.43400 -1.21500 29.47800
H  30.98600 0.41600 29.46900
H  27.85500 1.68000 33.90200
H  28.82300 -1.95400 36.17100
H  28.12200 -0.73800 37.16500
H  29.85800 -0.65900 36.92000
Mg 26.79000 50.37200 25.94600
C  24.82600 51.55300 28.66500
C  29.06000 49.31000 28.09600
C  28.90300 49.94000 23.26600
C  24.57900 52.02300 23.76900
N  26.91500 50.55400 28.14000
C  26.00100 50.92500 29.06100
C  26.40000 50.49400 30.46800
C  27.89500 49.92300 30.25100
C  27.92000 49.87200 28.73000
C  29.02500 50.83900 30.91800
C  25.37600 49.51900 31.17200
C  24.71600 49.94700 32.44100
H  25.58200 50.53700 33.55800
N  28.72600 49.58000 25.73400
C  29.53000 49.24500 26.76100
C  30.77200 48.77600 26.24500
C  30.75100 48.98100 24.82800
C  29.45400 49.56700 24.60100
C  31.98900 48.22000 27.10700
C  31.82600 48.82200 23.76000
O  31.69600 49.06000 22.56900
C  33.23100 48.19900 24.07600
N  26.82600 50.96400 23.80200
C  27.70100 50.47900 22.89300
C  27.21000 50.76700 21.42000
C  25.78500 51.36300 21.67000
C  25.68200 51.37700 23.21300
C  28.15000 51.53300 20.51100
C  24.56600 50.76600 20.89500
C  23.86400 51.65100 19.86800
N  25.08800 51.61300 26.07800
C  24.25100 52.13800 25.14500
C  23.20400 52.87400 25.76000
C  23.28400 52.62400 27.16500
C  24.49900 51.90500 27.29400
C  22.21200 53.54500 24.96800
C  22.66800 52.83000 28.47600
O  21.73300 53.52400 28.80900
C  23.72100 52.14100 29.51600
C  24.25200 53.09900 30.47400
O  25.29400 53.75200 30.29700
O  23.45900 53.12100 31.61700
C  23.85100 53.98800 32.68900
H  29.67500 48.83200 28.86100
H  29.45300 49.49500 22.43400
H  23.91200 52.53600 23.07300
H  26.43100 51.46200 30.96800
H  28.09900 48.93700 30.66800
H  29.42900 51.43800 30.10100
H  29.82000 50.28900 31.42200
H  28.48900 51.43500 31.65600
H  25.76100 48.52700 31.40600
H  24.55400 49.22100 30.52100
H  24.28700 48.99900 32.76700
H  23.83600 50.58900 32.39600
H  31.81100 48.30800 28.17900
H  32.89700 48.78300 26.89500
H  32.16200 47.14500 27.06200
H  33.89900 47.94600 23.25200
H  33.05700 47.22700 24.53700
H  33.78400 48.82300 24.77900
H  27.09400 49.72200 21.13300
H  25.84300 52.43300 21.47000
H  27.75500 52.46100 20.09600
H  28.43300 50.90900 19.66400
H  29.01500 51.92300 21.04700
H  23.77000 50.55000 21.60800
H  24.80900 49.79200 20.47000
H  23.36700 50.89200 19.26400
H  24.63600 52.18000 19.31000
H  23.07200 52.34400 20.15200
H  22.64000 54.38100 24.41700
H  21.43100 54.05400 25.53200
H  21.67800 52.83800 24.33200
H  23.32600 51.31800 30.11200
H  23.80600 55.02100 32.34600
H  24.84300 53.79500 33.09800
H  23.11600 54.01800 33.49300

