158

Mg 24.80100 -6.65300 47.75300
C  27.30000 -4.58700 46.75400
C  22.69600 -5.45500 45.30800
C  22.72600 -9.34800 48.18800
C  27.27500 -8.38900 49.75800
N  24.94500 -5.25600 46.28700
C  26.04600 -4.43300 46.09500
C  25.81700 -3.41500 44.89100
C  24.25100 -3.53000 44.68600
C  23.94000 -4.84200 45.40800
C  23.35300 -2.24800 44.99800
C  26.66500 -3.78700 43.67300
C  27.29000 -2.53700 42.99800
H  26.87800 -2.31000 41.52400
N  22.98200 -7.30200 46.88400
C  22.29600 -6.62600 45.95900
C  20.98700 -7.20900 45.72500
C  20.91100 -8.32600 46.64800
C  22.25900 -8.34900 47.26600
C  19.81800 -6.52100 44.88500
C  19.73100 -9.21200 46.87100
O  18.75500 -9.19000 46.19400
C  19.63400 -10.14300 48.06000
N  25.01900 -8.67600 48.73000
C  23.93000 -9.47900 48.85600
C  24.21900 -10.74400 49.62400
C  25.61000 -10.37000 50.19500
C  26.01600 -9.03600 49.55800
C  23.16400 -11.24900 50.70400
C  26.73200 -11.44900 50.11600
C  27.09400 -11.76500 48.68900
N  26.79600 -6.46000 48.25700
C  27.68000 -7.23400 49.01700
C  28.92200 -6.54200 49.14400
C  28.85100 -5.56300 48.17300
C  27.51700 -5.53800 47.70800
C  29.99100 -6.98000 49.97900
C  29.54300 -4.43600 47.61900
O  30.61400 -3.93700 47.82900
C  28.56800 -3.71300 46.61100
C  28.37000 -2.32300 47.04700
O  28.22300 -1.96900 48.20700
O  28.41800 -1.55800 45.93000
C  27.98300 -0.14100 46.17800
H  21.94300 -4.93100 44.71600
H  21.97100 -10.04500 48.55800
H  28.03400 -8.81500 50.41700
H  26.02800 -2.41400 45.26700
H  24.05700 -3.68500 43.62500
H  23.93600 -1.33400 45.11400
H  22.94300 -2.35700 46.00200
H  22.49400 -2.19800 44.32900
H  26.02200 -4.28800 42.94800
H  27.40800 -4.54800 43.91500
H  28.37200 -2.60900 43.11000
H  27.02900 -1.73000 43.68300
H  18.86400 -6.65400 45.39600
H  19.79500 -6.88500 43.85800
H  19.81400 -5.43200 44.84400
H  20.15000 -11.06300 47.78700
H  18.57900 -10.40600 48.13700
H  19.90400 -9.73600 49.03400
H  24.37100 -11.55100 48.90700
H  25.54400 -10.13500 51.25700
H  22.20600 -10.79400 50.45300
H  23.46500 -10.85600 51.67500
H  23.05100 -12.33300 50.67200
H  26.35400 -12.35800 50.58300
H  27.59000 -11.06200 50.66500
H  28.14500 -11.53200 48.52100
H  26.47800 -11.14100 48.04200
H  26.86500 -12.80000 48.43300
H  30.86400 -6.39600 49.68600
H  30.16500 -8.03700 49.77700
H  29.83900 -6.77800 51.03900
H  28.98900 -3.71700 45.60500
H  28.45600 0.28400 47.06300
H  26.90100 -0.01700 46.21900
H  28.06400 0.46900 45.27900
Mg 9.31100 48.68900 27.50800
C  7.35600 47.98900 30.32300
C  11.92900 49.28100 29.57800
C  11.20100 49.23200 24.76500
C  6.56000 48.49600 25.42500
N  9.58100 48.74100 29.75900
C  8.66300 48.39800 30.72500
C  9.26100 48.55800 32.11500
C  10.64200 49.41100 31.78400
C  10.74600 49.19600 30.28600
C  10.73300 50.84400 32.32000
C  9.53300 47.20800 32.82600
C  10.37800 47.16800 34.15100
H  10.10300 46.10800 35.25900
N  11.35800 49.08300 27.21200
C  12.29600 49.28800 28.17200
C  13.53800 49.48600 27.58200
C  13.35400 49.55600 26.16900
C  11.91000 49.27100 25.99200
C  14.74100 49.72600 28.37700
C  14.31600 49.71600 24.99900
O  14.06700 49.53200 23.78500
C  15.77400 49.96100 25.38200
N  8.90500 48.93500 25.30100
C  9.82200 49.03900 24.39400
C  9.25800 49.31900 23.03700
C  7.86600 48.75600 23.23600
C  7.72300 48.64900 24.72500
C  9.34400 50.78600 22.58800
C  7.46800 47.45400 22.41000
C  6.08100 47.50000 21.81700
N  7.41900 48.34700 27.76500
C  6.32800 48.31900 26.83000
C  5.13400 47.91000 27.49300
C  5.46400 47.81600 28.89900
C  6.87200 48.03200 28.94600
C  3.72900 47.79800 26.95800
C  4.97800 47.46300 30.20600
O  3.83500 47.08800 30.52100
C  6.24200 47.58000 31.21000
C  6.40800 46.33500 31.97000
O  6.77000 45.21600 31.55000
O  6.13800 46.61700 33.29000
C  6.48400 45.49100 34.13500
H  12.71800 49.49400 30.30200
H  11.78000 49.42500 23.86000
H  5.60900 48.39600 24.89800
H  8.50300 49.03600 32.73500
H  11.46600 48.87300 32.25400
H  9.82300 51.07800 32.87300
H  10.85500 51.49900 31.45700
H  11.56900 50.97000 33.00800
H  10.03100 46.62700 32.04900
H  8.59600 46.71300 33.08200
H  10.26900 48.11900 34.67300
H  11.41200 46.96400 33.87500
H  14.50100 49.68200 29.44000
H  15.27100 50.64200 28.11900
H  15.41700 48.89100 28.19200
H  15.83900 50.89200 25.94500
H  16.42500 50.07800 24.51500
H  16.14400 49.15400 26.01400
H  9.73600 48.83800 22.18300
H  7.17300 49.52400 22.89100
H  9.94600 50.80400 21.67900
H  9.75900 51.36200 23.41500
H  8.33600 51.15600 22.40000
H  7.58400 46.58000 23.05100
H  8.21600 47.47400 21.61700
H  6.15600 47.39400 20.73400
H  5.56700 48.45400 21.92600
H  5.50700 46.60500 22.05700
H  3.65000 48.10000 25.91300
H  2.96700 48.31500 27.54200
H  3.48800 46.73700 27.02200
H  6.10200 48.42100 31.88900
H  7.50500 45.14100 33.98100
H  5.78000 44.66300 34.05000
H  6.35800 45.81600 35.16800

