158

Mg 6.45900 56.30900 41.47500
C  5.45800 52.90200 41.79900
C  9.54600 54.95600 40.40900
C  7.53900 59.38700 40.88400
C  3.31100 57.36200 41.94800
N  7.34600 54.10800 41.03700
C  6.72300 52.92600 41.11700
C  7.56000 51.81600 40.61200
C  8.95900 52.44200 40.66600
C  8.60900 53.91400 40.64700
C  9.76000 52.07200 42.02200
C  7.18600 51.32800 39.24100
C  7.72600 49.97000 38.80400
H  8.52500 50.02300 37.52300
N  8.30600 57.08700 40.79900
C  9.44400 56.35400 40.47900
C  10.52500 57.30100 40.25100
C  9.95200 58.64600 40.34800
C  8.58100 58.44700 40.71700
C  11.92200 56.90200 39.76500
C  10.70800 59.91900 40.27300
O  11.86100 59.90200 40.06500
C  9.99200 61.23300 40.38900
N  5.54100 58.14300 41.38000
C  6.15100 59.27800 41.17000
C  5.17400 60.47200 41.29800
C  3.80100 59.88300 41.73700
C  4.23200 58.37500 41.68300
C  5.57100 61.61800 42.30500
C  2.54800 60.33500 40.95500
C  1.60700 61.19900 41.87800
N  4.70500 55.39800 41.80100
C  3.51200 55.96000 42.12900
C  2.65700 54.97100 42.62100
C  3.40500 53.70100 42.56000
C  4.66400 54.04000 42.10200
C  1.32000 55.22300 43.08600
C  3.38300 52.29600 42.75100
O  2.51900 51.56300 43.12900
C  4.79800 51.75300 42.41700
C  4.64000 50.66100 41.38000
O  3.98500 50.79100 40.37900
O  5.14600 49.45300 41.85100
C  4.80400 48.21600 41.12700
H  10.56900 54.60800 40.25400
H  7.75800 60.44200 40.70800
H  2.31000 57.68300 42.24400
H  7.48900 50.94700 41.26600
H  9.54500 52.24900 39.76800
H  10.70600 51.61300 41.73400
H  9.25800 51.29300 42.59600
H  9.97800 52.94300 42.63900
H  7.44200 52.12000 38.53900
H  6.09700 51.32100 39.29600
H  6.94100 49.23600 38.62000
H  8.39900 49.53500 39.54300
H  11.78700 56.48900 38.76500
H  12.31500 56.12900 40.42600
H  12.63400 57.72600 39.73100
H  9.53900 61.27500 41.37900
H  9.24200 61.23600 39.59900
H  10.60100 62.13600 40.34900
H  5.11800 60.87900 40.28800
H  3.72800 60.13700 42.79500
H  5.05900 61.55300 43.26500
H  5.10000 62.53700 41.95500
H  6.65800 61.66700 42.37200
H  1.95700 59.61100 40.39400
H  2.94600 60.91100 40.12000
H  0.60500 60.81000 42.06300
H  1.61200 62.12600 41.30500
H  2.11200 61.51800 42.78900
H  1.14600 55.91200 43.91200
H  0.89200 54.24000 43.28700
H  0.76300 55.61000 42.23300
H  5.28900 51.42700 43.33400
H  3.72600 48.05600 41.10300
H  5.30600 47.33100 41.51800
H  4.98800 48.41200 40.07100
Mg -5.00600 24.49900 26.25500
C  -3.13600 26.04800 28.72200
C  -6.34400 22.43100 28.63800
C  -6.97700 23.22000 23.81100
C  -3.31700 26.37500 23.82100
N  -4.76000 24.35400 28.41800
C  -4.12300 25.20400 29.25400
C  -4.47200 24.91500 30.74600
C  -5.08900 23.42800 30.59900
C  -5.41800 23.37600 29.12300
C  -4.16700 22.28300 31.01500
C  -5.27600 26.15700 31.21200
C  -5.39000 26.52300 32.68600
H  -5.02900 25.37500 33.59400
N  -6.38000 23.05800 26.19400
C  -6.80400 22.30600 27.28700
C  -7.79600 21.40600 26.88700
C  -8.08300 21.65300 25.51500
C  -7.09000 22.70300 25.13100
C  -8.38600 20.31400 27.80700
C  -9.13000 20.98900 24.57700
O  -9.25000 21.26100 23.40500
C  -10.02200 19.98500 25.11700
N  -5.16200 24.78500 24.00700
C  -5.96200 24.07800 23.26300
C  -5.90200 24.39700 21.81100
C  -4.72700 25.35600 21.78100
C  -4.36700 25.59800 23.32100
C  -5.79500 23.22700 20.77900
C  -5.13700 26.64700 21.08700
C  -4.05800 27.15200 20.12700
N  -3.42300 25.73000 26.17500
C  -2.95400 26.58200 25.16800
C  -1.88400 27.46500 25.69900
C  -1.88900 27.22300 27.08300
C  -2.82800 26.18600 27.32300
C  -1.19200 28.59300 24.94900
C  -1.32900 27.67800 28.39100
O  -0.46000 28.55400 28.53800
C  -2.27400 27.03000 29.49600
C  -1.40100 26.42400 30.57600
O  -0.66300 25.43900 30.49400
O  -1.58100 27.11500 31.74400
C  -0.86600 26.63700 32.94200
H  -6.92900 21.86500 29.36600
H  -7.70200 22.91900 23.05300
H  -2.81900 27.13600 23.21700
H  -3.54800 24.88100 31.32200
H  -6.05700 23.39200 31.09900
H  -4.30900 22.08400 32.07700
H  -3.11100 22.55300 30.99000
H  -4.31900 21.40500 30.38800
H  -6.33000 26.17500 30.93500
H  -4.82700 26.96700 30.63800
H  -6.41400 26.84100 32.88000
H  -4.71600 27.37200 32.80500
H  -9.37200 20.64300 28.13300
H  -7.73300 20.08400 28.64900
H  -8.40700 19.45100 27.14100
H  -9.35400 19.12700 25.03700
H  -10.77900 19.86000 24.34200
H  -10.55300 20.27300 26.02400
H  -6.80700 24.91000 21.48300
H  -3.84600 24.89500 21.33500
H  -5.91200 22.27500 21.29700
H  -4.81000 23.17800 20.31600
H  -6.64500 23.33700 20.10500
H  -5.26700 27.44100 21.82200
H  -6.07700 26.59100 20.53800
H  -4.51600 27.07700 19.14000
H  -3.11000 26.61500 20.14300
H  -3.75800 28.12900 20.50300
H  -1.67900 29.55600 25.10100
H  -1.21100 28.25300 23.91300
H  -0.15400 28.65800 25.27500
H  -2.86500 27.84100 29.92300
H  0.17200 26.42200 32.68800
H  -1.42800 25.80200 33.35900
H  -0.79100 27.50600 33.59600

