158

Mg 9.01800 4.81200 27.17100
C  10.43200 3.11600 29.90200
C  6.93800 6.45200 29.28000
C  7.50900 5.95400 24.45200
C  10.60200 2.33800 25.12400
N  8.70200 4.80300 29.31600
C  9.55200 4.19700 30.23800
C  9.20900 4.57600 31.65100
C  8.03500 5.67600 31.37900
C  7.81000 5.54200 29.89000
C  6.79900 5.35700 32.25500
C  10.42700 5.09400 32.52200
C  10.10300 5.83200 33.83600
H  10.82500 5.48100 35.14100
N  7.55800 6.19200 26.88700
C  6.76800 6.74800 27.90800
C  5.75600 7.52200 27.29100
C  6.01400 7.53700 25.82500
C  7.09100 6.53000 25.69000
C  4.58300 8.17600 28.09100
C  5.26300 8.26800 24.69300
O  5.49700 8.05500 23.50300
C  4.09000 9.21200 25.05000
N  9.09000 4.25700 25.05300
C  8.43600 5.04400 24.15600
C  8.88000 4.70300 22.71200
C  9.88000 3.50900 22.93400
C  9.79300 3.27400 24.46000
C  7.57700 4.38100 21.84600
C  11.45100 3.75200 22.43400
C  12.16300 2.76100 21.47000
N  10.18700 3.08400 27.45000
C  10.77300 2.26200 26.46400
C  11.68900 1.30900 27.14100
C  11.54000 1.60600 28.48300
C  10.63700 2.62000 28.62000
C  12.60400 0.30100 26.55600
C  11.82600 1.21300 29.87300
O  12.46200 0.28300 30.29700
C  11.24200 2.33300 30.79600
C  10.39800 1.73700 31.87500
O  9.31300 1.21400 31.59400
O  11.06000 1.72200 33.07600
C  10.36100 0.94500 34.08900
H  6.34100 6.95400 30.04400
H  7.09100 6.38600 23.54000
H  11.03800 1.59700 24.45000
H  8.79500 3.76900 32.25500
H  8.55100 6.60600 31.61800
H  5.90200 5.45100 31.64200
H  6.60400 6.12600 33.00200
H  6.80100 4.35700 32.68700
H  10.96200 5.77100 31.85600
H  11.00000 4.22300 32.84000
H  9.03400 5.63600 33.92800
H  10.40500 6.86500 33.66500
H  4.48600 7.78100 29.10300
H  3.66400 7.95500 27.54900
H  4.76500 9.24200 28.22200
H  3.22800 8.70700 25.48500
H  3.93200 9.83300 24.16900
H  4.44000 9.94500 25.77600
H  9.48700 5.47900 22.24700
H  9.53300 2.59900 22.44500
H  7.81800 3.64800 21.07500
H  7.27400 5.28600 21.32000
H  6.75500 4.12600 22.51500
H  12.08100 3.80900 23.32200
H  11.41900 4.70800 21.91100
H  11.47400 2.27800 20.77800
H  12.56000 1.93000 22.05200
H  12.92000 3.27500 20.87800
H  12.67200 0.25600 25.46900
H  12.20000 -0.67200 26.83600
H  13.61700 0.59500 26.82900
H  12.01800 2.93400 31.27100
H  10.01800 -0.04400 33.78700
H  9.67600 1.49600 34.73300
H  11.18000 0.61500 34.72800
Mg 9.00700 48.79600 25.89200
C  6.91400 49.02800 28.64500
C  11.74200 49.79400 27.96600
C  11.15200 48.33000 23.35600
C  6.35100 48.23600 23.84900
N  9.30600 49.40500 28.05400
C  8.31800 49.20800 29.02000
C  8.95400 49.46200 30.44200
C  10.40100 50.06500 30.10500
C  10.51800 49.75900 28.61300
C  10.67000 51.57500 30.49000
C  9.11800 48.24100 31.43400
C  8.80700 48.50500 32.86800
H  8.58500 47.28800 33.66800
N  11.12100 49.02400 25.63400
C  12.02900 49.47200 26.63600
C  13.40100 49.43300 26.06200
C  13.27800 48.95500 24.72600
C  11.81100 48.73500 24.49100
C  14.66900 49.81700 26.80300
C  14.37900 48.72200 23.70000
O  14.10300 48.20600 22.63400
C  15.89100 49.03400 24.00500
N  8.75900 48.63000 23.80800
C  9.73100 48.26000 23.03800
C  9.24300 47.80200 21.62600
C  7.68300 47.84900 21.75900
C  7.59500 48.27900 23.22700
C  9.83000 48.77900 20.46600
C  6.95300 46.50800 21.48000
C  5.64500 46.72800 20.70900
N  7.05800 48.65200 26.08700
C  6.04500 48.44500 25.16900
C  4.75700 48.40900 25.80400
C  5.03400 48.70400 27.23200
C  6.43400 48.77500 27.31500
C  3.52600 48.09000 25.08700
C  4.45900 48.89400 28.54900
O  3.28400 48.78400 28.98000
C  5.68900 49.10900 29.50400
C  5.58600 48.06200 30.52600
O  5.76800 46.88700 30.43800
O  5.23300 48.76600 31.74800
C  4.91400 47.98900 32.94200
H  12.47200 50.12400 28.70800
H  11.87500 48.05200 22.58600
H  5.46700 48.11400 23.21900
H  8.38700 50.19000 31.02300
H  11.25200 49.62200 30.62200
H  11.16100 51.68100 31.45700
H  9.66200 51.94300 30.67900
H  11.09600 52.18600 29.69400
H  10.12600 47.84000 31.54100
H  8.54900 47.39300 31.05200
H  7.89900 49.09900 32.97600
H  9.58700 49.11100 33.33000
H  15.25400 48.91800 26.99400
H  14.45600 50.33300 27.74000
H  15.19400 50.58000 26.22800
H  16.41700 49.02500 23.05100
H  16.30400 48.32300 24.72100
H  15.93700 50.03400 24.43700
H  9.70700 46.81800 21.56700
H  7.12000 48.54500 21.13700
H  9.35400 49.74600 20.62400
H  9.69800 48.33300 19.48000
H  10.90800 48.84800 20.61500
H  6.81300 45.82500 22.31800
H  7.59600 45.83200 20.91600
H  5.77900 46.05900 19.85900
H  5.56600 47.75900 20.36400
H  4.75300 46.47400 21.28200
H  3.21500 48.91000 24.43900
H  2.94400 47.77400 25.95300
H  3.73400 47.26700 24.40300
H  5.49700 50.10000 29.91600
H  5.83700 47.47900 33.21800
H  4.15400 47.25200 32.68200
H  4.52100 48.54600 33.79200

