158

Mg 36.01500 2.00000 29.93900
C  33.86000 3.14500 32.35100
C  38.56500 1.95300 32.49300
C  38.32200 1.13900 27.61700
C  33.59200 2.47800 27.54500
N  36.16400 2.44800 32.14400
C  35.10700 2.92400 32.88900
C  35.53600 3.05800 34.35700
C  37.07100 3.00500 34.20600
C  37.28400 2.40500 32.87300
C  37.86500 4.37100 34.39100
C  34.86700 2.04700 35.26600
C  34.45200 2.48100 36.65600
H  35.01800 3.77500 37.32100
N  38.08400 1.51500 30.02300
C  38.92200 1.56000 31.14200
C  40.21600 1.12600 30.68600
C  40.21200 0.79700 29.29400
C  38.84800 1.23400 28.91500
C  41.44700 1.20300 31.63400
C  41.29600 0.31400 28.38000
O  41.09500 0.17400 27.20100
C  42.77300 0.12700 28.92400
N  36.00600 2.00300 27.83000
C  37.09200 1.44300 27.10700
C  36.68600 1.15900 25.63300
C  35.18400 1.67000 25.61700
C  34.87700 2.01000 27.10800
C  37.61100 1.75800 24.54600
C  34.14500 0.52700 25.03100
C  33.04500 1.13300 24.12500
N  34.13300 2.69500 29.93800
C  33.23600 2.77900 28.84600
C  31.92300 3.07900 29.31900
C  32.09400 3.28700 30.73700
C  33.44100 2.99700 31.02200
C  30.66400 3.35200 28.38500
C  31.47900 3.77900 32.02600
O  30.42400 4.24100 32.26100
C  32.66100 3.57500 33.08000
C  32.78900 4.81200 33.85400
O  33.24600 5.88600 33.42400
O  32.16500 4.71900 35.08300
C  31.72800 5.96000 35.75700
H  39.29700 1.89600 33.30100
H  38.98500 0.93400 26.77300
H  32.83000 2.66400 26.78500
H  35.31100 4.06700 34.70200
H  37.52300 2.47000 35.04200
H  38.55500 4.22400 35.22200
H  37.31700 5.27700 34.64700
H  38.48700 4.54500 33.51200
H  35.54700 1.19500 35.24900
H  34.01700 1.62100 34.73500
H  34.81900 1.64200 37.24700
H  33.36600 2.40400 36.60800
H  41.96800 0.24600 31.66900
H  41.07100 1.40300 32.63700
H  42.03500 2.05700 31.29700
H  43.49800 -0.11900 28.14800
H  42.84400 -0.82200 29.45600
H  43.11000 1.01400 29.46100
H  36.63100 0.07200 25.58200
H  35.07800 2.57700 25.02200
H  38.40700 1.02800 24.39500
H  38.05100 2.66800 24.95400
H  37.09800 1.92400 23.59900
H  33.67200 -0.03100 25.83900
H  34.74000 -0.10400 24.37100
H  33.17700 0.77300 23.10500
H  33.12400 2.22000 24.15000
H  32.08600 0.79400 24.51700
H  30.35900 2.44800 27.85700
H  30.99000 4.18000 27.75500
H  29.85400 3.73000 29.00900
H  32.44200 2.71400 33.71200
H  30.69800 5.85000 36.09900
H  31.72400 6.88600 35.18200
H  32.31500 6.14700 36.65600
Mg 0.90000 43.56000 25.78100
C  2.99800 43.78000 28.63600
C  -1.68700 42.77700 27.83100
C  -0.87600 42.91700 23.11600
C  3.73100 44.06400 23.82400
N  0.78200 43.10800 27.95500
C  1.64900 43.44500 28.99100
C  0.97400 43.27600 30.36400
C  -0.45500 42.84900 30.00500
C  -0.43500 42.83200 28.48100
C  -0.98700 41.57000 30.71600
C  1.14000 44.47300 31.24000
C  1.55100 44.20800 32.73700
H  1.04400 42.85800 33.27800
N  -1.03700 43.15600 25.50800
C  -1.94500 42.90600 26.51500
C  -3.23600 42.64500 25.93400
C  -3.05300 42.52900 24.47800
C  -1.60900 42.87600 24.29600
C  -4.53600 42.55300 26.76400
C  -4.07100 42.34300 23.32400
O  -3.77400 42.15100 22.16000
C  -5.54900 42.11300 23.62400
N  1.32800 43.62800 23.73400
C  0.45600 43.20900 22.83700
C  1.00900 43.13400 21.44200
C  2.37300 43.94100 21.60300
C  2.52300 43.88100 23.16900
C  1.10400 41.63800 20.83700
C  2.37700 45.39400 21.00600
C  2.57000 45.52900 19.49500
N  2.94300 43.87100 26.12800
C  3.92400 44.14100 25.21600
C  5.21500 44.29900 25.84500
C  4.86700 44.09300 27.21400
C  3.49400 43.92000 27.30500
C  6.47900 44.55800 25.22700
C  5.41700 44.02400 28.53900
O  6.56600 44.11400 28.95200
C  4.23200 44.00100 29.52200
C  4.35200 42.81800 30.39700
O  4.22500 41.67000 29.95600
O  4.86600 43.04800 31.67800
C  5.43800 41.95000 32.45500
H  -2.49700 42.64300 28.55100
H  -1.50100 42.62800 22.26800
H  4.53400 44.39700 23.16400
H  1.51900 42.40300 30.72400
H  -1.16200 43.65800 30.18200
H  -1.22800 40.72700 30.07000
H  -1.82400 41.76400 31.38700
H  -0.19800 41.20200 31.37200
H  0.18900 44.98700 31.38000
H  1.72900 45.30500 30.85500
H  1.15800 45.08200 33.25800
H  2.63900 44.15100 32.72600
H  -4.37000 43.14600 27.66300
H  -4.72300 41.51600 27.04100
H  -5.39100 42.97200 26.23300
H  -5.64200 41.28700 24.32900
H  -6.16600 41.89400 22.75300
H  -5.74800 43.06100 24.12500
H  0.25700 43.66500 20.85700
H  3.19700 43.47300 21.06500
H  0.58200 40.84500 21.37300
H  2.16600 41.40500 20.92100
H  0.70600 41.62800 19.82300
H  3.16800 45.99300 21.45800
H  1.38800 45.76200 21.27900
H  1.66600 45.93300 19.04000
H  2.64200 44.56800 18.98500
H  3.41000 46.16700 19.22200
H  7.36900 44.17900 25.72800
H  6.61400 45.63900 25.19400
H  6.49700 44.09800 24.23900
H  4.21000 44.91600 30.11400
H  5.92500 42.36900 33.33600
H  6.20200 41.45700 31.85400
H  4.65900 41.36200 32.94000

