158

Mg 54.09400 24.68100 44.14900
C  51.26500 26.59100 43.25900
C  52.54000 21.96000 42.68000
C  57.10100 22.98400 44.15300
C  55.66700 27.57600 45.09700
N  52.22400 24.34200 42.99800
C  51.13300 25.25100 42.86600
C  49.89000 24.52300 42.40900
C  50.20400 23.03400 42.58200
C  51.75600 23.08500 42.74900
C  49.48900 22.25000 43.78800
C  49.44000 24.95700 40.95000
C  47.96900 25.09200 40.49300
H  47.64000 24.94100 38.98500
N  54.73300 22.68000 43.56400
C  53.88200 21.74500 43.14200
C  54.59100 20.48200 43.04700
C  55.94800 20.71700 43.47200
C  55.96400 22.14700 43.77900
C  53.97300 19.20500 42.51300
C  57.06100 19.69400 43.49700
O  56.77300 18.49000 43.31500
C  58.36700 20.04700 43.95800
N  56.21600 25.16400 44.39600
C  57.22900 24.33500 44.52200
C  58.50300 25.00900 45.10500
C  58.03800 26.51800 45.21900
C  56.51100 26.45100 44.89400
C  59.03600 24.34800 46.45500
C  58.65900 27.45700 44.14300
C  59.82300 28.34800 44.76100
N  53.63500 26.68400 44.24300
C  54.36900 27.72300 44.62000
C  53.52000 28.95300 44.69400
C  52.31400 28.52100 44.19200
C  52.43500 27.16400 43.88200
C  53.97000 30.33600 45.20500
C  50.96300 28.95000 43.90900
O  50.37100 30.02800 44.07600
C  50.20800 27.82700 43.13900
C  50.06400 28.49300 41.81400
O  50.99500 28.98900 41.17800
O  48.72900 28.35500 41.39200
C  48.58400 28.67000 40.00100
H  51.93100 21.07100 42.49800
H  58.06200 22.52100 44.38900
H  56.22800 28.46900 45.38200
H  49.21900 24.81300 43.21800
H  50.06400 22.49900 41.64200
H  48.78200 22.89100 44.31600
H  50.21900 21.81300 44.46900
H  48.95300 21.42400 43.32100
H  49.77900 24.22500 40.21500
H  50.00300 25.84400 40.66000
H  47.62500 26.09400 40.75000
H  47.43600 24.37300 41.11500
H  54.11700 18.47600 43.31100
H  54.52000 18.76900 41.67600
H  52.91800 19.25200 42.24300
H  58.84500 20.74100 43.26700
H  58.97100 19.14100 43.91300
H  58.17700 20.40600 44.96900
H  59.24500 25.09300 44.31100
H  58.12800 26.93000 46.22400
H  60.07300 24.04000 46.31700
H  58.40000 23.50000 46.70700
H  58.96200 24.98600 47.33500
H  57.93900 28.23200 43.88200
H  59.01400 26.89100 43.28200
H  60.82700 27.96400 44.57800
H  59.74600 28.33300 45.84800
H  59.76300 29.42300 44.59200
H  53.12600 30.91800 45.57400
H  54.47400 30.80600 44.36100
H  54.69600 30.26200 46.01500
H  49.20300 27.66500 43.52800
H  48.54200 29.75900 40.00700
H  47.65800 28.26800 39.58900
H  49.47600 28.38300 39.44400
Mg -3.99300 25.22500 24.90000
C  -3.07900 26.45600 28.06300
C  -6.02500 22.94200 26.39900
C  -4.44100 23.89400 21.95200
C  -1.75000 27.52200 23.55600
N  -4.50600 24.76000 27.03400
C  -4.02900 25.42400 28.16200
C  -4.76700 24.93100 29.37000
C  -5.50700 23.62200 28.87300
C  -5.43200 23.82600 27.34300
C  -4.96300 22.31300 29.46700
C  -5.54700 25.96300 30.22500
C  -5.38800 26.01400 31.74400
H  -4.89000 24.73400 32.45500
N  -5.14600 23.67300 24.23700
C  -5.88600 22.84800 24.97500
C  -6.56100 21.85100 24.17500
C  -5.98200 21.97500 22.86900
C  -5.18900 23.27600 22.96300
C  -7.47500 20.74700 24.64700
C  -6.22200 21.18800 21.55600
O  -5.72400 21.46400 20.46000
C  -7.08600 19.95000 21.52200
N  -3.27900 25.71200 23.03700
C  -3.57600 24.99900 21.96400
C  -2.68900 25.45600 20.82000
C  -2.28300 26.87800 21.15000
C  -2.42900 26.74600 22.65000
C  -1.48400 24.58500 20.66800
C  -3.04900 27.98600 20.48400
C  -2.22100 29.02500 19.76100
N  -2.63300 26.69400 25.56300
C  -1.81900 27.54800 24.93500
C  -1.05600 28.29000 25.88300
C  -1.59000 27.99000 27.14600
C  -2.59100 27.02600 26.85700
C  0.09300 29.18600 25.60600
C  -1.57600 28.28100 28.53300
O  -0.81700 29.07700 29.09200
C  -2.72300 27.36800 29.19800
C  -1.99400 26.71300 30.27900
O  -1.42900 25.63700 30.18400
O  -1.99900 27.42600 31.43800
C  -1.14000 26.98500 32.50500
H  -6.67300 22.22500 26.90600
H  -4.43000 23.30100 21.03600
H  -1.19600 28.33300 23.07800
H  -3.86900 24.59900 29.89100
H  -6.55700 23.61800 29.16800
H  -4.35700 22.46300 30.36000
H  -4.36600 21.75700 28.74500
H  -5.67600 21.56300 29.81000
H  -6.62400 25.85100 30.09500
H  -5.35700 26.99000 29.91300
H  -6.32800 26.31600 32.20500
H  -4.71400 26.83900 31.97400
H  -7.07800 19.75500 24.43200
H  -8.34800 20.97300 24.03500
H  -7.78100 20.73200 25.69400
H  -8.08300 20.36200 21.67300
H  -6.89800 19.18100 22.27100
H  -7.01500 19.55000 20.51000
H  -3.28100 25.31300 19.91600
H  -1.24100 27.03700 20.87000
H  -1.74600 23.71400 20.06700
H  -1.07000 24.40500 21.66000
H  -0.69200 24.90900 19.99300
H  -3.74000 28.50300 21.15100
H  -3.69500 27.59000 19.70000
H  -2.66500 28.97400 18.76700
H  -1.20500 28.63400 19.69900
H  -2.35100 29.98700 20.25700
H  -0.37600 30.01600 25.07800
H  0.82800 28.71100 24.95700
H  0.59300 29.47600 26.53000
H  -3.47100 28.02200 29.64700
H  -1.28600 27.84200 33.16100
H  -0.08900 26.98800 32.21500
H  -1.49000 26.09200 33.02300

