158

Mg -2.11400 17.68400 26.76100
C  -2.72100 15.56700 29.50000
C  -2.54400 20.40300 28.79800
C  -2.03200 19.60200 23.91100
C  -2.50300 14.88100 24.69200
N  -2.74100 17.88200 28.91500
C  -2.57000 16.92500 29.92400
C  -2.69400 17.49800 31.26800
C  -2.82300 18.97000 30.99900
C  -2.76900 19.14800 29.44400
C  -4.19900 19.53300 31.49200
C  -1.41800 17.14300 32.15100
C  -1.28900 17.94500 33.47400
H  -1.07800 17.17000 34.80600
N  -2.20700 19.70200 26.40400
C  -2.39600 20.65400 27.39500
C  -2.23700 21.95200 26.78500
C  -1.92500 21.73900 25.42700
C  -2.03600 20.28500 25.16100
C  -2.25700 23.26200 27.59800
C  -1.69900 22.83400 24.37900
O  -1.57700 22.54300 23.17000
C  -1.42800 24.24000 24.70300
N  -2.51800 17.33300 24.62800
C  -2.27800 18.25900 23.68200
C  -2.21700 17.69200 22.20800
C  -2.30700 16.14700 22.55000
C  -2.43700 16.13400 24.05000
C  -3.31500 18.18900 21.31500
C  -1.11300 15.27800 22.04200
C  0.14900 15.47400 22.76900
N  -2.48100 15.61300 26.96700
C  -2.56200 14.58100 26.04900
C  -2.76200 13.31600 26.78400
C  -2.76700 13.64900 28.13500
C  -2.67300 15.06000 28.19000
C  -3.00700 11.91900 26.18500
C  -3.00900 13.05800 29.44200
O  -3.27000 11.85900 29.72600
C  -3.00500 14.29400 30.37200
C  -1.98600 14.05100 31.33100
O  -0.77300 14.07600 31.10300
O  -2.60000 13.71900 32.55600
C  -1.71500 13.20900 33.60300
H  -2.40400 21.12200 29.60800
H  -1.82900 20.15400 22.99200
H  -2.43700 14.04300 23.99400
H  -3.60800 17.02100 31.62000
H  -2.00800 19.56100 31.41800
H  -4.68900 18.79000 32.12200
H  -4.83500 19.73100 30.63000
H  -4.03400 20.46300 32.03700
H  -0.46900 17.13600 31.61600
H  -1.57000 16.09500 32.40900
H  -2.14600 18.60500 33.61600
H  -0.37900 18.54300 33.49700
H  -2.98000 23.93700 27.14000
H  -1.27600 23.73400 27.53400
H  -2.49400 22.91300 28.60300
H  -2.39200 24.71900 24.87400
H  -0.88100 24.75200 23.91100
H  -0.87400 24.31100 25.63900
H  -1.18200 17.86600 21.91500
H  -3.19400 15.67000 22.13200
H  -3.88900 17.46400 20.73700
H  -2.91500 18.84700 20.54400
H  -4.00800 18.83200 21.85800
H  -0.93700 15.54000 20.99900
H  -1.37000 14.22100 21.98500
H  0.07900 15.93400 23.75500
H  0.86900 15.95300 22.10600
H  0.52900 14.47300 22.96900
H  -2.22200 11.80600 25.43700
H  -3.91000 12.02800 25.58500
H  -3.04000 11.23000 27.02900
H  -3.96100 14.33400 30.89400
H  -1.96100 13.71200 34.53800
H  -0.67400 13.49600 33.45700
H  -1.70600 12.12100 33.67000
Mg 49.87900 45.98600 43.67700
C  46.64700 46.77600 42.55000
C  49.34500 42.71800 42.46400
C  53.19500 45.42800 44.08800
C  50.33100 49.31000 44.60000
N  48.24300 44.93600 42.53600
C  47.01500 45.45400 42.21700
C  46.14800 44.38700 41.52600
C  46.94400 43.06400 41.72900
C  48.25300 43.57400 42.31400
C  46.35300 41.85300 42.50400
C  45.85500 44.66300 40.00300
C  44.44200 44.18200 39.67400
H  43.83000 44.85600 38.41700
N  51.07400 44.26100 43.49800
C  50.65000 43.06300 42.98200
C  51.82800 42.27500 42.85100
C  52.98900 43.04200 43.33000
C  52.44800 44.31500 43.69400
C  51.70400 40.82500 42.27300
C  54.43600 42.51800 43.27400
O  54.73500 41.41700 42.80900
C  55.62300 43.30600 43.82800
N  51.56400 47.22200 44.26600
C  52.82700 46.77900 44.39000
C  53.79600 47.83400 45.06700
C  52.76400 48.92000 45.47400
C  51.46500 48.51800 44.75900
C  54.63900 47.33900 46.29000
C  53.33500 50.30100 45.15200
C  53.63900 50.70100 43.64800
N  48.73700 47.75800 43.56400
C  49.05600 48.99300 44.04200
C  47.90700 49.91700 43.78900
C  46.92100 49.06300 43.29100
C  47.50500 47.80900 43.12200
C  47.84300 51.36100 44.20500
C  45.49400 48.90100 42.85400
O  44.57400 49.67800 42.88700
C  45.38400 47.55400 42.25100
C  44.22300 46.86500 42.85200
O  44.01800 46.55600 43.99900
O  43.35700 46.54700 41.82800
C  42.17600 45.88200 42.27500
H  49.21700 41.71000 42.06500
H  54.23600 45.32800 44.40000
H  50.43300 50.34000 44.94800
H  45.20900 44.14500 42.02600
H  47.12900 42.71000 40.71500
H  45.51600 42.07000 43.16700
H  47.10400 41.45700 43.18800
H  45.92300 41.12200 41.82000
H  46.54700 44.12900 39.35100
H  45.97600 45.70300 39.70300
H  43.75800 44.20400 40.52300
H  44.51500 43.10600 39.51300
H  52.05000 40.77000 41.24100
H  50.72400 40.35400 42.35500
H  52.31200 40.15800 42.88400
H  55.38100 43.64300 44.83700
H  55.74300 44.26500 43.32400
H  56.55900 42.79600 43.60100
H  54.51000 48.18500 44.32100
H  52.53400 48.88500 46.53900
H  54.26200 47.75500 47.22400
H  55.69600 47.60100 46.24100
H  54.55600 46.25300 46.32100
H  54.33200 50.27600 45.59100
H  52.70200 51.04600 45.63300
H  54.71500 50.79100 43.49900
H  53.23900 51.71300 43.58000
H  53.16800 50.11700 42.85700
H  46.89800 51.85400 43.97800
H  48.69500 52.00000 43.97000
H  47.85100 51.27700 45.29100
H  45.34800 47.62900 41.16500
H  41.42400 46.51300 42.75000
H  42.39300 45.01700 42.90200
H  41.72300 45.47500 41.37100

