158

Mg 6.04700 54.29000 41.40000
C  5.55000 50.73700 41.22700
C  9.25700 53.60300 40.30400
C  6.40900 57.40100 41.14300
C  2.61900 54.60100 42.06400
N  7.15100 52.35600 40.55500
C  6.74500 51.06900 40.64000
C  7.78100 50.12600 40.12800
C  9.06500 50.97700 40.27200
C  8.44800 52.40500 40.37000
C  10.01500 50.53600 41.45400
C  7.42600 49.65000 38.67100
C  6.82700 50.63300 37.63400
H  5.89600 50.00700 36.55500
N  7.67100 55.39900 40.85200
C  8.90000 54.95800 40.44400
C  9.70300 56.15800 40.28000
C  8.95000 57.27900 40.51900
C  7.58700 56.72100 40.79600
C  11.14800 56.09100 39.85900
C  9.45700 58.77200 40.60200
O  10.65500 59.00000 40.39200
C  8.51100 59.91200 40.95100
N  4.65500 55.73500 41.37500
C  5.10400 57.00400 41.44000
C  4.03200 58.01200 41.89200
C  2.80700 57.12900 41.79700
C  3.36800 55.66500 41.76600
C  4.33900 58.60800 43.37400
C  1.82100 57.41200 40.68900
C  1.93600 56.77100 39.30500
N  4.41300 52.94900 41.63500
C  3.12700 53.26000 42.07200
C  2.49100 51.97000 42.47400
C  3.40000 50.99500 42.05900
C  4.55200 51.64200 41.65300
C  1.05300 51.77000 42.96700
C  3.62300 49.60700 42.13900
O  2.90700 48.64900 42.42600
C  5.03000 49.37600 41.50100
C  4.75000 48.50200 40.33500
O  4.05000 48.88900 39.40200
O  5.23400 47.24600 40.63000
C  4.46700 46.24400 39.83500
H  10.30000 53.28300 40.26200
H  6.45600 58.47000 41.36300
H  1.56700 54.74900 42.31800
H  7.84800 49.22600 40.74000
H  9.56600 50.86000 39.31100
H  11.02000 50.40100 41.05400
H  9.66100 49.55000 41.75500
H  10.01000 51.27300 42.25800
H  6.73600 48.80900 38.75200
H  8.35300 49.34400 38.18600
H  7.62600 51.05000 37.02000
H  6.33800 51.44300 38.17500
H  11.52800 55.06900 39.85100
H  11.59500 56.60500 40.71000
H  11.36800 56.62100 38.93200
H  9.02900 60.84700 41.16500
H  8.07200 59.64900 41.91400
H  7.74500 60.05300 40.18900
H  4.01600 58.81500 41.15500
H  2.19900 57.04300 42.69800
H  4.86000 57.91700 44.03700
H  3.35400 58.84600 43.77600
H  4.84300 59.57400 43.33300
H  1.74700 58.48400 40.50800
H  0.87900 57.14600 41.16800
H  1.05600 56.14400 39.16800
H  2.92600 56.33500 39.17300
H  1.87900 57.57600 38.57300
H  1.05600 50.71500 43.24200
H  0.41100 51.78000 42.08600
H  0.66200 52.37800 43.78200
H  5.46500 48.80700 42.32300
H  4.94300 46.24900 38.85400
H  3.41400 46.52300 39.82900
H  4.69200 45.29700 40.32500
Mg -9.70400 39.33900 40.20500
C  -9.10200 35.97600 39.66800
C  -6.50600 40.04300 39.18700
C  -10.46200 42.60300 39.98400
C  -13.16800 38.59200 40.70600
N  -8.00100 38.11300 39.41000
C  -7.95500 36.74000 39.34300
C  -6.54000 36.19400 38.97600
C  -5.71500 37.54600 39.21100
C  -6.78100 38.63800 39.29100
C  -4.79900 37.37200 40.48700
C  -6.54600 35.59000 37.50600
C  -6.95700 36.47700 36.35100
H  -8.23600 36.10900 35.56600
N  -8.63800 41.11000 39.70900
C  -7.35800 41.22000 39.27600
C  -7.00900 42.62200 38.97500
C  -8.19400 43.39600 39.19700
C  -9.14800 42.40800 39.66700
C  -5.65800 43.08500 38.49100
C  -8.29500 44.84500 38.95300
O  -7.30000 45.48500 38.60200
C  -9.60200 45.59600 39.24100
N  -11.55600 40.38700 40.34400
C  -11.48400 41.77500 40.39300
C  -12.89300 42.40100 40.66300
C  -13.84300 41.14300 40.71000
C  -12.84900 39.96400 40.59000
C  -12.91300 43.27500 41.97200
C  -14.82800 41.11300 39.47700
C  -16.13900 40.27900 39.70100
N  -10.89500 37.66000 40.46600
C  -12.27100 37.48900 40.60200
C  -12.54100 36.06200 40.64100
C  -11.35700 35.46400 40.26300
C  -10.41700 36.47800 40.11800
C  -13.92700 35.49500 40.96600
C  -10.69700 34.10000 39.87500
O  -11.04000 32.91400 39.73900
C  -9.21500 34.42600 39.39000
C  -8.25700 33.46600 40.05100
O  -8.33600 33.26800 41.21500
O  -7.33600 32.92200 39.15400
C  -6.23700 32.27500 39.87200
H  -5.46800 40.27600 38.93800
H  -10.82600 43.62000 40.14200
H  -14.21700 38.38500 40.93000
H  -6.34100 35.37800 39.67000
H  -5.06500 37.74300 38.35800
H  -4.97800 36.42300 40.99300
H  -5.02400 38.11100 41.25600
H  -3.77100 37.39300 40.12500
H  -7.15200 34.68900 37.41600
H  -5.51100 35.36600 37.25000
H  -6.13900 36.63000 35.64700
H  -7.18300 37.44400 36.80000
H  -5.73500 43.42900 37.46000
H  -4.90900 42.29800 38.58200
H  -5.25900 43.86200 39.14400
H  -9.91500 45.52700 40.28300
H  -10.42700 45.22300 38.63400
H  -9.44900 46.62900 38.93100
H  -13.15400 43.04000 39.82000
H  -14.36000 40.98800 41.65700
H  -13.33800 42.79800 42.85500
H  -13.53900 44.12500 41.70300
H  -11.91600 43.61500 42.25200
H  -14.32700 40.78400 38.56700
H  -15.11000 42.16000 39.36400
H  -16.26900 40.04300 40.75800
H  -16.05600 39.38400 39.08400
H  -16.98500 40.87300 39.35600
H  -14.45100 35.99200 41.78300
H  -13.72300 34.44600 41.18200
H  -14.56300 35.49000 40.08100
H  -9.25000 34.24600 38.31600
H  -5.32300 32.58200 39.36200
H  -6.40500 31.19900 39.83300
H  -6.10500 32.51100 40.92800

