158

Mg 47.86000 35.39400 27.92200
C  45.99800 33.54800 30.24300
C  47.96700 38.03700 30.18500
C  49.10600 37.23900 25.43300
C  47.18900 32.79400 25.68300
N  47.00100 35.75400 29.91100
C  46.50000 34.74100 30.74200
C  46.59200 35.24600 32.22700
C  46.81600 36.75300 32.09900
C  47.26500 36.90400 30.66100
C  45.55800 37.66100 32.39500
C  47.71000 34.54300 33.01000
C  47.57600 34.46800 34.53100
H  46.47400 35.27800 35.21100
N  48.57400 37.27900 27.88100
C  48.46500 38.24700 28.92800
C  49.13600 39.43500 28.46800
C  49.54000 39.16600 27.12200
C  49.11700 37.83100 26.76200
C  49.43200 40.70000 29.32500
C  50.33700 40.08300 26.24200
O  50.76000 39.71500 25.13300
C  50.65500 41.49900 26.63300
N  48.01100 35.11300 25.84300
C  48.60500 35.96000 25.01700
C  48.89700 35.45700 23.63300
C  48.42400 33.99200 23.74100
C  47.82300 33.94600 25.18400
C  48.34000 36.27100 22.46900
C  49.48000 32.93100 23.38600
C  50.26500 32.37000 24.58400
N  46.83200 33.49400 27.91300
C  46.65500 32.59400 26.92200
C  45.79300 31.51500 27.38700
C  45.55400 31.83100 28.71100
C  46.16200 33.09000 28.96200
C  45.35300 30.29900 26.67000
C  44.85500 31.37900 29.88300
O  44.18000 30.36400 30.08200
C  45.00700 32.56200 30.88600
C  45.43500 32.01700 32.16600
O  46.44300 31.38200 32.43800
O  44.43500 32.25900 33.08900
C  44.36500 31.26700 34.13400
H  47.90100 38.90300 30.84700
H  49.58800 37.81700 24.64100
H  47.00900 32.01900 24.93500
H  45.64000 34.99200 32.69400
H  47.61800 37.12400 32.73700
H  45.48300 38.33200 31.53900
H  45.67100 38.18500 33.34400
H  44.67700 37.02300 32.32600
H  48.62400 35.09800 32.79800
H  47.85500 33.52700 32.64200
H  48.53700 34.79500 34.92700
H  47.49600 33.40700 34.76900
H  50.51800 40.75900 29.40700
H  49.02700 40.66500 30.33700
H  49.01200 41.57600 28.83000
H  49.80400 42.18100 26.65700
H  51.37900 41.82000 25.88400
H  51.23200 41.69400 27.53600
H  49.97800 35.51900 23.51600
H  47.63100 33.77700 23.02600
H  47.66400 37.05200 22.81500
H  47.80300 35.56800 21.83300
H  49.22900 36.60400 21.93300
H  50.15900 33.39900 22.67400
H  49.06700 32.12700 22.77800
H  51.22500 32.04500 24.18200
H  49.69800 31.61600 25.13000
H  50.38600 33.15500 25.33100
H  44.70500 29.74100 27.34600
H  46.24300 29.73900 26.38200
H  44.87700 30.57600 25.72900
H  44.05400 33.08900 30.86900
H  44.57100 31.81800 35.05200
H  44.92300 30.33100 34.15700
H  43.33700 30.91300 34.21000
Mg 6.54600 54.89000 41.29000
C  5.87900 51.40900 41.31600
C  9.52300 54.29800 39.95900
C  6.72000 58.23800 40.39100
C  2.98900 55.30900 41.66800
N  7.50900 53.05900 40.70600
C  7.19800 51.71400 40.90500
C  8.37700 50.76100 40.48900
C  9.57100 51.75600 40.36400
C  8.84000 53.13500 40.33100
C  10.57100 51.76100 41.53800
C  8.11100 50.00300 39.15100
C  7.68100 50.85200 37.91600
H  6.44700 50.57700 37.01900
N  8.01600 56.06400 40.35700
C  9.26000 55.60700 39.95300
C  10.04900 56.75100 39.57700
C  9.18300 57.88600 39.64100
C  7.93300 57.46500 40.15700
C  11.50800 56.60400 39.09900
C  9.63400 59.32300 39.35100
O  10.78400 59.47500 38.93500
C  8.73600 60.50300 39.44600
N  5.08100 56.54300 40.98600
C  5.47200 57.81300 40.86200
C  4.28900 58.79900 40.90200
C  3.09000 57.78000 40.78400
C  3.74100 56.43600 41.21000
C  4.28300 59.81200 42.13900
C  2.46800 57.82000 39.34200
C  1.20400 58.71700 39.31700
N  4.84500 53.73900 41.73600
C  3.52800 54.01500 42.00800
C  2.90700 52.82600 42.54600
C  3.76500 51.72500 42.23600
C  4.87900 52.37900 41.67900
C  1.54300 52.76200 43.19700
C  3.96800 50.27200 42.34900
O  3.19000 49.35900 42.72400
C  5.33400 50.02700 41.54800
C  4.91000 49.41700 40.28600
O  4.32600 50.00300 39.37600
O  5.28900 48.09400 40.23800
C  5.02300 47.37500 38.97300
H  10.50400 54.12900 39.50900
H  6.72800 59.29200 40.10500
H  1.93300 55.51400 41.85500
H  8.46000 50.04200 41.30400
H  10.14700 51.52800 39.46700
H  10.72400 50.73800 41.88300
H  10.29200 52.43600 42.34700
H  11.55100 51.99000 41.12100
H  7.32100 49.25600 39.21800
H  9.00100 49.42200 38.91100
H  8.59800 50.76000 37.33500
H  7.69700 51.88300 38.27100
H  11.62000 56.57300 38.01500
H  11.89500 55.67000 39.50700
H  12.20100 57.33700 39.51200
H  9.35100 61.36600 39.19300
H  8.26600 60.67400 40.41400
H  7.97400 60.34400 38.68300
H  4.42200 59.45100 40.03900
H  2.24900 58.07000 41.41400
H  3.44600 59.53000 42.77800
H  4.11700 60.85000 41.84900
H  5.16700 59.77100 42.77500
H  2.23500 56.81300 38.99700
H  3.13700 58.14000 38.54200
H  0.31300 58.11100 39.15500
H  1.28000 59.43500 38.50200
H  1.18000 59.41500 40.15400
H  1.83000 52.56300 44.22900
H  0.96200 51.94700 42.76400
H  1.13200 53.77100 43.15800
H  6.05500 49.43300 42.11100
H  4.47100 47.86900 38.17300
H  4.38700 46.53900 39.26200
H  5.97100 46.96200 38.62800

