158

Mg -1.48600 16.90300 26.02200
C  -1.74900 14.68000 28.73900
C  -1.89600 19.55000 28.25600
C  -1.71800 19.06100 23.35700
C  -1.66200 14.20900 23.80700
N  -1.77700 17.07900 28.28000
C  -1.74000 16.02200 29.15900
C  -1.63600 16.55500 30.54800
C  -1.97500 18.06600 30.43900
C  -1.93900 18.28200 28.90100
C  -3.37100 18.47000 30.94700
C  -0.22100 16.35400 31.20800
C  -0.07000 15.93500 32.71900
H  -1.11800 16.20200 33.83500
N  -1.62900 19.01100 25.83900
C  -1.85900 19.92600 26.87600
C  -1.91000 21.28100 26.32600
C  -1.70800 21.17100 24.85800
C  -1.68800 19.65500 24.63700
C  -2.07800 22.55400 27.13700
C  -1.51100 22.19600 23.79900
O  -1.33400 21.91500 22.66500
C  -1.48900 23.68000 24.10900
N  -1.78400 16.69300 23.87800
C  -1.72600 17.76700 22.99500
C  -1.88900 17.22000 21.53600
C  -1.58700 15.66500 21.74800
C  -1.70100 15.47100 23.22100
C  -3.31900 17.49200 20.93700
C  -0.18300 15.07000 21.23700
C  1.12100 15.45100 22.01600
N  -1.55200 14.88400 26.21000
C  -1.64800 13.91000 25.19200
C  -1.66400 12.63800 25.88000
C  -1.58300 12.84600 27.19600
C  -1.66000 14.22700 27.39700
C  -1.81800 11.30000 25.18500
C  -1.55300 12.22800 28.52300
O  -1.57200 11.05400 28.82800
C  -1.95200 13.39100 29.49100
C  -1.23300 13.17100 30.79000
O  -0.04500 13.15000 30.92700
O  -2.15800 12.84800 31.74200
C  -1.69300 12.34000 33.02200
H  -1.76300 20.48300 28.80800
H  -1.96300 19.75800 22.55200
H  -1.89100 13.44000 23.06600
H  -2.35800 16.01500 31.16100
H  -1.24500 18.66500 30.98400
H  -3.82200 19.34600 30.48100
H  -3.17500 18.71800 31.99000
H  -4.07400 17.63900 31.00100
H  0.38900 17.24500 31.05900
H  0.36000 15.60300 30.67400
H  0.80500 16.44200 33.12600
H  -0.03300 14.84600 32.75600
H  -2.42900 22.30800 28.13900
H  -2.87400 23.11400 26.64800
H  -1.10600 23.04200 27.07400
H  -0.61500 23.79000 24.75000
H  -2.39600 24.06200 24.57900
H  -1.28500 24.38400 23.30200
H  -1.12600 17.61700 20.86700
H  -2.35700 15.05800 21.27200
H  -4.06000 17.80500 21.67300
H  -3.63800 16.56700 20.45700
H  -3.19800 18.28200 20.19700
H  -0.13000 15.57700 20.27300
H  -0.27900 13.98800 21.14600
H  1.46700 14.50900 22.44100
H  0.79500 16.16500 22.77200
H  1.94500 15.76200 21.37300
H  -2.73500 11.24200 24.59900
H  -1.86900 10.60000 26.02000
H  -0.93400 11.05300 24.59600
H  -3.01300 13.34200 29.73900
H  -1.41800 11.29100 32.91100
H  -2.41700 12.31300 33.83600
H  -0.85200 12.92900 33.38900
Mg 25.97800 52.55200 26.21500
C  23.92000 53.19900 29.00200
C  28.52900 51.91200 28.26200
C  27.92500 52.33500 23.57800
C  23.41400 53.84800 24.23600
N  26.18200 52.58200 28.40700
C  25.17000 52.71300 29.41600
C  25.81500 52.38600 30.83100
C  27.29400 51.99500 30.43900
C  27.31900 52.11200 28.92300
C  28.27900 52.81200 31.19700
C  25.18400 51.25200 31.63300
C  24.47000 51.59400 32.93200
H  25.21400 52.12600 34.14200
N  27.92200 52.06700 25.96000
C  28.83100 51.83300 26.91600
C  30.14100 51.55500 26.34600
C  30.03600 51.75100 24.97100
C  28.56500 52.06900 24.78600
C  31.36000 51.11000 27.11900
C  31.11900 51.61800 23.88400
O  30.85900 51.95500 22.73500
C  32.53100 51.26600 24.33100
N  25.66200 52.89100 24.10700
C  26.61100 52.68400 23.22400
C  26.20400 53.14700 21.71800
C  24.68900 53.47700 21.95900
C  24.51000 53.41300 23.54700
C  27.12000 54.21700 21.05300
C  23.62700 52.59600 21.29300
C  23.65700 52.72000 19.70300
N  23.97000 53.28800 26.51300
C  23.10600 53.79300 25.59700
C  21.87300 54.13100 26.27200
C  22.12800 53.93500 27.60500
C  23.41900 53.43400 27.70600
C  20.54300 54.55400 25.57500
C  21.54200 54.02900 28.98500
O  20.36800 54.31600 29.35700
C  22.72700 53.57200 29.88500
C  23.09900 54.78900 30.78400
O  23.85100 55.66900 30.42700
O  22.44100 54.66800 31.94600
C  22.30000 55.98300 32.58300
H  29.28900 51.61900 28.98900
H  28.59400 52.37000 22.71600
H  22.65900 54.26800 23.56800
H  25.83200 53.28500 31.44700
H  27.40400 50.92700 30.62400
H  27.83900 53.22600 32.10500
H  28.54000 53.67200 30.57900
H  29.05500 52.10400 31.48900
H  25.95500 50.56000 31.97200
H  24.44500 50.73500 31.02000
H  23.82000 50.76000 33.19800
H  23.77200 52.38200 32.64900
H  31.27400 51.05300 28.20400
H  32.12000 51.88400 27.01600
H  31.81400 50.14800 26.88100
H  32.92700 52.18100 24.77100
H  33.04400 51.12400 23.38000
H  32.66000 50.39300 24.97100
H  26.27700 52.26400 21.08200
H  24.49500 54.46300 21.53600
H  27.75500 54.72300 21.78000
H  26.42900 54.99100 20.71600
H  27.68000 53.80200 20.21500
H  22.64100 52.84200 21.68500
H  23.91100 51.61800 21.68200
H  24.50100 53.37800 19.49500
H  22.75700 53.24900 19.38800
H  23.84300 51.76600 19.20900
H  19.89000 53.74200 25.25600
H  20.77200 55.14700 24.69000
H  20.03200 55.16100 26.32300
H  22.60100 52.71700 30.54900
H  22.29800 56.77600 31.83500
H  23.12400 56.20800 33.26100
H  21.34200 55.90800 33.09600

