158

Mg 25.89600 1.06900 29.71100
C  27.70600 0.76000 32.59400
C  23.15500 1.93200 31.56800
C  24.09300 1.46900 26.84500
C  28.56000 0.12500 27.85200
N  25.46900 1.38600 31.78400
C  26.37400 1.15600 32.79900
C  25.83500 1.47700 34.14500
C  24.27700 1.49500 33.87800
C  24.27900 1.65500 32.32300
C  23.40400 0.32000 34.40300
C  26.39900 2.82700 34.76200
C  27.28600 2.58600 36.08300
H  26.83200 3.27200 37.35800
N  23.89100 1.56100 29.27500
C  22.96400 1.91000 30.18700
C  21.69500 2.13300 29.50300
C  21.89500 1.91200 28.05100
C  23.31100 1.56300 27.99800
C  20.38900 2.54700 30.10700
C  20.99700 2.16800 26.81700
O  21.27900 1.99100 25.62900
C  19.56600 2.77200 27.05500
N  26.21800 0.60500 27.62600
C  25.44100 1.03800 26.64400
C  26.18800 1.23300 25.24900
C  27.59400 0.67500 25.59600
C  27.45800 0.44100 27.12000
C  25.49700 0.62000 24.04600
C  28.78900 1.55100 25.27300
C  28.80900 2.95500 26.05300
N  27.82400 0.34800 30.10100
C  28.79500 0.03800 29.18500
C  29.98400 -0.22600 30.02900
C  29.63700 0.08200 31.38200
C  28.27600 0.43600 31.34000
C  31.33900 -0.60600 29.65300
C  30.08100 0.12200 32.76600
O  31.16100 -0.09400 33.26400
C  28.79200 0.68500 33.60000
C  28.69800 -0.34700 34.62900
O  28.07200 -1.33800 34.44900
O  29.29300 0.08900 35.77400
C  29.04200 -0.77400 36.98400
H  22.33400 2.25000 32.21300
H  23.58400 1.81400 25.94300
H  29.50800 -0.05400 27.33900
H  26.08900 0.68100 34.84500
H  23.69100 2.38400 34.10700
H  23.16500 -0.35300 33.57900
H  22.44300 0.60900 34.82700
H  23.83300 -0.27100 35.21200
H  25.51500 3.43400 34.95700
H  26.98500 3.44800 34.08500
H  28.29700 2.77300 35.72200
H  27.35100 1.54800 36.41000
H  20.59900 2.57000 31.17700
H  19.57700 1.86600 29.85300
H  20.17300 3.56700 29.79100
H  19.05900 3.04700 26.13000
H  19.67800 3.79100 27.42600
H  18.93400 2.23900 27.76600
H  26.29500 2.26000 24.89900
H  27.75700 -0.28600 25.10800
H  26.19100 -0.08300 23.58400
H  25.11900 1.36700 23.34900
H  24.78100 -0.17100 24.27100
H  28.87700 1.83600 24.22500
H  29.77400 1.09600 25.38600
H  28.28700 2.81700 26.99900
H  28.32500 3.70000 25.42200
H  29.80800 3.32500 26.28100
H  31.19200 -1.40700 28.92800
H  31.91800 -1.06000 30.45700
H  31.85500 0.23300 29.18700
H  29.15700 1.63800 33.98400
H  29.05100 -1.82200 36.68700
H  28.17100 -0.46400 37.56100
H  29.88600 -0.59100 37.64900
Mg 6.30600 53.11700 41.53300
C  5.61800 49.70000 41.39700
C  9.63400 52.45100 40.83900
C  6.97600 56.56500 41.44700
C  2.95000 53.86000 41.87600
N  7.45300 51.19600 40.92500
C  6.98000 49.94600 41.06000
C  8.15500 48.90200 40.88300
C  9.45200 49.88800 40.84000
C  8.85500 51.29100 40.99100
C  10.52700 49.47500 41.93800
C  8.12700 48.17400 39.56800
C  8.08000 48.96000 38.26000
H  7.15700 48.45200 37.19800
N  8.08800 54.34100 41.21200
C  9.35400 53.82200 41.01500
C  10.28600 54.95500 40.75500
C  9.55100 56.09100 40.90000
C  8.11700 55.71600 41.31200
C  11.81100 54.84900 40.51900
C  10.15700 57.53100 40.68900
O  11.34600 57.60500 40.42500
C  9.39200 58.80000 40.69300
N  5.14400 54.93000 41.59200
C  5.63500 56.20400 41.62600
C  4.54300 57.18600 41.60300
C  3.22900 56.36500 41.71500
C  3.78100 54.97800 41.65800
C  4.60500 58.31900 42.67500
C  2.05500 56.49800 40.64300
C  1.01000 57.54100 41.16000
N  4.62600 52.02900 41.57100
C  3.31100 52.49000 41.77300
C  2.42700 51.33600 42.11700
C  3.30500 50.20700 41.87600
C  4.60600 50.69100 41.62000
C  1.03200 51.35800 42.56400
C  3.38700 48.73800 41.98000
O  2.51800 47.92700 42.36100
C  4.81200 48.37500 41.60100
C  4.83600 47.49500 40.46400
O  4.41800 47.76400 39.36000
O  5.36700 46.29200 40.76400
C  5.41400 45.36500 39.61900
H  10.65500 52.14900 40.59600
H  7.15300 57.64200 41.44500
H  1.92700 54.13400 42.14100
H  8.27700 48.17100 41.68200
H  10.08700 49.78100 39.96000
H  11.47700 49.08900 41.56700
H  10.04900 48.90200 42.73300
H  10.77500 50.45900 42.33600
H  7.32900 47.43200 39.57700
H  9.08200 47.64900 39.57800
H  9.05600 48.80300 37.80200
H  7.76200 49.98800 38.43500
H  12.09900 55.34200 39.59100
H  12.10200 53.81100 40.36400
H  12.31700 55.31400 41.36600
H  8.58000 58.77300 39.96700
H  9.93500 59.72300 40.48800
H  9.07900 59.01300 41.71500
H  4.54600 57.56100 40.58000
H  2.76300 56.43700 42.69800
H  3.68500 58.49400 43.23200
H  4.77600 59.30200 42.23700
H  5.41900 58.11300 43.37100
H  1.51500 55.57200 40.44500
H  2.37300 56.88300 39.67400
H  0.85600 58.19100 40.29900
H  1.41400 58.13800 41.97700
H  0.00800 57.21800 41.44200
H  0.76100 50.79100 43.45500
H  0.58000 50.92800 41.67000
H  0.76600 52.40200 42.73100
H  5.24500 47.79300 42.41500
H  5.91500 44.41000 39.77700
H  5.97000 45.76600 38.77200
H  4.40700 45.19200 39.23700

