158

Mg 50.22700 45.66600 42.74600
C  46.80700 46.39400 41.82800
C  49.73700 42.51000 41.59500
C  53.49500 45.17000 43.27000
C  50.65000 49.12600 43.41400
N  48.48000 44.67100 41.72100
C  47.17300 45.05500 41.57300
C  46.25900 43.97400 40.97700
C  47.21600 42.69100 41.12200
C  48.59900 43.32000 41.50800
C  46.84300 41.64100 42.23800
C  45.96900 44.33200 39.45600
C  44.46400 44.15900 39.03100
H  44.29900 43.16800 37.91200
N  51.38800 44.01700 42.54300
C  51.04000 42.81000 42.03100
C  52.17600 41.92000 41.97500
C  53.26100 42.68500 42.49300
C  52.75200 44.00400 42.73900
C  52.08400 40.49500 41.40900
C  54.69800 42.22200 42.66800
O  54.95200 41.04300 42.53500
C  55.87300 43.05200 43.13600
N  51.90700 47.05300 43.15300
C  53.11300 46.51800 43.46000
C  54.08700 47.60900 43.84400
C  53.20100 48.88800 43.73700
C  51.83100 48.36500 43.40100
C  54.80800 47.39000 45.19500
C  53.53700 50.13400 42.81200
C  55.03200 50.43200 42.65000
N  49.03200 47.37900 42.62400
C  49.35700 48.72700 42.94400
C  48.14800 49.55400 42.83900
C  47.14000 48.65100 42.44500
C  47.69800 47.35000 42.30800
C  48.09500 51.04000 43.13500
C  45.70800 48.56200 42.11500
O  44.75100 49.37100 42.14400
C  45.44300 47.02400 41.68200
C  44.38300 46.45500 42.54400
O  44.59900 46.02200 43.67700
O  43.17800 46.45200 41.86800
C  42.09100 45.84200 42.70400
H  49.60000 41.43500 41.45800
H  54.55300 45.06700 43.52100
H  50.65200 50.19100 43.65500
H  45.33700 43.81200 41.53600
H  47.25700 42.13600 40.18500
H  46.90800 40.74300 41.62300
H  45.83900 41.81300 42.62400
H  47.43500 41.66900 43.15300
H  46.52100 43.65000 38.80900
H  46.27600 45.35100 39.22200
H  43.98600 45.12100 38.84400
H  43.81400 43.70600 39.77900
H  51.31300 40.43200 40.64100
H  51.90400 39.78600 42.21600
H  53.05400 40.17700 41.02700
H  55.77000 43.42400 44.15500
H  56.10100 43.82900 42.40700
H  56.80000 42.49800 42.98700
H  54.85100 47.56700 43.06800
H  53.21500 49.28600 44.75100
H  55.68500 46.75100 45.08600
H  54.28700 46.74400 45.90200
H  55.00300 48.25700 45.82600
H  53.04000 51.02100 43.20500
H  53.17300 50.03500 41.79000
H  55.17800 50.44000 41.57000
H  55.71300 49.81100 43.23200
H  55.16100 51.47300 42.94600
H  48.78800 51.57400 42.48500
H  48.46000 51.02300 44.16200
H  47.08200 51.44300 43.13000
H  45.09900 46.95800 40.65000
H  41.11400 46.25700 42.45400
H  42.24300 45.88000 43.78300
H  42.09300 44.81400 42.34300
Mg -4.90700 25.67600 26.06800
C  -3.86200 27.08300 29.16500
C  -6.52800 23.20600 27.97100
C  -5.52800 24.09200 23.15300
C  -2.90900 27.92200 24.43400
N  -5.11900 25.12100 28.29900
C  -4.62100 25.87300 29.40900
C  -5.10800 25.26900 30.70100
C  -5.75700 23.93000 30.29700
C  -5.74400 24.03100 28.75800
C  -5.09500 22.60500 30.92400
C  -5.91700 26.27800 31.45700
C  -5.66800 26.49000 32.93100
H  -5.29000 25.34900 33.92800
N  -6.03400 24.02800 25.61000
C  -6.73900 23.19900 26.52000
C  -7.47600 22.19300 25.73500
C  -7.23800 22.47400 24.32500
C  -6.25800 23.56000 24.27100
C  -8.35100 21.14900 26.48500
C  -7.81400 21.80600 23.10300
O  -7.63400 22.24100 21.94700
C  -8.81500 20.84600 23.42000
N  -4.23000 25.90200 24.14800
C  -4.66000 25.16900 23.09800
C  -4.04000 25.59500 21.74500
C  -3.33400 26.92400 22.15900
C  -3.53000 26.94400 23.66300
C  -3.12400 24.58100 21.07600
C  -4.00300 28.20500 21.56100
C  -3.30100 28.72500 20.37200
N  -3.61300 27.17400 26.70000
C  -2.89800 27.99500 25.85000
C  -2.29900 29.03500 26.63000
C  -2.68600 28.72500 27.99900
C  -3.47000 27.58800 27.95800
C  -1.48500 30.20300 26.19300
C  -2.40600 29.04100 29.38900
O  -1.69100 29.88500 29.89900
C  -3.18500 27.96800 30.22000
C  -2.27300 27.23500 31.10000
O  -1.64900 26.26600 30.75300
O  -2.05400 27.92600 32.30500
C  -1.35900 27.15700 33.36100
H  -7.04800 22.48600 28.60700
H  -5.71200 23.55100 22.22300
H  -2.52600 28.76500 23.85500
H  -4.22200 25.13300 31.32100
H  -6.80900 23.93200 30.58400
H  -4.59500 22.83800 31.86500
H  -4.28400 22.24100 30.29300
H  -5.85800 21.82900 30.97200
H  -6.96300 25.99000 31.35500
H  -5.87800 27.26500 30.99700
H  -6.61600 26.88200 33.29700
H  -4.89000 27.25400 32.91000
H  -9.39900 21.34300 26.71300
H  -7.96800 20.93800 27.48400
H  -8.34100 20.24000 25.88400
H  -9.34400 21.33400 24.23800
H  -8.31100 19.92400 23.71100
H  -9.46000 20.68100 22.55600
H  -4.87700 25.88600 21.11000
H  -2.27900 26.89000 21.89000
H  -2.07400 24.78300 21.28800
H  -3.31200 24.51500 20.00400
H  -3.38400 23.58500 21.43400
H  -3.93800 29.03400 22.26500
H  -5.06900 28.12300 21.35100
H  -2.70900 27.93800 19.90500
H  -2.59400 29.46300 20.75100
H  -3.96500 29.07400 19.58100
H  -0.40500 30.05500 26.19300
H  -1.69100 30.94200 26.96800
H  -1.83300 30.63200 25.25300
H  -4.01800 28.48600 30.69500
H  -0.27900 27.22000 33.23200
H  -1.69500 26.12000 33.33900
H  -1.62700 27.54600 34.34300

