158

Mg 45.34200 4.15700 47.36000
C  43.44600 6.96100 46.85400
C  42.59900 2.21100 46.58100
C  47.34900 1.29000 47.26000
C  48.22600 6.13000 47.20200
N  43.28700 4.57300 46.73000
C  42.71600 5.81500 46.65900
C  41.25200 5.74000 46.37900
C  40.95000 4.24200 46.58700
C  42.34400 3.63000 46.59800
C  40.13100 3.93100 47.81000
C  40.97600 6.21700 44.89900
C  40.19000 7.48200 44.76200
H  40.42300 8.28800 43.53800
N  44.94600 2.05800 47.07800
C  43.76000 1.47700 46.77200
C  43.90000 0.03400 46.70500
C  45.25700 -0.22100 46.91100
C  45.97300 1.08100 47.04100
C  42.77200 -0.93900 46.52000
C  45.86000 -1.63700 46.92400
O  45.11600 -2.60300 46.82200
C  47.36700 -1.86100 46.90900
N  47.48500 3.78200 47.21600
C  48.03400 2.55700 47.36000
C  49.52900 2.61600 47.36200
C  49.82400 4.16000 47.35600
C  48.43300 4.74800 47.22900
C  50.14000 1.81800 48.58000
C  50.83800 4.69700 46.17200
C  52.35700 4.88600 46.61900
N  45.77900 6.23800 47.05200
C  47.01100 6.86800 47.12800
C  46.77000 8.27000 47.21400
C  45.35700 8.35800 47.14100
C  44.84200 7.08500 47.07100
C  47.72600 9.37000 47.19400
C  44.21900 9.26500 47.08900
O  44.26200 10.50700 47.13400
C  42.97300 8.44800 46.82200
C  41.98200 8.69400 47.88600
O  41.75800 7.93600 48.80500
O  41.24400 9.78200 47.55700
C  39.98400 9.99600 48.28900
H  41.74300 1.58400 46.32300
H  47.95500 0.39600 47.41700
H  49.15700 6.69800 47.25200
H  40.72700 6.38000 47.08700
H  40.48000 3.73500 45.74500
H  39.33100 4.65700 47.95300
H  40.72000 3.80700 48.71900
H  39.47400 3.07800 47.63800
H  40.55700 5.44100 44.25900
H  41.94500 6.43400 44.44900
H  40.31000 8.14300 45.62000
H  39.16900 7.11300 44.66400
H  43.01200 -1.75300 45.83600
H  41.94400 -0.55700 45.92100
H  42.33800 -1.23200 47.47500
H  47.64900 -2.89000 46.68600
H  47.71100 -1.90400 47.94300
H  48.06900 -1.23900 46.35300
H  49.81000 2.23500 46.38100
H  50.26300 4.44400 48.31300
H  49.37000 1.72400 49.34500
H  50.95600 2.39100 49.02100
H  50.54600 0.87700 48.20800
H  50.33900 5.53900 45.69100
H  50.75600 3.94300 45.38800
H  52.76800 5.81700 46.22900
H  52.89500 4.09000 46.10500
H  52.53300 4.77200 47.68900
H  48.29200 9.35200 46.26300
H  48.47700 9.15200 47.95400
H  47.17700 10.27400 47.45600
H  42.53400 8.64800 45.84500
H  40.14200 10.74300 49.06600
H  39.45600 9.16100 48.75100
H  39.39500 10.51000 47.53000
Mg 41.51900 8.65000 30.54200
C  43.55200 9.67800 33.06800
C  39.19900 7.65400 32.84100
C  39.78300 7.34900 28.03000
C  44.13800 9.35700 28.24100
N  41.35000 8.78900 32.67600
C  42.28200 9.18700 33.55900
C  41.83200 9.21300 35.01700
C  40.50600 8.45200 34.91700
C  40.35800 8.20900 33.43600
C  40.37700 7.15400 35.75100
C  41.96300 10.67600 35.71800
C  40.67700 11.29500 36.48600
H  41.03900 12.10500 37.74500
N  39.69200 7.71600 30.43700
C  38.86600 7.39900 31.49200
C  37.69800 6.73000 31.01800
C  37.77100 6.83500 29.61800
C  39.13600 7.29500 29.24000
C  36.64500 6.06300 31.90300
C  36.80600 6.34800 28.55500
O  37.06400 6.46600 27.36800
C  35.45700 5.89000 29.02500
N  42.00900 8.32300 28.47300
C  41.06000 7.80200 27.68400
C  41.60700 7.52400 26.23500
C  42.76600 8.57600 26.25100
C  43.00000 8.75300 27.71400
C  42.06900 6.05000 25.87700
C  42.35800 9.82600 25.45200
C  41.51100 10.92400 26.04900
N  43.45300 9.43500 30.58600
C  44.37200 9.64300 29.57500
C  45.57500 10.17300 30.19600
C  45.31400 10.10000 31.57800
C  43.92800 9.73800 31.73500
C  46.85700 10.72800 29.49200
C  45.85400 10.45100 32.87700
O  46.95900 10.91400 33.18500
C  44.71200 10.18600 33.83500
C  45.29300 9.19000 34.85300
O  45.80600 8.12500 34.66000
O  45.09200 9.65100 36.09700
C  45.59900 8.78900 37.20400
H  38.30100 7.45900 33.43000
H  39.26900 7.06500 27.10900
H  44.97200 9.59800 27.57900
H  42.58600 8.57400 35.47700
H  39.57300 8.99200 35.08100
H  39.52500 7.24700 36.42400
H  41.35900 6.95300 36.18000
H  40.26100 6.31100 35.06900
H  42.21000 11.41500 34.95500
H  42.74100 10.61400 36.47800
H  40.04500 10.45500 36.77300
H  40.21900 12.00200 35.79400
H  35.75100 6.68600 31.91800
H  36.96400 5.93700 32.93800
H  36.43500 5.07900 31.48400
H  35.56200 4.95600 29.57700
H  34.80400 5.74500 28.16600
H  34.88800 6.62400 29.59600
H  40.84200 7.79800 25.50900
H  43.62500 8.17400 25.71400
H  43.14300 5.95200 25.71900
H  41.46900 5.71900 25.02900
H  41.89300 5.42800 26.75500
H  41.89200 9.55900 24.50400
H  43.31000 10.26100 25.14700
H  41.02600 10.52200 26.93800
H  40.64800 11.17300 25.43200
H  41.96000 11.87100 26.34800
H  47.66200 11.15300 30.09200
H  46.77100 11.39700 28.63600
H  47.39000 9.83700 29.16000
H  44.47400 11.10400 34.37200
H  45.02400 7.86700 37.28400
H  45.77900 9.32100 38.13800
H  46.58800 8.48200 36.86500

