158

Mg 8.30000 4.37800 27.41500
C  9.62200 2.57300 30.21700
C  6.44200 6.15100 29.54300
C  7.23900 5.84400 24.74700
C  9.84500 1.72500 25.40600
N  7.82100 4.08100 29.64400
C  8.64100 3.54000 30.56400
C  8.22100 3.91800 32.00100
C  7.04800 4.96100 31.72900
C  7.05200 5.06200 30.16700
C  5.66900 4.69000 32.29400
C  9.38200 4.53100 32.80500
C  8.94300 5.29200 34.12900
H  9.87100 5.20100 35.37500
N  7.08500 5.89800 27.20000
C  6.38100 6.60200 28.21500
C  5.70700 7.74000 27.59700
C  5.91000 7.58500 26.19100
C  6.74800 6.38800 25.97900
C  4.77400 8.64500 28.41600
C  5.25600 8.44900 25.11600
O  5.34100 8.16700 23.91600
C  4.55200 9.71000 25.42200
N  8.50200 3.78900 25.38000
C  7.86000 4.59600 24.52500
C  8.05800 4.04900 23.05900
C  9.10600 2.84900 23.26100
C  9.16200 2.75200 24.79500
C  6.62800 3.72100 22.47400
C  10.54300 2.95300 22.60100
C  11.10700 1.63100 21.98800
N  9.50300 2.56700 27.71700
C  9.94700 1.60700 26.81800
C  10.74800 0.59800 27.53400
C  10.66700 0.99700 28.80600
C  9.84000 2.12100 28.91300
C  11.70500 -0.43500 26.94700
C  11.16500 0.66900 30.17100
O  11.84000 -0.21200 30.62500
C  10.56600 1.80600 31.09800
C  9.70600 1.02000 32.10500
O  8.52000 0.66500 32.00400
O  10.54100 0.65500 33.17400
C  9.83400 0.21300 34.39800
H  5.90200 6.69100 30.32400
H  6.75000 6.23700 23.85300
H  10.42600 0.99200 24.84200
H  7.74500 3.04800 32.45500
H  7.40700 5.93000 32.07700
H  5.63500 3.68200 32.70700
H  5.03500 4.56100 31.41600
H  5.21100 5.46300 32.91100
H  10.13000 5.05600 32.21300
H  9.92000 3.64500 33.14100
H  7.95000 5.06100 34.51300
H  8.95100 6.32900 33.79300
H  3.74500 8.71600 28.06200
H  5.17400 9.65800 28.37500
H  4.69800 8.34600 29.46100
H  4.37600 10.43600 24.62900
H  5.25600 10.16300 26.12000
H  3.62100 9.49400 25.94500
H  8.56000 4.79900 22.44800
H  8.76000 1.88600 22.88600
H  5.86000 3.95400 23.21200
H  6.46000 2.67300 22.22700
H  6.29100 4.29400 21.61000
H  11.13700 3.26700 23.45900
H  10.60500 3.63500 21.75300
H  11.51000 1.89300 21.01000
H  10.33700 0.86100 22.03400
H  11.98600 1.34500 22.56600
H  11.75800 -1.31200 27.59200
H  12.66000 0.07200 26.81000
H  11.37600 -0.88400 26.00900
H  11.27800 2.43800 31.63000
H  9.13200 -0.60200 34.22300
H  9.34100 1.05100 34.89000
H  10.58200 -0.24700 35.04400
Mg -10.79600 17.60500 40.91900
C  -7.22100 17.46800 40.74400
C  -10.47700 20.95400 40.01000
C  -14.05900 17.78100 40.59700
C  -10.82800 14.16000 41.57100
N  -8.98200 18.88800 40.26300
C  -7.66300 18.71100 40.26800
C  -6.84900 19.93800 39.89900
C  -7.92600 21.05900 40.05400
C  -9.23000 20.22500 39.98600
C  -7.90800 21.86500 41.43400
C  -6.24600 19.87800 38.44100
C  -4.71200 19.52000 38.37700
H  -4.36200 18.29100 37.51600
N  -12.13100 19.18500 40.40000
C  -11.84700 20.46800 40.12800
C  -13.06300 21.17600 39.84400
C  -14.15500 20.28300 40.06000
C  -13.49600 18.99600 40.33600
C  -13.07000 22.57900 39.45400
C  -15.66500 20.55900 39.80700
O  -15.93200 21.72400 39.64500
C  -16.74600 19.52800 39.92000
N  -12.24800 16.16400 40.86600
C  -13.57800 16.49000 40.78300
C  -14.48400 15.30100 41.13900
C  -13.47200 14.25500 41.57400
C  -12.07900 14.79400 41.26300
C  -15.58400 15.53700 42.19200
C  -13.67700 12.74700 41.02500
C  -13.01500 12.48000 39.63000
N  -9.37500 16.04000 41.16500
C  -9.56400 14.74600 41.53200
C  -8.22800 14.21400 41.84600
C  -7.30300 15.18000 41.49500
C  -8.03000 16.32700 41.07100
C  -8.09200 12.86000 42.53500
C  -5.92600 15.50000 41.39700
O  -4.88400 14.84800 41.61900
C  -5.85300 17.02400 41.04200
C  -5.05900 17.72400 42.17000
O  -3.82900 17.62300 42.27600
O  -5.87500 18.51500 42.92100
C  -5.20300 19.44600 43.74600
H  -10.45400 22.02900 39.81800
H  -15.13800 17.76800 40.76300
H  -10.90200 13.10400 41.84100
H  -6.12500 19.94800 40.71400
H  -7.92100 21.80300 39.25700
H  -7.15900 21.37200 42.05400
H  -8.85500 21.72600 41.95700
H  -7.65900 22.92500 41.39200
H  -6.34600 20.80700 37.87800
H  -6.86300 19.08000 38.02900
H  -4.48700 19.36100 39.43200
H  -4.10000 20.39100 38.14200
H  -12.84100 22.78500 38.40800
H  -12.33500 22.97300 40.15500
H  -13.94500 23.08700 39.85800
H  -17.63800 20.06500 39.59700
H  -16.62600 19.54400 41.00300
H  -16.53500 18.59900 39.39000
H  -14.86700 14.94200 40.18300
H  -13.44500 13.93600 42.61500
H  -16.58700 15.56000 41.76600
H  -15.34900 16.46300 42.71700
H  -15.60200 14.83300 43.02300
H  -14.70700 12.55500 40.72300
H  -13.32400 12.08900 41.82000
H  -11.94000 12.44100 39.80600
H  -13.22400 13.30000 38.94300
H  -13.31400 11.49600 39.26900
H  -8.56500 12.09500 41.92000
H  -8.52200 12.89600 43.53600
H  -7.08400 12.47600 42.69300
H  -5.24500 17.00200 40.13700
H  -4.51000 18.89600 44.38400
H  -5.97300 19.81000 44.42700
H  -4.75600 20.26900 43.18900

