158

Mg -11.13400 38.49500 41.30200
C  -9.06200 35.93600 40.40900
C  -8.79100 40.77800 40.11100
C  -13.47300 40.89500 41.36300
C  -13.61400 36.12900 42.24300
N  -9.12800 38.41900 40.48800
C  -8.49900 37.23800 40.15000
C  -7.17500 37.47600 39.39400
C  -7.00700 39.05500 39.51600
C  -8.34900 39.46000 40.17900
C  -5.70800 39.56500 40.22300
C  -7.19600 36.88300 37.95400
C  -6.01100 35.98900 37.53400
H  -5.28500 36.46600 36.24900
N  -11.15400 40.58000 40.82600
C  -10.06200 41.27700 40.38700
C  -10.44900 42.68300 40.20500
C  -11.89500 42.79300 40.52300
C  -12.24400 41.39100 40.90000
C  -9.43200 43.76100 39.64900
C  -12.80400 44.02200 40.40800
O  -12.30300 45.09400 40.01700
C  -14.28900 44.06900 40.64000
N  -13.23100 38.43500 41.82800
C  -13.93600 39.57600 41.72800
C  -15.38300 39.36300 42.02500
C  -15.48600 37.80600 42.27000
C  -14.04100 37.41000 42.15500
C  -15.96000 40.18900 43.19500
C  -16.32500 37.08800 41.16700
C  -17.88500 37.15300 41.37000
N  -11.30800 36.42100 41.33900
C  -12.31100 35.65400 41.84000
C  -11.86800 34.27700 41.94400
C  -10.62700 34.29000 41.30800
C  -10.32600 35.61700 41.01500
C  -12.72800 33.18000 42.48200
C  -9.48800 33.53200 40.83100
O  -9.24500 32.33900 40.97500
C  -8.38900 34.60300 40.31700
C  -7.17400 34.41000 41.10100
O  -6.53500 33.40800 40.95000
O  -6.91100 35.41900 42.02900
C  -5.84700 35.17500 43.03000
H  -7.98400 41.44900 39.80900
H  -14.18700 41.72000 41.38900
H  -14.33700 35.39000 42.59500
H  -6.38400 37.06800 40.02200
H  -7.00200 39.57600 38.55900
H  -5.94100 40.19900 41.07900
H  -5.25100 40.28100 39.54000
H  -5.03900 38.73600 40.45100
H  -7.20800 37.69800 37.23000
H  -8.11400 36.33200 37.75300
H  -6.32100 34.94400 37.53500
H  -5.17200 36.06000 38.22600
H  -9.85700 44.18600 38.73900
H  -8.38600 43.48300 39.51700
H  -9.48400 44.69300 40.21000
H  -14.53300 44.24700 41.68700
H  -14.77500 43.20300 40.19200
H  -14.75300 44.90000 40.10800
H  -15.91400 39.61700 41.10700
H  -15.83000 37.68100 43.29700
H  -16.51900 39.64400 43.95600
H  -16.71100 40.85600 42.77300
H  -15.17500 40.76800 43.68200
H  -16.03700 36.03800 41.21700
H  -16.09900 37.55000 40.20600
H  -18.43400 37.29200 40.43900
H  -18.17500 37.98200 42.01500
H  -18.19400 36.22300 41.84900
H  -12.12900 32.27900 42.61200
H  -13.58300 32.90900 41.86300
H  -13.05600 33.32600 43.51100
H  -8.19300 34.33900 39.27800
H  -4.98900 35.54000 42.46500
H  -5.71500 34.21200 43.52400
H  -5.89100 35.99400 43.74800
Mg -4.06800 25.60500 25.93300
C  -2.73700 26.90000 28.91700
C  -6.18600 23.68500 27.76100
C  -4.70000 24.01200 23.18100
C  -1.42200 27.28800 24.22800
N  -4.42100 25.40100 28.11600
C  -3.81900 26.05300 29.09200
C  -4.60800 25.83000 30.39500
C  -5.45800 24.58300 30.08600
C  -5.40500 24.54000 28.55200
C  -4.98900 23.28300 30.72200
C  -5.54100 27.07500 30.64400
C  -5.97000 27.23600 32.15900
H  -5.53900 26.19400 33.21600
N  -5.37800 24.15100 25.48300
C  -6.21900 23.54300 26.34100
C  -7.08600 22.58800 25.63400
C  -6.74100 22.73200 24.22100
C  -5.55800 23.67200 24.24100
C  -8.19700 21.78800 26.22000
C  -7.26700 22.11000 22.90700
O  -6.97300 22.55800 21.83000
C  -8.50200 21.26900 23.03700
N  -3.19300 25.57800 23.96000
C  -3.61100 24.78000 23.04600
C  -2.84400 24.90000 21.75000
C  -1.87000 26.19400 22.02800
C  -2.15800 26.40300 23.51300
C  -2.17000 23.57700 21.24100
C  -2.26800 27.44100 21.10500
C  -1.17500 28.29300 20.51700
N  -2.50300 26.91800 26.39100
C  -1.59400 27.59500 25.58700
C  -0.75200 28.55600 26.36800
C  -1.19400 28.22700 27.69700
C  -2.22800 27.26100 27.65400
C  0.31100 29.47100 25.84800
C  -1.00300 28.59600 29.08700
O  -0.17000 29.34200 29.59700
C  -1.96000 27.73900 29.95800
C  -1.11600 26.87700 30.91800
O  -0.52000 25.83100 30.63400
O  -1.50600 27.24700 32.22600
C  -1.13600 26.28500 33.23200
H  -6.84200 23.00100 28.30400
H  -4.81300 23.42700 22.26600
H  -0.66600 27.93500 23.78000
H  -3.88700 25.66700 31.19500
H  -6.48400 24.77900 30.39700
H  -4.60100 23.47300 31.72300
H  -4.27300 22.82000 30.04200
H  -5.83400 22.60900 30.86000
H  -6.34800 27.02200 29.91300
H  -5.01700 28.01700 30.48400
H  -7.05600 27.30400 32.23100
H  -5.50400 28.20700 32.32900
H  -9.12200 22.21700 25.83400
H  -8.03400 21.80300 27.29700
H  -8.02900 20.73600 25.99000
H  -8.62200 20.75500 22.08300
H  -9.31000 21.96300 23.27200
H  -8.38900 20.48800 23.78900
H  -3.61200 25.10900 21.00500
H  -0.82900 25.88800 21.92700
H  -2.56100 23.32500 20.25500
H  -2.36800 22.85800 22.03700
H  -1.12100 23.78100 21.02900
H  -2.84600 28.22600 21.59200
H  -2.87500 27.08700 20.27200
H  -0.17300 27.90500 20.70100
H  -1.17200 29.28300 20.97400
H  -1.38900 28.35800 19.45000
H  0.72700 30.22300 26.51800
H  -0.10000 30.00700 24.99200
H  1.06100 28.73900 25.54800
H  -2.52800 28.45500 30.55200
H  -1.68900 25.35000 33.13600
H  -1.32100 26.65800 34.23900
H  -0.06300 26.09600 33.22000

