158

Mg 43.35200 4.80700 47.10600
C  41.50900 7.87700 46.90300
C  40.27400 3.17900 46.51100
C  45.00100 2.12200 46.30800
C  46.27000 6.67600 46.86200
N  41.11000 5.48600 46.59300
C  40.65700 6.76000 46.74100
C  39.16400 6.77900 46.73100
C  38.76200 5.30000 46.84700
C  40.08400 4.52200 46.64000
C  38.08200 4.95500 48.13700
C  38.36600 7.52300 45.55700
C  39.14400 8.02000 44.37800
H  38.82700 7.39100 43.02000
N  42.76700 2.92300 46.56300
C  41.49900 2.39600 46.34400
C  41.53900 0.95400 46.25500
C  42.90300 0.62600 45.97700
C  43.62300 1.92800 46.26100
C  40.32400 0.12300 46.28800
C  43.51900 -0.67100 45.52500
O  42.75400 -1.61400 45.45600
C  44.95300 -0.92100 45.25400
N  45.45600 4.43100 46.69600
C  45.86600 3.24500 46.49300
C  47.38700 3.17200 46.12400
C  47.77800 4.64100 46.21300
C  46.42100 5.33000 46.57900
C  48.23500 2.31300 47.17000
C  48.38300 5.15600 44.86100
C  49.76600 5.76200 44.99700
N  43.85800 6.86300 47.03800
C  45.07100 7.46300 47.03300
C  44.90500 8.93800 47.17500
C  43.45700 9.06800 47.16200
C  42.87000 7.78700 47.06900
C  45.84400 10.03200 46.91000
C  42.42400 10.11200 47.11200
O  42.52700 11.33200 47.07300
C  41.06200 9.32900 47.08500
C  40.19100 9.62900 48.23900
O  40.15500 8.92200 49.21000
O  39.31800 10.66600 47.90700
C  38.35000 11.07600 48.93100
H  39.34100 2.61100 46.51000
H  45.72600 1.32400 46.13400
H  47.19200 7.25700 46.93300
H  38.84700 7.33000 47.61700
H  38.21500 5.12900 45.92100
H  38.70100 4.49600 48.90800
H  37.23400 4.31000 47.90800
H  37.73600 5.82700 48.69200
H  37.96300 8.43300 46.00400
H  37.44400 6.98400 45.34000
H  40.20300 7.80400 44.51200
H  39.08800 9.10600 44.29600
H  39.76600 0.24000 45.35900
H  39.67400 0.49400 47.08100
H  40.51100 -0.93600 46.46900
H  45.44400 -0.76700 46.21500
H  45.38500 -0.27100 44.49300
H  45.05100 -1.94200 44.88700
H  47.45400 2.82000 45.09400
H  48.40700 4.82900 47.08300
H  48.31900 1.27900 46.83500
H  47.68900 2.44000 48.10500
H  49.23300 2.75100 47.15700
H  47.78100 5.83800 44.26100
H  48.54900 4.38200 44.11200
H  49.86500 6.17800 45.99900
H  50.00000 6.54100 44.27200
H  50.40800 4.90100 44.80900
H  45.59400 10.68000 46.06900
H  46.79000 9.64000 46.53700
H  46.10900 10.68700 47.74000
H  40.61700 9.62600 46.13500
H  38.58700 12.00900 49.44100
H  38.19200 10.29500 49.67500
H  37.44300 11.30400 48.37200
Mg 10.66600 46.55800 25.64700
C  8.64400 46.68500 28.47200
C  13.24000 47.76400 27.48700
C  12.54400 46.14600 22.90500
C  7.75700 46.11700 23.68300
N  10.86800 47.18000 27.70500
C  9.97400 47.06200 28.74100
C  10.52900 47.65900 30.03500
C  11.82600 48.40100 29.54000
C  11.99300 47.74900 28.19300
C  11.62700 49.94300 29.45300
C  10.81600 46.47000 31.05700
C  10.35200 46.59000 32.57800
H  10.44100 45.36900 33.40800
N  12.63800 46.73400 25.24900
C  13.53400 47.21200 26.17900
C  14.88500 47.15800 25.59800
C  14.73300 46.60400 24.27200
C  13.26400 46.41300 24.08200
C  16.14700 47.54800 26.30900
C  15.75400 46.29400 23.22000
O  15.47800 45.88100 22.13600
C  17.22000 46.56100 23.57100
N  10.20800 46.21400 23.57400
C  11.16800 46.09500 22.66600
C  10.62000 45.91000 21.24500
C  9.09000 45.63500 21.57800
C  8.99900 46.07800 22.99200
C  10.90300 47.17400 20.40500
C  8.75300 44.11800 21.29300
C  9.13800 43.06900 22.41600
N  8.68300 46.30300 25.95900
C  7.61400 46.19600 25.06700
C  6.36600 46.19900 25.81800
C  6.71200 46.29900 27.13300
C  8.15100 46.44400 27.20700
C  5.00500 45.98600 25.23700
C  6.13400 46.40500 28.46100
O  4.95700 46.45200 28.79900
C  7.37800 46.84600 29.34100
C  7.28800 45.95800 30.58200
O  7.79100 44.83800 30.67500
O  6.42800 46.56100 31.45800
C  5.99600 45.77800 32.64800
H  14.07700 48.18800 28.04500
H  12.94000 45.81200 21.94400
H  6.91900 46.03000 22.98900
H  9.78800 48.14000 30.67300
H  12.61800 48.18900 30.25800
H  12.27500 50.47000 30.15300
H  10.65400 50.11800 29.91300
H  11.43800 50.31900 28.44700
H  11.89400 46.33200 30.97700
H  10.33200 45.58500 30.64300
H  9.31800 46.91300 32.69900
H  10.91800 47.41600 33.00900
H  16.03800 47.71600 27.38100
H  16.41100 48.47500 25.80000
H  16.88200 46.76000 26.14500
H  17.56500 45.97000 24.42000
H  17.56300 47.59100 23.67300
H  17.81900 46.17000 22.74900
H  11.04000 44.99400 20.82800
H  8.42100 46.22600 20.95200
H  11.65900 47.77300 20.91300
H  9.96300 47.68500 20.20000
H  11.45800 46.78800 19.54900
H  9.41400 43.84500 20.47000
H  7.75600 44.02500 20.86200
H  9.58400 43.51600 23.30500
H  9.92500 42.39100 22.08800
H  8.25400 42.48800 22.68000
H  4.50700 45.08000 25.58400
H  4.87300 46.11900 24.16400
H  4.37100 46.80100 25.58400
H  7.21300 47.89400 29.59200
H  5.15400 45.09700 32.52200
H  5.72200 46.55000 33.36700
H  6.85400 45.41100 33.21000

