158

Mg 17.26700 -1.29400 27.76900
C  16.12100 0.66500 30.46400
C  19.42200 -2.75000 29.82700
C  18.66600 -2.71100 24.98000
C  15.20600 0.70400 25.66600
N  17.75300 -1.01100 29.93500
C  17.04000 -0.27300 30.86400
C  17.38200 -0.73000 32.27200
C  18.55400 -1.71300 32.01600
C  18.59700 -1.83900 30.47800
C  19.91700 -1.34000 32.75900
C  16.15300 -1.34100 33.09200
C  16.14300 -0.73100 34.54600
H  17.45700 -0.28600 35.26400
N  18.88300 -2.65800 27.47400
C  19.57600 -3.21300 28.51300
C  20.32700 -4.33300 27.94800
C  20.17000 -4.31400 26.56300
C  19.20100 -3.17300 26.28500
C  21.16200 -5.24900 28.88700
C  20.78000 -5.22400 25.50300
O  20.52800 -5.12800 24.29600
C  21.76200 -6.29200 25.86000
N  16.96500 -1.07400 25.67800
C  17.66200 -1.77100 24.69700
C  17.24300 -1.29700 23.29600
C  16.14700 -0.30300 23.53300
C  15.99100 -0.26400 25.05900
C  18.54000 -0.94600 22.45100
C  14.75300 -0.45200 22.81300
C  14.68400 0.26600 21.46000
N  15.87700 0.31200 27.93100
C  15.14900 0.98900 27.03500
C  14.28700 1.92800 27.69600
C  14.66100 1.86200 29.00600
C  15.66100 0.88800 29.14300
C  13.29000 2.83200 27.01400
C  14.41700 2.38400 30.33500
O  13.61500 3.20300 30.71000
C  15.31300 1.57700 31.33900
C  16.18400 2.55000 32.17300
O  17.15300 3.14800 31.84900
O  15.61400 2.56900 33.41600
C  16.27300 3.38300 34.40300
H  20.11400 -3.35400 30.41700
H  19.18900 -3.09500 24.10200
H  14.59200 1.29500 24.98400
H  17.72500 0.11700 32.86600
H  18.27900 -2.73000 32.29500
H  20.12000 -2.19800 33.39900
H  19.93200 -0.45600 33.39600
H  20.69200 -1.14000 32.01900
H  16.30100 -2.42000 33.03900
H  15.25500 -0.96600 32.60100
H  15.61100 -1.49600 35.11100
H  15.41400 0.07700 34.48600
H  20.90100 -6.27700 28.63400
H  21.03200 -5.14500 29.96400
H  22.24400 -5.14900 28.79700
H  21.26900 -7.07600 26.43500
H  22.39200 -5.81900 26.61200
H  22.26000 -6.56500 24.92900
H  16.85000 -2.12700 22.70900
H  16.58700 0.67100 23.32000
H  19.47400 -1.14400 22.97600
H  18.40900 0.11700 22.24400
H  18.64300 -1.47500 21.50400
H  13.98100 -0.18100 23.53300
H  14.65000 -1.52500 22.65500
H  15.67300 0.70700 21.33900
H  13.99300 1.10900 21.45100
H  14.49500 -0.59600 20.82000
H  12.35700 2.28400 26.88300
H  13.65400 3.10100 26.02200
H  13.18600 3.84800 27.39400
H  14.63800 1.00700 31.97800
H  15.99600 4.39300 34.10100
H  17.32100 3.10300 34.29700
H  15.84900 3.00300 35.33300
Mg 48.45400 45.13900 43.83400
C  45.29300 45.73000 42.31700
C  48.51200 41.99200 42.40300
C  51.80800 45.05800 44.45400
C  48.48600 48.55500 44.79700
N  47.05000 44.08200 42.42100
C  45.83200 44.46800 42.09400
C  45.08400 43.26400 41.47900
C  46.04300 42.00200 41.65800
C  47.28900 42.72500 42.20700
C  45.52900 40.85800 42.65800
C  44.67800 43.50000 39.96800
C  43.67000 42.45500 39.45400
H  44.06700 41.73400 38.12800
N  49.97500 43.69800 43.54200
C  49.73000 42.46400 42.92800
C  50.97700 41.83700 42.91200
C  51.96500 42.56400 43.65400
C  51.29600 43.81900 43.92200
C  51.14100 40.48000 42.25500
C  53.40600 42.13900 43.94000
O  53.94900 41.22600 43.32300
C  54.26600 42.84000 44.88100
N  50.00700 46.71600 44.37400
C  51.26000 46.27400 44.72400
C  52.14400 47.47700 45.10600
C  51.07200 48.54200 45.45400
C  49.75100 47.93800 44.83700
C  53.11700 47.17700 46.31000
C  51.41500 49.95600 44.89300
C  51.22500 51.00900 46.03000
N  47.17200 46.80500 43.75200
C  47.30300 48.04000 44.24900
C  46.01500 48.77100 44.06900
C  45.22800 47.84100 43.36600
C  45.99100 46.68700 43.09300
C  45.68300 50.15300 44.63500
C  43.89000 47.65000 42.64000
O  43.00800 48.45400 42.52100
C  43.90700 46.18500 41.94400
C  42.75800 45.40000 42.43000
O  42.64200 45.13300 43.63300
O  41.90000 45.05000 41.43300
C  40.75500 44.23400 41.87200
H  48.47000 40.91300 42.24200
H  52.89600 45.07400 44.54800
H  48.47000 49.60000 45.11600
H  44.16200 43.05800 42.02300
H  46.26100 41.53000 40.70000
H  46.34800 40.52500 43.29700
H  45.21100 40.12400 41.91800
H  44.64000 41.24000 43.16000
H  45.53600 43.27900 39.33400
H  44.46900 44.51200 39.62000
H  42.71000 42.95500 39.32100
H  43.54700 41.72500 40.25400
H  52.08300 40.53200 41.70900
H  50.36700 40.17300 41.55200
H  51.20700 39.76300 43.07300
H  53.81400 42.89600 45.87200
H  54.49100 43.78100 44.37900
H  55.20400 42.31900 45.07400
H  52.64200 47.68800 44.16000
H  50.92100 48.63800 46.53000
H  53.19300 48.05200 46.95600
H  54.13700 46.98800 45.97500
H  52.77200 46.29500 46.85000
H  50.82900 50.10100 43.98600
H  52.45200 50.04900 44.56900
H  50.17300 51.23700 46.20200
H  51.78400 51.93900 45.92800
H  51.48300 50.64400 47.02400
H  46.63400 50.68400 44.67700
H  45.13900 50.02100 45.57000
H  45.09800 50.73800 43.92500
H  43.70400 46.50400 40.92200
H  40.96700 43.50600 42.65600
H  40.41100 43.57000 41.07900
H  40.02400 44.93000 42.28400

