158

Mg 46.57500 15.56900 28.14100
C  44.56200 15.66900 31.04600
C  48.81000 17.67800 29.90300
C  48.47500 15.89400 25.43900
C  44.08300 14.03000 26.41100
N  46.60600 16.68000 30.20000
C  45.68500 16.46700 31.26100
C  46.22100 17.03500 32.63200
C  47.47100 17.85000 32.08000
C  47.66400 17.30100 30.62500
C  47.42800 19.34500 32.31600
C  46.52700 15.97900 33.73800
C  45.74500 16.24800 35.01000
H  45.85300 17.58400 35.68400
N  48.49200 16.46600 27.77300
C  49.24800 17.28900 28.56600
C  50.44800 17.70800 27.92400
C  50.42400 17.08300 26.65100
C  49.08700 16.43000 26.57300
C  51.62500 18.34500 28.64300
C  51.56300 17.00400 25.60900
O  51.50600 16.24700 24.64500
C  52.76200 17.76900 25.80500
N  46.30300 15.06400 26.30000
C  47.23100 15.23300 25.31600
C  46.78800 14.62400 23.96600
C  45.41700 13.98000 24.32900
C  45.21000 14.47700 25.79500
C  46.81500 15.63200 22.79000
C  45.39200 12.40000 24.00500
C  46.02600 11.44500 25.00100
N  44.71500 14.88300 28.57800
C  43.77000 14.28300 27.76600
C  42.56200 14.07100 28.50100
C  42.87400 14.53300 29.85800
C  44.15100 15.04800 29.83300
C  41.33700 13.43900 27.77600
C  42.33300 14.73500 31.22100
O  41.22100 14.31300 31.73900
C  43.47400 15.40400 32.03500
C  42.90400 16.62400 32.75200
O  43.00100 17.79800 32.42500
O  42.29600 16.23900 33.92300
C  41.62900 17.36300 34.61700
H  49.54700 18.32800 30.37800
H  49.03800 16.04400 24.51500
H  43.28300 13.65400 25.77000
H  45.48500 17.77500 32.94600
H  48.36900 17.55200 32.62200
H  46.70500 19.62600 33.08200
H  47.25000 19.85900 31.37100
H  48.39400 19.71000 32.66300
H  47.57800 16.12400 33.98700
H  46.30600 14.94300 33.47900
H  46.10000 15.46800 35.68400
H  44.72500 16.02600 34.69500
H  52.40800 17.59100 28.56400
H  51.48800 18.55900 29.70300
H  51.91000 19.24900 28.10400
H  52.27900 18.66500 26.19400
H  53.28000 18.11700 24.91100
H  53.27200 17.07900 26.47600
H  47.42600 13.78000 23.70400
H  44.61500 14.47500 23.78100
H  47.40800 16.51000 23.04700
H  45.89100 15.98200 22.33100
H  47.49300 15.19100 22.06000
H  45.87200 12.21400 23.04400
H  44.32400 12.22500 23.87100
H  46.31900 11.95200 25.92100
H  46.85500 10.92400 24.52200
H  45.28600 10.67500 25.21600
H  41.73100 12.59000 27.21800
H  40.83300 14.19200 27.17000
H  40.60700 13.00000 28.45600
H  43.76500 14.70400 32.81800
H  42.31400 18.04600 35.11900
H  40.97300 16.95200 35.38400
H  41.01300 17.79000 33.82600
Mg 47.48600 34.43400 27.60500
C  45.51500 32.98400 29.93300
C  47.85900 37.11700 29.76300
C  48.85200 36.23400 24.96700
C  46.79600 31.86900 25.35600
N  46.89000 34.92000 29.59200
C  46.26000 34.05200 30.42600
C  46.37200 34.54500 31.93600
C  46.81200 36.04400 31.77600
C  47.22600 36.04700 30.27900
C  45.65800 37.11200 32.08200
C  47.45700 33.71000 32.69100
C  47.11600 33.39100 34.20800
H  48.01200 33.86000 35.31900
N  48.34000 36.40600 27.41000
C  48.36800 37.34400 28.45100
C  48.84400 38.61800 27.86400
C  49.14900 38.34100 26.48700
C  48.78600 36.91800 26.24100
C  48.70400 39.87800 28.71100
C  49.55100 39.33600 25.46100
O  49.92300 39.04700 24.31900
C  49.67600 40.85800 25.90000
N  48.00100 34.08800 25.60100
C  48.56700 34.94400 24.68300
C  48.78600 34.35800 23.31100
C  48.42800 32.83300 23.57600
C  47.70300 32.85500 24.94600
C  47.93800 35.05200 22.21400
C  49.74400 31.87800 23.70400
C  49.76300 30.98800 22.45000
N  46.43100 32.77300 27.64400
C  46.12900 31.84800 26.62700
C  45.20600 30.83300 27.16600
C  44.99200 31.19400 28.48000
C  45.69500 32.39500 28.69600
C  44.62500 29.55500 26.48100
C  44.33800 30.91000 29.69200
O  43.66800 29.95400 30.02100
C  44.47200 32.17300 30.61100
C  44.79400 31.74000 31.94600
O  45.71600 30.96700 32.29300
O  43.85300 32.23100 32.80600
C  44.03600 31.91200 34.29800
H  48.00800 37.97300 30.42400
H  49.22200 36.77900 24.09600
H  46.45500 31.10300 24.65700
H  45.44200 34.41300 32.49100
H  47.69600 36.37100 32.32300
H  45.23000 37.50800 31.16200
H  46.17800 37.92100 32.59400
H  44.88700 36.64700 32.69800
H  48.41600 34.22600 32.64700
H  47.67400 32.80000 32.13100
H  47.27100 32.32800 34.39300
H  46.11400 33.74400 34.44900
H  47.72800 39.82900 29.19300
H  48.79200 40.87300 28.27400
H  49.48800 39.95000 29.46500
H  50.33800 40.85600 26.76600
H  48.69500 41.27900 26.12100
H  50.05500 41.48600 25.09300
H  49.83400 34.56200 23.09100
H  47.76000 32.37600 22.84600
H  48.51300 35.11000 21.29000
H  47.51600 36.03100 22.43900
H  47.18100 34.30500 21.97400
H  49.55200 31.26300 24.58400
H  50.70100 32.40000 23.70200
H  50.69900 31.18500 21.92700
H  48.89100 31.11000 21.80600
H  49.72600 29.94200 22.75600
H  43.64300 29.34700 26.90600
H  45.30000 28.73700 26.73200
H  44.51000 29.73300 25.41100
H  43.54700 32.74800 30.56700
H  44.87400 31.24600 34.50600
H  43.12500 31.47500 34.70600
H  44.18400 32.85400 34.82600

