158

Mg 8.76700 4.18000 27.42200
C  10.29400 2.62300 30.21600
C  6.81700 6.09300 29.74800
C  7.42600 5.85600 24.85600
C  10.26000 1.87200 25.41400
N  8.59100 4.34600 29.77500
C  9.31800 3.56800 30.65400
C  9.00900 4.01200 32.04600
C  7.69800 4.94800 31.89300
C  7.63800 5.13900 30.36100
C  6.39200 4.42500 32.49600
C  10.21500 4.84200 32.64800
C  9.95300 5.26600 34.08100
H  10.91600 4.68300 35.07700
N  7.46800 5.88500 27.31900
C  6.81300 6.53600 28.37900
C  6.03100 7.72000 27.77100
C  6.15500 7.59700 26.34200
C  7.07100 6.43800 26.08900
C  5.21300 8.56100 28.60100
C  5.63600 8.50800 25.22000
O  6.00200 8.29100 24.09200
C  4.44700 9.42300 25.53100
N  8.94800 3.99200 25.50600
C  8.25600 4.74600 24.57200
C  8.41400 4.20900 23.14500
C  9.45700 3.00600 23.41000
C  9.50800 2.87800 24.90300
C  7.01700 3.88300 22.35400
C  10.85500 3.13200 22.80300
C  11.96400 3.96000 23.51400
N  9.86200 2.45700 27.67100
C  10.51100 1.68800 26.73600
C  11.43800 0.78100 27.41600
C  11.36400 1.08300 28.80200
C  10.43500 2.12700 28.93000
C  12.38600 -0.18600 26.69500
C  11.89600 0.77900 30.10800
O  12.75600 -0.02000 30.47900
C  11.28100 1.86300 31.03000
C  10.66900 1.08100 32.16800
O  10.11700 0.03100 32.10100
O  10.84000 1.75100 33.41400
C  10.46800 1.09600 34.69300
H  6.16100 6.61700 30.44600
H  6.93700 6.12800 23.91900
H  10.56200 1.08400 24.72000
H  8.78300 3.15200 32.67700
H  7.87800 5.85700 32.46700
H  5.63200 5.14500 32.80200
H  6.68200 3.82700 33.36000
H  5.92200 3.76800 31.76500
H  10.26000 5.71100 31.99200
H  11.20100 4.41300 32.47000
H  8.92100 5.13900 34.40800
H  10.05800 6.33900 34.24100
H  4.16700 8.26700 28.51500
H  5.40200 9.55000 28.18300
H  5.44400 8.56900 29.66600
H  3.65800 8.84100 26.00600
H  4.08000 9.83600 24.59100
H  4.59000 10.20000 26.28200
H  8.98600 4.97200 22.61600
H  9.03500 2.03000 23.16600
H  6.10900 3.74400 22.94200
H  7.13400 2.91400 21.86800
H  6.92400 4.62400 21.56000
H  10.69500 3.60300 21.83200
H  11.23000 2.11900 22.65900
H  11.64400 4.56800 24.36000
H  12.40000 4.73400 22.88300
H  12.80200 3.30200 23.74600
H  11.82700 -1.07000 26.38900
H  13.04600 -0.56400 27.47600
H  12.87200 0.27700 25.83700
H  11.98700 2.61100 31.39300
H  11.11400 1.57400 35.43000
H  10.68500 0.03000 34.62700
H  9.41000 1.27500 34.88700
Mg 26.70700 50.11500 26.14500
C  24.80400 51.40700 28.62200
C  29.36400 49.48800 28.27800
C  28.40400 49.02500 23.64700
C  24.19500 51.19300 23.79800
N  26.99000 50.17000 28.20900
C  26.07300 50.82900 29.01500
C  26.59000 50.73300 30.44700
C  28.03100 50.19300 30.42400
C  28.18000 50.01900 28.83400
C  29.05300 51.20700 31.07700
C  25.60500 49.89000 31.32600
C  25.08500 50.43900 32.65800
H  26.08600 50.86500 33.79100
N  28.65600 49.38300 25.95300
C  29.59000 49.14400 26.93900
C  30.74400 48.41000 26.37900
C  30.42500 48.28900 24.99700
C  29.11500 48.90000 24.79700
C  31.80400 47.88000 27.31600
C  31.34000 47.63600 23.96100
O  30.94800 47.51500 22.81300
C  32.68200 47.01600 24.33400
N  26.42900 50.41100 23.89800
C  27.20800 49.59000 23.19900
C  26.76600 49.51500 21.80500
C  25.34300 50.02000 21.85700
C  25.28900 50.51900 23.25600
C  27.52400 50.37000 20.78900
C  24.21800 48.96000 21.46600
C  24.23200 47.67400 22.23900
N  24.87400 51.08600 26.16000
C  23.99800 51.44700 25.19200
C  22.91000 52.18200 25.70800
C  23.17000 52.24300 27.07500
C  24.37300 51.53400 27.30000
C  21.83700 52.92100 24.94000
C  22.69900 52.65600 28.33100
O  21.74000 53.34500 28.58200
C  23.71100 52.06400 29.41100
C  24.18500 53.17900 30.28600
O  25.23600 53.76200 30.15200
O  23.29300 53.34800 31.35100
C  23.86800 54.06300 32.52600
H  30.14300 49.24300 29.00300
H  28.96000 48.70200 22.76400
H  23.32800 51.43000 23.17800
H  26.61800 51.77500 30.76700
H  28.13700 49.21500 30.89400
H  29.72500 50.68800 31.76100
H  28.51100 52.00900 31.57600
H  29.80100 51.61000 30.39400
H  26.06000 48.92000 31.52700
H  24.74600 49.71400 30.67800
H  24.61600 49.53500 33.04800
H  24.24600 51.09400 32.42100
H  32.34200 47.02000 26.91800
H  31.30700 47.63500 28.25500
H  32.50800 48.69600 27.48100
H  32.50000 46.08800 24.87700
H  33.17100 47.77600 24.94400
H  33.14500 46.79800 23.37200
H  26.80900 48.47400 21.48500
H  25.15800 50.97200 21.36000
H  28.39000 50.75700 21.32600
H  27.05800 51.15600 20.19400
H  27.92300 49.64000 20.08400
H  24.14200 48.77000 20.39600
H  23.27700 49.47800 21.65600
H  24.09600 47.74000 23.31800
H  25.13200 47.06900 22.12600
H  23.28100 47.22000 21.96200
H  21.43700 53.62200 25.67300
H  21.04100 52.27600 24.56800
H  22.24400 53.59700 24.18900
H  23.24300 51.37600 30.11500
H  24.08900 55.10900 32.31400
H  24.82500 53.57900 32.72100
H  23.34200 53.85300 33.45700

