158

Mg -2.35500 17.26100 27.26300
C  -2.68900 14.98400 29.87600
C  -2.80500 19.79500 29.46000
C  -2.30700 19.37600 24.55000
C  -2.14700 14.53200 25.04300
N  -2.67100 17.32200 29.43800
C  -2.79900 16.30800 30.31200
C  -2.80200 16.82700 31.76200
C  -3.23800 18.30500 31.52500
C  -2.85600 18.49800 30.07400
C  -4.77900 18.54300 31.73000
C  -1.43500 16.69800 32.55000
C  -1.55400 16.03100 33.96400
H  -0.47400 16.09600 34.97300
N  -2.53000 19.31800 27.00300
C  -2.64600 20.20000 28.01500
C  -2.56800 21.52800 27.54200
C  -2.35300 21.42200 26.14000
C  -2.36200 19.98100 25.83800
C  -2.63000 22.78900 28.43800
C  -1.99600 22.50500 25.11200
O  -1.64200 22.33100 23.97500
C  -2.03300 23.91300 25.49900
N  -2.58000 17.01700 25.11400
C  -2.45700 18.05300 24.17400
C  -2.28700 17.47400 22.77600
C  -2.05700 15.92200 22.95400
C  -2.30600 15.82600 24.47700
C  -3.51900 17.73900 21.86600
C  -0.66600 15.44600 22.37500
C  0.64800 15.54700 23.26100
N  -2.36700 15.17300 27.33400
C  -2.11000 14.20700 26.38800
C  -2.17300 12.90200 26.98600
C  -2.33000 13.17900 28.37300
C  -2.47500 14.55400 28.52700
C  -2.18900 11.69400 26.21500
C  -2.58700 12.59400 29.65800
O  -2.66600 11.39500 29.95200
C  -2.85300 13.74300 30.65600
C  -1.78200 13.44900 31.73200
O  -0.55800 13.63600 31.64600
O  -2.33300 12.78100 32.79000
C  -1.36000 12.28200 33.77200
H  -2.95500 20.61100 30.17000
H  -2.08900 20.05400 23.72200
H  -2.06500 13.70800 24.33200
H  -3.62000 16.34300 32.29500
H  -2.80500 18.99900 32.24500
H  -5.42200 17.66400 31.68900
H  -5.23300 19.28100 31.06900
H  -4.93300 18.82800 32.77100
H  -0.98900 17.68800 32.65000
H  -0.86400 15.94600 32.00600
H  -1.98200 15.02900 33.94200
H  -2.35200 16.65300 34.36900
H  -3.06500 22.52700 29.40200
H  -3.18800 23.63400 28.03600
H  -1.58100 23.06200 28.55400
H  -1.20300 24.27700 26.10500
H  -2.99800 24.12000 25.96100
H  -2.13800 24.56100 24.62900
H  -1.35300 17.91400 22.42700
H  -2.80100 15.39900 22.35300
H  -4.36600 17.33100 22.41900
H  -3.44200 17.18300 20.93100
H  -3.59700 18.81700 21.72700
H  -0.36200 16.02600 21.50400
H  -0.77500 14.40000 22.09100
H  1.10400 14.56000 23.32800
H  0.43500 15.91700 24.26400
H  1.43900 16.13700 22.79800
H  -1.67500 11.72300 25.25400
H  -3.23100 11.43500 26.02300
H  -1.83100 10.89000 26.85800
H  -3.78800 13.59400 31.19600
H  -1.87400 11.83900 34.62500
H  -0.78200 13.09000 34.21900
H  -0.69700 11.52400 33.35300
Mg 25.15100 1.88800 29.82100
C  27.32500 1.64300 32.54800
C  22.48600 1.70500 32.03500
C  23.04500 1.80700 27.19900
C  27.85300 1.17900 27.73000
N  24.94000 1.77900 31.96700
C  26.00300 1.84800 32.84300
C  25.50000 2.15100 34.24300
C  23.97700 1.86000 34.19400
C  23.79100 1.86800 32.62700
C  23.56200 0.47300 34.82400
C  25.91700 3.53400 34.72800
C  26.51800 3.77500 36.11400
H  26.13000 2.81900 37.28100
N  23.05800 1.76500 29.64800
C  22.17400 1.66400 30.65200
C  20.86400 1.59300 30.18800
C  20.98600 1.55200 28.76600
C  22.39700 1.72600 28.46400
C  19.68500 1.40400 31.04700
C  19.84300 1.60400 27.75900
O  20.15100 1.78500 26.56900
C  18.46000 1.32400 28.22500
N  25.43400 1.70300 27.77700
C  24.42300 1.86600 26.89200
C  24.99300 2.10700 25.44700
C  26.47400 1.67800 25.57400
C  26.65100 1.51900 27.14700
C  24.14900 1.45200 24.32800
C  27.33300 2.90100 25.09800
C  27.53300 2.93600 23.55900
N  27.13200 1.48000 30.00500
C  28.08900 1.13600 29.04700
C  29.31000 0.90600 29.73500
C  29.11200 1.20600 31.07800
C  27.73500 1.42100 31.23000
C  30.61600 0.68500 29.02500
C  29.77300 1.23000 32.40000
O  30.97900 1.18300 32.71300
C  28.55100 1.55300 33.45800
C  28.43900 0.49700 34.50500
O  27.62800 -0.39300 34.47800
O  29.31900 0.61900 35.49600
C  28.99800 -0.38200 36.57400
H  21.76600 1.84500 32.84300
H  22.39100 1.85100 26.32500
H  28.67200 1.04300 27.02100
H  25.93700 1.44500 34.94900
H  23.15600 2.53800 34.42800
H  23.04500 -0.13700 34.08400
H  22.82300 0.71700 35.58700
H  24.42200 -0.14700 35.07600
H  25.09000 4.24300 34.77000
H  26.64600 3.97800 34.05000
H  26.05600 4.70800 36.43700
H  27.60700 3.79400 36.06500
H  19.08500 2.21400 30.63100
H  19.86600 1.59200 32.10500
H  19.19200 0.43300 31.01900
H  18.46400 0.55700 28.99900
H  17.72100 1.13700 27.44600
H  18.18700 2.23100 28.76500
H  24.71100 3.15300 25.33300
H  26.70900 0.74500 25.06300
H  24.86000 1.24400 23.52800
H  23.31400 2.10700 24.08100
H  23.67900 0.60200 24.82300
H  28.28800 2.77800 25.60900
H  26.82700 3.83900 25.32900
H  28.61100 2.90600 23.39700
H  27.18000 3.87400 23.13100
H  26.98700 2.14300 23.04900
H  30.50000 0.02600 28.16500
H  31.19200 0.24200 29.83800
H  30.98700 1.63400 28.63700
H  28.90200 2.50100 33.86800
H  29.63900 -0.29700 37.45100
H  28.99200 -1.38700 36.15300
H  28.06200 -0.28100 37.12400

