158

Mg 2.35700 -2.03500 45.04700
C  5.69100 -1.05500 44.45100
C  1.32300 0.53800 43.03300
C  -0.68700 -3.30600 45.37300
C  3.70200 -4.97200 46.63100
N  3.41000 -0.52900 43.67800
C  4.77200 -0.24600 43.73600
C  5.10900 0.94000 42.79900
C  3.68400 1.53100 42.51200
C  2.74600 0.45500 43.13700
C  3.35600 2.98500 43.05100
C  5.96400 0.47400 41.55600
C  7.25400 1.32100 41.30600
H  7.93100 1.15100 40.00900
N  0.52600 -1.37600 44.33700
C  0.32500 -0.35700 43.51800
C  -1.04400 -0.37700 43.19800
C  -1.73500 -1.37400 43.96400
C  -0.65400 -2.04900 44.63500
C  -1.58700 0.66300 42.19600
C  -3.17900 -1.71400 43.92700
O  -3.83000 -0.98300 43.24900
C  -3.84200 -2.61300 44.86000
N  1.63800 -3.88800 45.89400
C  0.27300 -4.13400 45.92300
C  0.09700 -5.49300 46.66900
C  1.45500 -6.14000 46.75900
C  2.34100 -4.95400 46.42400
C  -0.70900 -5.26100 48.05800
C  1.76100 -7.41200 45.93400
C  2.64500 -8.49600 46.55600
N  4.25500 -2.87600 45.54000
C  4.61100 -4.08300 46.14000
C  6.07700 -4.10400 46.33700
C  6.52000 -2.90800 45.67500
C  5.42300 -2.22800 45.15800
C  6.92800 -5.17400 46.95200
C  7.69400 -2.23900 45.19600
O  8.89400 -2.50800 45.20900
C  7.16900 -0.93800 44.56000
C  7.51400 0.02000 45.53400
O  7.30200 -0.13400 46.72900
O  7.98600 1.19400 44.90600
C  7.98700 2.43400 45.71300
H  0.82700 1.31200 42.44400
H  -1.71700 -3.64500 45.50300
H  4.00500 -5.83700 47.22500
H  5.58200 1.63600 43.49200
H  3.48200 1.56300 41.44100
H  4.32200 3.38600 43.35900
H  2.63400 2.98400 43.86800
H  2.99400 3.49100 42.15700
H  5.37300 0.31800 40.65400
H  6.33900 -0.51500 41.81800
H  8.00200 1.14300 42.07800
H  6.89800 2.33100 41.50800
H  -1.13800 0.48300 41.21900
H  -1.38600 1.68100 42.53200
H  -2.67400 0.65200 42.11800
H  -3.74200 -3.66400 44.59200
H  -4.89800 -2.35700 44.77700
H  -3.38200 -2.37000 45.81800
H  -0.54200 -6.09400 46.02300
H  1.59400 -6.38000 47.81400
H  -0.97600 -6.12100 48.67100
H  -1.64100 -4.77900 47.76000
H  -0.14700 -4.59700 48.71500
H  2.23100 -7.18300 44.97800
H  0.82200 -7.88500 45.64700
H  3.43100 -8.78000 45.85600
H  2.16100 -9.42800 46.84800
H  3.06100 -8.05500 47.46200
H  7.87800 -4.83700 47.36600
H  7.18400 -5.89600 46.17700
H  6.42700 -5.68400 47.77500
H  7.71300 -0.74500 43.63500
H  9.03300 2.68100 45.89300
H  7.45500 2.29900 46.65500
H  7.45000 3.21400 45.17300
Mg 49.78800 45.81600 42.80600
C  46.35600 45.89100 42.45100
C  49.73800 42.29800 42.15700
C  53.14400 45.87200 42.16500
C  49.77000 49.38400 42.90400
N  48.20900 44.32000 42.27100
C  46.87500 44.60800 42.17000
C  46.06700 43.34400 41.84200
C  47.14400 42.26100 41.96400
C  48.49100 42.96600 42.09900
C  46.85500 41.14400 42.97800
C  45.34900 43.36000 40.51200
C  46.18900 43.81900 39.26400
H  45.99700 43.04400 37.98200
N  51.24300 44.28500 42.46200
C  51.02000 42.89200 42.30700
C  52.28000 42.25200 42.38800
C  53.30600 43.22100 42.21700
C  52.59300 44.54800 42.23200
C  52.30800 40.74200 42.36500
C  54.80000 42.88200 41.90200
O  55.14400 41.71600 41.86500
C  55.77500 43.98400 41.85000
N  51.20500 47.41900 42.41800
C  52.49400 47.15500 42.29000
C  53.40600 48.43000 42.27500
C  52.31400 49.52200 42.42100
C  51.00900 48.73400 42.59900
C  54.54300 48.38400 43.30700
C  52.17000 50.50600 41.20000
C  52.05000 52.02500 41.36200
N  48.34800 47.30900 42.79100
C  48.51900 48.71100 42.94900
C  47.14400 49.25200 43.13000
C  46.30800 48.17700 42.83000
C  47.06300 47.07500 42.70100
C  46.70900 50.61100 43.58200
C  44.92300 47.76800 42.53100
O  43.91200 48.45700 42.52600
C  44.97100 46.27300 42.17900
C  43.99800 45.56400 43.00100
O  42.98100 45.04500 42.57500
O  44.33000 45.51100 44.32600
C  43.32000 44.82000 45.20300
H  49.70700 41.21000 42.06000
H  54.22200 45.85400 41.99200
H  49.67100 50.47100 42.94400
H  45.32300 43.20200 42.62600
H  47.12200 41.78300 40.98500
H  47.66400 41.12700 43.70800
H  46.89800 40.19700 42.44000
H  45.97400 41.32800 43.59300
H  44.50100 44.04000 40.59600
H  44.93200 42.36800 40.33900
H  47.25200 43.86700 39.49900
H  45.90900 44.84700 39.03500
H  53.28700 40.31300 42.58200
H  52.06700 40.26300 41.41600
H  51.59900 40.27200 43.04600
H  55.59100 44.57900 42.74500
H  55.57800 44.51900 40.92100
H  56.76500 43.52900 41.88500
H  53.78200 48.35900 41.25500
H  52.43800 50.10300 43.33400
H  54.62700 49.26700 43.94200
H  55.50900 48.01800 42.96100
H  54.22300 47.55000 43.93100
H  51.27500 50.23700 40.63900
H  53.03200 50.32700 40.55700
H  52.91300 52.59400 41.01500
H  52.02600 52.30200 42.41600
H  51.10000 52.33500 40.92600
H  46.50600 51.17800 42.67300
H  47.46200 51.07700 44.21800
H  45.71600 50.56900 44.02900
H  44.83700 46.20800 41.09900
H  43.27700 45.12900 46.24800
H  43.76900 43.82700 45.16600
H  42.29200 44.80500 44.84200

