158

Mg 24.93000 -5.71700 46.64300
C  26.93900 -3.52400 44.76100
C  22.33500 -4.87000 44.57300
C  23.52600 -8.55300 47.59200
C  27.94800 -6.69900 48.40200
N  24.68200 -4.28200 44.88300
C  25.58700 -3.47500 44.27000
C  24.98800 -2.49500 43.21200
C  23.46300 -2.80100 43.53300
C  23.47800 -4.04700 44.36400
C  22.71400 -1.60900 44.13100
C  25.52000 -2.62200 41.75800
C  25.93600 -1.33400 41.06200
H  25.40300 -1.01200 39.65100
N  23.11300 -6.57700 46.26500
C  22.22500 -6.03300 45.39400
C  21.07300 -6.92500 45.31500
C  21.37700 -8.07600 46.17300
C  22.69400 -7.76800 46.72700
C  19.76000 -6.70000 44.47500
C  20.46500 -9.28500 46.28800
O  19.40400 -9.30700 45.63400
C  20.77500 -10.41500 47.27600
N  25.61700 -7.32800 48.00200
C  24.81100 -8.35400 48.21300
C  25.48900 -9.35800 49.16500
C  26.81200 -8.55700 49.58800
C  26.85400 -7.52100 48.56900
C  24.62400 -9.95600 50.25200
C  28.12100 -9.43500 49.60300
C  29.09400 -8.99800 50.70700
N  26.88400 -5.06000 46.80100
C  28.00000 -5.58000 47.58100
C  29.21600 -4.83300 47.23300
C  28.81400 -4.06000 46.09400
C  27.46200 -4.21100 45.89100
C  30.62100 -4.96900 47.77900
C  29.38300 -3.21600 45.02600
O  30.51100 -2.84700 44.81600
C  28.10600 -2.72700 44.22300
C  28.05800 -1.27600 44.63700
O  27.74100 -0.86500 45.71100
O  28.42000 -0.43600 43.53200
C  28.41400 1.05900 43.78900
H  21.46900 -4.61400 43.95900
H  23.04200 -9.49100 47.87000
H  28.84500 -6.76600 49.02200
H  25.24800 -1.48100 43.51700
H  22.98600 -2.89200 42.55700
H  23.42600 -0.78300 44.15600
H  22.52600 -1.87000 45.17300
H  21.78300 -1.35000 43.62700
H  24.79200 -3.22000 41.21000
H  26.47600 -3.13700 41.84700
H  27.02500 -1.28400 41.07900
H  25.74200 -0.50800 41.74700
H  19.96800 -7.11400 43.48800
H  19.62000 -5.62000 44.50600
H  18.82500 -7.07400 44.89300
H  20.01400 -11.19300 47.22400
H  20.82100 -9.93000 48.25100
H  21.75900 -10.84300 47.08700
H  25.91700 -10.10100 48.49100
H  26.66300 -8.14000 50.58400
H  25.13500 -9.96800 51.21500
H  24.51400 -10.99300 49.93700
H  23.60000 -9.59700 50.14100
H  28.68600 -9.38600 48.67300
H  27.85400 -10.48700 49.70500
H  28.65300 -8.19600 51.29900
H  30.02300 -8.53100 50.37900
H  29.34000 -9.85200 51.33800
H  30.97900 -5.97400 47.55600
H  30.64500 -4.87600 48.86500
H  31.17500 -4.18700 47.26000
H  28.24200 -2.89100 43.15400
H  29.32100 1.19900 44.37600
H  27.69600 1.47500 44.49600
H  28.32500 1.60900 42.85200
Mg 39.83600 9.14300 29.16100
C  41.92200 10.14500 31.73300
C  37.66700 7.67000 31.55000
C  38.00600 7.82300 26.70100
C  42.26500 10.22600 26.88000
N  39.83600 8.90500 31.38900
C  40.72100 9.53100 32.25300
C  40.26300 9.55400 33.70900
C  39.02600 8.62800 33.61400
C  38.78500 8.33600 32.10100
C  39.16200 7.37100 34.53800
C  39.75300 11.07200 34.10000
C  39.25200 11.17400 35.57200
H  40.01700 12.23400 36.41800
N  38.02100 8.05200 29.15400
C  37.39000 7.47900 30.21800
C  36.22700 6.75000 29.71700
C  36.10900 6.96900 28.34600
C  37.43100 7.63100 27.99500
C  35.21100 6.13500 30.67900
C  35.08600 6.53300 27.42400
O  35.28200 6.64400 26.20400
C  33.74400 5.92900 27.88700
N  40.20900 8.93700 27.03500
C  39.22600 8.35700 26.28200
C  39.56000 8.50900 24.82600
C  40.86700 9.43400 24.85400
C  41.16200 9.51800 26.31100
C  39.65400 7.19100 24.05500
C  40.64700 10.77900 24.15800
C  39.83900 11.86000 24.89600
N  41.75800 10.02500 29.22600
C  42.62200 10.46700 28.22800
C  43.69800 11.24600 28.75300
C  43.50400 11.09300 30.13500
C  42.32300 10.33400 30.40100
C  44.70800 11.84000 27.91700
C  43.97500 11.39500 31.44700
O  44.97200 12.01900 31.79900
C  43.06900 10.75800 32.53000
C  43.94100 9.79700 33.39600
O  44.45200 8.75900 33.02900
O  44.06600 10.32100 34.65800
C  44.94700 9.52100 35.57300
H  37.01400 7.35300 32.36600
H  37.41000 7.39000 25.89600
H  42.90500 10.72700 26.15000
H  41.03500 9.15400 34.36600
H  38.06700 9.09600 33.83500
H  38.66200 7.60600 35.47800
H  40.20900 7.19000 34.78200
H  38.65800 6.47100 34.18500
H  38.82300 11.37400 33.61800
H  40.50500 11.85200 33.98700
H  39.31400 10.19600 36.04800
H  38.17700 11.34300 35.62800
H  34.21900 6.58800 30.65700
H  35.43600 5.93200 31.72600
H  34.93800 5.14200 30.32400
H  33.25900 6.52600 28.66000
H  33.97900 4.94000 28.28100
H  33.06000 5.82300 27.04500
H  38.67700 8.99100 24.40500
H  41.69400 8.91300 24.37200
H  40.54200 7.04500 23.43900
H  38.75500 7.10100 23.44500
H  39.62200 6.31800 24.70700
H  40.03600 10.49200 23.30100
H  41.54800 11.28700 23.81600
H  40.47600 12.73500 24.77100
H  39.81500 11.62500 25.96000
H  38.83700 11.95400 24.47700
H  45.40600 11.08300 27.56000
H  45.21100 12.59500 28.52000
H  44.28300 12.43500 27.10900
H  42.71300 11.59600 33.12900
H  44.63800 9.48300 36.61800
H  45.93500 9.98100 35.59900
H  45.12600 8.49900 35.23800

