158

Mg 2.49400 -0.36100 43.43800
C  5.93700 -0.00000 43.45400
C  2.14600 2.62900 41.78400
C  -0.86800 -1.21400 42.91200
C  3.02900 -3.64500 44.60800
N  3.89600 1.15100 42.75500
C  5.27000 1.03800 42.76400
C  5.92000 2.27600 42.07200
C  4.60000 3.18100 41.81900
C  3.45800 2.27000 42.09000
C  4.51100 4.51000 42.59800
C  6.73300 1.99200 40.75600
C  6.04500 1.08500 39.68700
H  5.74200 1.62400 38.28500
N  0.84300 0.68100 42.57700
C  0.93000 1.90800 42.01700
C  -0.41200 2.27500 41.67500
C  -1.31200 1.14700 41.93900
C  -0.46500 0.07900 42.44000
C  -0.77100 3.65100 41.23200
C  -2.80300 1.18400 41.53200
O  -3.39300 2.16900 41.04900
C  -3.62800 -0.07600 41.71500
N  1.27500 -2.14100 43.55800
C  -0.08000 -2.24700 43.39800
C  -0.58500 -3.58700 43.83800
C  0.71400 -4.45800 43.89100
C  1.72200 -3.34100 44.01700
C  -1.36200 -3.55400 45.19900
C  1.01200 -5.31900 42.67300
C  1.54200 -6.72900 43.01100
N  4.16600 -1.58600 44.06300
C  4.17000 -2.84800 44.59300
C  5.48700 -3.15600 45.09300
C  6.25800 -2.08600 44.60100
C  5.37500 -1.16000 44.04400
C  6.03100 -4.38900 45.85200
C  7.63900 -1.55100 44.40700
O  8.75900 -2.03200 44.74500
C  7.50000 -0.23100 43.68800
C  8.24900 0.86700 44.33500
O  9.14600 1.56700 43.85900
O  7.79100 1.03100 45.62000
C  8.54800 2.09500 46.34700
H  2.00200 3.55600 41.22500
H  -1.93600 -1.44100 42.92600
H  3.13400 -4.68600 44.92100
H  6.54900 2.74700 42.82700
H  4.65300 3.46700 40.76800
H  3.45800 4.73400 42.76900
H  4.96800 5.33700 42.05300
H  4.96900 4.35000 43.57400
H  7.58900 1.43900 41.14400
H  7.09500 2.94000 40.35700
H  5.11300 0.63100 40.02500
H  6.85100 0.35700 39.59300
H  -0.77300 3.80400 40.15200
H  -0.04900 4.27800 41.75500
H  -1.74700 3.97400 41.59400
H  -3.68400 -0.34000 42.77200
H  -3.36800 -0.92200 41.07800
H  -4.58700 0.14800 41.25000
H  -1.24700 -3.97200 43.06200
H  0.82700 -5.09100 44.77100
H  -0.96600 -4.13900 46.02900
H  -2.31700 -3.98000 44.89400
H  -1.46900 -2.56300 45.64200
H  1.56000 -4.78000 41.90000
H  0.10300 -5.58600 42.13300
H  2.37400 -6.83000 42.31500
H  0.93100 -7.62100 42.87100
H  1.97200 -6.68400 44.01100
H  5.71500 -4.23400 46.88400
H  7.11200 -4.48800 45.75000
H  5.54000 -5.23000 45.36200
H  7.85200 -0.29900 42.65800
H  9.55500 1.73700 46.56200
H  8.13200 2.14600 47.35400
H  8.37000 3.01800 45.79500
Mg -0.66600 42.67400 26.05300
C  1.98800 42.60100 28.32400
C  -2.82700 42.38300 28.69000
C  -3.15100 42.90800 23.86300
C  1.64700 43.31300 23.48400
N  -0.42100 42.40400 28.29100
C  0.74000 42.54900 28.96500
C  0.53600 42.68500 30.40900
C  -1.00900 42.41600 30.55800
C  -1.44700 42.37300 29.06800
C  -1.30800 41.18200 31.47400
C  0.93600 44.08500 30.93600
C  0.55000 44.46300 32.41600
H  0.49100 43.29000 33.42400
N  -2.66800 42.55400 26.25000
C  -3.38900 42.35800 27.41900
C  -4.76300 42.34600 27.07900
C  -4.95300 42.58200 25.72900
C  -3.56300 42.66400 25.19300
C  -5.80100 42.26100 28.09800
C  -6.25800 42.78700 24.91000
O  -6.26800 43.01000 23.66800
C  -7.67300 42.62400 25.55800
N  -0.71000 42.96900 23.91400
C  -1.89400 43.05400 23.27500
C  -1.80000 43.41900 21.79400
C  -0.18000 43.50200 21.66300
C  0.26100 43.30400 23.09800
C  -2.50300 42.43200 20.72700
C  0.30600 44.81300 20.93800
C  0.75400 45.98200 21.84200
N  1.42400 42.80000 25.87900
C  2.19600 43.09100 24.81000
C  3.54500 43.00100 25.17900
C  3.53300 42.73000 26.53100
C  2.18700 42.70600 26.91000
C  4.73000 43.17700 24.29700
C  4.34700 42.54400 27.70200
O  5.56600 42.48300 27.74500
C  3.35900 42.52700 28.95400
C  3.67600 41.44000 29.80800
O  3.61300 40.24700 29.49600
O  3.93600 41.88400 31.06000
C  4.08500 40.85900 32.12400
H  -3.50800 42.43300 29.54200
H  -3.99800 42.98600 23.17700
H  2.36000 43.56400 22.69500
H  1.13000 41.88700 30.85400
H  -1.52400 43.24900 31.03600
H  -2.11500 41.63000 32.05400
H  -0.49800 40.84400 32.11900
H  -1.70400 40.32900 30.92200
H  0.72400 44.89300 30.23600
H  2.01600 44.05400 31.08400
H  -0.36300 45.05500 32.36200
H  1.29300 45.21100 32.69000
H  -6.33100 43.21300 28.06100
H  -5.47300 42.04000 29.11400
H  -6.63600 41.60100 27.86200
H  -7.72900 41.59300 25.90600
H  -8.40800 42.90100 24.80200
H  -7.87100 43.27000 26.41400
H  -2.22400 44.42300 21.78900
H  0.17100 42.66500 21.05900
H  -1.86800 42.11300 19.90000
H  -3.37500 42.85900 20.23200
H  -2.83200 41.51500 21.21600
H  -0.56200 45.07100 20.33100
H  1.16900 44.49100 20.35700
H  0.53900 45.91700 22.90900
H  0.36600 46.93400 21.48000
H  1.81900 46.16600 21.69900
H  5.20300 44.06100 24.72400
H  4.50400 43.12200 23.23200
H  5.31000 42.26000 24.40100
H  3.53400 43.45200 29.50300
H  4.96400 40.22000 32.04300
H  3.16700 40.27600 32.20400
H  4.12500 41.51100 32.99700

