158

Mg 49.83200 44.66200 40.37900
C  46.47400 44.91100 39.22700
C  49.86400 41.44600 39.26200
C  53.15500 44.71900 40.58700
C  49.72800 48.24400 40.69100
N  48.31500 43.39000 39.33000
C  47.05000 43.69000 38.92900
C  46.45900 42.67000 38.06800
C  47.35600 41.37400 38.42700
C  48.60100 42.07400 39.11200
C  46.73100 40.23500 39.37200
C  46.32500 43.02300 36.63800
C  44.99600 42.84400 35.99500
H  44.72400 43.52000 34.57900
N  51.29000 43.22100 40.13200
C  51.09100 41.89100 39.72300
C  52.37300 41.17300 39.75100
C  53.35600 42.10500 40.27300
C  52.64700 43.45400 40.35200
C  52.53300 39.75800 39.39400
C  54.78900 41.84200 40.65900
O  55.20900 40.74300 40.50700
C  55.67700 42.93000 41.24700
N  51.28100 46.26200 40.48800
C  52.57300 45.98800 40.72900
C  53.41500 47.24500 41.03000
C  52.28100 48.35500 41.07800
C  50.99900 47.57800 40.73000
C  54.52700 47.26300 42.13600
C  52.49300 49.68100 40.17800
C  52.09200 51.06100 40.86500
N  48.37800 46.28300 40.23800
C  48.50400 47.65500 40.38700
C  47.20500 48.29300 40.20100
C  46.36800 47.24900 39.82100
C  47.09000 46.05400 39.83100
C  46.75700 49.76300 40.27900
C  45.01400 46.96900 39.32900
O  44.05800 47.64500 39.12700
C  45.10200 45.45200 38.85100
C  43.95900 44.71600 39.48100
O  43.10600 44.16500 38.82000
O  43.85000 45.08300 40.86500
C  42.48000 44.88400 41.51400
H  50.03300 40.38100 39.09000
H  54.24600 44.75000 40.55200
H  49.84100 49.32700 40.76900
H  45.47800 42.40700 38.46300
H  47.70900 40.81800 37.55800
H  46.53800 39.31000 38.83000
H  45.72100 40.51500 39.67400
H  47.29100 40.01600 40.28100
H  47.01800 42.37300 36.10400
H  46.68000 44.01000 36.34300
H  44.18800 43.19100 36.63800
H  45.05300 41.75900 35.90600
H  53.24100 39.52400 38.59800
H  51.62800 39.20600 39.14100
H  52.98600 39.35800 40.30100
H  55.23400 43.35100 42.15000
H  55.96500 43.65000 40.48200
H  56.65900 42.59800 41.58400
H  53.98400 47.37300 40.10900
H  52.07600 48.57700 42.12500
H  54.29400 47.99600 42.90800
H  55.56500 47.36500 41.82100
H  54.46200 46.26600 42.57200
H  51.85900 49.50500 39.30900
H  53.51400 49.89900 39.86400
H  51.49700 50.96400 41.77400
H  51.41200 51.56900 40.18100
H  52.96200 51.68700 41.06500
H  45.93600 49.77100 40.99600
H  46.51800 50.12700 39.28000
H  47.55400 50.40500 40.65400
H  44.91300 45.39500 37.78000
H  42.60600 43.90600 41.97800
H  41.65000 45.05200 40.82800
H  42.48200 45.62100 42.31600
Mg 48.07400 34.12400 25.24200
C  46.16200 32.67200 27.80100
C  48.58200 36.75300 27.27100
C  48.95400 35.77700 22.53900
C  47.29000 31.36200 23.21000
N  47.47900 34.63500 27.25900
C  46.79900 33.84100 28.18200
C  47.04400 34.31000 29.62600
C  47.37600 35.79100 29.34800
C  47.84400 35.73900 27.87200
C  46.22600 36.91400 29.60100
C  48.20100 33.60400 30.45000
C  47.93100 33.42400 31.94500
H  46.91200 34.30900 32.66000
N  48.83100 35.92000 24.95900
C  48.97500 36.93800 25.90900
C  49.79900 38.02200 25.37200
C  49.91400 37.78000 23.93400
C  49.11000 36.48700 23.73100
C  50.43000 39.08300 26.18000
C  50.62800 38.60600 22.87000
O  50.62300 38.38500 21.68300
C  51.48400 39.85000 23.29400
N  48.19200 33.65700 23.20100
C  48.55000 34.48900 22.24000
C  48.57800 33.84800 20.80700
C  48.40100 32.36100 21.14400
C  47.91600 32.48600 22.60600
C  47.62300 34.50700 19.77700
C  49.61000 31.33000 20.98300
C  49.80300 30.82000 19.52000
N  46.83000 32.30900 25.37800
C  46.61200 31.30900 24.43400
C  45.64300 30.39500 25.03400
C  45.44200 30.80400 26.37000
C  46.15200 32.03200 26.48100
C  45.12900 29.12100 24.35700
C  44.78600 30.57500 27.64900
O  44.03300 29.66200 27.98200
C  45.28200 31.66100 28.60000
C  45.98000 30.94800 29.71300
O  46.96100 30.16700 29.64900
O  45.25700 31.11000 30.82800
C  45.57800 30.35200 32.10900
H  49.01100 37.64700 27.73000
H  49.35900 36.19400 21.61500
H  47.29800 30.41000 22.67600
H  46.13600 34.36500 30.22700
H  48.19800 36.09600 29.99600
H  45.82600 37.29900 28.66300
H  46.54000 37.78400 30.17800
H  45.43600 36.40200 30.15100
H  49.14900 34.13600 30.36800
H  48.16000 32.53900 30.22300
H  48.86700 33.58800 32.47900
H  47.53900 32.41700 32.08800
H  50.58200 38.87900 27.24000
H  49.87300 40.01600 26.09400
H  51.41500 39.18600 25.72500
H  52.25400 39.47100 23.96600
H  50.71000 40.40800 23.82100
H  51.89200 40.42300 22.46100
H  49.56600 33.85500 20.34700
H  47.63500 31.99800 20.45900
H  47.07800 35.31500 20.26500
H  46.88500 33.87400 19.28500
H  48.29500 34.88900 19.00900
H  49.50300 30.42900 21.58700
H  50.53600 31.78800 21.33000
H  49.23400 31.38200 18.77900
H  49.60000 29.75100 19.57000
H  50.87200 30.92100 19.33200
H  45.82500 28.28800 24.44900
H  44.83000 29.41800 23.35200
H  44.29800 28.74500 24.95400
H  44.40200 32.14100 29.03000
H  46.66200 30.34200 32.22900
H  45.14800 29.37300 31.89800
H  44.98100 30.77200 32.91800

