158

Mg 48.11100 15.45900 28.28500
C  45.86500 15.92400 30.89900
C  50.39100 17.19100 30.04500
C  50.01900 15.42100 25.48200
C  45.49100 14.04400 26.36600
N  48.03000 16.51600 30.16200
C  47.07600 16.46700 31.13300
C  47.55300 17.14200 32.42500
C  48.84600 17.80000 31.97000
C  49.16400 17.06400 30.64400
C  48.92100 19.38900 31.87400
C  47.57200 16.21900 33.63100
C  47.38200 16.90300 34.96600
H  47.37600 18.38900 35.11100
N  49.91600 16.23000 27.85500
C  50.71100 16.91900 28.69600
C  51.96500 17.18600 28.08700
C  51.95000 16.68800 26.79200
C  50.60900 16.04300 26.64800
C  52.99200 17.96300 28.86800
C  52.98400 16.78900 25.63800
O  52.69300 16.25200 24.55200
C  54.33400 17.39800 25.84300
N  47.74900 14.95300 26.16900
C  48.75200 14.91800 25.28200
C  48.29700 14.36400 23.89800
C  46.82300 13.83600 24.22700
C  46.64900 14.31400 25.68800
C  48.31400 15.40900 22.82600
C  46.48900 12.30800 24.02900
C  47.14200 11.32500 24.94300
N  46.12600 14.91200 28.57500
C  45.19100 14.31300 27.75100
C  44.01200 14.07400 28.49400
C  44.21600 14.70200 29.73200
C  45.53000 15.21400 29.73000
C  42.77300 13.45300 27.98100
C  43.54600 14.94500 30.99700
O  42.38100 14.73600 31.34200
C  44.60500 15.72400 31.91200
C  43.99500 16.91200 32.50600
O  44.05800 18.02100 32.04300
O  43.37800 16.55800 33.65700
C  42.79200 17.64400 34.43600
H  51.07800 17.78500 30.65200
H  50.67100 15.26200 24.62100
H  44.70300 13.45600 25.89000
H  46.83900 17.95200 32.57000
H  49.67600 17.47700 32.59800
H  49.39900 19.79200 32.76700
H  47.99000 19.92600 31.69200
H  49.55800 19.65100 31.02900
H  48.51700 15.67700 33.67800
H  46.80500 15.44500 33.63700
H  48.15900 16.43800 35.57200
H  46.38100 16.59000 35.26200
H  53.89300 18.17300 28.29200
H  53.19300 17.34400 29.74300
H  52.41100 18.83000 29.18400
H  54.03300 18.43700 25.97700
H  54.95400 17.29300 24.95200
H  54.84500 16.96700 26.70300
H  48.98100 13.58000 23.57100
H  46.10700 14.38800 23.61800
H  48.28800 16.39300 23.29200
H  47.56000 15.46200 22.04000
H  49.33100 15.48700 22.44200
H  47.01200 12.04400 23.11000
H  45.41200 12.14000 24.05900
H  47.80400 10.63500 24.42200
H  46.31100 10.79400 25.40600
H  47.79100 11.85400 25.64000
H  42.90600 13.07000 26.96900
H  42.02000 14.24100 27.97800
H  42.52300 12.58700 28.59300
H  44.92500 15.06800 32.72200
H  42.68900 18.65700 34.04700
H  43.47700 17.70400 35.28200
H  41.87700 17.24600 34.87400
Mg 16.63700 51.45600 26.32100
C  18.50500 49.97700 28.89900
C  14.45900 52.63600 28.78100
C  14.78300 52.71800 23.92600
C  18.97900 50.18000 24.03800
N  16.35700 51.07200 28.50000
C  17.32800 50.60200 29.33100
C  17.06600 50.98300 30.85200
C  15.56400 51.41400 30.77400
C  15.44100 51.71400 29.24200
C  14.50100 50.38500 31.23500
C  18.05900 52.11400 31.33100
C  18.59600 51.96700 32.78300
H  17.75600 51.12700 33.74600
N  14.83200 52.44700 26.33300
C  14.09500 52.92400 27.42500
C  12.91700 53.66900 26.95100
C  13.05000 53.75600 25.59700
C  14.28700 52.94000 25.23800
C  12.01800 54.33700 27.97500
C  12.10800 54.39600 24.60600
O  12.37200 54.39500 23.41200
C  10.84900 54.91300 25.01300
N  16.78200 51.36700 24.26300
C  15.98300 52.15100 23.50300
C  16.39700 52.08000 22.05600
C  17.83400 51.41900 22.11200
C  17.90000 50.95100 23.55900
C  15.39800 51.42400 21.02100
C  19.06200 52.37800 21.78400
C  20.35700 51.68400 21.34400
N  18.34200 50.17800 26.32000
C  19.18100 49.77400 25.35200
C  20.30400 49.04200 25.93500
C  20.01700 49.03600 27.31400
C  18.82800 49.74600 27.51200
C  21.53200 48.51900 25.21600
C  20.47700 48.51600 28.58400
O  21.46800 47.78300 28.82700
C  19.49600 49.24000 29.71400
C  19.03900 48.33100 30.84000
O  18.22300 47.41700 30.75900
O  19.87200 48.52400 31.89700
C  19.99100 47.49600 32.87900
H  13.90200 52.94800 29.66700
H  14.29400 53.35200 23.18400
H  19.76600 49.94800 23.31800
H  17.12700 50.09700 31.48400
H  15.45200 52.31600 31.37500
H  13.85400 50.83100 31.99100
H  14.93500 49.54900 31.78400
H  13.97200 49.93200 30.39700
H  17.52000 53.06100 31.33000
H  18.81200 52.10900 30.54300
H  18.67300 53.01700 33.06200
H  19.63400 51.63200 32.80800
H  12.28800 53.97500 28.96700
H  10.98800 54.03600 27.78500
H  12.09600 55.42200 27.92200
H  11.04300 55.81600 25.59100
H  10.35900 54.34200 25.80200
H  10.18500 54.93400 24.14900
H  16.69400 53.08600 21.75900
H  17.83300 50.47600 21.56500
H  15.04400 50.45700 21.37900
H  16.10800 51.20000 20.22500
H  14.65300 52.05900 20.54100
H  19.28500 52.87400 22.72900
H  18.75800 53.05400 20.98400
H  21.07000 51.84100 22.15300
H  20.71100 52.15200 20.42600
H  20.30600 50.61000 21.16500
H  21.82200 49.15900 24.38300
H  21.28700 47.48900 24.95700
H  22.33800 48.52200 25.95000
H  20.15100 50.01500 30.11300
H  20.46500 46.54600 32.63200
H  19.02900 47.19800 33.29500
H  20.51400 47.96200 33.71400

