158

Mg 35.79800 2.45600 29.76900
C  33.48400 3.40700 32.27100
C  38.24500 2.54300 32.18400
C  38.00900 1.73900 27.44900
C  33.26400 2.87000 27.43500
N  35.80900 2.96500 31.95500
C  34.76800 3.12700 32.80200
C  35.19100 3.13600 34.26500
C  36.71100 3.16800 34.14800
C  36.92900 2.75300 32.66600
C  37.31200 4.47300 34.59600
C  34.52700 1.92100 35.00100
C  33.81300 2.26400 36.37600
H  34.40200 3.30100 37.29600
N  37.89400 2.13800 29.84300
C  38.75600 2.21400 30.92600
C  40.07700 1.79400 30.51800
C  40.02600 1.46400 29.11000
C  38.67200 1.81800 28.71500
C  41.28300 1.80200 31.40500
C  41.19700 0.97900 28.22300
O  41.11500 0.81600 27.01900
C  42.58400 0.61000 28.76400
N  35.65800 2.43200 27.75800
C  36.69100 1.96800 26.96300
C  36.23300 1.62400 25.54200
C  34.77100 2.07300 25.48800
C  34.50700 2.46800 27.00800
C  37.12600 2.36700 24.52100
C  33.85000 1.01200 24.95500
C  32.54400 1.49500 24.22400
N  33.75700 3.05200 29.78100
C  32.87600 3.21100 28.71600
C  31.55800 3.67600 29.27300
C  31.73300 3.68900 30.69200
C  33.15200 3.41600 30.90800
C  30.34900 3.95700 28.42600
C  31.10200 3.88000 31.92300
O  29.93100 4.19500 32.14400
C  32.22200 3.70600 33.00900
C  32.30500 4.99300 33.80700
O  33.10300 5.87600 33.70700
O  31.32200 4.99200 34.80800
C  31.11900 6.01700 35.77900
H  38.98600 2.59700 32.98500
H  38.79600 1.47400 26.73900
H  32.48900 3.09100 26.69800
H  34.74500 4.03900 34.68000
H  37.14600 2.37400 34.75500
H  37.69000 4.35300 35.61100
H  36.54000 5.21000 34.37500
H  38.08200 4.73800 33.87300
H  35.30100 1.15400 35.02800
H  33.73500 1.56900 34.34100
H  33.61100 1.32900 36.89900
H  32.79500 2.48600 36.05600
H  42.22600 2.23200 31.06700
H  41.56400 0.75700 31.53700
H  41.01300 2.17800 32.39200
H  43.18000 0.14700 27.97700
H  42.56500 -0.05100 29.63100
H  43.16200 1.47500 29.08900
H  36.42000 0.58200 25.28500
H  34.70800 3.01000 24.93400
H  37.78900 1.64700 24.04200
H  37.79300 3.12500 24.93300
H  36.51400 2.71400 23.68900
H  33.56100 0.30700 25.73500
H  34.39600 0.36300 24.27000
H  32.44600 2.57700 24.31200
H  31.61100 0.94800 24.36600
H  32.74200 1.22600 23.18700
H  30.74100 4.62200 27.65700
H  29.54500 4.47600 28.94800
H  29.96500 3.11000 27.85800
H  31.95900 2.88000 33.67100
H  30.66400 5.62400 36.68800
H  30.45300 6.80400 35.42200
H  32.00100 6.49600 36.20400
Mg -5.58100 24.46400 26.32200
C  -3.81600 26.21800 28.65500
C  -6.94400 22.53700 28.66800
C  -7.27000 22.76800 23.77200
C  -3.99700 26.30500 23.76900
N  -5.49800 24.45300 28.46600
C  -4.73000 25.30300 29.24200
C  -5.14100 25.11400 30.71400
C  -5.84000 23.76200 30.71900
C  -6.13500 23.56700 29.18800
C  -5.11500 22.62100 31.45300
C  -6.14000 26.21900 31.11500
C  -6.44600 26.55000 32.58600
H  -5.96600 25.56500 33.66200
N  -6.92800 22.93800 26.25900
C  -7.42300 22.30300 27.35800
C  -8.37000 21.33000 26.95400
C  -8.46300 21.36000 25.54800
C  -7.54800 22.37300 25.15800
C  -9.19700 20.63000 28.05300
C  -9.50200 20.56500 24.63400
O  -9.49300 20.68400 23.36100
C  -10.55600 19.64400 25.24700
N  -5.55900 24.44300 24.06300
C  -6.36400 23.73600 23.24200
C  -6.38800 24.10600 21.76300
C  -5.28800 25.28200 21.85700
C  -4.89800 25.33200 23.31500
C  -5.97400 22.93900 20.85800
C  -5.89500 26.62900 21.36600
C  -5.54100 27.01400 19.88500
N  -4.17700 26.04400 26.20900
C  -3.64100 26.64300 25.10500
C  -2.59200 27.55500 25.57400
C  -2.62700 27.48700 27.02600
C  -3.61600 26.50200 27.27500
C  -1.69800 28.38700 24.79100
C  -2.04400 27.92500 28.30000
O  -1.18700 28.80800 28.56800
C  -2.92000 27.20200 29.39700
C  -2.13800 26.76900 30.59900
O  -1.71200 25.61900 30.75200
O  -2.02000 27.73600 31.58100
C  -1.69000 27.15400 32.90100
H  -7.41600 21.85900 29.38300
H  -7.74100 22.12100 23.03000
H  -3.47300 26.90300 23.02100
H  -4.25200 25.17700 31.34200
H  -6.85700 23.80300 31.11000
H  -4.55700 22.02500 30.73100
H  -5.75300 21.99000 32.07200
H  -4.32600 23.05300 32.06900
H  -7.12000 25.93900 30.72800
H  -5.72000 27.10900 30.64700
H  -7.48800 26.77000 32.82000
H  -5.90400 27.47700 32.77300
H  -9.60800 21.34300 28.76800
H  -8.52500 20.01100 28.64700
H  -10.03100 20.03200 27.68600
H  -9.95200 18.81900 25.62500
H  -11.15100 19.26100 24.41900
H  -11.32100 20.08100 25.88900
H  -7.37100 24.47800 21.47600
H  -4.41300 25.04500 21.25300
H  -4.97900 23.13500 20.46000
H  -6.68500 22.79700 20.04500
H  -5.89000 22.00700 21.41700
H  -5.53500 27.46800 21.96300
H  -6.97500 26.60100 21.50900
H  -4.81600 26.33600 19.43600
H  -5.13300 28.01500 19.74000
H  -6.49400 26.94200 19.36100
H  -1.25900 27.93000 23.90400
H  -0.88100 28.76400 25.40700
H  -2.28800 29.22600 24.42200
H  -3.58300 28.00700 29.71300
H  -1.75900 27.88700 33.70500
H  -0.68600 26.73200 32.94600
H  -2.42200 26.37200 33.10400

