158

Mg 0.83900 8.25700 26.86000
C  1.54200 10.44500 29.53400
C  0.81800 5.65400 28.94500
C  0.40900 6.19500 24.28900
C  1.13500 11.08200 24.67400
N  1.36400 8.08500 28.94200
C  1.53900 9.08100 29.84500
C  1.42000 8.49900 31.28400
C  1.45200 6.97900 31.08800
C  1.18500 6.87300 29.56300
C  2.85800 6.24800 31.38100
C  0.16700 9.02000 32.13900
C  0.36700 9.28200 33.69600
H  1.58700 8.56400 34.28200
N  0.44800 6.24900 26.69000
C  0.47000 5.33900 27.61700
C  0.27300 4.00900 27.12300
C  0.05700 4.11200 25.73300
C  0.30300 5.57700 25.51800
C  0.21600 2.75200 27.98600
C  -0.31000 3.04600 24.68200
O  -0.28000 3.20600 23.48200
C  -0.76400 1.64800 25.10800
N  1.05300 8.61900 24.78500
C  0.76600 7.58000 23.92600
C  0.72100 8.04500 22.45800
C  0.51200 9.61400 22.62800
C  0.98900 9.81200 24.11900
C  1.98400 7.55600 21.73600
C  -1.01200 9.99200 22.56500
C  -1.40600 10.68200 21.23000
N  1.32100 10.49600 26.99600
C  1.45500 11.45800 26.03300
C  1.56400 12.73300 26.75700
C  1.73400 12.47000 28.13600
C  1.52100 11.03200 28.24800
C  1.59800 14.00700 26.03400
C  1.88900 12.97500 29.44400
O  2.03500 14.09600 29.89600
C  1.76800 11.72200 30.34500
C  2.84100 11.63100 31.34000
O  3.90300 11.08300 31.11900
O  2.51100 12.24900 32.53700
C  3.48400 12.12400 33.61000
H  0.88400 4.88400 29.71700
H  0.21100 5.59600 23.39800
H  0.91000 11.84300 23.92400
H  2.28600 8.90900 31.80500
H  0.70500 6.42500 31.65700
H  3.36600 6.09800 30.42800
H  2.77700 5.37200 32.02400
H  3.46000 6.97500 31.92700
H  -0.67000 8.33300 32.01600
H  0.03700 9.99700 31.67300
H  -0.53700 9.04300 34.25700
H  0.51100 10.35800 33.78700
H  0.61300 1.97900 27.32900
H  -0.81500 2.52100 28.25200
H  0.83700 2.83700 28.87800
H  0.06800 0.99300 25.36800
H  -1.39300 1.28300 24.29600
H  -1.39500 1.63700 25.99700
H  -0.12300 7.50000 22.03600
H  1.07000 10.23100 21.92400
H  2.62400 7.03500 22.44800
H  2.62200 8.37100 21.39400
H  1.79000 6.84100 20.93700
H  -1.38100 10.59300 23.39600
H  -1.62500 9.10400 22.71700
H  -2.07400 10.03800 20.65900
H  -0.53700 10.93800 20.62500
H  -2.04000 11.55600 21.37600
H  0.56300 14.25900 25.80300
H  2.10600 13.82900 25.08700
H  2.18900 14.84500 26.40600
H  0.81200 11.79900 30.86400
H  4.41000 11.59800 33.38000
H  3.10000 11.62200 34.49800
H  3.63600 13.13100 34.00000
Mg 48.74200 34.61500 26.15600
C  46.59700 33.35400 28.75100
C  49.00600 37.38100 27.98200
C  50.36400 35.95100 23.59600
C  47.74200 31.89800 24.16500
N  48.06300 35.20700 28.15000
C  47.33100 34.49500 29.05100
C  47.57700 35.02700 30.46200
C  47.95200 36.53300 30.15100
C  48.43700 36.37000 28.67200
C  46.64400 37.44400 30.14400
C  48.68400 34.28300 31.32800
C  48.67200 34.51300 32.89400
H  47.49600 35.38800 33.45100
N  49.60800 36.38100 25.84900
C  49.57500 37.41500 26.71600
C  50.29500 38.54500 26.16000
C  50.64400 38.12700 24.84100
C  50.24000 36.76300 24.73700
C  50.51600 39.88900 26.89300
C  51.39500 38.91500 23.75100
O  51.79500 38.44400 22.72700
C  51.27700 40.36700 23.89200
N  49.01500 33.97900 24.14400
C  49.81900 34.68700 23.35100
C  50.11800 33.87400 22.04300
C  49.22900 32.63500 22.21000
C  48.67500 32.81200 23.60800
C  49.89600 34.68900 20.81000
C  49.95200 31.19500 22.16500
C  49.34900 30.16000 21.16700
N  47.47400 32.96700 26.35900
C  47.19900 31.94300 25.46800
C  46.24000 31.04600 26.14600
C  45.96200 31.54700 27.38100
C  46.74500 32.71500 27.45400
C  45.77300 29.79900 25.48600
C  45.27500 31.34500 28.60000
O  44.47300 30.46400 28.85400
C  45.77800 32.48500 29.62300
C  46.48200 31.77200 30.68800
O  47.32300 30.94300 30.47900
O  46.08400 32.17100 31.96300
C  46.66300 31.25500 32.95500
H  49.23200 38.27600 28.56700
H  50.91500 36.45000 22.79600
H  47.42300 31.10600 23.48300
H  46.62700 35.04500 30.99600
H  48.74200 36.93800 30.78300
H  46.04400 37.12800 30.99800
H  46.09700 37.29200 29.21300
H  46.96800 38.48300 30.20300
H  49.65600 34.56100 30.92000
H  48.58300 33.20600 31.19800
H  49.60200 35.05700 33.05500
H  48.72600 33.54900 33.40000
H  51.55900 40.20200 26.94200
H  50.20600 39.88700 27.93800
H  49.91400 40.66100 26.41300
H  51.93400 40.83100 24.62800
H  50.25200 40.66100 24.11600
H  51.57800 40.74300 22.91400
H  51.15400 33.55200 22.15400
H  48.37600 32.63400 21.53200
H  49.79300 34.05600 19.92900
H  50.84000 35.22200 20.70200
H  49.08700 35.42000 20.79900
H  50.08800 30.63600 23.09100
H  50.93400 31.52500 21.82500
H  50.03600 30.17700 20.32100
H  48.37200 30.47700 20.80200
H  49.25400 29.16900 21.61300
H  45.41500 30.21300 24.54300
H  44.84300 29.44800 25.93300
H  46.50900 28.99600 25.44500
H  44.79600 32.87600 29.88900
H  46.58200 31.82100 33.88300
H  47.71600 30.98500 32.87200
H  46.18700 30.27700 33.03000

