158

Mg 47.40400 14.37600 27.41800
C  45.41900 14.27400 30.31400
C  49.61500 16.43200 29.10100
C  49.24600 14.30600 24.64000
C  44.88200 12.54600 25.77100
N  47.50300 15.21900 29.45100
C  46.64100 14.95000 30.53100
C  47.13900 15.65000 31.77500
C  48.24700 16.57600 31.25000
C  48.45600 16.05500 29.80500
C  47.98400 18.16600 31.21100
C  47.54600 14.67300 32.90500
C  47.16200 15.21200 34.28200
H  48.03600 14.83900 35.49500
N  49.19000 15.35400 26.93400
C  49.97100 16.07200 27.79100
C  51.19100 16.43500 27.12600
C  51.14700 15.84000 25.81700
C  49.83400 15.09500 25.72000
C  52.31200 17.23800 27.76700
C  52.07000 15.84500 24.70800
O  51.91500 15.17000 23.66900
C  53.36900 16.65800 24.76000
N  46.93100 13.74600 25.38100
C  47.93500 13.75300 24.46200
C  47.52500 13.13500 23.14000
C  46.15200 12.43100 23.53400
C  45.98700 12.86200 24.99100
C  47.42800 14.08000 21.93100
C  46.21800 10.89600 23.33800
C  46.68600 10.09600 24.55800
N  45.56800 13.57800 27.88100
C  44.63100 12.90500 27.09300
C  43.47900 12.55900 27.91300
C  43.73000 13.07100 29.14900
C  45.01200 13.65600 29.13800
C  42.25400 11.85300 27.57700
C  43.19300 13.29800 30.41700
O  42.12600 13.03200 30.87800
C  44.31500 13.98400 31.34000
C  43.67900 15.15600 32.09100
O  43.06300 16.04100 31.48400
O  43.79500 15.14600 33.43600
C  42.97300 16.19100 34.09400
H  50.24900 17.17600 29.58800
H  49.76900 14.18600 23.69000
H  44.22400 11.88200 25.20800
H  46.29500 16.32700 31.91100
H  49.22900 16.32000 31.64600
H  47.20700 18.50300 31.89700
H  47.65600 18.49000 30.22400
H  48.85800 18.80700 31.32100
H  48.61600 14.48000 32.82900
H  47.00800 13.73200 32.79300
H  46.19900 14.75400 34.50800
H  47.05200 16.29300 34.37100
H  52.33200 17.25700 28.85600
H  52.12700 18.29600 27.57900
H  53.34100 17.02300 27.47700
H  54.14900 16.09700 25.27600
H  53.24500 17.65900 25.17100
H  53.69300 16.83000 23.73400
H  48.28000 12.40500 22.85000
H  45.30800 12.82500 22.96700
H  47.87500 15.03700 22.19900
H  46.38300 14.14600 21.62600
H  48.02600 13.66000 21.12200
H  46.88800 10.54800 22.55300
H  45.20500 10.58600 23.08000
H  47.16200 9.15800 24.27100
H  45.83100 9.59900 25.01600
H  47.41600 10.58200 25.20600
H  42.04000 12.10800 26.53900
H  41.47800 12.29000 28.20600
H  42.24500 10.78900 27.81200
H  44.65000 13.28500 32.10600
H  41.99600 16.17300 33.61100
H  43.56200 17.10700 34.06000
H  42.88900 15.93400 35.15000
Mg 30.04900 59.09500 39.99700
C  27.00900 57.58600 38.76300
C  31.62700 56.30200 39.14900
C  32.87500 60.94600 40.12600
C  28.12100 62.08600 40.15800
N  29.36100 57.18200 39.13000
C  28.12700 56.75300 38.62200
C  28.23600 55.29000 38.10500
C  29.58600 54.82400 38.74800
C  30.22600 56.19800 39.04900
C  29.32400 53.97600 39.98500
C  28.30400 55.11400 36.51800
C  27.15700 54.33300 35.82400
H  26.08400 55.15900 35.17800
N  31.99700 58.63000 39.81500
C  32.45800 57.48600 39.35800
C  33.86200 57.50900 39.33500
C  34.29900 58.81100 39.69100
C  33.04100 59.53000 39.91600
C  34.66700 56.30100 38.90600
C  35.73900 59.24800 39.84200
O  36.61400 58.45900 39.57700
C  36.15700 60.53100 40.35700
N  30.42500 61.29600 39.98500
C  31.68300 61.72700 40.13500
C  31.65900 63.21900 40.37300
C  30.19700 63.68700 40.27800
C  29.52200 62.31000 40.19200
C  32.45500 63.54600 41.68500
C  29.86600 64.56800 39.03700
C  30.30600 66.07000 39.16400
N  27.95600 59.65500 39.83500
C  27.42100 60.87900 39.93100
C  26.00600 60.83800 39.55800
C  25.75700 59.46800 39.32000
C  26.97100 58.81800 39.35600
C  25.04600 61.94000 39.34500
C  24.75200 58.50300 38.91100
O  23.55600 58.66600 38.80200
C  25.58600 57.19700 38.52600
C  25.12500 56.10000 39.44100
O  25.21800 56.13600 40.66600
O  24.65500 55.03000 38.71700
C  24.40500 53.79300 39.55700
H  32.19900 55.40800 38.89100
H  33.76400 61.57500 40.20600
H  27.43200 62.92700 40.06100
H  27.35800 54.72500 38.41900
H  30.26200 54.33800 38.04400
H  29.77700 54.59000 40.76400
H  29.93300 53.07500 40.05500
H  28.28600 53.69100 40.15600
H  29.27100 54.67800 36.26800
H  28.27600 56.09200 36.03900
H  26.82900 53.60300 36.56400
H  27.61800 53.73300 35.03900
H  35.10100 55.83500 39.79000
H  35.48400 56.61500 38.25600
H  34.14300 55.53700 38.33100
H  37.24300 60.47700 40.44000
H  35.74300 60.53200 41.36500
H  35.76000 61.34600 39.75100
H  32.18600 63.55500 39.48000
H  29.89700 64.19100 41.19600
H  31.72900 63.85400 42.43800
H  33.14400 64.37400 41.51700
H  32.99400 62.70000 42.11100
H  28.78700 64.57700 38.88200
H  30.17300 64.06400 38.12000
H  29.45600 66.75200 39.18900
H  30.75200 66.32400 38.20300
H  30.96000 66.22200 40.02300
H  24.06500 61.64400 38.97500
H  25.58400 62.58900 38.65400
H  25.03700 62.50400 40.27800
H  25.43600 56.97700 37.46900
H  23.96000 53.05100 38.89400
H  23.66700 53.98000 40.33800
H  25.26100 53.33600 40.05400

