158

Mg 17.27500 -3.12000 27.75500
C  16.55300 -1.02100 30.60700
C  19.22700 -5.01600 29.75900
C  18.46000 -4.50600 24.96800
C  15.39200 -0.82100 25.68200
N  17.88700 -2.89000 29.88400
C  17.38900 -2.10800 30.87600
C  17.81400 -2.57600 32.25000
C  18.92800 -3.64000 31.89100
C  18.66300 -3.89800 30.42400
C  20.44700 -3.37200 32.26900
C  16.69000 -3.11500 33.22900
C  16.62600 -2.51700 34.63400
H  17.91700 -1.96800 35.31300
N  18.52100 -4.64500 27.41600
C  19.19500 -5.34500 28.37800
C  19.88600 -6.49600 27.77400
C  19.61100 -6.30200 26.35800
C  18.75200 -5.13100 26.19800
C  20.62500 -7.49400 28.56100
C  20.02000 -7.17200 25.19700
O  19.73800 -6.99400 24.03500
C  20.77100 -8.44300 25.56900
N  16.82700 -2.83500 25.63500
C  17.56300 -3.49400 24.70100
C  17.47300 -2.81100 23.32700
C  16.23500 -1.84900 23.59800
C  16.12300 -1.79100 25.07600
C  18.67000 -2.08100 22.77800
C  14.90400 -2.38800 22.96300
C  13.91300 -1.31900 22.46600
N  16.22300 -1.32600 28.02800
C  15.40700 -0.56700 27.12400
C  14.77300 0.47500 27.85100
C  15.21000 0.31200 29.15800
C  16.10900 -0.76500 29.26100
C  13.78500 1.38600 27.23900
C  15.13600 0.87800 30.42300
O  14.47300 1.82400 30.74600
C  15.94700 0.03100 31.47900
C  16.85800 0.95100 32.27100
O  18.07800 1.08500 32.23700
O  15.98500 1.57400 33.13100
C  16.60800 2.54400 34.02500
H  19.66800 -5.78300 30.39900
H  18.97800 -4.78300 24.04700
H  14.88400 -0.16200 24.97500
H  18.38100 -1.72200 32.62200
H  18.75000 -4.63000 32.31100
H  20.93500 -4.29900 32.57200
H  20.69200 -2.70300 33.09400
H  21.10100 -3.17600 31.41900
H  16.76000 -4.20000 33.30900
H  15.75200 -2.90300 32.71500
H  16.29900 -3.26800 35.35300
H  15.87500 -1.74200 34.48000
H  21.51400 -7.85500 28.04400
H  19.84400 -8.21700 28.79600
H  21.02400 -7.05000 29.47400
H  20.40900 -9.05000 26.40000
H  21.80800 -8.14900 25.73500
H  20.72300 -9.09600 24.69800
H  17.28100 -3.46600 22.47800
H  16.48800 -0.89500 23.13500
H  18.65200 -1.02600 23.05200
H  18.74100 -2.08500 21.69100
H  19.52700 -2.62200 23.18000
H  14.32800 -2.95400 23.69500
H  15.13800 -3.01300 22.10100
H  13.50200 -1.51300 21.47500
H  14.28600 -0.29500 22.46200
H  13.14500 -1.29500 23.23900
H  12.94500 0.77600 26.90600
H  14.17100 1.83900 26.32500
H  13.54900 2.23100 27.88600
H  15.22500 -0.45800 32.13300
H  16.95300 3.40000 33.44500
H  17.51300 2.16000 34.49700
H  15.93400 2.72600 34.86300
Mg 36.63600 50.50300 25.32100
C  36.41000 48.68600 28.30700
C  35.39900 53.27600 26.96600
C  36.46800 52.07300 22.32800
C  37.16400 47.40600 23.61600
N  35.96200 50.88500 27.43200
C  36.11000 50.02100 28.52200
C  35.80900 50.76000 29.81400
C  35.26300 52.19100 29.33500
C  35.59000 52.13400 27.83400
C  33.83900 52.60900 29.69100
C  37.12900 50.79700 30.64200
C  36.94100 50.55200 32.13800
H  35.51400 50.46200 32.77000
N  36.05300 52.41200 24.68300
C  35.64000 53.42900 25.61400
C  35.50800 54.62900 24.85800
C  35.65500 54.31100 23.40000
C  36.04900 52.86200 23.36700
C  35.22200 55.91200 25.57200
C  35.63900 55.16800 22.07800
O  35.88400 54.77500 20.97000
C  35.29000 56.61100 22.11100
N  36.67800 49.85600 23.31600
C  36.73000 50.72200 22.24700
C  37.19500 50.05900 20.92200
C  37.63700 48.60800 21.46500
C  37.23500 48.60800 22.94300
C  36.23000 49.99400 19.75700
C  39.17100 48.32400 21.29500
C  40.20100 48.82100 22.30600
N  36.81600 48.45900 25.79400
C  36.99600 47.31600 25.00700
C  37.15400 46.22700 25.81300
C  36.91100 46.73500 27.10400
C  36.66400 48.11900 27.06900
C  37.56400 44.79200 25.38400
C  36.87200 46.34200 28.49900
O  37.06500 45.24100 29.01500
C  36.52600 47.67000 29.37100
C  35.27300 47.28900 30.17100
O  34.12500 47.53300 29.83600
O  35.63900 46.38400 31.10600
C  34.57500 45.96200 32.01200
H  35.04600 54.17300 27.47700
H  36.74100 52.50500 21.36300
H  37.34800 46.46900 23.08600
H  34.99800 50.22100 30.30400
H  35.97100 52.91400 29.74000
H  33.37400 52.61500 28.70500
H  33.70700 53.60200 30.12200
H  33.47800 51.84400 30.37800
H  37.56200 51.76600 30.39200
H  37.89900 50.14900 30.22200
H  37.35100 51.44200 32.61600
H  37.54100 49.71400 32.49400
H  35.99300 56.17500 26.29600
H  34.26600 55.83400 26.09000
H  35.17800 56.70300 24.82300
H  35.38100 57.05200 21.11900
H  35.95100 57.12300 22.81100
H  34.31800 56.77800 22.57600
H  38.08800 50.67600 20.81600
H  37.00100 47.86400 20.98600
H  35.21200 50.05600 20.14200
H  36.32400 49.10300 19.13600
H  36.49200 50.86100 19.15000
H  39.42300 48.66600 20.29100
H  39.19100 47.24100 21.17900
H  40.89900 47.98500 22.34000
H  39.75300 48.97300 23.28800
H  40.64200 49.77400 22.01300
H  36.85600 43.97000 25.48100
H  38.44700 44.60700 25.99500
H  37.93300 44.85700 24.36000
H  37.35300 47.82100 30.06600
H  34.91300 45.39000 32.87600
H  33.87300 45.30300 31.50200
H  34.12600 46.86200 32.43400

