158

Mg 27.80000 51.74500 26.01300
C  26.02700 52.70300 28.98100
C  30.35700 50.68800 28.35600
C  29.69400 50.89500 23.41500
C  25.35900 53.17800 24.04100
N  28.14700 51.73100 28.43600
C  27.23100 52.12700 29.35800
C  27.69000 51.95300 30.79800
C  29.15400 51.40400 30.57000
C  29.28200 51.22500 29.06400
C  30.30800 52.21300 31.27100
C  26.72600 51.10400 31.69800
C  26.36800 51.72100 33.09800
H  27.21500 51.25900 34.30900
N  29.73900 50.94000 25.88100
C  30.58700 50.48500 26.94200
C  31.67500 49.73800 26.37200
C  31.62400 49.91000 24.96600
C  30.30200 50.61200 24.72900
C  32.66200 49.08600 27.28100
C  32.70200 49.49100 23.99600
O  32.56400 49.72900 22.85400
C  33.96000 48.83900 24.45800
N  27.66400 52.10200 24.01700
C  28.47300 51.55400 23.10400
C  28.00000 51.83600 21.72600
C  26.58600 52.47600 21.82200
C  26.49400 52.53300 23.40100
C  28.99200 52.77000 21.01200
C  25.42400 51.68800 21.14500
C  25.14600 50.20800 21.51900
N  26.04700 52.78600 26.35800
C  25.20800 53.41700 25.45500
C  24.14000 54.05200 26.12500
C  24.33100 53.78300 27.48200
C  25.55200 52.99600 27.61900
C  23.00100 54.76800 25.49400
C  23.81000 53.92400 28.82900
O  22.87000 54.46700 29.33000
C  24.91300 53.15400 29.85600
C  25.25200 54.35700 30.76100
O  26.10100 55.20700 30.60000
O  24.58900 54.29400 31.88800
C  24.75200 55.31800 32.92300
H  31.24500 50.43600 28.93900
H  30.22600 50.54300 22.52900
H  24.65500 53.63500 23.34300
H  27.69500 52.95100 31.23600
H  29.17700 50.34800 30.83800
H  30.82600 52.69100 30.44000
H  30.90400 51.45200 31.77400
H  29.88300 52.98400 31.91400
H  27.10400 50.10800 31.92700
H  25.74800 50.99400 31.23000
H  25.33000 51.42600 33.25100
H  26.45400 52.80700 33.13200
H  32.17600 48.80000 28.21400
H  33.44600 49.84000 27.35700
H  33.02200 48.16900 26.81500
H  34.71000 48.92300 23.67100
H  33.80700 47.79600 24.73600
H  34.24100 49.56700 25.21900
H  28.08300 50.88100 21.20700
H  26.51700 53.51400 21.49600
H  28.51700 53.64600 20.57100
H  29.45500 52.27600 20.15800
H  29.75500 53.18800 21.66900
H  25.48600 51.73200 20.05800
H  24.44400 52.15800 21.23000
H  24.07600 50.06800 21.67700
H  25.76100 49.84300 22.34100
H  25.41100 49.50100 20.73200
H  23.34800 55.35300 24.64200
H  22.71300 55.43400 26.30700
H  22.27900 54.00400 25.20500
H  24.34400 52.44400 30.45600
H  23.82900 55.41400 33.49500
H  25.01600 56.27400 32.47100
H  25.45700 54.97800 33.68300
Mg -4.31000 24.71100 26.00900
C  -2.96000 25.82400 28.94900
C  -6.60700 22.84700 27.86600
C  -5.66000 23.36700 23.19200
C  -1.94900 26.30000 24.16700
N  -4.56700 24.33500 28.14300
C  -4.10100 25.09800 29.22700
C  -4.67500 24.65300 30.58000
C  -5.56000 23.46400 30.15700
C  -5.61300 23.51700 28.61900
C  -5.10800 22.12600 30.74600
C  -5.52700 25.87900 31.25300
C  -5.69700 25.80000 32.82200
H  -4.95900 24.70600 33.73400
N  -5.97800 23.38300 25.60200
C  -6.79700 22.80800 26.49000
C  -7.81700 22.05500 25.81600
C  -7.59900 22.23000 24.40100
C  -6.36500 23.06200 24.33000
C  -8.98400 21.33200 26.51000
C  -8.43300 21.73600 23.18500
O  -8.03900 21.79600 22.01000
C  -9.71000 21.06500 23.48100
N  -3.88000 24.91300 23.94700
C  -4.52000 24.22100 22.99000
C  -3.71700 24.27600 21.68000
C  -2.52300 25.21300 22.02500
C  -2.74500 25.47900 23.42800
C  -3.26200 22.84200 21.28900
C  -2.43500 26.45900 21.14200
C  -1.19800 26.51800 20.26600
N  -2.75000 25.93500 26.43600
C  -1.82600 26.50400 25.54500
C  -0.89000 27.32900 26.31700
C  -1.31400 27.11100 27.67800
C  -2.36500 26.17400 27.65800
C  0.22400 28.20200 25.94600
C  -0.92300 27.37300 29.09600
O  -0.10100 28.16200 29.50500
C  -2.01200 26.67800 29.89500
C  -1.37800 26.00200 31.03100
O  -0.47400 25.16300 30.85700
O  -1.85500 26.44700 32.17200
C  -1.10300 25.91100 33.28200
H  -7.34100 22.17600 28.31700
H  -5.93000 22.88100 22.25200
H  -1.30900 26.97800 23.59800
H  -3.90900 24.39700 31.31200
H  -6.57400 23.56700 30.54300
H  -5.98000 21.75100 31.28200
H  -4.28900 22.19700 31.46100
H  -4.86100 21.36800 30.00300
H  -6.49200 26.04800 30.77700
H  -4.92700 26.78700 31.19400
H  -6.78200 25.69700 32.83200
H  -5.54800 26.70200 33.41500
H  -9.06100 21.63000 27.55600
H  -8.80200 20.26200 26.41000
H  -9.92600 21.59000 26.02600
H  -10.16900 20.78300 22.53400
H  -10.28500 21.80200 24.04100
H  -9.56800 20.22000 24.15600
H  -4.39600 24.75300 20.97300
H  -1.58100 24.68700 21.86900
H  -2.18000 22.71100 21.29100
H  -3.49000 22.63800 20.24300
H  -3.49600 22.10700 22.05900
H  -2.42700 27.38000 21.72600
H  -3.30500 26.50600 20.48800
H  -0.60400 25.60600 20.20700
H  -0.52700 27.22700 20.75000
H  -1.32700 26.99800 19.29500
H  0.39500 28.21100 24.87000
H  1.10900 27.78100 26.42400
H  0.09900 29.25200 26.20900
H  -2.54900 27.52500 30.32200
H  -0.04800 25.98000 33.02000
H  -1.32100 24.85700 33.45600
H  -1.36900 26.50700 34.15500

