158

Mg 48.27900 24.23500 28.07500
C  49.32500 26.56300 30.57100
C  47.44700 21.98400 30.54500
C  47.27400 22.19800 25.65400
C  49.63400 26.47300 25.66900
N  48.36800 24.28300 30.29800
C  48.76000 25.38500 31.09200
C  48.45500 25.10400 32.55100
C  48.05700 23.57300 32.56700
C  47.91300 23.27100 31.03700
C  49.05100 22.58400 33.27600
C  47.39900 26.03900 33.17800
C  47.97800 26.61800 34.55400
H  47.11200 27.01300 35.72200
N  47.50900 22.37100 28.11300
C  47.28200 21.55000 29.18800
C  46.71300 20.29300 28.72500
C  46.55400 20.43100 27.31100
C  47.14000 21.68900 26.94500
C  46.23900 19.17300 29.67700
C  45.96400 19.45900 26.34500
O  46.20000 19.51800 25.13300
C  45.08000 18.30300 26.74300
N  48.58000 24.31200 25.99300
C  47.90700 23.36800 25.22500
C  48.10300 23.71800 23.70600
C  48.81000 25.16900 23.76300
C  49.04000 25.33700 25.20500
C  48.85800 22.63900 22.86700
C  47.92800 26.26800 23.16200
C  48.57900 27.55800 22.66900
N  49.33400 26.10900 28.06000
C  49.79200 26.89300 27.01900
C  50.41800 28.09900 27.48500
C  50.22900 28.00200 28.86900
C  49.67700 26.76800 29.17000
C  51.14800 29.06600 26.63300
C  50.56800 28.63900 30.14400
O  51.14100 29.65900 30.42900
C  49.99800 27.77900 31.35400
C  51.03400 27.36700 32.21700
O  51.91500 26.54000 31.93100
O  50.92700 27.94600 33.42200
C  51.78500 27.51500 34.53000
H  47.18100 21.40600 31.43200
H  46.79000 21.64700 24.84500
H  49.95000 27.19200 24.90900
H  49.43000 25.20100 33.02900
H  47.10300 23.35000 33.04600
H  49.36400 21.77600 32.61500
H  48.53600 22.14100 34.12800
H  49.94100 22.96900 33.77400
H  46.45300 25.57000 33.45000
H  47.10300 26.75700 32.41300
H  48.53700 27.54000 34.39800
H  48.65000 25.82600 34.88600
H  46.61500 18.22300 29.29700
H  45.14900 19.15300 29.70300
H  46.61000 19.39400 30.67800
H  45.58800 17.57600 27.37600
H  44.77200 17.72700 25.87100
H  44.19500 18.74700 27.19800
H  47.08300 23.88900 23.36400
H  49.79200 25.08200 23.29700
H  48.91200 21.59900 23.18800
H  49.85500 23.02400 22.64800
H  48.29000 22.73000 21.94200
H  47.36000 26.67900 23.99700
H  47.21700 25.93800 22.40400
H  48.30300 27.78800 21.64000
H  49.65800 27.51800 22.81400
H  48.19500 28.38000 23.27400
H  50.42300 29.46800 25.92500
H  51.97300 28.54500 26.14700
H  51.60500 29.89400 27.17500
H  49.22500 28.43300 31.75600
H  52.85000 27.64900 34.33700
H  51.60500 26.47300 34.79500
H  51.44200 28.10600 35.37900
Mg -11.06000 39.24900 41.14600
C  -9.65200 36.15100 40.33600
C  -8.45000 40.83500 39.48400
C  -12.88100 42.14400 41.15400
C  -13.80300 37.46000 42.22800
N  -9.28200 38.54000 40.12900
C  -9.00000 37.23900 39.74600
C  -7.76100 37.25900 38.80500
C  -7.15800 38.70700 39.07000
C  -8.40700 39.43100 39.59900
C  -6.03900 38.53000 40.12000
C  -8.18200 37.05700 37.40300
C  -7.23100 36.15400 36.56500
H  -7.02600 36.51600 35.10900
N  -10.71000 41.23800 40.51200
C  -9.57700 41.65200 39.84100
C  -9.64300 43.13800 39.71600
C  -10.83500 43.56500 40.30700
C  -11.55500 42.28100 40.62500
C  -8.55400 43.82300 39.02700
C  -11.19900 45.06600 40.50200
O  -10.35700 45.94800 40.23400
C  -12.45300 45.45800 41.15100
N  -13.06200 39.70600 41.41200
C  -13.56300 40.96900 41.43700
C  -14.99200 40.97500 41.84000
C  -15.33800 39.44900 42.04300
C  -14.03000 38.80200 41.79700
C  -15.31300 41.92200 43.10500
C  -16.45600 38.86700 41.13300
C  -17.87000 38.58500 41.75100
N  -11.60400 37.19500 41.40000
C  -12.70700 36.65700 41.92400
C  -12.56100 35.22800 42.03700
C  -11.31600 34.99600 41.42300
C  -10.82300 36.20800 40.99600
C  -13.51800 34.25700 42.66600
C  -10.36900 33.96900 41.13500
O  -10.32300 32.74300 41.37300
C  -9.25500 34.70900 40.25100
C  -7.94800 34.44900 40.97500
O  -7.38700 35.11900 41.83700
O  -7.39400 33.30600 40.39400
C  -6.23000 32.86800 41.11200
H  -7.56400 41.28900 39.03600
H  -13.38100 43.07100 41.44600
H  -14.69200 36.92700 42.57100
H  -7.09400 36.46500 39.14000
H  -6.92400 39.29900 38.18500
H  -6.17000 37.74000 40.86000
H  -5.89700 39.38600 40.78000
H  -5.15700 38.39300 39.49400
H  -8.14900 37.97900 36.82200
H  -9.18900 36.64300 37.36300
H  -7.47900 35.09300 36.61300
H  -6.26100 36.31300 37.03600
H  -8.57400 43.61000 37.95900
H  -7.59800 43.53800 39.46500
H  -8.70800 44.90100 39.09200
H  -12.44300 44.97000 42.12600
H  -13.31900 45.03700 40.64100
H  -12.57100 46.54100 41.19900
H  -15.63800 41.32700 41.03600
H  -15.74400 39.39300 43.05300
H  -14.55300 42.59800 43.49600
H  -15.59200 41.37000 44.00200
H  -16.21700 42.45200 42.80300
H  -16.23800 37.87100 40.74800
H  -16.66900 39.44400 40.23300
H  -17.74800 37.91100 42.59900
H  -18.60400 38.36800 40.97500
H  -18.10700 39.57500 42.14000
H  -13.54800 34.48100 43.73200
H  -13.29900 33.20500 42.48300
H  -14.57500 34.43200 42.46600
H  -9.17100 34.47000 39.19100
H  -6.04800 31.88800 40.67100
H  -6.42200 32.67800 42.16800
H  -5.45900 33.59500 40.85600

