158

Mg 34.29100 2.90100 29.25900
C  32.37400 3.48500 31.93000
C  36.95800 2.34300 31.37700
C  36.18900 2.93900 26.59000
C  31.42600 3.46300 27.14600
N  34.52500 2.80900 31.33100
C  33.64600 3.17900 32.25000
C  34.21300 3.21000 33.73600
C  35.73900 2.82100 33.56900
C  35.77000 2.66400 31.96900
C  36.85300 3.75200 34.08500
C  33.48200 2.24900 34.79100
C  33.13200 2.81500 36.13100
H  34.24500 3.83900 36.67400
N  36.30000 2.42800 29.02700
C  37.25000 2.18100 29.99900
C  38.46200 1.80400 29.32900
C  38.32500 2.09100 27.91400
C  36.87100 2.44300 27.76100
C  39.68100 1.29900 30.10500
C  39.33200 2.03900 26.78300
O  39.02800 2.46700 25.72100
C  40.76700 1.34800 27.01300
N  33.89000 3.28800 27.18400
C  34.87600 3.35400 26.31600
C  34.42300 3.66800 24.84900
C  32.83300 3.52600 24.99200
C  32.68900 3.41600 26.50600
C  35.02800 4.95400 24.31400
C  32.29800 2.16500 24.37900
C  30.91100 2.10400 23.70300
N  32.27300 3.36800 29.41000
C  31.23600 3.56100 28.56200
C  30.03600 3.95400 29.25400
C  30.44800 3.92300 30.53100
C  31.78600 3.48900 30.59000
C  28.66100 4.21300 28.70300
C  29.93200 4.06400 31.83600
O  28.79700 4.31900 32.24900
C  31.16100 3.83200 32.80700
C  31.27500 5.09500 33.59200
O  31.81700 6.17500 33.27400
O  30.63300 4.89400 34.80100
C  30.37200 5.98900 35.71200
H  37.81800 2.08200 31.99800
H  36.69000 2.99400 25.62100
H  30.60300 3.43000 26.42800
H  34.10200 4.23100 34.10100
H  35.97100 1.81300 33.91100
H  37.46000 3.14000 34.75100
H  36.48900 4.56700 34.71200
H  37.43400 4.17200 33.26400
H  34.16300 1.43200 35.03000
H  32.60200 1.90500 34.24700
H  32.93200 2.12100 36.94700
H  32.23200 3.42500 36.04800
H  39.31400 1.10900 31.11300
H  40.38800 2.12700 30.16400
H  40.03300 0.39700 29.60600
H  40.60200 0.37700 27.48000
H  41.36800 2.10300 27.52000
H  41.15400 1.15400 26.01300
H  34.84500 2.81800 24.31300
H  32.29900 4.44200 24.74000
H  34.19800 5.28100 23.68800
H  35.83900 4.65700 23.65000
H  35.29600 5.66700 25.09400
H  32.12900 1.42000 25.15600
H  33.02300 1.65500 23.74400
H  30.05300 1.64000 24.18800
H  31.06500 1.51800 22.79700
H  30.53000 3.08200 23.40600
H  28.12000 3.32800 29.03800
H  28.64000 4.37200 27.62500
H  28.37900 5.15200 29.17900
H  30.81800 3.00100 33.42400
H  30.62100 5.66300 36.72200
H  29.35500 6.36800 35.81000
H  31.03600 6.83500 35.53500
Mg 17.79300 52.99900 25.76100
C  19.64600 51.59100 28.43700
C  15.19400 53.42500 27.93200
C  15.82800 53.83100 23.27000
C  20.32100 51.89700 23.52200
N  17.47000 52.73000 27.94500
C  18.37900 52.08100 28.80100
C  17.82200 52.06100 30.18400
C  16.26400 52.45500 30.00300
C  16.33400 52.93600 28.55800
C  15.20400 51.45400 30.44300
C  18.57900 53.14100 31.07500
C  18.45100 53.09300 32.61200
H  17.40600 52.21800 33.23200
N  15.98400 53.87700 25.72500
C  15.05800 53.94900 26.64500
C  13.91600 54.71900 26.18400
C  14.12000 54.91700 24.79600
C  15.33900 54.18600 24.51900
C  12.73900 55.07700 27.04200
C  13.30600 55.68000 23.74100
O  13.67800 55.94300 22.58100
C  11.91600 56.16800 24.06300
N  18.11900 52.88000 23.72900
C  17.08300 53.28200 22.87600
C  17.47900 53.18300 21.41700
C  19.02400 52.69800 21.57300
C  19.15000 52.41100 23.03500
C  16.58200 52.14300 20.69300
C  20.14100 53.70400 21.10500
C  20.36900 55.03600 21.94100
N  19.63200 51.89800 25.90900
C  20.58800 51.61500 24.89900
C  21.71800 51.05100 25.57300
C  21.43400 51.08600 26.99300
C  20.09200 51.51800 27.10500
C  22.98100 50.63300 25.03000
C  21.95900 50.73800 28.34300
O  23.00600 50.29400 28.65000
C  20.79000 51.08200 29.21800
C  20.45900 49.95300 30.12800
O  19.94300 48.91800 29.75200
O  20.73800 50.26800 31.43500
C  20.29700 49.20800 32.38300
H  14.35200 53.64800 28.59100
H  15.16100 53.98600 22.41900
H  21.12200 51.51300 22.88900
H  17.99300 51.09400 30.65700
H  16.21500 53.40000 30.54400
H  14.39800 51.92700 31.00500
H  15.55800 50.57400 30.98000
H  14.67600 51.06300 29.57400
H  18.23200 54.13900 30.80400
H  19.63600 53.06600 30.81900
H  18.30700 54.11800 32.95300
H  19.43800 52.86400 33.01400
H  12.08400 54.21600 27.17400
H  12.14500 55.91200 26.66900
H  12.97300 55.39100 28.05900
H  11.45000 56.48500 23.13000
H  12.08600 57.02400 24.71500
H  11.24300 55.46500 24.55400
H  17.42900 54.19400 21.01100
H  19.14600 51.77300 21.00900
H  15.76000 51.86000 21.35000
H  17.08200 51.26600 20.28100
H  16.00400 52.59900 19.88900
H  19.87300 53.81500 20.05400
H  21.07500 53.15400 20.99200
H  20.02100 54.81800 22.95000
H  19.81500 55.81200 21.41400
H  21.40100 55.38700 21.93400
H  23.28900 51.36900 24.28800
H  22.86300 49.62200 24.63800
H  23.71700 50.79000 25.81800
H  21.21500 51.98000 29.66700
H  20.97900 48.35800 32.37900
H  19.27000 48.84900 32.31100
H  20.21200 49.67100 33.36600

