158

Mg 1.17300 -2.54100 44.50600
C  4.67100 -2.21200 43.62000
C  0.55500 0.10200 42.47400
C  -2.04400 -3.70700 44.20900
C  2.01000 -5.57900 46.06000
N  2.50700 -1.37300 43.07300
C  3.88000 -1.25100 42.99000
C  4.33600 -0.14800 41.99500
C  3.00600 0.71700 42.01700
C  1.92800 -0.25900 42.54900
C  3.03700 1.99300 42.86000
C  4.77900 -0.60400 40.54500
C  6.19000 -0.07400 40.10500
H  6.29500 0.73700 38.84700
N  -0.57500 -1.85000 43.62500
C  -0.59100 -0.67800 42.86500
C  -1.93900 -0.39400 42.44000
C  -2.77600 -1.44800 42.88700
C  -1.88200 -2.37700 43.64300
C  -2.36200 0.84600 41.53300
C  -4.27300 -1.57500 42.65000
O  -4.89900 -0.63800 42.13100
C  -5.02700 -2.81300 43.02100
N  0.13100 -4.35700 45.11300
C  -1.20600 -4.61800 44.89600
C  -1.66400 -5.98700 45.53300
C  -0.35400 -6.34700 46.35200
C  0.66900 -5.37000 45.81400
C  -2.98000 -5.92000 46.34800
C  0.04000 -7.86800 46.09900
C  0.60100 -8.55200 47.36800
N  2.91200 -3.67900 44.93400
C  3.11800 -4.85000 45.64500
C  4.55300 -5.20200 45.62300
C  5.15000 -4.13300 44.93700
C  4.11200 -3.26900 44.45400
C  5.31200 -6.36700 46.25600
C  6.47200 -3.57100 44.48900
O  7.61700 -3.89700 44.71800
C  6.18300 -2.43000 43.56500
C  6.89500 -1.21100 44.10400
O  6.47200 -0.40400 44.91500
O  8.03100 -1.01400 43.31500
C  8.98100 0.03200 43.72400
H  0.34500 1.06300 41.99900
H  -3.06800 -4.08400 44.21800
H  2.30100 -6.54200 46.48600
H  5.05900 0.43100 42.57000
H  2.73300 0.98400 40.99600
H  2.84500 2.81500 42.17100
H  4.01100 2.19200 43.30600
H  2.24600 2.09400 43.60400
H  4.11900 -0.22800 39.76300
H  4.76200 -1.69000 40.46400
H  6.98600 -0.79200 39.90900
H  6.58800 0.63100 40.83500
H  -3.32000 0.68200 41.03900
H  -1.62500 0.89300 40.73100
H  -2.55600 1.75300 42.10600
H  -4.36500 -3.62900 42.73200
H  -5.91300 -2.77200 42.38800
H  -5.21600 -2.91300 44.09000
H  -1.83700 -6.75000 44.77300
H  -0.51500 -6.11800 47.40500
H  -2.79000 -6.20800 47.38200
H  -3.66300 -6.70200 46.01400
H  -3.49300 -4.97400 46.17400
H  0.79900 -7.82800 45.31900
H  -0.89900 -8.35800 45.84200
H  0.00200 -9.36200 47.78300
H  0.64800 -7.84600 48.19800
H  1.52100 -9.05100 47.06600
H  4.59900 -6.82600 46.94000
H  6.28300 -6.17100 46.71000
H  5.42200 -7.10400 45.46000
H  6.51900 -2.66400 42.55400
H  9.86300 -0.51300 44.06100
H  8.55700 0.75500 44.42100
H  9.33800 0.55400 42.83600
Mg 40.69700 9.82000 29.43400
C  42.28100 10.72000 32.48700
C  38.06900 8.43800 31.31500
C  39.15500 8.81200 26.56800
C  43.46600 10.84000 27.65800
N  40.26600 9.55300 31.73500
C  41.00700 10.04100 32.78100
C  40.17500 9.90500 34.07500
C  38.93200 9.10900 33.61100
C  39.09300 8.95600 32.11200
C  38.78400 7.72700 34.29100
C  39.77500 11.34600 34.59900
C  39.35200 11.52200 36.04100
H  40.36500 11.40300 37.20900
N  38.88200 8.77300 29.01300
C  37.92600 8.35700 29.93600
C  36.81200 7.70300 29.27000
C  37.01900 7.91700 27.86100
C  38.34600 8.51700 27.74500
C  35.80600 6.94200 30.00800
C  36.15200 7.54600 26.66100
O  36.44300 7.86500 25.52900
C  34.78900 6.88900 26.93500
N  41.22000 9.82700 27.40400
C  40.49000 9.29300 26.41800
C  41.13800 9.54700 25.06700
C  42.46900 10.20200 25.41000
C  42.37300 10.31700 26.91200
C  41.23000 8.41800 24.00300
C  42.81000 11.63400 24.80300
C  41.78000 12.78600 24.89200
N  42.45800 10.51000 29.92400
C  43.47100 10.89100 29.09800
C  44.61000 11.31200 29.90100
C  44.17500 11.33300 31.22200
C  42.86500 10.80500 31.20800
C  45.91300 11.86000 29.29600
C  44.55200 11.70600 32.58600
O  45.60000 12.19700 32.95000
C  43.25000 11.39400 33.46300
C  43.72400 10.48400 34.62800
O  44.07400 9.30000 34.57400
O  43.80300 11.23900 35.74300
C  44.57300 10.64900 36.85700
H  37.19700 8.18400 31.92100
H  38.72700 8.56300 25.59500
H  44.42200 10.99800 27.15400
H  40.80000 9.46700 34.85400
H  37.96100 9.55100 33.83500
H  38.11200 7.87600 35.13700
H  39.73300 7.32800 34.64900
H  38.46400 6.96000 33.58600
H  38.93700 11.72900 34.01700
H  40.53200 12.12000 34.47200
H  38.49600 10.88000 36.25100
H  38.96100 12.53400 36.14500
H  36.32600 6.40600 30.80200
H  35.58100 6.12900 29.31700
H  35.04400 7.62700 30.38000
H  34.21900 7.50000 27.63500
H  34.97600 5.90800 27.37200
H  34.33900 6.75800 25.95200
H  40.45900 10.29500 24.65800
H  43.34000 9.60100 25.14600
H  40.30000 8.46700 23.43600
H  41.36100 7.41400 24.40500
H  41.97100 8.60400 23.22500
H  42.99700 11.43700 23.74800
H  43.72500 11.94800 25.30600
H  41.30100 13.05200 23.95000
H  42.31500 13.68900 25.18600
H  41.08300 12.58900 25.70700
H  46.57600 12.12800 30.11800
H  45.67000 12.79200 28.78700
H  46.36400 11.18300 28.57000
H  42.71400 12.30200 33.74000
H  43.79100 10.12400 37.40700
H  45.09300 11.30200 37.55800
H  45.26100 9.82400 36.67500

