158

Mg 49.31700 34.55100 26.30900
C  47.30800 33.49500 28.83900
C  49.41200 37.76400 27.54600
C  51.24100 35.35300 23.69000
C  48.89100 31.23900 24.81700
N  48.43400 35.48700 27.94900
C  47.68800 34.85900 28.91500
C  47.37200 35.91700 29.98500
C  47.92800 37.23400 29.52500
C  48.58300 36.78200 28.21300
C  46.82500 38.33600 29.38300
C  47.91700 35.52900 31.44000
C  46.81200 35.43400 32.58400
H  47.04500 36.15300 33.91900
N  50.24900 36.34900 25.69000
C  50.22000 37.53500 26.41200
C  50.99500 38.46800 25.61700
C  51.50400 37.77700 24.44900
C  51.01600 36.42700 24.55900
C  51.24700 39.89400 26.02400
C  52.50200 38.29500 23.38400
O  53.07400 37.56900 22.60300
C  52.84700 39.77700 23.23500
N  49.80400 33.50600 24.39100
C  50.79800 34.06900 23.59600
C  51.06600 33.26700 22.34800
C  50.37800 31.89600 22.78400
C  49.55500 32.22700 24.06800
C  50.61700 33.90700 21.00000
C  51.29000 30.74300 22.98900
C  51.18700 29.62200 21.99300
N  48.26900 32.75900 26.66900
C  48.20800 31.50000 26.03000
C  47.30100 30.65700 26.74900
C  46.90300 31.36100 27.88900
C  47.54800 32.55900 27.83100
C  46.95900 29.19500 26.43100
C  46.08800 31.33400 29.08900
O  45.26300 30.39700 29.46800
C  46.42000 32.69000 29.86300
C  47.00100 32.16400 31.14600
O  48.15000 31.72900 31.35000
O  46.00900 32.18400 32.07300
C  46.20900 31.68700 33.44300
H  49.60300 38.74000 27.99600
H  51.77500 35.65700 22.78700
H  48.75400 30.28600 24.30400
H  46.29100 36.01700 30.08500
H  48.69500 37.52200 30.24400
H  46.29800 38.34200 30.33700
H  46.08800 38.05700 28.63000
H  47.22800 39.34100 29.25200
H  48.66200 36.21100 31.84800
H  48.37500 34.55500 31.26800
H  46.56900 34.37700 32.68800
H  45.89000 35.87900 32.21100
H  50.99300 40.10400 27.06300
H  50.83700 40.68600 25.39700
H  52.32300 40.01900 25.89900
H  53.40100 39.93800 22.31000
H  53.45000 39.97000 24.12300
H  51.95800 40.40600 23.18200
H  52.15000 33.20400 22.44200
H  49.63000 31.61100 22.04400
H  51.48600 34.43900 20.61300
H  49.83600 34.64700 21.16800
H  50.11300 33.20400 20.33700
H  51.23300 30.34000 24.00000
H  52.27500 31.20800 22.93700
H  52.14500 29.31900 21.56900
H  50.59300 29.88300 21.11800
H  50.81200 28.73500 22.50300
H  46.28500 29.14500 25.57600
H  46.38900 28.74600 27.24400
H  47.87400 28.65900 26.18300
H  45.57300 33.36800 29.96900
H  46.43000 32.47900 34.15900
H  47.05700 31.00500 33.49800
H  45.30100 31.20500 33.80700
Mg 9.73900 47.68000 25.73800
C  7.69000 48.34600 28.47200
C  12.41500 48.53100 27.71000
C  11.82600 46.87400 23.11400
C  6.96500 47.68900 23.65900
N  9.99900 48.06600 27.90700
C  9.04300 48.34900 28.79700
C  9.66500 48.57400 30.22700
C  11.08000 49.13400 29.77700
C  11.17100 48.56600 28.35900
C  11.21800 50.68200 29.70800
C  9.75200 47.22000 30.96300
C  10.31000 47.24400 32.39200
H  9.39100 46.64400 33.53000
N  11.80500 47.63500 25.44300
C  12.80200 48.04600 26.40600
C  14.15100 47.91600 25.81800
C  13.93900 47.46400 24.47000
C  12.49500 47.25700 24.33900
C  15.42200 48.32500 26.57700
C  14.98400 47.20800 23.31800
O  14.69600 46.88300 22.15500
C  16.48300 47.05900 23.72600
N  9.45500 47.27800 23.71100
C  10.40800 46.95200 22.75700
C  9.81100 46.42300 21.46600
C  8.30500 46.90000 21.68500
C  8.22000 47.30800 23.11000
C  10.51300 47.00900 20.18500
C  7.29400 45.87500 21.07700
C  6.15900 46.47400 20.21000
N  7.78500 47.92700 25.92100
C  6.71200 47.95900 25.02100
C  5.45300 48.16900 25.65400
C  5.76000 48.34200 27.02300
C  7.21100 48.20800 27.16800
C  4.10400 48.34800 25.03900
C  5.25700 48.68000 28.34800
O  4.12800 48.87600 28.57400
C  6.48500 48.66400 29.36000
C  6.02300 47.66700 30.36800
O  5.87700 46.47200 30.27500
O  5.92100 48.30200 31.55400
C  5.22300 47.57400 32.57700
H  13.25000 49.04500 28.18900
H  12.42800 46.32700 22.38600
H  6.03400 47.80600 23.10200
H  9.07300 49.24800 30.84500
H  11.84500 48.80500 30.48100
H  10.24400 51.15400 29.83900
H  11.62200 50.96700 28.73700
H  11.90700 51.10100 30.44100
H  10.30000 46.47500 30.38600
H  8.71800 46.88000 31.01400
H  10.55800 48.27800 32.63200
H  11.27100 46.73200 32.39600
H  15.25100 48.16500 27.64200
H  15.81500 49.32900 26.41700
H  16.24700 47.61800 26.48700
H  17.15500 46.93700 22.87600
H  16.53300 46.10800 24.25500
H  16.76400 47.90800 24.34900
H  9.92900 45.34700 21.34100
H  8.03500 47.79600 21.12600
H  10.99900 47.96100 20.39900
H  9.77100 47.21500 19.41400
H  11.19200 46.29400 19.72100
H  6.70800 45.38700 21.85600
H  7.81000 45.04800 20.58900
H  6.47200 47.37400 19.67900
H  5.28300 46.90700 20.69200
H  5.82000 45.73400 19.48400
H  3.92300 47.37600 24.57900
H  4.02100 49.21200 24.37900
H  3.37800 48.38000 25.85100
H  6.66600 49.58500 29.91500
H  5.96800 46.88400 32.97200
H  4.31900 47.10200 32.19300
H  4.82300 48.26300 33.32100

