158

Mg 8.98900 2.95200 27.60300
C  10.21400 1.39100 30.37400
C  7.05300 4.97000 29.56200
C  7.94400 4.20500 24.77900
C  10.68800 0.43900 25.64500
N  8.61700 3.08500 29.77500
C  9.37100 2.48100 30.71400
C  9.06000 3.04700 32.06700
C  7.90500 4.05100 31.79000
C  7.72800 3.98000 30.28000
C  6.59800 3.84700 32.59200
C  10.30200 3.50700 32.93800
C  10.09800 4.55900 34.14200
H  10.85300 4.30700 35.51700
N  7.64400 4.39100 27.23700
C  6.93500 5.12700 28.14400
C  6.22100 6.11000 27.49800
C  6.50000 5.98800 26.08400
C  7.37300 4.81100 25.97000
C  5.45300 7.24500 28.16400
C  6.03900 6.80700 24.91800
O  6.62800 6.84100 23.82600
C  4.96000 7.93200 25.10000
N  9.44100 2.53500 25.47000
C  8.79200 3.15900 24.49900
C  8.96300 2.42100 23.12500
C  10.09200 1.44500 23.44100
C  10.05500 1.43400 24.96400
C  7.67900 1.82800 22.64000
C  11.55300 1.92200 22.97700
C  12.15600 1.06500 21.81600
N  10.25900 1.31700 27.86200
C  10.87000 0.43400 27.01300
C  11.67300 -0.51200 27.66000
C  11.50900 -0.12600 29.01900
C  10.58300 0.95100 29.05900
C  12.45200 -1.56100 27.06100
C  11.92700 -0.36200 30.38400
O  12.70700 -1.15100 30.84200
C  11.09800 0.57900 31.30500
C  10.59600 -0.14300 32.39500
O  9.51400 -0.70400 32.37900
O  11.41600 -0.05000 33.45700
C  10.82500 -0.44700 34.76000
H  6.49100 5.63100 30.22500
H  7.61600 4.64600 23.83600
H  11.19700 -0.35400 25.09300
H  8.68500 2.17500 32.60300
H  8.17300 5.09400 31.95500
H  6.86300 3.17400 33.40700
H  5.79000 3.39200 32.01800
H  6.13800 4.76200 32.96500
H  11.07400 4.05500 32.39700
H  10.72100 2.59600 33.36400
H  9.04000 4.66000 34.38200
H  10.24900 5.59400 33.83600
H  5.90800 8.22100 27.99800
H  5.41400 7.09600 29.24300
H  4.45300 7.27500 27.73100
H  3.98300 7.45900 25.19700
H  5.00500 8.68300 24.31200
H  5.12300 8.60000 25.94500
H  9.21300 3.10600 22.31500
H  9.77200 0.46300 23.09400
H  7.40400 2.39000 21.74700
H  6.83400 1.83300 23.32900
H  7.94200 0.85300 22.22900
H  12.23200 1.83500 23.82500
H  11.53500 2.98300 22.73100
H  13.12400 0.71100 22.17000
H  12.30400 1.68100 20.92900
H  11.50700 0.28700 21.41500
H  13.05000 -1.03100 26.31900
H  11.74000 -2.22200 26.56700
H  13.08600 -2.06900 27.78600
H  11.78900 1.30600 31.73200
H  10.25200 -1.34800 34.54100
H  10.15100 0.24600 35.26300
H  11.62500 -0.86500 35.37100
Mg 52.48500 23.54500 43.89100
C  49.94500 25.83400 43.41900
C  50.51900 21.16700 42.40000
C  55.15900 21.54500 43.56700
C  54.62800 26.22700 45.00800
N  50.49400 23.59900 42.94400
C  49.60300 24.61800 42.90500
C  48.43000 24.28500 41.99400
C  48.43900 22.70600 42.02500
C  49.92000 22.45100 42.56500
C  47.34500 22.05900 42.87000
C  48.55700 25.10200 40.60100
C  48.73700 24.32400 39.33100
H  49.12300 25.11000 38.03800
N  52.77600 21.64200 43.15300
C  51.80600 20.79300 42.67700
C  52.38200 19.49800 42.28400
C  53.74300 19.56200 42.70100
C  54.00200 20.95600 43.10100
C  51.62000 18.36800 41.74900
C  54.78600 18.49100 42.58500
O  54.45400 17.39300 42.09800
C  56.17400 18.53100 43.03900
N  54.54600 23.91200 44.11900
C  55.39600 22.84200 43.99400
C  56.79300 23.28200 44.52800
C  56.69700 24.78700 44.77000
C  55.24400 25.02000 44.56500
C  57.16400 22.48500 45.83300
C  57.63800 25.62000 43.73500
C  58.64500 26.58300 44.33900
N  52.33200 25.52600 44.29600
C  53.20200 26.48800 44.87800
C  52.50700 27.72900 45.26200
C  51.23300 27.50000 44.63100
C  51.19900 26.12900 44.10500
C  53.07800 28.96300 46.00700
C  49.92300 28.11800 44.31900
O  49.58600 29.26100 44.55900
C  49.11000 27.06000 43.54100
C  48.77100 27.69400 42.22200
O  49.67800 28.06400 41.42400
O  47.41200 27.78200 41.98700
C  46.96400 28.14000 40.61600
H  50.02100 20.46200 41.73000
H  56.04700 20.91600 43.65000
H  55.22900 27.00900 45.47600
H  47.49700 24.72500 42.34400
H  48.32400 22.28100 41.02800
H  47.61700 21.86000 43.90700
H  46.87200 21.20100 42.39100
H  46.53900 22.79200 42.90400
H  49.32200 25.87800 40.56200
H  47.54600 25.50700 40.54300
H  47.76300 23.90700 39.07200
H  49.54500 23.62100 39.53400
H  51.39000 18.60000 40.71000
H  50.69400 18.36800 42.32500
H  52.05300 17.37800 41.89300
H  56.16200 18.84700 44.08200
H  56.62700 19.21000 42.31600
H  56.66900 17.56000 43.04300
H  57.54400 23.03200 43.77800
H  56.99800 25.07400 45.77700
H  56.33600 21.82000 46.07800
H  57.32000 23.16800 46.66800
H  58.12900 22.02600 45.61700
H  56.94500 26.19000 43.11600
H  58.13400 24.97500 43.00900
H  58.77800 26.53000 45.41900
H  58.26700 27.58800 44.15200
H  59.61700 26.47500 43.85600
H  54.15900 28.98100 45.87000
H  52.77700 28.87100 47.05000
H  52.62000 29.92700 45.78500
H  48.20000 26.88200 44.11500
H  46.47400 29.11200 40.67400
H  46.18400 27.45400 40.28400
H  47.63100 28.13000 39.75400

