158

Mg 25.43400 1.22600 30.09900
C  27.73200 1.04400 32.76800
C  22.96100 1.45600 32.33800
C  23.47900 1.32400 27.47300
C  28.24100 0.59300 27.87800
N  25.41000 1.16100 32.32300
C  26.43300 1.23900 33.20600
C  25.88300 1.49500 34.64600
C  24.35200 1.29800 34.50500
C  24.20100 1.29300 32.96500
C  23.67200 0.06000 35.17800
C  26.29800 2.86200 35.09900
C  27.10500 2.95100 36.40800
H  26.45000 3.74800 37.55400
N  23.44900 1.44100 29.91900
C  22.53900 1.45400 30.92800
C  21.20300 1.60700 30.38100
C  21.35400 1.60800 28.98200
C  22.84000 1.48000 28.71300
C  19.94300 1.77800 31.20700
C  20.27600 1.65200 27.85700
O  20.52600 1.74800 26.68900
C  18.80100 1.59500 28.20200
N  25.83100 0.79400 27.93800
C  24.77900 1.02600 27.06300
C  25.25300 1.14600 25.61900
C  26.81500 1.04300 25.80200
C  26.97400 0.81200 27.30900
C  24.61200 0.09900 24.59900
C  27.63300 2.26900 25.28300
C  29.07000 2.09500 24.61600
N  27.48400 0.87700 30.21200
C  28.48400 0.51900 29.23400
C  29.71200 0.34500 29.87700
C  29.41700 0.58100 31.24000
C  28.07600 0.87700 31.39700
C  31.12900 0.16200 29.28600
C  30.04500 0.66500 32.60800
O  31.16700 0.46200 32.92200
C  29.02000 1.13000 33.60900
C  28.93200 0.12100 34.68800
O  28.33900 -0.95000 34.64300
O  29.55100 0.54800 35.84200
C  29.34800 -0.18400 37.09900
H  22.06400 1.53600 32.95500
H  22.91700 1.45300 26.54500
H  29.11800 0.58000 27.22800
H  26.33400 0.72700 35.27500
H  23.82800 2.24400 34.64000
H  22.86700 0.45600 35.79700
H  24.38500 -0.52800 35.75500
H  23.11000 -0.63000 34.54700
H  25.38500 3.44800 35.20800
H  26.92500 3.24400 34.29400
H  27.93500 3.59300 36.11300
H  27.54300 2.00000 36.71000
H  19.32500 2.61400 30.88000
H  20.16700 1.84000 32.27100
H  19.42700 0.82000 31.25700
H  18.34000 2.51600 28.55800
H  18.61700 0.77600 28.89700
H  18.22700 1.23000 27.35000
H  25.00800 2.12900 25.21800
H  27.26700 0.20600 25.26900
H  23.98200 -0.61800 25.12500
H  25.40000 -0.50300 24.14700
H  23.98100 0.57600 23.84900
H  27.78700 2.98800 26.08800
H  26.99500 2.78700 24.56600
H  29.47800 1.10200 24.80000
H  29.75300 2.77700 25.12200
H  28.94300 2.32000 23.55700
H  31.33600 0.95900 28.57300
H  31.17100 -0.71100 28.63500
H  31.76000 0.14400 30.17400
H  29.13800 2.14100 33.99900
H  30.34900 -0.20200 37.52900
H  28.98000 -1.20000 36.95300
H  28.77600 0.37100 37.84200
Mg 36.06900 49.22200 26.24400
C  36.40000 47.02600 29.07800
C  35.02700 51.59100 28.48200
C  35.43800 51.05100 23.67300
C  36.91600 46.61600 24.16500
N  35.64900 49.19300 28.47400
C  35.96800 48.28400 29.44500
C  35.99100 48.84300 30.91900
C  35.26100 50.14700 30.67100
C  35.33300 50.37300 29.10800
C  33.78000 50.19400 31.09500
C  37.43900 49.12500 31.49600
C  37.65200 48.88000 33.00400
H  36.49500 49.19900 33.96600
N  35.38700 51.11200 26.07900
C  35.03100 51.93000 27.10600
C  34.60000 53.14900 26.54000
C  34.82500 53.11300 25.13800
C  35.28400 51.72900 24.93200
C  34.15700 54.21100 27.45700
C  34.55300 54.08400 24.00500
O  34.76900 53.86800 22.82300
C  33.99800 55.34900 24.45400
N  36.22600 48.87700 24.13200
C  35.79500 49.72500 23.28100
C  35.67100 49.23600 21.83600
C  36.18300 47.77400 22.05900
C  36.44300 47.71400 23.52800
C  34.31600 49.38200 21.12700
C  37.45400 47.44500 21.16200
C  38.83500 47.37300 21.79500
N  36.60700 47.23000 26.48400
C  37.01400 46.30100 25.52400
C  37.34400 45.14000 26.17500
C  37.06900 45.33500 27.58200
C  36.67700 46.65400 27.72900
C  37.70600 43.87700 25.50600
C  37.08700 44.67700 28.86500
O  37.44700 43.54300 29.11200
C  36.68100 45.76500 29.95100
C  35.52700 45.27500 30.65600
O  34.41800 45.13000 30.20500
O  35.90600 45.17700 31.97200
C  34.79200 44.70300 32.75900
H  34.62400 52.28200 29.22400
H  34.99600 51.70200 22.91600
H  37.23000 45.76000 23.56500
H  35.51700 48.13600 31.60000
H  35.64800 51.01100 31.21200
H  33.56100 49.50000 31.90600
H  33.13300 49.87500 30.27800
H  33.63100 51.22900 31.40300
H  37.77600 50.10700 31.16300
H  38.11200 48.38300 31.06700
H  38.36600 49.60900 33.38800
H  37.99400 47.86200 33.19000
H  33.53400 53.91000 28.30000
H  33.65200 54.97600 26.86700
H  34.99400 54.76200 27.88700
H  34.00800 56.03700 23.60800
H  34.66800 55.80000 25.18600
H  32.99900 55.14500 24.84000
H  36.34300 49.85300 21.23900
H  35.37300 47.06500 21.88900
H  33.69900 49.99600 21.78200
H  33.67600 48.51200 20.98100
H  34.55600 49.90100 20.19900
H  37.49300 48.16800 20.34700
H  37.17500 46.50900 20.67900
H  38.83700 47.47100 22.88100
H  39.39600 48.19300 21.34700
H  39.35100 46.41600 21.72200
H  36.78900 43.35900 25.22600
H  38.32200 43.32300 26.21400
H  38.40600 44.10000 24.70100
H  37.49800 45.89700 30.66000
H  33.82900 45.19100 32.61400
H  35.10000 44.99900 33.76200
H  34.71900 43.61900 32.66800

