158

Mg 35.57300 48.09400 25.76500
C  35.84000 45.96200 28.59400
C  34.56000 50.55200 27.84700
C  34.85200 49.88500 23.13300
C  36.23500 45.33600 23.72700
N  35.03500 48.09400 27.94200
C  35.36400 47.19700 28.89700
C  35.15600 47.82900 30.31500
C  34.44600 49.16600 30.00300
C  34.63400 49.23200 28.50000
C  32.87400 49.23900 30.41800
C  36.40100 47.90800 31.22500
C  36.26800 47.44200 32.70200
H  34.90400 47.59000 33.31400
N  34.86700 49.98800 25.53200
C  34.67300 50.87900 26.49300
C  34.44500 52.20400 25.88700
C  34.52900 52.06900 24.46800
C  34.81100 50.60600 24.31800
C  34.20500 53.38900 26.78900
C  34.29200 53.12300 23.32000
O  34.51300 52.87700 22.11500
C  33.67100 54.36400 23.62800
N  35.28400 47.52200 23.71600
C  35.10200 48.52800 22.83400
C  34.98000 47.98600 21.37700
C  35.64200 46.62700 21.57500
C  35.70800 46.45100 23.05700
C  33.56500 47.90900 20.87000
C  36.98700 46.49100 20.88100
C  38.19700 46.89300 21.61400
N  36.12900 46.15000 25.98600
C  36.36800 45.09400 25.13400
C  36.89500 43.96200 25.81700
C  36.66400 44.19100 27.14200
C  36.11700 45.55600 27.27200
C  37.42000 42.65200 25.24100
C  36.75700 43.66500 28.44700
O  37.14500 42.59200 28.88600
C  36.26000 44.84200 29.45000
C  35.03700 44.37100 30.21100
O  34.06000 43.89400 29.77900
O  35.28400 44.44600 31.54700
C  34.28400 43.87900 32.42400
H  34.19000 51.35000 28.49500
H  34.60200 50.53900 22.29500
H  36.66200 44.49000 23.18300
H  34.39200 47.22300 30.80000
H  34.92400 50.01900 30.48500
H  32.58200 50.20200 30.83800
H  32.70900 48.53900 31.23700
H  32.26900 49.01400 29.53900
H  36.86000 48.89700 31.24200
H  37.08800 47.19800 30.76500
H  37.01600 47.93500 33.32300
H  36.50900 46.39400 32.88000
H  33.11900 53.47700 26.75900
H  34.59900 54.27400 26.28900
H  34.71800 53.36300 27.75000
H  34.39600 55.16300 23.77900
H  33.18900 54.22400 24.59600
H  32.89100 54.63700 22.91700
H  35.63000 48.62200 20.77500
H  34.95000 45.89300 21.16100
H  32.92900 48.54000 21.49200
H  33.18400 46.90600 21.06600
H  33.48400 48.13500 19.80700
H  37.04300 46.98500 19.91100
H  37.15100 45.42800 20.70200
H  38.40500 45.98600 22.18100
H  37.96500 47.59100 22.41900
H  39.10500 47.13400 21.06100
H  38.43600 42.66800 25.63600
H  37.45400 42.39900 24.18100
H  36.77700 41.92200 25.73400
H  37.08500 44.97700 30.15000
H  34.00500 42.90600 32.02000
H  33.42100 44.54500 32.44600
H  34.70400 43.67800 33.40900
Mg 5.43600 54.15900 40.10500
C  4.61700 50.65800 40.13700
C  8.56600 53.21100 39.05700
C  6.04400 57.31800 39.43300
C  2.05600 54.93400 40.54600
N  6.37300 52.12500 39.45400
C  5.88300 50.87900 39.57000
C  6.95900 49.82700 39.22000
C  8.24500 50.72700 39.38400
C  7.69900 52.15500 39.32500
C  9.20300 50.61300 40.66300
C  6.79300 49.13300 37.87800
C  6.27500 49.84500 36.64600
H  7.12900 50.95200 36.05900
N  7.08200 55.09100 39.23100
C  8.30900 54.60700 39.03200
C  9.23500 55.68200 38.82400
C  8.55500 56.93000 38.79500
C  7.15600 56.49700 39.14800
C  10.76300 55.34700 38.64100
C  9.17200 58.33000 38.59000
O  10.38500 58.49800 38.44700
C  8.26800 59.54200 38.29800
N  4.24300 55.80300 39.94500
C  4.80800 57.06000 39.84700
C  3.76100 58.17700 40.14900
C  2.43800 57.37300 40.28400
C  2.96100 55.94200 40.23100
C  4.01200 59.04200 41.39900
C  1.37600 57.64700 39.23200
C  -0.01700 58.03200 39.86400
N  3.69700 53.04100 40.42800
C  2.41600 53.52400 40.70800
C  1.63200 52.34900 41.04200
C  2.41500 51.18900 40.91500
C  3.65400 51.69900 40.44500
C  0.18100 52.34400 41.36700
C  2.48400 49.81500 41.05000
O  1.61500 49.00300 41.38500
C  3.98200 49.37200 40.64700
C  3.90300 48.33000 39.65500
O  3.86800 48.50400 38.46000
O  4.16500 47.05700 40.14800
C  4.13600 45.88100 39.20700
H  9.59000 52.95400 38.78000
H  6.18900 58.40000 39.39600
H  1.08900 55.16900 40.99700
H  6.96900 49.10200 40.03400
H  8.93500 50.50300 38.57100
H  8.92900 49.72700 41.23600
H  9.04900 51.45600 41.33700
H  10.25200 50.55200 40.37200
H  6.28500 48.20900 38.15400
H  7.77000 48.87100 37.47200
H  5.27300 50.21500 36.86700
H  6.15300 49.06700 35.89200
H  11.17300 56.06700 37.93300
H  10.83600 54.41000 38.08900
H  11.43000 55.20000 39.49000
H  8.76200 60.35500 37.76700
H  7.95600 60.03500 39.21900
H  7.35700 59.25300 37.77400
H  3.76300 58.88700 39.32200
H  2.03900 57.50700 41.29000
H  4.57700 58.37200 42.04800
H  3.06500 59.35900 41.83400
H  4.50700 59.98000 41.14900
H  1.37200 56.87000 38.46800
H  1.69300 58.50600 38.64000
H  0.00400 58.00000 40.95300
H  -0.86700 57.39200 39.62600
H  -0.20000 59.08500 39.65400
H  -0.44000 53.19900 41.09900
H  0.23400 52.32500 42.45600
H  -0.26700 51.42100 41.00000
H  4.47600 48.90000 41.49600
H  3.16800 45.39100 39.09800
H  4.60800 44.98600 39.61200
H  4.47900 46.13200 38.20300

