158

Mg 2.40300 -2.12100 44.73700
C  5.83100 -1.57500 44.28900
C  1.77500 0.43700 42.52800
C  -0.80300 -3.00100 44.80300
C  3.21600 -5.02000 46.51300
N  3.67000 -0.77400 43.50400
C  5.09200 -0.68300 43.48200
C  5.52700 0.30600 42.39300
C  4.24000 1.15600 42.07800
C  3.14900 0.16800 42.74100
C  4.03000 2.56300 42.72200
C  6.22800 -0.25700 41.09300
C  7.68000 0.18600 40.86800
H  8.06200 0.70400 39.42800
N  0.68100 -1.19900 43.98800
C  0.64000 -0.19900 43.10100
C  -0.71600 0.20400 42.94100
C  -1.54400 -0.75200 43.63900
C  -0.56200 -1.70800 44.22300
C  -1.13900 1.39000 42.05300
C  -3.05900 -0.84900 43.63900
O  -3.73900 -0.13400 42.97000
C  -3.82800 -1.84300 44.54700
N  1.41700 -3.92800 45.35800
C  0.05200 -3.96400 45.39900
C  -0.39200 -5.36200 45.75100
C  0.78300 -5.89500 46.53000
C  1.92300 -4.83000 46.10300
C  -1.78700 -5.37100 46.52800
C  1.13600 -7.37900 46.08000
C  1.49400 -8.31900 47.24300
N  4.07100 -2.97000 45.44300
C  4.28500 -4.13400 46.16800
C  5.69400 -4.39500 46.41700
C  6.32600 -3.35100 45.72300
C  5.31600 -2.61100 45.10600
C  6.31400 -5.54400 47.28000
C  7.62800 -2.79500 45.38600
O  8.77000 -3.27300 45.50400
C  7.36200 -1.65500 44.31500
C  8.05100 -0.37400 44.76700
O  9.13000 -0.02900 44.37600
O  7.18700 0.29300 45.58900
C  7.52900 1.69300 45.87900
H  1.63500 1.27600 41.84400
H  -1.84900 -3.26200 44.63000
H  3.60400 -5.84900 47.10900
H  6.26700 0.96100 42.85400
H  3.97400 1.28800 41.02900
H  5.03300 2.97100 42.84900
H  3.47600 2.60000 43.66000
H  3.63900 3.27700 41.99700
H  5.73900 0.06100 40.17300
H  6.21800 -1.34500 41.02500
H  8.30800 -0.70100 40.95100
H  8.01500 0.79900 41.70500
H  -0.38700 1.57500 41.28600
H  -1.12700 2.30200 42.65000
H  -2.06600 1.20700 41.50800
H  -4.88300 -1.57100 44.50100
H  -3.53900 -1.66000 45.58200
H  -3.73900 -2.92000 44.40100
H  -0.53900 -5.94800 44.84400
H  0.62300 -5.81600 47.60600
H  -1.65400 -5.84100 47.50200
H  -2.58100 -5.84000 45.94600
H  -2.09500 -4.37100 46.83200
H  2.00400 -7.38200 45.42000
H  0.27500 -7.69400 45.49000
H  0.76300 -9.10600 47.05800
H  1.31600 -7.79400 48.18200
H  2.52400 -8.67300 47.24000
H  5.81900 -6.46800 46.98300
H  6.18200 -5.28700 48.33100
H  7.38900 -5.54400 47.09800
H  7.88800 -1.94300 43.40500
H  7.40000 1.72000 46.96100
H  6.73900 2.38200 45.58300
H  8.49800 2.06000 45.53800
Mg 8.87500 4.45000 27.61200
C  9.72000 2.74100 30.66100
C  6.71300 6.36500 29.56400
C  7.80900 5.88100 24.83300
C  10.49600 1.92200 25.85100
N  8.15700 4.40100 29.76300
C  8.74500 3.73400 30.86200
C  8.25800 4.27900 32.23000
C  7.10100 5.24500 31.77500
C  7.28200 5.28400 30.23100
C  5.71000 4.77600 32.25300
C  9.38300 4.94700 33.18200
C  9.58200 4.27700 34.55500
H  10.79200 4.61500 35.30300
N  7.58200 6.02200 27.26900
C  6.86500 6.73700 28.19300
C  6.17600 7.81600 27.54700
C  6.47700 7.68500 26.13400
C  7.33500 6.49500 26.04300
C  5.29900 8.85300 28.27400
C  5.91300 8.54600 24.98500
O  6.31400 8.33800 23.80200
C  4.90900 9.64400 25.26400
N  9.09200 3.87300 25.63000
C  8.55900 4.65100 24.62600
C  8.78700 4.05800 23.19000
C  9.53400 2.68400 23.56600
C  9.85400 2.86700 25.10500
C  7.51400 3.91900 22.42300
C  10.77100 2.33900 22.59000
C  10.89600 0.87900 22.24700
N  10.04000 2.83500 28.02900
C  10.57600 1.88100 27.25700
C  11.16000 0.84500 28.03000
C  10.98600 1.26000 29.35300
C  10.19100 2.38900 29.33600
C  11.90000 -0.42100 27.55200
C  11.18800 0.89700 30.72800
O  11.85900 -0.06500 31.16200
C  10.41300 1.93500 31.67500
C  9.67700 1.05100 32.55100
O  8.52200 0.72800 32.34800
O  10.47100 0.84000 33.66700
C  9.87300 0.18900 34.86100
H  6.01400 6.91100 30.20100
H  7.42600 6.26300 23.88500
H  10.97200 1.06800 25.36500
H  7.73400 3.50200 32.78600
H  7.19300 6.27900 32.10800
H  4.98400 4.60000 31.46000
H  5.36400 5.61200 32.86100
H  5.80800 3.94300 32.95000
H  9.30700 6.02700 33.30400
H  10.35100 4.77900 32.70900
H  9.62100 3.20500 34.36400
H  8.69700 4.55800 35.12600
H  5.64100 9.06600 29.28700
H  4.29900 8.44000 28.40700
H  5.24900 9.79600 27.73000
H  4.45300 9.91900 24.31300
H  5.37900 10.49400 25.76000
H  4.09800 9.33800 25.92500
H  9.60500 4.68900 22.84500
H  8.74900 1.92900 23.51900
H  7.36100 2.90300 22.05800
H  7.62800 4.56500 21.55200
H  6.58500 4.23100 22.90000
H  11.73200 2.73300 22.92100
H  10.48300 2.86700 21.68200
H  10.10500 0.20900 22.58400
H  11.76500 0.59800 22.84400
H  11.07900 0.83900 21.17400
H  12.95800 -0.18500 27.66600
H  11.71700 -0.81000 26.55000
H  11.57000 -1.19600 28.24300
H  11.07800 2.53900 32.29400
H  9.25400 -0.66400 34.58300
H  9.27800 0.91500 35.41600
H  10.61700 -0.17500 35.57000

