158

Mg 24.39900 -5.01600 45.19600
C  26.71600 -2.57000 43.89900
C  21.96600 -3.50200 43.29800
C  22.38700 -7.78000 45.68700
C  27.00000 -6.66600 46.69000
N  24.40500 -3.31500 43.62300
C  25.39000 -2.44300 43.35200
C  24.96700 -1.53000 42.23000
C  23.42900 -1.60900 42.37600
C  23.22600 -2.84400 43.18000
C  22.94500 -0.31700 43.14100
C  25.42100 -1.94500 40.75500
C  26.39800 -0.94200 40.07700
H  26.28700 -0.95700 38.49300
N  22.40500 -5.52400 44.62100
C  21.57300 -4.68900 43.94200
C  20.30100 -5.24600 43.87300
C  20.37600 -6.55100 44.46800
C  21.78000 -6.65700 44.99300
C  19.11400 -4.62400 43.18200
C  19.32900 -7.65400 44.49300
O  18.23000 -7.37000 44.03100
C  19.58100 -9.07400 44.85300
N  24.66100 -6.97200 46.05500
C  23.64700 -7.89600 46.16900
C  24.06200 -9.17100 46.95700
C  25.50300 -8.76600 47.40600
C  25.73300 -7.35700 46.76500
C  23.11200 -9.41600 48.19700
C  26.62900 -9.77300 47.03200
C  27.60400 -10.14900 48.18300
N  26.41500 -4.67400 45.30100
C  27.33500 -5.47100 45.91200
C  28.66300 -4.93100 45.71100
C  28.48000 -3.74300 44.97600
C  27.08400 -3.64600 44.73500
C  29.88100 -5.39900 46.30100
C  29.10400 -2.62500 44.27400
O  30.26700 -2.24000 44.32100
C  27.99300 -1.90300 43.49900
C  28.04100 -0.38700 43.89200
O  27.80700 0.01900 44.99100
O  28.51000 0.35000 42.86900
C  28.68700 1.78400 43.06500
H  21.13400 -2.96100 42.84200
H  21.75200 -8.62900 45.95200
H  27.90200 -7.06500 47.15900
H  25.34800 -0.53300 42.45300
H  22.85600 -1.64300 41.45000
H  23.75900 0.11000 43.72700
H  22.17400 -0.53200 43.88100
H  22.61800 0.48600 42.48000
H  24.53500 -1.93200 40.11900
H  25.83800 -2.95200 40.77900
H  27.36900 -1.36900 40.32900
H  26.33800 0.06100 40.50200
H  19.20600 -3.53800 43.16400
H  18.16800 -4.87800 43.66200
H  19.06800 -5.10800 42.20700
H  20.43300 -9.53200 44.35000
H  18.70800 -9.68600 44.62700
H  19.73400 -9.25600 45.91700
H  24.06500 -9.98700 46.23400
H  25.57200 -8.60600 48.48200
H  22.15100 -8.94900 47.98000
H  23.60700 -9.01200 49.08000
H  22.94800 -10.45200 48.49400
H  27.28000 -9.29500 46.30000
H  26.17600 -10.70300 46.68800
H  27.51200 -9.60000 49.12000
H  28.66100 -10.19400 47.92100
H  27.34800 -11.16500 48.48300
H  29.91900 -5.27300 47.38300
H  30.77100 -4.84900 45.99700
H  30.10700 -6.44200 46.08000
H  28.07300 -2.01400 42.41700
H  29.76600 1.85400 42.92500
H  28.36100 2.08400 44.06100
H  28.09700 2.38900 42.37600
Mg 49.32000 35.40900 28.61200
C  47.21200 33.32800 30.57400
C  49.34800 37.70200 31.08300
C  50.66900 37.46800 26.40800
C  48.88400 32.87600 26.03500
N  48.39100 35.53800 30.57900
C  47.75100 34.51200 31.21200
C  47.74300 34.77000 32.77200
C  48.02100 36.34200 32.83200
C  48.68100 36.51400 31.44300
C  46.73600 37.25600 33.07200
C  48.88700 33.90100 33.47900
C  48.78000 33.84700 35.09300
H  47.89700 34.83900 35.90100
N  49.89700 37.29500 28.74800
C  49.89700 38.08100 29.88700
C  50.64300 39.34600 29.58700
C  51.16100 39.19700 28.25100
C  50.58700 37.91700 27.74100
C  50.86500 40.34300 30.68800
C  52.09200 40.02400 27.47200
O  52.51300 39.72500 26.33700
C  52.52800 41.28200 28.03200
N  49.82500 35.14500 26.58600
C  50.30400 36.22600 25.86000
C  50.52500 35.85900 24.36800
C  50.22000 34.29200 24.42300
C  49.60400 34.05900 25.78400
C  49.64500 36.70500 23.49500
C  51.36400 33.35300 23.91400
C  51.25000 32.81600 22.44800
N  48.50400 33.40300 28.35600
C  48.34900 32.50200 27.26100
C  47.57600 31.39200 27.62100
C  47.12500 31.69400 28.90400
C  47.65000 32.90000 29.32300
C  47.14900 30.22400 26.80200
C  46.22300 31.20900 29.94700
O  45.43500 30.21300 29.99900
C  46.24100 32.27900 31.11200
C  46.42600 31.69300 32.45700
O  47.26600 30.92300 32.82800
O  45.50800 32.20400 33.26100
C  45.36800 31.56600 34.57700
H  49.51000 38.34900 31.94800
H  51.08000 38.12900 25.64200
H  48.61400 32.19300 25.22600
H  46.75100 34.37600 32.99300
H  48.80900 36.45100 33.57700
H  46.74400 38.00100 33.86800
H  46.06400 36.45500 33.37900
H  46.36600 37.69300 32.14400
H  49.91700 34.21900 33.31300
H  48.71900 32.86900 33.17100
H  49.84500 33.83700 35.32500
H  48.38400 32.84700 35.27300
H  50.45300 41.26300 30.27500
H  51.84300 40.54700 31.12400
H  50.21700 40.19800 31.55200
H  51.68500 41.91700 28.30400
H  53.10000 41.86300 27.30900
H  53.20000 41.06200 28.86100
H  51.56500 36.08400 24.13300
H  49.40800 34.16900 23.70600
H  50.15900 37.65300 23.33900
H  48.75100 36.98600 24.05300
H  49.47400 36.22400 22.53200
H  51.31800 32.48300 24.57000
H  52.28800 33.92300 24.00400
H  50.38800 33.19900 21.90200
H  51.26500 31.72900 22.53000
H  52.14600 33.19000 21.95100
H  46.36700 30.61800 26.15300
H  46.61500 29.43800 27.33700
H  47.96100 29.76800 26.23500
H  45.25000 32.72800 31.17100
H  44.31500 31.61800 34.85400
H  45.96200 32.08300 35.33100
H  45.57800 30.49900 34.65900

