158

Mg 56.00800 23.10200 44.36500
C  53.77100 25.60400 43.24600
C  53.92600 20.69200 43.18900
C  58.43400 20.82000 44.69800
C  58.27500 25.58700 45.27400
N  54.06900 23.13600 43.29600
C  53.31300 24.24200 43.03100
C  51.90400 23.82700 42.53000
C  51.90400 22.26000 42.81500
C  53.40300 21.97500 43.17400
C  50.94100 21.75800 43.93600
C  51.64400 24.14800 41.03300
C  50.26300 24.60700 40.81000
H  49.49700 23.84100 39.73000
N  56.12200 21.02300 44.05400
C  55.14600 20.27100 43.63500
C  55.54800 18.92600 43.71100
C  56.95900 18.90900 44.01000
C  57.23600 20.25700 44.24900
C  54.69100 17.67700 43.36000
C  57.80800 17.60100 44.16200
O  57.36500 16.48600 44.02800
C  59.19200 17.69800 44.62200
N  58.05300 23.21200 44.87300
C  58.79800 22.14900 44.95100
C  60.23600 22.53000 45.41500
C  60.07700 23.99900 45.87400
C  58.74500 24.27100 45.38700
C  60.92500 21.66200 46.53800
C  61.20000 24.98500 45.22700
C  61.98300 25.89800 46.18300
N  56.06700 25.23100 44.32300
C  57.00000 26.04200 44.74300
C  56.53600 27.39900 44.57900
C  55.23200 27.27800 44.04300
C  55.03700 25.89500 43.82500
C  57.29100 28.57900 44.98600
C  54.12300 27.98400 43.58500
O  53.95500 29.21200 43.60100
C  53.09200 26.93800 43.07100
C  52.74900 27.32700 41.59400
O  53.36300 27.11400 40.55600
O  51.52500 27.87100 41.63600
C  51.05700 28.53000 40.37400
H  53.16900 19.93500 42.97100
H  59.21800 20.06200 44.65700
H  58.93500 26.37900 45.63400
H  51.09100 24.23100 43.13300
H  51.64200 21.75800 41.88400
H  51.52900 21.59500 44.83900
H  50.64500 20.75300 43.63300
H  50.06000 22.38200 44.08600
H  51.88600 23.26400 40.44300
H  52.32100 24.92600 40.67800
H  50.35100 25.67300 40.59900
H  49.65300 24.75500 41.70200
H  54.58300 17.16700 44.31700
H  55.16800 17.01600 42.63700
H  53.69600 17.90700 42.98100
H  59.93200 17.97100 43.87000
H  59.47800 16.66100 44.79800
H  59.23200 18.06200 45.64900
H  60.88400 22.43000 44.54400
H  60.12900 23.98800 46.96200
H  61.95100 21.42900 46.25300
H  60.46800 20.67200 46.53500
H  60.90200 22.15700 47.50800
H  60.74700 25.62500 44.47000
H  61.86800 24.33100 44.66700
H  61.46600 25.94200 47.14200
H  62.14800 26.90500 45.80000
H  62.98100 25.51300 46.39700
H  58.20600 28.62700 44.39500
H  57.52900 28.45800 46.04300
H  56.68800 29.45500 44.74900
H  52.21600 26.78400 43.70100
H  51.72200 28.31400 39.53900
H  51.04700 29.59800 40.59100
H  50.02500 28.26300 40.14600
Mg 30.72600 58.06500 40.56300
C  28.00100 55.86600 39.55800
C  32.86000 55.44500 39.97200
C  33.12500 60.23000 41.05300
C  28.34100 60.73000 40.72100
N  30.38800 55.89500 39.73600
C  29.25300 55.21200 39.45500
C  29.50700 53.73800 39.28100
C  31.07100 53.60500 39.58600
C  31.49200 55.07600 39.83200
C  31.54000 52.66500 40.75800
C  28.95900 53.15600 37.92900
C  29.50900 53.71900 36.58200
H  28.48300 54.23100 35.53600
N  32.71700 57.90200 40.56900
C  33.40200 56.73600 40.23600
C  34.79800 57.07100 40.49500
C  34.90300 58.41500 40.79600
C  33.58800 58.88600 40.87700
C  35.82000 56.01400 40.25700
C  36.21900 59.12100 40.91300
O  37.31000 58.50400 40.72700
C  36.32500 60.53300 41.29600
N  30.73800 60.28000 40.71100
C  31.83600 60.84700 41.14200
C  31.58500 62.31600 41.51100
C  30.05100 62.51800 41.21600
C  29.64400 61.10300 40.90000
C  32.06900 62.72700 42.91800
C  29.62400 63.64000 40.19900
C  29.03900 64.96800 40.86900
N  28.64200 58.29100 40.23100
C  27.83400 59.45900 40.33600
C  26.42600 59.13600 39.99100
C  26.45400 57.72400 39.67900
C  27.83900 57.28300 39.87500
C  25.35400 60.18700 40.09300
C  25.65800 56.57600 39.37500
O  24.44600 56.47700 39.27400
C  26.57200 55.36900 39.28100
C  25.99700 54.36500 40.21200
O  26.37200 54.22300 41.34400
O  25.13500 53.53000 39.60000
C  24.50200 52.46600 40.42500
H  33.55300 54.60800 39.86300
H  33.82400 61.03500 41.28900
H  27.61300 61.49400 40.99900
H  28.98600 53.26400 40.11300
H  31.54000 53.27500 38.66000
H  32.07200 51.76400 40.45000
H  30.60600 52.17600 41.03500
H  31.94300 53.27900 41.56300
H  27.88400 53.33700 37.90900
H  29.20100 52.09400 37.96800
H  30.03100 52.97400 35.98100
H  30.17400 54.54000 36.85000
H  36.28300 55.65100 41.17500
H  36.58200 56.44100 39.60400
H  35.39800 55.14500 39.75200
H  36.13500 60.60700 42.36700
H  35.65400 61.22200 40.78400
H  37.31500 60.91800 41.05200
H  32.12800 62.86400 40.74200
H  29.54400 62.75600 42.15100
H  32.76600 61.96400 43.26600
H  31.24100 62.83100 43.61900
H  32.71900 63.60100 42.88800
H  28.92400 63.13400 39.53400
H  30.37700 63.79000 39.42500
H  29.27100 65.16700 41.91600
H  27.95500 65.08700 40.85600
H  29.50000 65.82100 40.37000
H  25.52500 60.89800 39.28500
H  25.36700 60.76600 41.01600
H  24.41200 59.72400 39.79900
H  26.59300 54.88000 38.30700
H  24.17800 52.82600 41.40100
H  25.25200 51.70000 40.62500
H  23.71500 51.88900 39.93900

