158

Mg 35.97000 2.34500 30.40100
C  33.55200 3.42700 32.68300
C  38.32100 2.46700 32.94900
C  38.41300 1.83200 28.02400
C  33.75300 2.85500 27.82300
N  35.89500 2.80200 32.56700
C  34.79500 3.15400 33.30300
C  35.12700 3.17000 34.79200
C  36.78900 3.05800 34.73400
C  36.99200 2.70800 33.32400
C  37.48100 4.40000 35.11200
C  34.40700 2.03100 35.49600
C  34.19900 2.13800 36.99000
H  34.87800 3.24000 37.81400
N  38.05300 2.10600 30.46500
C  38.80800 2.16800 31.61300
C  40.13500 1.63200 31.33200
C  40.21800 1.49600 29.89700
C  38.85400 1.80900 29.37700
C  41.28500 1.45300 32.34900
C  41.46200 1.14300 29.03500
O  41.37200 1.00300 27.82300
C  42.86900 1.03900 29.63300
N  36.04800 2.30400 28.24800
C  37.17000 2.15500 27.52300
C  36.86500 2.11400 26.03300
C  35.35000 2.18400 25.95800
C  35.04600 2.41000 27.48600
C  37.61900 3.19800 25.19300
C  34.56000 0.86200 25.47500
C  33.35800 1.05000 24.53300
N  33.97400 2.88300 30.23600
C  33.21700 3.06000 29.09400
C  31.95600 3.53600 29.52800
C  31.99800 3.56600 30.92900
C  33.24200 3.28500 31.29300
C  30.73600 3.61200 28.66600
C  31.26400 3.87300 32.13100
O  30.12800 4.29100 32.31100
C  32.29100 3.77600 33.36600
C  32.24600 5.00800 34.11400
O  32.37900 6.11500 33.64100
O  32.17300 4.77600 35.41900
C  31.96400 6.08900 36.14200
H  39.13900 2.21900 33.62900
H  39.19700 1.70400 27.27600
H  32.97200 2.93500 27.06400
H  34.74300 4.10100 35.20900
H  37.24800 2.20500 35.23300
H  36.72200 5.18300 35.11900
H  38.10900 4.72700 34.28400
H  38.07200 4.24600 36.01600
H  35.00100 1.11700 35.45000
H  33.50600 1.74500 34.95400
H  34.63900 1.30800 37.54300
H  33.13200 2.24700 37.18500
H  41.80400 0.49800 32.26100
H  40.97300 1.73900 33.35300
H  41.99700 2.20600 32.01200
H  42.84600 0.24900 30.38300
H  43.28700 1.94300 30.07600
H  43.58700 0.77900 28.85500
H  37.32300 1.17200 25.73200
H  34.88600 3.07000 25.52500
H  36.91100 3.87300 24.71300
H  38.21200 2.67900 24.44000
H  38.17100 3.90600 25.81100
H  34.08700 0.42500 26.35500
H  35.29900 0.23300 24.97800
H  33.54800 0.93700 23.46600
H  32.99800 2.07600 24.61000
H  32.51600 0.44000 24.86100
H  30.54700 2.66900 28.15200
H  30.86100 4.39900 27.92200
H  29.85500 3.81700 29.27400
H  31.85800 2.91100 33.86800
H  31.01100 6.59300 35.98400
H  32.85500 6.68600 35.94900
H  32.00700 5.90900 37.21600
Mg 30.72600 58.06500 40.56300
C  28.00100 55.86600 39.55800
C  32.86000 55.44500 39.97200
C  33.12500 60.23000 41.05300
C  28.34100 60.73000 40.72100
N  30.38800 55.89500 39.73600
C  29.25300 55.21200 39.45500
C  29.50700 53.73800 39.28100
C  31.07100 53.60500 39.58600
C  31.49200 55.07600 39.83200
C  31.54000 52.66500 40.75800
C  28.95900 53.15600 37.92900
C  29.50900 53.71900 36.58200
H  28.48300 54.23100 35.53600
N  32.71700 57.90200 40.56900
C  33.40200 56.73600 40.23600
C  34.79800 57.07100 40.49500
C  34.90300 58.41500 40.79600
C  33.58800 58.88600 40.87700
C  35.82000 56.01400 40.25700
C  36.21900 59.12100 40.91300
O  37.31000 58.50400 40.72700
C  36.32500 60.53300 41.29600
N  30.73800 60.28000 40.71100
C  31.83600 60.84700 41.14200
C  31.58500 62.31600 41.51100
C  30.05100 62.51800 41.21600
C  29.64400 61.10300 40.90000
C  32.06900 62.72700 42.91800
C  29.62400 63.64000 40.19900
C  29.03900 64.96800 40.86900
N  28.64200 58.29100 40.23100
C  27.83400 59.45900 40.33600
C  26.42600 59.13600 39.99100
C  26.45400 57.72400 39.67900
C  27.83900 57.28300 39.87500
C  25.35400 60.18700 40.09300
C  25.65800 56.57600 39.37500
O  24.44600 56.47700 39.27400
C  26.57200 55.36900 39.28100
C  25.99700 54.36500 40.21200
O  26.37200 54.22300 41.34400
O  25.13500 53.53000 39.60000
C  24.50200 52.46600 40.42500
H  33.55300 54.60800 39.86300
H  33.82400 61.03500 41.28900
H  27.61300 61.49400 40.99900
H  28.98600 53.26400 40.11300
H  31.54000 53.27500 38.66000
H  32.07200 51.76400 40.45000
H  30.60600 52.17600 41.03500
H  31.94300 53.27900 41.56300
H  27.88400 53.33700 37.90900
H  29.20100 52.09400 37.96800
H  30.03100 52.97400 35.98100
H  30.17400 54.54000 36.85000
H  36.28300 55.65100 41.17500
H  36.58200 56.44100 39.60400
H  35.39800 55.14500 39.75200
H  36.13500 60.60700 42.36700
H  35.65400 61.22200 40.78400
H  37.31500 60.91800 41.05200
H  32.12800 62.86400 40.74200
H  29.54400 62.75600 42.15100
H  32.76600 61.96400 43.26600
H  31.24100 62.83100 43.61900
H  32.71900 63.60100 42.88800
H  28.92400 63.13400 39.53400
H  30.37700 63.79000 39.42500
H  29.27100 65.16700 41.91600
H  27.95500 65.08700 40.85600
H  29.50000 65.82100 40.37000
H  25.52500 60.89800 39.28500
H  25.36700 60.76600 41.01600
H  24.41200 59.72400 39.79900
H  26.59300 54.88000 38.30700
H  24.17800 52.82600 41.40100
H  25.25200 51.70000 40.62500
H  23.71500 51.88900 39.93900

