158

Mg 42.77400 41.10600 26.31700
C  42.00900 43.60800 28.71500
C  43.66400 39.00700 28.86000
C  43.43700 38.98200 23.95100
C  42.24100 43.61600 23.86400
N  42.81100 41.33900 28.52100
C  42.27600 42.40100 29.29000
C  42.29300 42.03700 30.81600
C  43.06800 40.63200 30.79700
C  43.16300 40.21500 29.32100
C  44.43400 40.62000 31.60700
C  40.84500 42.03400 31.38000
C  40.54700 43.03800 32.53900
H  39.94300 42.39600 33.81100
N  43.45700 39.26300 26.42700
C  43.81400 38.55300 27.53100
C  44.25900 37.23000 27.13000
C  44.13800 37.16200 25.65900
C  43.62600 38.49000 25.30100
C  44.65200 36.23200 28.19200
C  44.38000 36.01700 24.72200
O  44.03300 35.98400 23.53200
C  44.94400 34.79600 25.35300
N  43.10800 41.33800 24.18300
C  43.20900 40.21900 23.43900
C  43.40700 40.53800 21.97900
C  43.01200 42.02100 21.91800
C  42.75400 42.38200 23.40500
C  44.94300 40.38100 21.55100
C  41.81600 42.37600 20.99600
C  42.01500 43.59300 20.08700
N  42.24000 43.17900 26.29000
C  42.06800 44.03000 25.21200
C  41.55600 45.38900 25.64700
C  41.48600 45.28200 27.09700
C  42.02000 43.98000 27.37600
C  41.22500 46.52800 24.73900
C  41.18600 45.94700 28.32800
O  40.75900 47.04500 28.60200
C  41.60800 44.87500 29.44700
C  42.70700 45.41500 30.33700
O  43.88000 45.12500 30.19900
O  42.11500 46.05700 31.43900
C  43.19900 46.62900 32.25400
H  43.89200 38.31900 29.67600
H  43.46000 38.17300 23.21800
H  42.20500 44.44500 23.15500
H  42.89500 42.79000 31.32400
H  42.47000 39.91500 31.35900
H  44.40500 39.90800 32.43200
H  44.51000 41.59700 32.08400
H  45.22600 40.43400 30.88200
H  40.67400 41.11400 31.93900
H  40.10100 42.23200 30.60900
H  39.75700 43.74600 32.28700
H  41.41000 43.64900 32.80200
H  45.73000 36.07200 28.16400
H  44.09800 35.32100 27.96700
H  44.60200 36.44800 29.25900
H  45.39600 34.09000 24.65600
H  44.17500 34.34300 25.97800
H  45.78900 35.22400 25.89300
H  42.78900 39.92300 21.32400
H  43.86200 42.56000 21.49800
H  45.52800 40.35400 22.47000
H  45.47500 41.10200 20.93100
H  45.10200 39.47600 20.96400
H  40.90100 42.50400 21.57600
H  41.66100 41.53800 20.31700
H  41.46700 43.30300 19.19100
H  43.01100 43.95600 19.83400
H  41.35800 44.30400 20.58900
H  41.00000 46.09500 23.76400
H  42.06400 47.22100 24.80200
H  40.42700 47.06200 25.25400
H  40.77900 44.78000 30.14900
H  43.94600 47.20300 31.70500
H  43.54800 45.89800 32.98200
H  42.63600 47.29100 32.91200
Mg 9.66000 46.96800 25.86600
C  7.78400 46.93800 28.84000
C  12.32600 48.09600 27.66700
C  11.55100 46.93800 23.02900
C  6.74200 46.42600 24.01900
N  10.00100 47.54500 28.08100
C  9.14200 47.35900 29.10400
C  9.84800 47.81700 30.46500
C  11.05900 48.66500 29.91300
C  11.14300 48.13500 28.45600
C  10.91100 50.18200 29.97700
C  10.17700 46.65200 31.51000
C  10.22400 47.05300 32.92600
H  9.71000 46.10200 34.05400
N  11.61700 47.30900 25.39600
C  12.58400 47.65600 26.35600
C  13.91300 47.61900 25.74300
C  13.64600 47.17400 24.38500
C  12.19500 47.07500 24.22800
C  15.22000 47.97400 26.33300
C  14.64600 46.83500 23.25500
O  14.32500 46.35000 22.09500
C  16.07800 47.07700 23.43900
N  9.22000 46.81400 23.82300
C  10.16900 46.75300 22.78000
C  9.56900 46.41100 21.39000
C  8.05200 46.18200 21.81900
C  7.97300 46.45500 23.25700
C  9.89800 47.40900 20.22700
C  7.59100 44.70100 21.64600
C  8.02400 43.65500 22.68000
N  7.67100 46.79000 26.30100
C  6.57500 46.55100 25.45800
C  5.39100 46.43600 26.19100
C  5.77900 46.56900 27.55900
C  7.23200 46.79700 27.55500
C  3.94600 46.20500 25.59300
C  5.38300 46.50500 28.90000
O  4.29000 46.23900 29.38900
C  6.58100 46.78100 29.83100
C  6.80300 45.65600 30.69100
O  7.45300 44.66700 30.43000
O  6.15000 45.81900 31.84200
C  5.88900 44.58400 32.61600
H  13.19900 48.47900 28.19800
H  12.09300 46.90900 22.08100
H  5.91500 46.23100 23.33200
H  9.21700 48.47300 31.06400
H  11.98300 48.36600 30.40600
H  9.97900 50.55400 30.40400
H  11.05000 50.74900 29.05600
H  11.66500 50.67500 30.58900
H  11.13100 46.16400 31.31000
H  9.49100 45.82900 31.31200
H  9.63800 47.95700 33.08900
H  11.27700 47.16500 33.18500
H  16.00500 47.21800 26.34800
H  15.04500 48.37000 27.33400
H  15.71600 48.76800 25.77500
H  16.11500 48.16200 23.54400
H  16.53900 46.83800 22.48100
H  16.48400 46.61700 24.34000
H  10.11900 45.49300 21.18500
H  7.39800 46.91700 21.34900
H  10.48400 48.25300 20.59100
H  8.99400 47.75100 19.72400
H  10.61400 46.93100 19.55800
H  7.93500 44.29200 20.69600
H  6.50600 44.73800 21.54800
H  8.63700 44.03100 23.49900
H  8.67700 42.94500 22.17300
H  7.08800 43.20400 23.00900
H  3.15000 45.93300 26.28700
H  4.09800 45.24900 25.09200
H  3.58600 47.02300 24.96900
H  6.37100 47.61100 30.50700
H  5.65600 44.70000 33.67500
H  6.84200 44.05600 32.61100
H  5.14700 43.94300 32.14000

