158

Mg 25.84100 1.08100 28.84200
C  27.66200 0.71000 31.75200
C  22.95500 0.70600 30.57200
C  24.07400 0.80000 25.87800
C  28.84800 0.76500 26.97300
N  25.41800 0.70000 30.92800
C  26.27900 0.78200 31.99500
C  25.56500 0.98000 33.31700
C  24.12700 1.04500 32.90000
C  24.15100 0.72400 31.34500
C  23.14600 0.13000 33.69300
C  25.93300 2.24500 34.12600
C  25.64900 2.20300 35.60000
H  26.70000 2.77700 36.59800
N  23.79400 0.76000 28.23200
C  22.73800 0.75000 29.14700
C  21.50600 0.65800 28.50600
C  21.81600 0.76900 27.11900
C  23.26200 0.76100 26.97300
C  20.14100 0.53700 29.06700
C  20.88600 0.69700 25.89400
O  21.32500 0.63800 24.76600
C  19.38400 0.73000 26.07100
N  26.44500 0.83500 26.70000
C  25.50300 0.78200 25.69700
C  26.18100 0.78100 24.31300
C  27.68300 1.22800 24.68500
C  27.68400 0.99600 26.20400
C  26.22100 -0.70600 23.68300
C  28.06000 2.70900 24.35500
C  28.86400 2.96500 23.08400
N  27.86700 0.68900 29.23200
C  28.97100 0.49900 28.35900
C  30.08500 0.17100 29.19500
C  29.72600 0.32400 30.55100
C  28.35600 0.64900 30.49500
C  31.46500 -0.17800 28.61700
C  30.05200 0.23400 31.95900
O  31.11500 0.08300 32.51000
C  28.73300 0.56100 32.80400
C  28.63700 -0.49600 33.79100
O  28.03800 -1.55000 33.64900
O  29.37800 -0.20200 34.91200
C  29.31400 -1.17400 36.04600
H  21.98200 0.85100 31.04600
H  23.62400 0.72100 24.88700
H  29.82300 0.70000 26.48500
H  25.73900 0.13300 33.98000
H  23.71800 2.05600 32.90600
H  23.46100 0.06500 34.73400
H  22.89600 -0.88700 33.39100
H  22.18800 0.61800 33.87500
H  25.45200 3.16800 33.80300
H  26.99700 2.43400 33.98600
H  25.54900 1.17500 35.95000
H  24.69300 2.65100 35.87100
H  20.17100 0.50500 30.15600
H  19.64800 -0.35500 28.67900
H  19.48400 1.30900 28.66700
H  19.05100 1.54800 26.70900
H  18.93500 -0.20500 26.40700
H  18.95800 0.89200 25.08100
H  25.73900 1.46200 23.58600
H  28.39900 0.58200 24.17700
H  25.40500 -1.29400 24.10400
H  27.14400 -1.28000 23.76100
H  25.94400 -0.67800 22.62900
H  28.70200 3.10700 25.14100
H  27.11800 3.25500 24.29600
H  29.95100 2.91600 23.14400
H  28.54900 3.96900 22.79800
H  28.57500 2.26100 22.30400
H  32.00200 0.60600 28.08400
H  31.29800 -0.78100 27.72500
H  31.94600 -0.71400 29.43600
H  28.94700 1.54100 33.23100
H  28.43000 -0.99900 36.65800
H  30.20100 -0.90300 36.61900
H  29.26100 -2.22800 35.77400
Mg -11.09200 16.65700 41.72900
C  -7.76400 17.37400 41.56100
C  -11.83500 19.99100 41.14500
C  -14.37100 15.85600 41.60300
C  -10.34100 13.25200 42.13100
N  -9.94200 18.42400 41.34500
C  -8.61000 18.44300 41.26800
C  -8.07900 19.83400 40.91700
C  -9.36200 20.75900 41.16200
C  -10.43600 19.66300 41.26200
C  -9.34400 21.51800 42.51900
C  -7.67500 19.89000 39.44000
C  -6.20600 20.33300 39.19200
H  -5.52600 19.65100 38.02300
N  -12.85900 17.76700 41.17300
C  -12.95300 19.09200 41.08500
C  -14.33300 19.41400 40.90000
C  -15.07700 18.21600 40.96700
C  -14.08500 17.20400 41.28400
C  -14.73400 20.82700 40.73800
C  -16.59000 18.13600 40.58600
O  -17.26100 19.15000 40.38800
C  -17.20400 16.74400 40.33500
N  -12.19600 14.75300 41.80400
C  -13.54800 14.70100 41.83100
C  -14.10300 13.30200 42.04300
C  -12.76600 12.41700 42.01900
C  -11.70800 13.51100 41.96700
C  -14.89800 13.12300 43.27600
C  -12.84900 11.39800 40.80400
C  -13.14000 9.91200 41.09100
N  -9.37200 15.46700 41.86600
C  -9.22600 14.14400 42.13000
C  -7.75500 13.82300 41.98100
C  -7.17700 15.12900 41.90400
C  -8.20600 16.06600 41.80100
C  -7.13100 12.49600 41.94500
C  -5.86500 15.80800 41.83500
O  -4.67800 15.44700 41.93500
C  -6.23800 17.31100 41.65100
C  -5.64000 18.10700 42.72300
O  -6.29000 18.65900 43.54100
O  -4.28800 18.05800 42.57700
C  -3.53400 19.11800 43.32300
H  -12.04500 21.05700 41.03000
H  -15.41200 15.60300 41.81500
H  -10.13000 12.19000 42.27200
H  -7.24200 20.16000 41.53500
H  -9.59300 21.44200 40.34400
H  -8.66100 21.05300 43.23100
H  -10.34600 21.63400 42.93200
H  -8.94600 22.50900 42.30200
H  -8.27900 20.47600 38.74800
H  -7.78300 18.89800 39.00200
H  -5.59800 20.31300 40.09600
H  -6.24000 21.36900 38.85500
H  -14.66100 21.14400 39.69800
H  -14.16400 21.47800 41.40100
H  -15.73400 20.79200 41.17000
H  -18.11100 16.89000 39.74900
H  -17.46400 16.19300 41.23900
H  -16.52100 16.20000 39.68300
H  -14.72200 13.17500 41.15400
H  -12.68300 11.84000 42.94000
H  -15.81300 13.68700 43.09300
H  -14.26500 13.60900 44.01900
H  -14.95100 12.07400 43.56800
H  -11.86200 11.42800 40.34200
H  -13.57500 11.79300 40.09300
H  -13.70600 9.81500 42.01700
H  -12.18200 9.41000 41.23100
H  -13.68000 9.49500 40.24100
H  -6.85700 12.38700 40.89500
H  -7.88500 11.71100 41.99900
H  -6.22000 12.35900 42.52800
H  -5.81400 17.74000 40.74300
H  -4.07300 20.06600 43.34100
H  -2.52400 19.20500 42.92300
H  -3.41600 18.79300 44.35600

