158

Mg 42.17800 41.89200 26.23600
C  41.88700 44.27600 28.80100
C  43.32500 39.68600 28.64400
C  42.71000 39.72000 23.84200
C  41.72700 44.48800 23.82000
N  42.58300 41.95500 28.53000
C  42.26900 43.00800 29.34600
C  42.36900 42.61000 30.80600
C  42.89900 41.06700 30.74400
C  42.99200 40.85900 29.21400
C  44.23100 40.79100 31.44300
C  41.02800 42.74100 31.56900
C  41.20800 43.52700 32.94200
H  39.96100 43.46900 33.85400
N  42.86300 39.86600 26.27800
C  43.28600 39.20400 27.36100
C  43.78300 37.95500 26.87900
C  43.53300 37.89500 25.46200
C  43.03300 39.17500 25.09100
C  44.37500 36.85400 27.78200
C  43.83300 36.70800 24.40200
O  43.65400 36.80000 23.18600
C  44.45900 35.41400 24.95200
N  42.26600 42.11500 24.15000
C  42.34200 41.01800 23.43400
C  42.34100 41.37100 21.91500
C  41.81400 42.89900 21.89900
C  41.91000 43.20700 23.37500
C  43.80400 41.17200 21.32000
C  40.35500 42.98700 21.45700
C  39.33900 42.25000 22.36600
N  41.99300 43.91900 26.24600
C  41.80900 44.82600 25.21500
C  41.42800 46.14500 25.78600
C  41.53000 45.93400 27.16500
C  41.84300 44.58100 27.38700
C  41.12900 47.44600 25.13500
C  41.23300 46.58700 28.44600
O  40.89500 47.74000 28.70300
C  41.50700 45.62600 29.55800
C  42.62200 46.21400 30.45500
O  43.82100 46.15700 30.12700
O  42.16900 46.68300 31.62600
C  43.15400 47.05500 32.65600
H  43.54100 38.82500 29.28000
H  42.80600 39.04300 22.99100
H  41.41100 45.18900 23.04400
H  43.08900 43.32100 31.21000
H  42.27300 40.25900 31.12300
H  44.96500 40.12700 30.98800
H  44.00400 40.27500 32.37600
H  44.71800 41.74500 31.64900
H  40.66400 41.74600 31.82500
H  40.32800 43.18200 30.86000
H  41.29600 44.58300 32.69000
H  42.17000 43.18800 33.32700
H  43.83600 35.91400 27.66200
H  44.45900 36.95700 28.86300
H  45.29700 36.44500 27.36900
H  44.62600 34.71400 24.13400
H  43.94900 34.88800 25.75900
H  45.39700 35.81400 25.33800
H  41.52200 40.75600 21.54300
H  42.39200 43.55800 21.25100
H  44.22800 40.37200 21.92700
H  44.25500 42.16300 21.36900
H  43.81200 40.94800 20.25400
H  40.23900 42.52000 20.47900
H  39.93700 43.98000 21.28800
H  39.79200 41.76800 23.23300
H  38.80700 41.49800 21.78300
H  38.57500 43.00700 22.54600
H  42.09300 47.95400 25.12700
H  40.40000 48.04100 25.68600
H  40.74200 47.41000 24.11700
H  40.62600 45.48000 30.18300
H  43.98100 47.67100 32.30400
H  43.53200 46.08400 32.97800
H  42.55100 47.52500 33.43300
Mg -5.38100 25.13100 25.94400
C  -3.86700 26.67600 28.66800
C  -6.80400 22.89200 28.15300
C  -7.09300 23.78000 23.39600
C  -3.66400 27.14700 23.77800
N  -5.32200 24.80600 28.12800
C  -4.74500 25.65800 29.06000
C  -5.13900 25.27300 30.54300
C  -5.66600 23.78300 30.24600
C  -5.94500 23.83400 28.78300
C  -4.74600 22.64000 30.82200
C  -6.28100 26.17700 31.14400
C  -5.94900 26.68400 32.55700
H  -6.90100 26.34100 33.66700
N  -6.76900 23.55700 25.70800
C  -7.29800 22.77800 26.80800
C  -8.43700 21.92300 26.39200
C  -8.56900 22.16300 25.01400
C  -7.48500 23.23300 24.65300
C  -9.09100 21.02900 27.38400
C  -9.47800 21.64200 23.87700
O  -9.36700 22.10100 22.72800
C  -10.36600 20.38700 24.13700
N  -5.17000 25.30700 23.90200
C  -6.07700 24.67800 23.04600
C  -5.74100 24.99000 21.59300
C  -4.70800 26.24200 21.70600
C  -4.42200 26.19500 23.18600
C  -5.33500 23.72700 20.76500
C  -5.27800 27.61000 21.12600
C  -4.93600 27.93800 19.62800
N  -4.01900 26.57200 26.13800
C  -3.33900 27.27700 25.16500
C  -2.46000 28.27300 25.72400
C  -2.69800 28.12200 27.12600
C  -3.61300 27.00800 27.32400
C  -1.57200 29.20700 24.97600
C  -2.32000 28.67700 28.49000
O  -1.65700 29.62200 28.95200
C  -3.11400 27.67800 29.47800
C  -2.09300 27.00800 30.28500
O  -1.21100 26.22700 29.78400
O  -2.06200 27.54900 31.56800
C  -0.92500 27.20700 32.37600
H  -7.19500 22.14300 28.84500
H  -7.72300 23.62200 22.51800
H  -3.05400 27.81200 23.16300
H  -4.36300 25.18400 31.30300
H  -6.65700 23.59900 30.66200
H  -3.84000 22.55400 30.22200
H  -5.36400 21.74200 30.83300
H  -4.52100 22.85000 31.86800
H  -7.27100 25.72200 31.16800
H  -6.19300 27.08500 30.54800
H  -6.19000 27.74700 32.54900
H  -4.92100 26.44700 32.83100
H  -9.38100 21.53100 28.30700
H  -8.31700 20.30300 27.63200
H  -9.97300 20.50800 27.01100
H  -9.71700 19.70100 24.68100
H  -10.69000 20.09400 23.13800
H  -11.14400 20.82000 24.76500
H  -6.70000 25.34900 21.21800
H  -3.78200 25.96400 21.20300
H  -5.40600 22.87100 21.43700
H  -4.30400 23.82400 20.42500
H  -6.06300 23.78500 19.95600
H  -4.86900 28.39100 21.76700
H  -6.35900 27.72900 21.20000
H  -4.06400 27.39300 19.26500
H  -4.71500 29.00400 19.57900
H  -5.78100 27.64700 19.00300
H  -2.09000 29.96000 24.38200
H  -0.83100 28.57700 24.48400
H  -0.96400 29.72300 25.72000
H  -3.74200 28.25700 30.15600
H  -1.28800 26.59500 33.20100
H  -0.70100 28.16800 32.84000
H  -0.03700 26.77600 31.91300

