158

Mg -2.15800 17.10500 26.37300
C  -2.70900 14.67900 29.00700
C  -2.61200 19.69100 28.61500
C  -2.13600 19.22500 23.90900
C  -1.87800 14.44900 24.25100
N  -2.77600 17.14600 28.49900
C  -2.77000 16.04700 29.37000
C  -2.76500 16.54000 30.82500
C  -2.92400 18.16200 30.71200
C  -2.72400 18.38000 29.16400
C  -4.17900 18.75800 31.25900
C  -1.53500 16.04300 31.65400
C  -0.87900 16.96300 32.77400
H  -0.64500 16.32500 34.17100
N  -2.28600 19.11700 26.29400
C  -2.45700 20.04700 27.31800
C  -2.47000 21.38800 26.78600
C  -2.39900 21.25800 25.38100
C  -2.31900 19.86200 25.10800
C  -2.61500 22.54200 27.80500
C  -2.33400 22.36000 24.34500
O  -2.49800 22.20600 23.18100
C  -2.22900 23.84000 24.89400
N  -2.01900 16.95200 24.40900
C  -1.94000 17.92200 23.53800
C  -1.81100 17.46500 22.06100
C  -1.74500 15.95800 22.19200
C  -1.85500 15.73600 23.71600
C  -2.97500 17.97700 21.17600
C  -0.47200 15.41900 21.56000
C  0.85000 15.54800 22.32500
N  -2.23000 14.99400 26.52900
C  -2.10100 14.05800 25.54500
C  -2.15200 12.75300 26.06900
C  -2.45600 12.93400 27.48200
C  -2.52500 14.33900 27.68100
C  -2.00600 11.41800 25.26200
C  -2.67100 12.28400 28.78300
O  -2.68900 11.05400 29.05500
C  -2.77800 13.41300 29.81700
C  -1.69900 13.02300 30.73700
O  -0.50900 13.30900 30.63200
O  -2.30500 12.31800 31.75000
C  -1.34500 12.09500 32.83800
H  -2.63300 20.43400 29.41500
H  -2.02800 19.96600 23.11500
H  -1.60200 13.57800 23.65300
H  -3.65100 16.07500 31.25500
H  -2.15600 18.71600 31.25100
H  -4.83400 18.89400 30.39800
H  -3.92800 19.68600 31.77100
H  -4.70800 18.05600 31.90400
H  -0.73500 15.77800 30.96300
H  -1.88100 15.19500 32.24600
H  -1.56800 17.79500 32.91800
H  0.01200 17.41000 32.33500
H  -1.80900 23.26000 27.65200
H  -2.85500 22.27500 28.83400
H  -3.47500 23.01500 27.33100
H  -3.07500 23.98300 25.56700
H  -2.28400 24.48300 24.01600
H  -1.24800 23.98500 25.34700
H  -0.81000 17.75200 21.73800
H  -2.59300 15.48700 21.69500
H  -3.47200 17.20000 20.59500
H  -2.70500 18.77000 20.47900
H  -3.72500 18.29500 21.89900
H  -0.26100 15.84500 20.58000
H  -0.61700 14.34300 21.46900
H  0.74600 16.08400 23.26900
H  1.59900 15.89300 21.61300
H  1.25900 14.58400 22.62700
H  -1.43100 11.64500 24.36400
H  -3.01200 11.01700 25.14300
H  -1.36100 10.78800 25.87400
H  -3.77800 13.30700 30.23700
H  -0.48600 11.48000 32.57000
H  -1.93400 11.73000 33.68000
H  -1.03000 13.00600 33.34700
Mg 49.52300 45.47000 42.37600
C  45.96100 45.69600 41.51500
C  49.17600 42.16900 41.43800
C  52.70900 45.44000 42.09400
C  49.46600 48.93600 42.78900
N  47.70500 44.06500 41.49400
C  46.40900 44.40400 41.22100
C  45.75400 43.20400 40.55000
C  46.69100 42.10400 41.04600
C  47.90800 42.81700 41.30000
C  46.27000 41.27000 42.26700
C  45.60000 43.41600 39.04200
C  44.59600 42.52100 38.27500
H  44.97100 41.74700 36.96200
N  50.78400 43.96800 41.95400
C  50.50500 42.65700 41.60100
C  51.75900 41.93200 41.61700
C  52.83300 42.88000 41.65300
C  52.13600 44.17200 41.92600
C  51.77500 40.45300 41.65600
C  54.34800 42.61800 41.63900
O  54.82800 41.50300 41.39900
C  55.30300 43.81600 41.95000
N  50.89900 46.98800 42.47300
C  52.26200 46.72200 42.49200
C  53.10500 48.03800 42.65100
C  51.99200 49.14800 42.84300
C  50.66300 48.32600 42.74600
C  54.18800 47.98200 43.80800
C  52.13000 50.25700 41.65600
C  51.87000 51.68600 42.15400
N  48.10900 47.06600 42.27700
C  48.26700 48.38600 42.54800
C  46.95400 49.01600 42.48700
C  46.03400 48.06200 42.03200
C  46.75200 46.86000 41.90300
C  46.65800 50.49600 42.68100
C  44.64200 47.82700 41.66000
O  43.74000 48.68100 41.63800
C  44.59400 46.29300 41.21200
C  43.55900 45.48700 41.80500
O  42.81700 44.71300 41.21200
O  43.37200 45.83100 43.07800
C  42.12900 45.37200 43.84500
H  49.11400 41.09100 41.27200
H  53.79400 45.53400 42.02200
H  49.35600 50.02200 42.81500
H  44.73300 42.94200 40.82900
H  47.00700 41.39900 40.27700
H  47.12200 41.09400 42.92300
H  46.06300 40.30200 41.81100
H  45.31800 41.61000 42.67800
H  46.58900 43.44500 38.58500
H  45.12900 44.39400 38.94400
H  43.77800 43.19000 38.00600
H  44.07900 41.88000 38.98900
H  51.47700 40.05800 42.62700
H  52.69000 40.00300 41.27200
H  51.08400 40.05400 40.91400
H  56.28800 43.37100 42.08600
H  54.90600 44.15100 42.90800
H  55.41000 44.50300 41.11100
H  53.67100 48.27900 41.75100
H  51.98400 49.55400 43.85500
H  55.18400 48.18500 43.41500
H  54.35500 47.02500 44.30400
H  53.93100 48.56300 44.69400
H  51.30600 49.98700 40.99600
H  53.05000 50.29600 41.07300
H  51.09700 52.07800 41.49300
H  52.78300 52.28000 42.20600
H  51.66500 51.72000 43.22400
H  47.50500 50.92100 43.21900
H  45.82000 50.52600 43.37700
H  46.40100 51.12600 41.83000
H  44.39300 46.29900 40.14000
H  41.21000 45.75500 43.40300
H  42.15200 45.72300 44.87700
H  42.01900 44.29800 43.69000

