158

Mg 16.78900 52.09100 26.34600
C  18.81100 51.17800 29.03400
C  14.34600 52.90500 28.59400
C  14.95200 53.04900 23.64500
C  19.44800 51.15000 24.13300
N  16.73400 52.27200 28.55600
C  17.63100 51.78900 29.45500
C  17.13100 51.82200 30.89500
C  15.66300 52.12100 30.64000
C  15.58000 52.50300 29.14300
C  14.62100 51.08900 31.15400
C  17.95800 52.98700 31.65100
C  18.18800 52.70600 33.10000
H  17.22300 51.73800 33.76200
N  14.91800 52.86400 26.15600
C  14.02700 53.07200 27.16600
C  12.69600 53.51600 26.64700
C  12.90400 53.51900 25.19800
C  14.32600 53.17100 24.92900
C  11.53400 53.89200 27.51400
C  11.92900 53.83400 24.11500
O  12.28000 53.86100 22.95900
C  10.49100 54.32700 24.40200
N  17.12500 52.05400 24.20700
C  16.21300 52.63500 23.31100
C  16.77500 52.52900 21.84400
C  18.29600 52.09900 22.12200
C  18.33400 51.78900 23.59600
C  15.96800 51.69000 20.86600
C  19.29900 53.16200 21.61600
C  19.94900 54.10800 22.62000
N  18.61600 51.22300 26.44800
C  19.58000 50.89400 25.51900
C  20.72700 50.34200 26.12800
C  20.39800 50.31000 27.53100
C  19.19000 50.99400 27.63800
C  21.99500 49.91600 25.44100
C  20.97900 50.02200 28.87200
O  22.06000 49.65300 29.31800
C  19.90600 50.52400 29.89000
C  19.55200 49.22000 30.62000
O  19.17300 48.16700 30.13000
O  19.79700 49.47400 31.97900
C  19.58300 48.29500 32.82000
H  13.58800 53.09200 29.35700
H  14.36900 53.39000 22.78700
H  20.24100 51.01900 23.39300
H  17.17000 50.85100 31.38900
H  15.43900 53.05200 31.16000
H  14.12700 50.74200 30.24600
H  13.94500 51.33600 31.97300
H  15.10800 50.21400 31.58300
H  17.31200 53.85000 31.48500
H  18.85000 53.18300 31.05600
H  18.10600 53.68400 33.57300
H  19.23700 52.40900 33.10500
H  11.65100 54.92800 27.82900
H  11.23700 53.24500 28.34000
H  10.60200 53.93400 26.95000
H  10.54900 55.27700 24.93400
H  10.00300 53.46900 24.86400
H  9.97200 54.36200 23.44400
H  16.70300 53.56200 21.50400
H  18.54700 51.18400 21.58600
H  16.61300 51.33600 20.06100
H  15.22300 52.35900 20.43400
H  15.49000 50.82000 21.31500
H  18.70500 53.79900 20.96000
H  20.12600 52.77700 21.02000
H  21.03400 54.01400 22.65700
H  19.58200 53.90900 23.62700
H  19.73000 55.14900 22.38200
H  22.43200 50.64000 24.75300
H  21.74600 48.98100 24.94000
H  22.80700 49.81200 26.16100
H  20.41800 51.15100 30.62000
H  20.40900 47.59000 32.72500
H  18.65900 47.73800 32.66700
H  19.55600 48.55200 33.87900
Mg 2.01200 42.19400 24.28700
C  2.90100 42.36100 27.67000
C  -1.06600 40.99300 25.31900
C  1.35900 41.27200 21.17400
C  5.37300 42.81100 23.59600
N  1.12800 41.57100 26.20900
C  1.56400 41.94700 27.48000
C  0.56400 41.66800 28.53800
C  -0.65100 41.07800 27.75700
C  -0.18400 41.24000 26.35100
C  -1.03000 39.64100 28.11500
C  0.23700 42.90800 29.44300
C  -0.90100 42.95800 30.48200
H  -1.73000 41.71400 30.83500
N  0.28400 41.37600 23.27500
C  -0.91300 41.03500 23.90400
C  -1.82100 40.67200 22.87400
C  -1.11000 40.69800 21.59000
C  0.20300 41.14300 21.95300
C  -3.15400 40.10700 23.16500
C  -1.56900 40.47100 20.16300
O  -0.90600 40.62400 19.13200
C  -3.01200 40.04000 19.95000
N  3.21600 41.96500 22.66100
C  2.72700 41.55100 21.44000
C  3.79700 41.63100 20.38200
C  4.91800 42.45700 21.04600
C  4.55100 42.35600 22.56300
C  4.23600 40.18600 19.87300
C  5.07500 43.87200 20.61500
C  3.98700 44.94700 20.74500
N  3.82200 42.67400 25.34700
C  5.09400 42.90500 24.98800
C  5.93300 43.24500 26.13100
C  5.12900 43.05600 27.23800
C  3.86200 42.68000 26.70700
C  7.33800 43.66000 26.06800
C  5.12100 42.91300 28.66400
O  6.03100 42.97900 29.42600
C  3.68100 42.49700 28.96900
C  3.83000 41.14000 29.60500
O  4.61500 40.27800 29.20900
O  2.87400 40.96800 30.58200
C  2.64300 39.60100 31.00700
H  -2.09400 40.76000 25.60300
H  1.28200 41.04700 20.10900
H  6.42700 42.87600 23.32000
H  0.93300 40.82400 29.12100
H  -1.43200 41.83500 27.82300
H  -0.65000 39.34100 29.09200
H  -0.62200 38.88000 27.45000
H  -2.11100 39.53200 28.19600
H  0.03000 43.75500 28.78900
H  1.15400 43.23700 29.93300
H  -1.61000 43.71000 30.13400
H  -0.46100 43.36800 31.39100
H  -3.83100 40.07900 22.31100
H  -3.70200 40.56400 23.98900
H  -3.02500 39.05100 23.39800
H  -3.15400 39.09000 20.46500
H  -3.03900 39.97900 18.86200
H  -3.75000 40.74600 20.33000
H  3.56500 42.02600 19.39300
H  5.90900 42.00600 20.99400
H  3.76400 39.93600 18.92300
H  3.87600 39.44300 20.58400
H  5.32400 40.13500 19.84000
H  5.04800 43.79000 19.52900
H  6.02000 44.26100 20.99300
H  3.29000 44.54900 21.48300
H  3.49500 45.05500 19.77900
H  4.39200 45.86900 21.16300
H  7.65300 44.12500 25.13400
H  7.93500 42.78000 26.30600
H  7.72000 44.38000 26.79200
H  3.27800 43.12700 29.76300
H  3.28100 39.37800 31.86200
H  2.82800 38.85800 30.23200
H  1.59900 39.63600 31.31900

