158

Mg 46.35800 17.09400 27.94100
C  44.96800 16.24000 30.97000
C  48.99500 18.59500 29.77500
C  47.99500 17.84900 25.00500
C  43.91100 15.49900 26.29300
N  46.91600 17.30900 30.16800
C  46.11000 16.97300 31.22000
C  46.68200 17.37300 32.56800
C  47.88100 18.32600 32.15600
C  47.99100 18.10400 30.61100
C  47.58100 19.79300 32.46500
C  47.11600 16.17400 33.41100
C  46.67300 16.22400 34.88800
H  46.60600 17.63800 35.43200
N  48.12500 18.13100 27.47300
C  49.09600 18.63500 28.35800
C  50.22400 19.12400 27.57700
C  49.84700 19.14800 26.20300
C  48.61400 18.37000 26.17700
C  51.42100 19.84300 28.28000
C  50.53000 19.68200 24.84900
O  50.11800 19.45900 23.69300
C  51.84300 20.45500 24.88000
N  45.99100 16.68400 25.83900
C  46.80000 17.02700 24.85100
C  46.15100 16.66100 23.47300
C  45.05400 15.66600 24.01800
C  45.00600 15.89100 25.47800
C  45.67300 17.91400 22.61400
C  45.27400 14.17700 23.59700
C  45.94800 13.09100 24.53500
N  44.67700 16.22300 28.43400
C  43.77300 15.55500 27.66300
C  42.68200 14.98900 28.48100
C  43.18800 15.20200 29.78200
C  44.37100 15.98300 29.73200
C  41.52800 14.23600 28.06600
C  42.82700 15.09100 31.16700
O  41.70900 14.66000 31.52000
C  43.92500 15.69800 32.00200
C  43.31200 16.81000 32.75500
O  43.08500 17.92700 32.26000
O  42.91200 16.38800 34.07800
C  42.32100 17.36600 35.01400
H  49.82400 19.06500 30.30800
H  48.28900 18.07400 23.97700
H  43.17800 14.89600 25.75300
H  45.95600 17.95200 33.13800
H  48.79900 17.97500 32.62800
H  48.42900 20.16700 33.04000
H  46.68500 20.01600 33.04500
H  47.47900 20.20600 31.46200
H  48.20200 16.11400 33.48300
H  46.73200 15.25400 32.97000
H  47.48200 15.77800 35.46600
H  45.72300 15.70500 35.01700
H  51.03100 20.77700 28.68300
H  52.24600 19.96100 27.57900
H  51.90500 19.25600 29.06100
H  51.61200 21.43100 25.30800
H  52.25700 20.62700 23.88700
H  52.59600 19.97600 25.50600
H  46.87500 16.18600 22.81100
H  44.11600 15.94100 23.53500
H  44.58900 17.83400 22.53900
H  46.15200 17.83100 21.63900
H  46.04600 18.81900 23.09400
H  45.88600 14.17200 22.69500
H  44.33500 13.66500 23.38700
H  47.02700 13.24400 24.58000
H  45.62800 12.08400 24.27000
H  45.57300 13.20700 25.55200
H  40.60200 14.79900 27.94500
H  41.41400 13.45600 28.81800
H  41.66200 13.66200 27.14900
H  44.23000 14.95400 32.73800
H  41.25000 17.40100 34.81300
H  42.73000 18.36800 34.88400
H  42.65000 16.94600 35.96400
Mg 36.58100 49.21300 25.55000
C  36.49400 47.24900 28.52700
C  35.25800 51.84700 27.41700
C  36.32200 50.98700 22.68700
C  37.45300 46.36700 23.81400
N  35.88100 49.42000 27.64600
C  36.14700 48.55200 28.70000
C  35.96200 49.29000 30.06300
C  35.31500 50.65400 29.69800
C  35.50800 50.64200 28.18600
C  33.84100 50.86300 30.10300
C  37.32500 49.46400 30.92900
C  37.20200 49.65500 32.48200
H  35.81300 49.70000 33.01000
N  35.93400 51.16200 25.09600
C  35.43400 52.10200 25.99300
C  35.33300 53.35200 25.28800
C  35.65300 53.15800 23.90800
C  36.05900 51.73800 23.84000
C  34.87200 54.55000 26.00100
C  35.80200 54.24000 22.72600
O  36.19600 53.89600 21.64100
C  35.64200 55.72000 22.86500
N  36.66900 48.66100 23.52300
C  36.63700 49.64100 22.50900
C  36.99500 49.03300 21.16500
C  37.57600 47.66700 21.67300
C  37.23200 47.54500 23.04700
C  35.77800 49.14600 20.15300
C  39.10900 47.55300 21.31300
C  40.16600 48.34400 22.06100
N  36.86500 47.14300 26.01700
C  37.24700 46.14200 25.17600
C  37.59900 44.99900 26.04000
C  37.31800 45.38500 27.36800
C  36.82300 46.67000 27.31100
C  38.28400 43.77200 25.66800
C  37.29300 44.89900 28.71900
O  37.74500 43.83800 29.25700
C  36.65100 46.07200 29.51400
C  35.25700 45.80000 30.01600
O  34.28700 45.72500 29.31000
O  35.24200 45.83900 31.39500
C  33.94400 45.37600 31.97300
H  34.87100 52.67000 28.02100
H  36.27500 51.48900 21.71800
H  37.87700 45.41000 23.50500
H  35.30800 48.69000 30.69600
H  35.91000 51.48900 30.06700
H  33.81100 51.78600 30.68300
H  33.50800 50.03100 30.72300
H  33.14800 50.98300 29.27000
H  37.90100 50.29900 30.53100
H  37.92900 48.56500 30.80700
H  37.84900 50.47600 32.79000
H  37.66000 48.79100 32.96400
H  35.63400 55.30600 26.19400
H  34.33500 54.37600 26.93300
H  34.11000 55.06600 25.41700
H  35.16800 56.19100 23.72600
H  35.04100 56.00300 22.00100
H  36.66600 56.08600 22.79300
H  37.86300 49.58100 20.79800
H  37.03400 46.81700 21.25800
H  35.67300 48.17800 19.66400
H  36.03900 49.88800 19.39800
H  34.92400 49.46200 20.75200
H  39.04500 47.74000 20.24100
H  39.27500 46.48000 21.40300
H  39.82100 49.13800 22.72400
H  40.93100 48.75600 21.40200
H  40.71700 47.65100 22.69700
H  38.80100 43.97500 24.73100
H  37.58200 42.94200 25.59000
H  39.14000 43.58100 26.31600
H  37.19200 46.47000 30.37200
H  33.85400 45.71800 33.00400
H  34.02000 44.29200 32.05500
H  33.10300 45.74100 31.38300

