158

Mg 49.22200 36.53000 27.34500
C  47.17900 34.79300 29.74800
C  48.99100 39.31400 29.29500
C  50.76900 38.12100 24.91600
C  48.61500 33.76500 25.26900
N  48.18100 36.97800 29.29500
C  47.55000 36.09700 30.11700
C  47.16500 36.81300 31.43200
C  47.60700 38.29100 31.18300
C  48.32200 38.19600 29.83500
C  46.57500 39.45500 31.30100
C  47.81500 36.23100 32.80400
C  46.73900 36.04000 33.99200
H  46.50200 37.18600 35.02600
N  49.86000 38.48700 27.15100
C  49.78100 39.46000 28.09900
C  50.53700 40.63600 27.62400
C  51.12500 40.29700 26.29000
C  50.62100 38.94500 26.06900
C  50.71100 41.84300 28.59500
C  51.97100 41.16300 25.41400
O  52.32600 40.76300 24.29700
C  52.35100 42.59800 25.82900
N  49.48300 36.09600 25.43200
C  50.24800 36.86900 24.68600
C  50.56100 36.22400 23.28500
C  50.19900 34.69800 23.59000
C  49.33300 34.82300 24.81600
C  49.60600 36.86800 22.27000
C  51.40600 33.66700 23.67000
C  51.23200 32.31300 22.94100
N  48.16800 34.59200 27.46200
C  47.93700 33.63900 26.48700
C  46.98800 32.59500 27.00800
C  46.80400 32.98000 28.34100
C  47.46800 34.17800 28.52800
C  46.51200 31.39800 26.27800
C  46.09700 32.59600 29.60500
O  45.39100 31.62200 29.93300
C  46.44600 33.70900 30.58400
C  47.03700 33.01200 31.82000
O  48.16300 32.85000 32.17300
O  45.95000 32.61100 32.59600
C  46.30100 31.80000 33.74200
H  48.92700 40.12800 30.02000
H  51.20200 38.67400 24.08000
H  48.42000 32.97800 24.53800
H  46.08200 36.73100 31.51900
H  48.35800 38.60100 31.90900
H  46.57200 40.01700 30.36700
H  46.76200 40.19000 32.08300
H  45.65400 38.93000 31.55700
H  48.53100 36.99200 33.11500
H  48.35700 35.28900 32.72400
H  46.93900 35.08000 34.46900
H  45.72800 35.95300 33.59300
H  50.75700 41.44600 29.61000
H  49.91900 42.57200 28.43000
H  51.61900 42.44600 28.58200
H  52.98000 42.46600 26.70900
H  51.52800 43.25900 26.10000
H  52.90700 43.16700 25.08500
H  51.56700 36.42600 22.91600
H  49.48100 34.38900 22.83000
H  49.23600 37.75000 22.79300
H  48.86100 36.18300 21.86500
H  50.17700 37.30200 21.44900
H  51.57600 33.50500 24.73400
H  52.26300 34.27600 23.37800
H  51.42000 31.49300 23.63300
H  51.95900 32.37400 22.13200
H  50.24100 32.26900 22.48900
H  45.48700 31.60600 25.97200
H  46.60700 30.52200 26.92000
H  47.10600 31.21800 25.38100
H  45.46700 34.17500 30.69900
H  46.50700 30.77500 33.43500
H  45.43500 31.78400 34.40300
H  47.21200 32.10600 34.25600
Mg -12.30300 37.44800 41.82900
C  -10.26100 34.85900 40.73400
C  -10.17200 39.76600 40.33200
C  -14.74200 39.92800 42.06200
C  -14.62600 35.09100 42.82500
N  -10.42200 37.26900 40.75200
C  -9.74700 36.15800 40.42300
C  -8.42500 36.54500 39.74700
C  -8.26000 38.10000 39.96200
C  -9.77800 38.41900 40.37200
C  -7.34700 38.47500 41.20400
C  -8.48400 35.96000 38.28500
C  -7.37300 34.99000 37.89800
H  -6.29300 35.45600 36.92000
N  -12.41500 39.56300 41.31800
C  -11.40600 40.29900 40.74500
C  -11.81500 41.68300 40.61600
C  -13.03700 41.77600 41.31500
C  -13.47300 40.39200 41.61100
C  -10.95400 42.80000 40.05900
C  -13.70400 43.08900 41.52400
O  -13.03500 44.06200 41.27300
C  -15.12600 43.17000 41.98100
N  -14.47700 37.46300 42.26300
C  -15.16400 38.59700 42.45400
C  -16.45100 38.33800 43.26200
C  -16.46900 36.82100 43.48300
C  -15.08100 36.44100 42.81400
C  -16.56700 39.12700 44.60500
C  -17.63300 36.07400 42.86600
C  -17.71200 36.10800 41.28700
N  -12.43800 35.40600 41.90400
C  -13.43300 34.56700 42.38100
C  -12.91200 33.21700 42.29100
C  -11.68800 33.28100 41.65300
C  -11.45800 34.63500 41.47000
C  -13.65800 31.98500 42.78100
C  -10.60200 32.44700 41.15700
O  -10.38200 31.25000 41.12100
C  -9.62200 33.46500 40.46400
C  -8.33100 33.32700 41.08200
O  -7.39200 32.62600 40.60700
O  -8.23800 34.05200 42.25400
C  -6.96100 33.90700 42.99400
H  -9.40200 40.43800 39.94700
H  -15.57100 40.61200 42.25800
H  -15.18700 34.28600 43.30500
H  -7.58000 36.10000 40.27300
H  -7.83300 38.57100 39.07700
H  -7.94600 38.84600 42.03500
H  -6.64000 39.28200 41.00900
H  -6.75200 37.60000 41.46700
H  -8.35400 36.77800 37.57600
H  -9.41600 35.40000 38.21600
H  -7.73800 34.02100 37.55900
H  -6.97100 34.59700 38.83200
H  -10.21000 42.43500 39.35000
H  -10.51400 43.34400 40.89400
H  -11.55700 43.52000 39.50500
H  -15.80700 42.63900 41.31600
H  -15.42400 44.20000 42.18000
H  -15.26000 42.62600 42.91600
H  -17.27800 38.64200 42.61900
H  -16.39700 36.56700 44.54100
H  -17.02300 40.06600 44.29100
H  -15.59100 39.52700 44.87900
H  -17.13600 38.56100 45.34300
H  -18.59100 36.37900 43.28700
H  -17.57300 35.05900 43.25700
H  -17.91000 35.13400 40.84000
H  -16.84100 36.57800 40.83100
H  -18.51400 36.76900 40.95800
H  -13.84000 32.09300 43.85000
H  -13.19000 31.02500 42.56100
H  -14.55900 32.09100 42.17800
H  -9.56100 33.24600 39.39800
H  -6.20500 34.57100 42.57400
H  -6.60900 32.87500 42.99100
H  -7.07400 34.10900 44.05900

