158

Mg 47.42500 16.68500 29.05100
C  45.17600 16.29300 31.66900
C  49.28000 18.78100 30.94300
C  49.34700 17.48200 26.31500
C  45.20000 15.05600 26.92800
N  47.20100 17.43200 31.10000
C  46.28500 17.03000 32.04600
C  46.87200 17.37500 33.41000
C  47.87000 18.51700 33.07900
C  48.14200 18.18600 31.61300
C  47.28100 19.91700 33.35300
C  47.50700 16.11800 34.03900
C  47.74700 16.13700 35.54000
H  47.67500 17.43800 36.36100
N  49.21100 17.78900 28.70800
C  49.87000 18.48000 29.70500
C  51.14900 18.97000 29.19600
C  51.14700 18.76300 27.76500
C  49.83400 17.96000 27.53300
C  52.05600 19.73500 30.13900
C  52.08900 19.12200 26.69800
O  51.94300 18.88100 25.51900
C  53.30700 19.85200 27.15000
N  47.26800 16.38400 26.97100
C  48.18200 16.75500 26.09200
C  47.78100 16.38400 24.64300
C  46.59200 15.43700 24.84200
C  46.31500 15.64100 26.34800
C  47.36700 17.63600 23.76500
C  46.80200 13.89900 24.38300
C  45.62400 13.26200 23.63600
N  45.62000 15.86300 29.23000
C  44.81500 15.24500 28.25600
C  43.56900 14.78800 28.79100
C  43.71900 15.17100 30.16000
C  44.93400 15.88600 30.30300
C  42.37300 14.19100 28.21700
C  43.02100 15.10700 31.46800
O  41.87200 14.74300 31.76900
C  44.11000 15.70100 32.59800
C  43.46700 16.60700 33.53600
O  43.00900 17.70100 33.10700
O  43.54600 16.25800 34.87400
C  42.94000 17.06800 35.87600
H  49.94800 19.42800 31.51600
H  49.80900 17.77900 25.37100
H  44.59200 14.39900 26.30200
H  46.06900 17.77300 34.03100
H  48.70400 18.38800 33.76900
H  46.20100 19.86800 33.49500
H  47.48200 20.53600 32.47900
H  47.74400 20.41100 34.20600
H  48.44600 15.88900 33.53400
H  46.81500 15.29000 33.88700
H  48.79200 15.83700 35.61600
H  47.27400 15.27700 36.01400
H  53.10100 19.59100 29.86400
H  51.91000 19.30800 31.13100
H  51.81500 20.79500 30.21900
H  53.18600 20.92900 27.26400
H  54.01500 19.64100 26.34900
H  53.75200 19.34300 28.00400
H  48.62300 15.90800 24.14200
H  45.70700 15.74400 24.28400
H  47.62100 18.55300 24.29600
H  46.33700 17.75400 23.42800
H  47.98600 17.47600 22.88200
H  46.92900 13.36900 25.32600
H  47.70700 13.90500 23.77600
H  45.26700 12.37400 24.15700
H  45.98600 12.89400 22.67600
H  44.90600 14.06400 23.46600
H  42.58100 14.01400 27.16100
H  41.56800 14.92500 28.26300
H  42.20600 13.31000 28.83700
H  44.65900 14.93800 33.14900
H  43.70600 17.75000 36.24800
H  42.75000 16.36600 36.68700
H  42.07000 17.67800 35.63100
Mg -10.37100 17.17900 41.02900
C  -6.95600 16.76400 41.08000
C  -9.76400 20.58600 40.23600
C  -13.69700 17.56400 40.27700
C  -10.72400 13.76900 41.24700
N  -8.55300 18.54900 40.62200
C  -7.27000 18.09300 40.79400
C  -6.25000 19.24200 40.40400
C  -7.22000 20.49500 40.61700
C  -8.60400 19.88800 40.50400
C  -7.13700 21.12600 42.07600
C  -5.81100 19.11700 38.84400
C  -4.32500 18.85500 38.46700
H  -4.03000 17.66200 37.66700
N  -11.51900 18.87400 40.40700
C  -11.10300 20.18700 40.15200
C  -12.21200 20.99400 39.77100
C  -13.36300 20.16700 39.71800
C  -12.86700 18.77300 40.15800
C  -12.13100 22.51300 39.72100
C  -14.74300 20.58300 39.16500
O  -15.03300 21.71600 38.78800
C  -15.90200 19.63300 39.10500
N  -11.97900 15.86000 40.71600
C  -13.23600 16.31300 40.59900
C  -14.23700 15.15100 40.66300
C  -13.29300 13.88900 40.59700
C  -11.88800 14.51900 40.82200
C  -15.24300 15.21600 41.89000
C  -13.39300 12.91900 39.35500
C  -14.07500 11.58800 39.52800
N  -9.16600 15.52900 41.28500
C  -9.44100 14.20600 41.40500
C  -8.19700 13.48300 41.69300
C  -7.18900 14.42100 41.53400
C  -7.83500 15.66100 41.27100
C  -8.05000 12.01200 41.86800
C  -5.75900 14.72400 41.58400
O  -4.81200 13.93700 41.85600
C  -5.54900 16.31000 41.36800
C  -5.08300 16.85600 42.63200
O  -3.89800 17.13000 42.87000
O  -6.15000 17.03500 43.49600
C  -5.71500 17.37800 44.87900
H  -9.51100 21.57700 39.85300
H  -14.71100 17.62600 39.87700
H  -10.94400 12.70700 41.37800
H  -5.44700 19.13300 41.13300
H  -7.09600 21.31900 39.91400
H  -8.09800 21.35200 42.53700
H  -6.64400 22.09300 41.97300
H  -6.52300 20.48400 42.70700
H  -6.03100 20.10800 38.44800
H  -6.41800 18.31000 38.43100
H  -3.88800 18.60500 39.43300
H  -3.89900 19.78100 38.07900
H  -11.96900 22.90600 38.71700
H  -11.22100 22.83700 40.22700
H  -13.02700 23.01700 40.08300
H  -16.80500 20.19700 38.87300
H  -16.06400 19.22600 40.10300
H  -15.66500 18.92800 38.30800
H  -14.82200 15.15000 39.74300
H  -13.57500 13.27600 41.45300
H  -16.08000 15.82400 41.54500
H  -14.79800 15.76300 42.72100
H  -15.54300 14.18600 42.08500
H  -12.38600 12.63900 39.04700
H  -13.90700 13.55900 38.63700
H  -14.99600 11.75700 38.96900
H  -14.26500 11.39500 40.58300
H  -13.56600 10.75900 39.03600
H  -7.25700 11.79200 42.58200
H  -7.75000 11.63300 40.89100
H  -9.02900 11.60400 42.12000
H  -4.87000 16.53100 40.54400
H  -6.50400 17.07900 45.56900
H  -5.64600 18.46600 44.89100
H  -4.89900 16.76200 45.25500

