158

Mg 26.20600 -0.60900 29.57000
C  28.16000 -0.52600 32.53700
C  23.49700 -0.08400 31.49000
C  24.43300 -0.99200 26.79200
C  29.19200 -1.14900 27.84200
N  25.93300 -0.42700 31.82700
C  26.87800 -0.27900 32.79600
C  26.14400 0.02400 34.18700
C  24.60300 -0.00200 33.82800
C  24.61900 -0.15900 32.28800
C  23.70900 -0.94100 34.72800
C  26.65600 1.34400 34.89000
C  27.03000 1.10300 36.37100
H  26.53200 2.13000 37.33300
N  24.21400 -0.56600 29.15800
C  23.23600 -0.27900 30.10900
C  21.93800 -0.40800 29.45500
C  22.23700 -0.47800 28.03900
C  23.66800 -0.74600 27.99300
C  20.71900 -0.32100 30.22800
C  21.27600 -0.54700 26.94500
O  21.68700 -0.60100 25.79100
C  19.87700 -0.37700 27.15700
N  26.69200 -1.16400 27.59300
C  25.80200 -1.20400 26.63700
C  26.40500 -1.25800 25.17300
C  27.92900 -1.17700 25.53100
C  27.99500 -1.11100 27.05700
C  25.90700 -2.43100 24.26100
C  28.67200 0.08400 24.87400
C  28.65400 1.44700 25.60400
N  28.22000 -0.86900 30.03300
C  29.29800 -1.18700 29.24100
C  30.55700 -1.20100 30.01700
C  30.10900 -1.03600 31.31700
C  28.68000 -0.81500 31.28000
C  31.98700 -1.33700 29.49600
C  30.59600 -0.85800 32.70300
O  31.71800 -0.91500 33.13100
C  29.29600 -0.41100 33.51800
C  29.28100 -1.46700 34.66000
O  29.08300 -2.64600 34.52500
O  29.57900 -0.82200 35.82600
C  29.52200 -1.64000 37.07700
H  22.59500 0.11100 32.07500
H  23.97400 -1.17900 25.81900
H  30.10400 -1.22600 27.24700
H  26.45700 -0.81900 34.80200
H  24.14700 0.94700 34.10900
H  23.13700 -1.68000 34.16700
H  22.91600 -0.45700 35.29700
H  24.28100 -1.35600 35.55800
H  25.86700 2.08900 34.78900
H  27.60300 1.69900 34.48300
H  28.05900 1.23300 36.70800
H  26.73100 0.10700 36.69900
H  20.17100 0.57200 29.92800
H  20.89500 -0.19100 31.29600
H  20.10600 -1.21400 30.10500
H  19.36200 -0.24600 26.20500
H  19.61100 0.48000 27.77600
H  19.49100 -1.34000 27.49000
H  26.06100 -0.36400 24.65100
H  28.52600 -2.05200 25.27300
H  25.17100 -3.02300 24.80500
H  26.67700 -3.14300 23.96300
H  25.49300 -2.02600 23.33800
H  28.29500 0.17400 23.85500
H  29.67800 -0.21000 24.57400
H  29.55900 2.04300 25.48800
H  28.52200 1.45000 26.68600
H  27.89900 2.09700 25.16200
H  32.13300 -2.40500 29.66000
H  32.63600 -0.62500 30.00500
H  31.96600 -1.09100 28.43400
H  29.54600 0.60700 33.81500
H  30.40800 -1.34000 37.63700
H  29.46000 -2.72000 36.94000
H  28.61500 -1.31100 37.58300
Mg 16.32000 51.51900 25.62900
C  18.09200 50.12900 28.44200
C  13.92800 52.43500 27.91400
C  14.28100 51.87200 23.06600
C  18.83800 50.35600 23.55100
N  16.16900 51.33200 27.98000
C  17.03300 50.85700 28.90900
C  16.58800 51.16000 30.31800
C  15.12300 51.65600 30.11300
C  15.07800 51.86900 28.59100
C  13.96300 50.73300 30.54600
C  17.55600 52.10100 31.05800
C  18.16800 51.61900 32.41500
H  17.30100 50.81500 33.37900
N  14.42600 52.12200 25.45500
C  13.58000 52.59800 26.51200
C  12.32600 52.99700 25.97600
C  12.34300 52.63700 24.57900
C  13.71600 52.21600 24.30100
C  11.20800 53.58900 26.87600
C  11.19600 52.75900 23.58400
O  11.31100 52.41000 22.42100
C  9.90100 53.44000 23.97000
N  16.64000 51.21900 23.58800
C  15.61600 51.47000 22.71300
C  16.12200 51.28900 21.25300
C  17.65300 51.11500 21.43800
C  17.72200 50.86300 22.97900
C  15.45000 50.15400 20.42400
C  18.61200 52.21100 21.03600
C  18.34900 53.67400 21.59800
N  18.14000 50.46700 25.94800
C  19.04300 50.07000 24.94200
C  20.16900 49.41500 25.58400
C  19.78900 49.43100 26.98400
C  18.54400 50.04500 27.08700
C  21.44800 48.96200 25.02200
C  20.29700 49.02900 28.29600
O  21.37700 48.56800 28.66600
C  19.16300 49.49500 29.29100
C  18.67200 48.28400 30.16800
O  17.62700 47.68200 30.03300
O  19.51100 48.11000 31.27500
C  19.09100 47.00800 32.19500
H  13.21500 52.62500 28.71800
H  13.70200 52.20400 22.20100
H  19.69900 49.93500 23.02700
H  16.47600 50.31200 30.99200
H  15.03800 52.56900 30.70100
H  14.31500 49.85300 31.08400
H  13.23000 50.32400 29.85100
H  13.36000 51.21000 31.31800
H  17.10700 53.08200 31.21200
H  18.42300 52.27500 30.42100
H  18.40300 52.43700 33.09700
H  18.99800 50.97200 32.13300
H  10.47800 52.78800 26.99400
H  10.76200 54.42900 26.34300
H  11.74600 54.02100 27.71900
H  9.09000 53.14100 23.30600
H  10.19700 54.48900 23.93700
H  9.71300 53.00800 24.95300
H  16.00400 52.20400 20.67400
H  18.00500 50.22300 20.92000
H  14.37800 49.96400 20.47600
H  15.83400 49.16300 20.66800
H  15.66000 50.27300 19.36100
H  18.55600 52.32600 19.95400
H  19.65000 51.90700 21.17700
H  18.36100 54.44900 20.83200
H  19.14300 53.91700 22.30400
H  17.34300 53.66500 22.01800
H  21.85700 49.60700 24.24300
H  21.29800 47.97200 24.59200
H  22.24600 48.88300 25.76100
H  19.67700 50.27100 29.85900
H  18.50100 46.19800 31.76600
H  18.43500 47.30700 33.01200
H  20.00100 46.53400 32.56400

