158

Mg 47.20300 24.86100 27.80000
C  48.20200 27.21900 30.30300
C  46.65600 22.59800 30.26000
C  46.47600 22.83700 25.34800
C  48.25900 27.31700 25.36700
N  47.44500 24.94500 30.12200
C  47.82900 25.98800 30.91700
C  47.73300 25.58300 32.39500
C  47.23000 24.12000 32.32200
C  47.09800 23.82800 30.84600
C  48.10600 23.04200 33.12300
C  46.94100 26.71400 33.26100
C  45.91100 26.35200 34.39800
H  45.94900 27.21100 35.72000
N  46.67000 22.90000 27.79700
C  46.53000 22.12100 28.95600
C  46.09000 20.82300 28.50200
C  45.84400 20.89200 27.08000
C  46.37900 22.22300 26.66400
C  45.75600 19.58300 29.44000
C  45.25200 19.84400 26.12800
O  45.00200 20.09700 24.96300
C  44.97600 18.44100 26.59100
N  47.15400 25.17800 25.67900
C  46.81400 24.10700 24.92400
C  47.25400 24.41100 23.48600
C  47.44600 25.96400 23.43200
C  47.66000 26.19400 24.93300
C  48.59000 23.61900 23.12900
C  46.10400 26.61900 22.99400
C  46.23600 27.96800 22.33800
N  48.06400 26.92100 27.71600
C  48.42600 27.75900 26.68400
C  48.93200 28.96800 27.27100
C  48.74100 28.87900 28.68700
C  48.28400 27.53700 28.87900
C  49.47100 30.18300 26.55000
C  48.93100 29.55300 29.94000
O  49.48200 30.66800 30.13300
C  48.51800 28.48600 31.01700
C  49.69900 28.25200 31.95900
O  50.56900 27.40300 31.82000
O  49.61700 29.11400 32.96800
C  50.56300 28.97200 34.08200
H  46.48700 21.77000 30.95000
H  46.19600 22.16200 24.53600
H  48.70700 28.02900 24.67000
H  48.75400 25.61400 32.77700
H  46.35300 23.96700 32.95000
H  47.58000 22.53600 33.93300
H  48.99600 23.51900 33.53400
H  48.28800 22.32900 32.31900
H  46.40700 27.38100 32.58300
H  47.76400 27.31700 33.64400
H  46.16300 25.34300 34.72400
H  44.91500 26.47800 33.97500
H  44.68200 19.39900 29.41700
H  45.99500 19.65500 30.50100
H  46.29100 18.70900 29.06700
H  44.16300 18.35200 27.31100
H  45.94100 18.15200 27.00800
H  44.71600 17.78700 25.75900
H  46.50900 24.04300 22.78000
H  48.29900 26.26600 22.82400
H  49.27300 23.68600 23.97500
H  49.03900 24.03400 22.22700
H  48.33800 22.56500 23.00700
H  45.52000 26.62300 23.91400
H  45.62600 25.93900 22.28900
H  46.03300 27.70700 21.30000
H  47.26600 28.32100 22.40200
H  45.58700 28.71700 22.79200
H  49.12200 31.01000 27.16700
H  49.17600 30.48900 25.54600
H  50.55600 30.17400 26.65400
H  47.66500 28.93200 31.52800
H  49.98100 28.78600 34.98500
H  51.02800 29.94100 34.26500
H  51.31200 28.21200 33.85700
Mg -1.64100 34.97700 26.92700
C  -3.56100 33.14200 29.28200
C  -0.77200 36.97200 29.51700
C  -0.27100 36.87300 24.75500
C  -2.83200 32.76700 24.36300
N  -1.97200 34.93400 29.24800
C  -2.81600 34.11800 29.93200
C  -2.85600 34.44800 31.43500
C  -2.20800 35.93100 31.40100
C  -1.53600 35.93800 30.01300
C  -3.25800 37.06400 31.51500
C  -2.15000 33.48400 32.42600
C  -2.83700 33.20000 33.81500
H  -2.93200 34.41000 34.83300
N  -0.67600 36.65200 27.11900
C  -0.40100 37.36000 28.25800
C  0.38600 38.51800 27.90100
C  0.61400 38.51400 26.51200
C  -0.07000 37.32600 26.07900
C  0.83900 39.63500 28.91100
C  1.28700 39.47800 25.62700
O  1.40800 39.34200 24.44000
C  1.85800 40.63700 26.28600
N  -1.51500 34.86500 24.83800
C  -0.96400 35.80100 24.13600
C  -0.70400 35.33400 22.69300
C  -1.34100 33.91800 22.60200
C  -1.92700 33.83000 24.00200
C  -1.15500 36.40900 21.62900
C  -0.35600 32.81800 22.27500
C  0.14700 31.86200 23.30900
N  -2.90600 33.34100 26.82400
C  -3.31600 32.55000 25.69800
C  -4.21200 31.48100 26.14400
C  -4.31900 31.66900 27.53400
C  -3.55600 32.82800 27.90600
C  -4.81600 30.36700 25.32700
C  -4.90900 31.13600 28.73900
O  -5.65400 30.20000 28.95300
C  -4.38200 32.05800 29.96200
C  -5.52700 32.54500 30.64300
O  -6.25700 33.45500 30.30000
O  -5.88400 31.67500 31.64600
C  -6.85300 32.20300 32.62500
H  -0.37200 37.58000 30.33100
H  0.27300 37.55600 24.10000
H  -3.13000 32.17100 23.49800
H  -3.92400 34.49300 31.65000
H  -1.44000 35.98900 32.17200
H  -4.25300 36.70500 31.25100
H  -3.07300 37.85100 30.78300
H  -3.30400 37.59300 32.46700
H  -1.15200 33.87000 32.63200
H  -2.17300 32.52200 31.91400
H  -2.27100 32.38700 34.27100
H  -3.86800 32.85300 33.87800
H  1.92800 39.60800 28.87600
H  0.57700 39.38900 29.94000
H  0.40200 40.61700 28.72800
H  1.12100 41.30200 26.73600
H  2.29800 41.18100 25.45100
H  2.63400 40.26300 26.95500
H  0.37700 35.19400 22.71300
H  -2.19900 33.96300 21.93100
H  -1.69100 37.23300 22.10000
H  -1.88700 36.03100 20.91600
H  -0.25200 36.70100 21.09300
H  0.43700 33.28900 21.69400
H  -0.78000 32.07000 21.60500
H  0.25000 32.33200 24.28700
H  1.11800 31.50300 22.96800
H  -0.54500 31.02000 23.32000
H  -4.57400 30.42200 24.26600
H  -5.86700 30.51500 25.57600
H  -4.41200 29.41200 25.66200
H  -3.70000 31.41100 30.51300
H  -7.81500 32.47500 32.19100
H  -6.51000 33.14700 33.04800
H  -6.93400 31.49000 33.44600

