158

Mg -2.75600 17.18000 25.79400
C  -2.99500 14.94800 28.52200
C  -2.98500 19.75600 28.03500
C  -2.53700 19.32900 23.13900
C  -2.98100 14.53500 23.61200
N  -3.00200 17.30300 28.04000
C  -2.97400 16.26100 28.90200
C  -3.08300 16.85500 30.30900
C  -3.17800 18.40800 30.12400
C  -3.02400 18.56200 28.63200
C  -4.50800 19.03800 30.77500
C  -1.92800 16.40500 31.23200
C  -1.62500 17.17300 32.51700
H  -1.08100 16.37900 33.70800
N  -2.76600 19.24100 25.58600
C  -2.81700 20.15200 26.65400
C  -2.74000 21.53100 26.08400
C  -2.55400 21.37500 24.67000
C  -2.65700 19.96300 24.42700
C  -2.94500 22.73900 26.98400
C  -2.21000 22.40000 23.60400
O  -1.75500 22.19100 22.44000
C  -2.29000 23.85300 24.02000
N  -3.01900 17.01100 23.68400
C  -2.83900 18.01900 22.78700
C  -2.92600 17.48500 21.31200
C  -3.01500 15.88300 21.50300
C  -2.99300 15.78100 23.03600
C  -3.98600 18.07200 20.37400
C  -2.06200 14.98000 20.68100
C  -2.61100 14.36800 19.35100
N  -3.03200 15.21200 25.94100
C  -2.96600 14.25400 24.99100
C  -2.94200 12.88200 25.57200
C  -2.94500 13.15700 26.95100
C  -3.01900 14.56500 27.14600
C  -2.88100 11.53200 24.87900
C  -3.02800 12.48300 28.26500
O  -3.13600 11.28700 28.50000
C  -3.14500 13.61000 29.28700
C  -2.09400 13.36200 30.22700
O  -0.89200 13.71900 30.11900
O  -2.50300 12.58300 31.25200
C  -1.52000 11.94700 32.10600
H  -3.09300 20.57400 28.75000
H  -2.40800 19.94600 22.24700
H  -3.08600 13.78200 22.82800
H  -3.89700 16.34800 30.82700
H  -2.33200 18.89900 30.60600
H  -4.56000 19.53700 31.74300
H  -5.30200 18.29400 30.83900
H  -4.85700 19.89700 30.20100
H  -1.02200 16.65200 30.67900
H  -2.09500 15.38000 31.56300
H  -2.47900 17.70100 32.94100
H  -0.71900 17.76500 32.38800
H  -3.29800 22.49200 27.98500
H  -3.67900 23.44300 26.59300
H  -2.01600 23.27100 27.18900
H  -3.32800 24.07400 24.27100
H  -1.78400 24.50400 23.30700
H  -1.74300 23.83600 24.96300
H  -1.97500 17.62300 20.79800
H  -4.00700 15.60900 21.14400
H  -4.92600 17.52000 20.40800
H  -3.57000 17.87800 19.38600
H  -4.29100 19.11500 20.46300
H  -1.71300 14.15400 21.30100
H  -1.10700 15.45100 20.44700
H  -3.51300 14.97100 19.24700
H  -2.78200 13.31400 19.57400
H  -1.93700 14.42100 18.49600
H  -2.43300 11.50900 23.88600
H  -3.86400 11.07200 24.97800
H  -2.24300 10.85700 25.44900
H  -4.11700 13.46900 29.76100
H  -2.11700 11.47600 32.88700
H  -0.78700 12.66700 32.47000
H  -0.91300 11.14700 31.68200
Mg 25.13400 1.43200 29.51200
C  27.30000 1.12800 32.49100
C  22.53500 1.48500 31.66900
C  23.40100 1.91700 26.81100
C  28.17000 1.13600 27.61800
N  24.98800 1.13300 31.89600
C  25.97500 1.31700 32.83300
C  25.30700 1.29500 34.31000
C  23.78900 1.22800 33.98000
C  23.76300 1.33600 32.43900
C  22.92400 0.00400 34.49400
C  25.77200 2.50200 35.18000
C  26.01600 2.24100 36.64200
H  25.94700 3.48700 37.58200
N  23.25000 1.65200 29.29600
C  22.23200 1.67800 30.24800
C  20.92900 1.73500 29.58800
C  21.21100 1.92700 28.19800
C  22.67000 1.82000 28.03400
C  19.61000 1.63200 30.31500
C  20.19900 2.04100 26.99400
O  20.61700 2.01900 25.87300
C  18.65300 2.14300 27.31200
N  25.73600 1.39000 27.46000
C  24.77300 1.60500 26.52600
C  25.39600 1.73500 25.08400
C  26.91900 1.79100 25.43000
C  26.95800 1.43300 26.94800
C  24.80100 0.60300 24.23000
C  27.66900 3.11100 25.25100
C  26.95800 4.27200 25.94700
N  27.20200 1.07800 29.93000
C  28.27800 0.92900 29.00700
C  29.56200 0.63200 29.68100
C  29.14000 0.69800 31.07400
C  27.74700 0.98100 31.18000
C  30.89800 0.40900 29.14200
C  29.71100 0.76400 32.41300
O  30.89100 0.49100 32.77700
C  28.52500 1.09500 33.42300
C  28.52400 -0.03300 34.31100
O  28.10400 -1.15200 34.13600
O  29.08500 0.35400 35.47700
C  29.17300 -0.61700 36.57000
H  21.68700 1.44300 32.35600
H  22.78800 1.99400 25.91000
H  29.06900 1.17600 27.00000
H  25.68000 0.36400 34.73600
H  23.29000 2.12700 34.34000
H  21.97700 0.53200 34.60900
H  23.22400 -0.49300 35.41600
H  22.75500 -0.70300 33.68200
H  25.11700 3.37300 35.20200
H  26.66300 2.87200 34.67200
H  27.03500 1.85500 36.67300
H  25.30200 1.53900 37.07000
H  18.92300 2.39300 29.94500
H  19.55400 1.59800 31.40300
H  19.15500 0.73700 29.88900
H  18.36500 3.06300 27.82100
H  18.23100 1.33000 27.90300
H  18.21800 2.02300 26.32000
H  24.95100 2.66700 24.73800
H  27.48100 1.03600 24.87900
H  24.33500 -0.16300 24.85000
H  25.63900 0.15000 23.70100
H  24.08700 1.06200 23.54500
H  27.64800 3.32600 24.18200
H  28.70300 3.03700 25.58700
H  26.19100 3.90200 26.62700
H  26.52100 4.92500 25.19100
H  27.69100 4.81900 26.53900
H  31.64000 1.18500 29.33300
H  30.74500 0.39800 28.06300
H  31.31200 -0.56800 29.39100
H  28.57600 2.00300 34.02400
H  28.35400 -0.37500 37.24800
H  30.14400 -0.45100 37.03600
H  29.17300 -1.65300 36.22900

