158

Mg 24.00900 -4.83300 46.50500
C  26.22700 -2.54100 45.07800
C  21.63700 -3.69900 44.37500
C  22.29700 -7.59700 47.28800
C  26.93100 -6.21000 48.11100
N  23.98700 -3.29900 44.83500
C  24.96600 -2.44700 44.44300
C  24.49900 -1.61000 43.23600
C  22.91000 -1.75900 43.40400
C  22.80500 -2.96100 44.33800
C  22.14100 -0.54300 43.92000
C  25.09100 -2.12600 41.85800
C  26.15100 -1.23900 41.10300
H  26.05000 -1.43800 39.63200
N  22.12500 -5.50100 45.99700
C  21.33700 -4.92500 45.03200
C  20.15000 -5.70500 44.94400
C  20.25900 -6.86600 45.81800
C  21.59600 -6.74600 46.47800
C  18.98000 -5.36800 44.03400
C  19.26400 -7.98900 45.92700
O  18.15800 -7.93500 45.36500
C  19.65500 -9.34300 46.55900
N  24.61200 -6.55400 47.54400
C  23.66900 -7.53500 47.80100
C  24.16900 -8.76600 48.62100
C  25.66000 -8.36400 48.78500
C  25.77200 -6.94900 48.08200
C  23.38600 -9.08600 49.95100
C  26.52900 -9.47000 48.18700
C  27.69100 -9.83900 49.11200
N  26.18600 -4.36200 46.77500
C  27.13200 -4.90600 47.53100
C  28.40800 -4.22000 47.38800
C  28.08100 -3.22500 46.46200
C  26.71200 -3.36200 46.13700
C  29.74800 -4.42900 48.05300
C  28.62200 -2.16500 45.69600
O  29.72500 -1.71900 45.58500
C  27.53900 -1.69000 44.71200
C  27.44300 -0.24000 44.83100
O  26.96300 0.37800 45.75500
O  28.02900 0.36700 43.79500
C  28.04400 1.86400 43.94500
H  20.96600 -3.24700 43.64100
H  21.66900 -8.39200 47.69700
H  27.80000 -6.55800 48.67400
H  24.73100 -0.54600 43.27200
H  22.46400 -2.05800 42.45600
H  22.72200 0.24900 44.39200
H  21.38400 -0.89800 44.61900
H  21.61900 -0.00200 43.13100
H  24.33400 -2.33400 41.10300
H  25.52200 -3.10600 42.06100
H  27.17100 -1.48200 41.40300
H  26.06800 -0.21800 41.47700
H  19.12800 -4.43100 43.49600
H  18.05900 -5.30500 44.61400
H  18.80200 -6.20700 43.36200
H  20.65900 -9.52500 46.17400
H  19.01100 -10.14800 46.20700
H  19.67700 -9.23300 47.64300
H  24.09600 -9.65700 47.99800
H  25.73900 -8.04400 49.82400
H  23.08000 -10.12900 50.03300
H  22.49900 -8.45300 49.92500
H  24.07700 -8.84400 50.75900
H  26.96900 -9.12200 47.25200
H  25.89200 -10.31200 47.91700
H  27.46900 -9.35300 50.06200
H  28.60700 -9.48200 48.63900
H  27.84600 -10.90000 49.30700
H  30.10600 -5.41300 47.75200
H  29.82400 -4.20500 49.11700
H  30.43100 -3.85400 47.42800
H  27.80900 -1.96600 43.69200
H  28.35300 2.31000 43.00000
H  28.86700 2.27500 44.53000
H  27.06600 2.28400 44.18300
Mg 35.25700 2.68100 30.09900
C  33.19200 4.21100 32.48000
C  37.88400 2.72400 32.30200
C  37.31600 1.78700 27.57000
C  32.64200 2.91000 27.77700
N  35.53200 3.43500 32.10200
C  34.52900 3.91400 32.94300
C  34.97300 4.00900 34.43600
C  36.53200 3.89500 34.17400
C  36.71000 3.33100 32.75600
C  37.50000 5.05300 34.50300
C  34.29000 2.80000 35.21800
C  33.84900 3.12100 36.60300
H  34.56700 4.17800 37.46200
N  37.30400 2.19500 30.02300
C  38.12500 2.20300 31.05000
C  39.43800 1.85400 30.54800
C  39.36000 1.51300 29.15300
C  37.94300 1.80200 28.86000
C  40.72100 1.78600 31.43100
C  40.50000 0.97300 28.23100
O  40.22000 0.53700 27.06900
C  41.92700 0.90800 28.70600
N  34.99700 2.53200 27.99800
C  35.98000 1.99400 27.21200
C  35.54200 1.94700 25.75500
C  33.97200 2.00300 25.85800
C  33.84700 2.47700 27.29300
C  36.25400 2.97700 24.80100
C  33.26400 0.62300 25.50600
C  32.45300 0.64400 24.13700
N  33.37000 3.48700 30.07300
C  32.36100 3.39600 29.11200
C  31.10200 3.88200 29.60800
C  31.36300 4.15900 30.97700
C  32.71500 3.95300 31.19100
C  29.83200 3.97800 28.92300
C  30.76500 4.60200 32.19500
O  29.60200 4.95600 32.43600
C  31.92500 4.61000 33.23900
C  31.98600 5.75600 34.15300
O  32.78900 6.65900 34.09900
O  31.20500 5.41800 35.26000
C  31.41800 6.54000 36.23200
H  38.64700 2.67100 33.08200
H  38.04300 1.49500 26.80900
H  31.77400 2.69600 27.15000
H  34.70500 4.94600 34.92400
H  36.83100 3.05100 34.79500
H  37.09300 5.95100 34.96800
H  37.97900 5.40900 33.59100
H  38.26400 4.69800 35.19400
H  34.96000 1.94300 35.16300
H  33.54400 2.43300 34.51300
H  33.94200 2.17400 37.13400
H  32.77700 3.31800 36.62100
H  40.60700 2.53800 32.21200
H  41.64200 2.23100 31.05400
H  40.90100 0.81500 31.89200
H  41.99200 0.16800 29.50300
H  42.22700 1.90400 29.03300
H  42.52500 0.76700 27.80500
H  35.80400 0.96300 25.36600
H  33.67400 2.76900 25.14100
H  37.03400 3.48800 25.36400
H  35.52700 3.67200 24.38100
H  36.76700 2.46600 23.98600
H  32.61600 0.30400 26.32300
H  34.02200 -0.12300 25.26800
H  31.36900 0.60600 24.23900
H  32.88500 -0.05100 23.41700
H  32.61900 1.58100 23.60500
H  29.19100 3.24800 29.41700
H  29.89900 3.91300 27.83700
H  29.50600 5.00000 29.11200
H  31.76900 3.76100 33.90400
H  30.95200 7.40700 35.76400
H  32.47100 6.74900 36.41800
H  30.90000 6.38800 37.17900

