158

Mg 43.73700 4.23100 47.22900
C  41.76200 7.10300 46.71600
C  40.88300 2.25800 46.53100
C  45.81900 1.57600 46.86000
C  46.56200 6.28000 46.64300
N  41.57300 4.63800 46.57900
C  41.01600 5.92200 46.64800
C  39.48300 5.75200 46.40900
C  39.21600 4.23600 46.59200
C  40.63900 3.64500 46.51400
C  38.59300 3.98600 48.02500
C  38.85800 6.36900 45.12900
C  39.71800 6.36300 43.81900
H  39.50800 7.48800 42.80400
N  43.36500 2.23100 46.99600
C  42.08300 1.63100 46.72200
C  42.34700 0.14700 46.63200
C  43.70300 -0.10600 46.65200
C  44.41200 1.25700 46.83000
C  41.19600 -0.77000 46.45800
C  44.33900 -1.46500 46.51300
O  43.56400 -2.45600 46.35600
C  45.75100 -1.66700 46.53900
N  45.94900 3.92500 46.84200
C  46.51900 2.78400 46.81800
C  48.09500 2.90300 46.66700
C  48.31900 4.42900 46.37300
C  46.88600 4.92800 46.62700
C  48.83200 2.39400 47.91900
C  48.93700 4.77000 44.99500
C  50.39600 5.14200 44.99100
N  44.16000 6.33300 47.04400
C  45.33300 6.98200 46.90100
C  45.08400 8.34300 47.04400
C  43.68700 8.48600 46.90600
C  43.16100 7.21700 46.91800
C  46.11300 9.40800 46.97400
C  42.58600 9.36500 46.77100
O  42.58700 10.55500 46.89000
C  41.30600 8.51600 46.45300
C  40.12500 8.86700 47.26400
O  39.84800 8.44100 48.36200
O  39.32800 9.72500 46.60800
C  38.11700 10.10500 47.25700
H  40.04100 1.59600 46.31500
H  46.47200 0.70800 46.75400
H  47.41700 6.90300 46.37300
H  39.09400 6.30900 47.26200
H  38.58800 3.82400 45.80100
H  39.15600 4.69100 48.63700
H  38.81500 2.97100 48.35300
H  37.54400 4.28300 48.06200
H  38.43100 7.35700 45.30200
H  37.98000 5.80500 44.81200
H  39.57300 5.39500 43.34100
H  40.76800 6.44700 44.10000
H  40.90400 -0.88100 45.41300
H  40.23300 -0.38200 46.79200
H  41.36200 -1.74700 46.91200
H  46.22300 -1.35200 47.47000
H  46.06300 -1.14700 45.63400
H  46.01400 -2.68300 46.24400
H  48.41900 2.21700 45.88400
H  48.99500 4.97800 47.02900
H  49.91700 2.44900 47.82500
H  48.66300 1.32200 48.02200
H  48.51700 2.85300 48.85600
H  48.29600 5.57900 44.64400
H  48.76200 3.87400 44.40000
H  50.85700 4.79500 44.06700
H  50.89500 4.74100 45.87300
H  50.51800 6.22500 45.01000
H  46.88400 9.09000 47.67600
H  45.57500 10.32200 47.22200
H  46.59000 9.43400 45.99400
H  40.92100 8.64100 45.44100
H  37.64500 9.29500 47.81300
H  37.41800 10.37400 46.46600
H  38.38100 10.98700 47.84000
Mg -1.95600 33.80900 26.96300
C  -3.76500 32.06200 29.45500
C  -0.73300 35.90000 29.31700
C  -0.67500 35.54700 24.47100
C  -3.93700 31.97800 24.62000
N  -2.42000 34.12600 29.17400
C  -2.90100 33.11400 29.92300
C  -2.70500 33.45000 31.43500
C  -1.98900 34.79700 31.39200
C  -1.65600 34.95700 29.88200
C  -2.82700 35.92100 31.97900
C  -1.87000 32.28400 32.18300
C  -2.52600 31.89500 33.60600
H  -1.49700 31.95200 34.77700
N  -0.76400 35.37100 26.92700
C  -0.31700 36.07400 27.96200
C  0.69500 37.02100 27.49700
C  0.69200 36.97300 26.10100
C  -0.27400 35.87800 25.75500
C  1.46600 37.91200 28.48600
C  1.47100 37.78600 25.09100
O  1.47800 37.51800 23.92700
C  2.29700 39.04000 25.52300
N  -2.25000 33.72600 24.80100
C  -1.56200 34.52300 23.99500
C  -2.13600 34.44200 22.57100
C  -2.99800 33.13500 22.62200
C  -3.09700 32.89100 24.10500
C  -2.96600 35.66900 22.13700
C  -2.30000 31.99300 21.79800
C  -1.27200 31.04900 22.50200
N  -3.49400 32.36600 26.97600
C  -4.09600 31.64400 25.95900
C  -4.87700 30.53600 26.46600
C  -4.77200 30.63600 27.90800
C  -3.93500 31.76100 28.09600
C  -5.49000 29.42900 25.59400
C  -5.26500 30.18700 29.23200
O  -6.11200 29.37500 29.51300
C  -4.44200 31.00600 30.27100
C  -5.39500 31.54200 31.19300
O  -6.16300 32.45700 30.98900
O  -5.46800 30.74100 32.34100
C  -6.47700 30.90200 33.40000
H  -0.23500 36.55300 30.03700
H  -0.33600 36.28900 23.74400
H  -4.50600 31.57100 23.78200
H  -3.70100 33.63900 31.83300
H  -1.04300 34.89900 31.92500
H  -3.65800 35.57900 32.59500
H  -3.32500 36.41200 31.14300
H  -2.16300 36.60200 32.51100
H  -0.83900 32.63400 32.24900
H  -1.75500 31.36300 31.61100
H  -2.78300 30.83800 33.68300
H  -3.34800 32.57200 33.84000
H  1.31900 38.96600 28.25100
H  2.51600 37.62100 28.46500
H  1.13800 37.70700 29.50500
H  2.89000 39.41800 24.69000
H  2.96000 38.62000 26.28000
H  1.71000 39.83100 25.98800
H  -1.28100 34.32800 21.90400
H  -4.04100 33.31600 22.36300
H  -2.59300 36.12900 21.22300
H  -3.08200 36.47700 22.86000
H  -4.01000 35.45800 21.90200
H  -1.95000 32.42200 20.85900
H  -3.10300 31.38000 21.38800
H  -1.62500 30.82500 23.50800
H  -0.26800 31.47500 22.48600
H  -1.39700 30.09000 21.99900
H  -4.76500 29.23100 24.80400
H  -6.37700 29.86100 25.13000
H  -5.65800 28.47300 26.09100
H  -3.74800 30.31900 30.75500
H  -7.19000 31.71900 33.29200
H  -5.97400 31.12000 34.34200
H  -6.98200 29.96100 33.62200

