158

Mg -3.22600 16.69500 27.03400
C  -3.63000 14.79700 30.03100
C  -4.23300 19.46000 29.01100
C  -3.49700 18.60900 24.30600
C  -3.50300 13.82400 25.23900
N  -3.62400 17.09700 29.37100
C  -3.66100 16.12300 30.38700
C  -3.73000 16.78000 31.74400
C  -4.11600 18.23000 31.35500
C  -4.04800 18.30000 29.81300
C  -5.41300 18.69300 31.94600
C  -2.39500 16.53900 32.45700
C  -1.89200 17.51900 33.54100
H  -1.40300 16.91300 34.98800
N  -3.41100 18.70100 26.74700
C  -3.76500 19.74100 27.66400
C  -3.66700 21.02300 26.98500
C  -3.32700 20.76200 25.64100
C  -3.46000 19.28300 25.49100
C  -4.03300 22.30600 27.71200
C  -2.93300 21.68500 24.48300
O  -2.73000 21.31500 23.27400
C  -2.59200 23.05900 24.83400
N  -3.65600 16.23200 24.98900
C  -3.64300 17.23500 24.05000
C  -3.73100 16.64800 22.63500
C  -3.63600 15.07400 22.92800
C  -3.59200 15.01200 24.46000
C  -4.96900 17.15100 21.74500
C  -2.46600 14.40400 22.19100
C  -1.05400 14.31700 22.85300
N  -3.44000 14.69500 27.47500
C  -3.43200 13.62800 26.61300
C  -3.48200 12.42100 27.37900
C  -3.51200 12.82600 28.70300
C  -3.53900 14.27900 28.73900
C  -3.52600 10.98300 26.83600
C  -3.55400 12.33200 30.08000
O  -3.56200 11.22700 30.52500
C  -3.58200 13.63800 30.99400
C  -2.29900 13.53800 31.61300
O  -1.20200 13.82600 31.17800
O  -2.49700 13.01200 32.90400
C  -1.49400 13.08700 33.93300
H  -4.54700 20.31900 29.60800
H  -3.52000 19.23300 23.41000
H  -3.58400 12.83700 24.77900
H  -4.50600 16.32200 32.35700
H  -3.40700 18.86800 31.88300
H  -6.18600 18.39300 31.23900
H  -5.32300 19.73400 32.25500
H  -5.36200 18.23300 32.93300
H  -1.68200 16.51200 31.63300
H  -2.48200 15.53300 32.86800
H  -2.60000 18.28600 33.85600
H  -1.07000 18.01300 33.02400
H  -3.09900 22.85800 27.82100
H  -4.54100 22.19800 28.67100
H  -4.65300 22.86500 27.01100
H  -3.33500 23.67300 25.34300
H  -2.40500 23.61300 23.91400
H  -1.68500 22.99700 25.43500
H  -2.81800 17.03100 22.18100
H  -4.51400 14.59800 22.49100
H  -4.63500 17.61800 20.81800
H  -5.59800 17.82600 22.32600
H  -5.62700 16.31200 21.52100
H  -2.36200 14.98000 21.27100
H  -2.79500 13.42900 21.83100
H  -0.38400 14.98000 22.30500
H  -0.78500 13.27200 22.69500
H  -1.02800 14.61100 23.90200
H  -4.52300 10.60100 26.61300
H  -3.11400 10.27500 27.55600
H  -3.00100 11.10500 25.88900
H  -4.35700 13.63100 31.76000
H  -1.70900 13.84000 34.69100
H  -0.52400 13.36500 33.52100
H  -1.50400 12.06400 34.30900
Mg 1.69100 41.66800 24.85500
C  3.62800 41.71900 27.84700
C  -1.00500 40.80700 26.92400
C  -0.02800 41.04100 22.17900
C  4.46300 42.19700 23.00800
N  1.32700 41.23000 27.18300
C  2.24600 41.38500 28.15700
C  1.55300 41.15200 29.57100
C  0.20500 40.61600 29.23700
C  0.13900 40.89500 27.69400
C  -0.01000 39.06400 29.50400
C  1.52500 42.45000 30.49500
C  1.98300 42.37500 31.91200
H  0.80000 42.45400 32.87800
N  -0.27400 41.13200 24.56600
C  -1.21600 40.95000 25.53700
C  -2.46500 40.71600 24.88000
C  -2.22200 40.77600 23.46200
C  -0.80700 41.00000 23.34100
C  -3.84800 40.39300 25.56900
C  -3.21300 40.58300 22.33900
O  -2.85000 40.68200 21.15100
C  -4.72900 40.24300 22.56900
N  2.16200 41.57900 22.90100
C  1.25000 41.33000 21.95200
C  1.82600 41.67100 20.51300
C  3.25100 42.28500 20.82100
C  3.32500 42.01000 22.30900
C  1.80700 40.44200 19.59300
C  3.40400 43.78800 20.39000
C  4.63100 44.09000 19.42000
N  3.64800 41.88800 25.26600
C  4.64600 42.11600 24.38800
C  5.93000 42.24800 25.11100
C  5.51200 42.09100 26.50900
C  4.14100 41.91400 26.53400
C  7.29200 42.28100 24.45100
C  5.99500 42.02300 27.84900
O  7.13900 42.17700 28.33900
C  4.80700 41.85700 28.79000
C  5.09200 40.73300 29.67800
O  5.10400 39.57900 29.31800
O  5.23200 41.11600 31.00000
C  5.27500 39.92900 31.88200
H  -1.78600 40.58600 27.65500
H  -0.53200 40.96600 21.21400
H  5.29000 42.56000 22.39400
H  2.15800 40.42900 30.11800
H  -0.58000 41.14900 29.77400
H  -0.40700 38.62700 28.58800
H  -0.82500 39.04600 30.22800
H  0.86800 38.59900 29.95400
H  0.49000 42.79200 30.49500
H  2.11300 43.22400 30.00100
H  2.68400 43.13700 32.25000
H  2.26300 41.33700 32.09400
H  -3.78900 40.72900 26.60500
H  -3.93700 39.31000 25.65000
H  -4.68400 40.83400 25.02600
H  -4.91200 39.52500 23.36800
H  -5.21600 39.97600 21.63100
H  -5.12200 41.23600 22.78400
H  1.11900 42.37400 20.07200
H  4.01100 41.66200 20.35100
H  2.71900 40.32600 19.00700
H  1.03700 40.55300 18.83000
H  1.68600 39.50500 20.13600
H  3.42200 44.43700 21.26500
H  2.48100 44.03700 19.86500
H  4.37600 44.41600 18.41200
H  5.34800 43.28400 19.26100
H  5.28500 44.90100 19.74000
H  7.21000 42.50000 23.38600
H  7.73400 41.29900 24.61500
H  7.90800 43.04700 24.92100
H  4.83700 42.74000 29.43000
H  6.28200 39.91300 32.29900
H  4.90700 38.96200 31.54000
H  4.59400 40.12900 32.70900

