158

Mg 1.28100 7.81300 25.79400
C  1.87000 9.82700 28.67300
C  1.63700 5.02700 27.78200
C  0.51300 5.96000 23.11100
C  1.15200 10.72400 23.96000
N  1.76700 7.60700 27.92900
C  1.87200 8.52600 28.98800
C  2.00200 7.84000 30.35900
C  2.18700 6.31700 29.98300
C  1.89300 6.26100 28.42500
C  3.52700 5.71900 30.35800
C  0.72700 8.24100 31.25500
C  0.99600 8.63000 32.70200
H  2.07500 7.75100 33.45100
N  1.10500 5.77100 25.43800
C  1.21400 4.75000 26.38500
C  0.71100 3.47100 25.86600
C  0.46000 3.74700 24.46000
C  0.61500 5.21900 24.28400
C  0.55300 2.23500 26.75800
C  0.07900 2.74800 23.40000
O  -0.07000 3.10500 22.22600
C  -0.23000 1.33900 23.70500
N  1.01600 8.21700 23.74700
C  0.63000 7.36700 22.82200
C  0.47700 8.07000 21.48300
C  0.70700 9.59700 21.78200
C  0.94200 9.56200 23.28600
C  1.40400 7.34600 20.40800
C  -0.52600 10.53100 21.37400
C  -0.10900 11.81500 20.70300
N  1.48200 9.89200 26.19000
C  1.27700 10.96900 25.33800
C  1.51500 12.21800 26.01900
C  1.75900 11.81000 27.40800
C  1.64700 10.40400 27.42700
C  1.36400 13.65100 25.50400
C  2.09800 12.26500 28.67800
O  2.40400 13.35700 29.03200
C  2.09100 10.96600 29.60900
C  3.30900 10.88800 30.31900
O  4.41100 10.65700 29.78900
O  3.06500 11.15300 31.66300
C  4.25100 11.30500 32.54700
H  1.90900 4.11300 28.31300
H  0.16100 5.43900 22.21800
H  1.04200 11.61600 23.33900
H  2.87100 8.37200 30.74800
H  1.38800 5.79300 30.50700
H  3.38500 4.97100 31.13800
H  4.05200 6.55800 30.81600
H  4.14300 5.43200 29.50700
H  -0.06100 7.48900 31.29200
H  0.28500 9.16200 30.87200
H  0.02100 8.38000 33.12100
H  1.03100 9.71400 32.81600
H  -0.32400 1.77500 26.30100
H  0.33800 2.56200 27.77500
H  1.34200 1.48200 26.77000
H  0.55100 0.94300 24.35400
H  -0.38500 0.68600 22.84600
H  -1.14200 1.33200 24.30100
H  -0.56300 7.96500 21.17500
H  1.62700 10.00200 21.36100
H  2.24800 6.80400 20.83500
H  1.80400 8.03100 19.65900
H  0.70500 6.62100 19.99300
H  -1.04600 10.78600 22.29700
H  -1.17900 10.02400 20.66200
H  0.91000 12.08100 20.42000
H  -0.59900 12.58900 21.29400
H  -0.68800 11.78400 19.78000
H  1.40700 14.41900 26.27700
H  0.58200 13.88800 24.78300
H  2.22800 13.84100 24.86800
H  1.25100 11.03100 30.30000
H  4.78800 12.23500 32.35900
H  5.01800 10.54900 32.37700
H  4.02200 11.07900 33.58800
Mg -5.37800 25.10200 25.58500
C  -3.74500 26.53000 28.42000
C  -7.23800 23.18600 27.78900
C  -6.79400 23.70900 22.86800
C  -3.21300 26.94500 23.58000
N  -5.50600 24.89600 27.84700
C  -4.82100 25.62500 28.80500
C  -5.40100 25.30700 30.19700
C  -6.22200 24.07400 29.92100
C  -6.39300 24.11900 28.41700
C  -5.68700 22.78900 30.57300
C  -6.11300 26.58300 30.73300
C  -5.98800 26.82300 32.25800
H  -5.51300 25.70900 33.16000
N  -6.78500 23.58700 25.38200
C  -7.38000 22.92100 26.41700
C  -8.33200 21.95000 25.79500
C  -8.14400 22.01700 24.33300
C  -7.25000 23.15800 24.12200
C  -9.22300 21.09700 26.72200
C  -8.83600 21.24600 23.23600
O  -8.70000 21.44900 22.03600
C  -9.76700 20.14100 23.62700
N  -5.11600 25.44900 23.60000
C  -5.82400 24.73100 22.62300
C  -5.10700 24.79500 21.21500
C  -4.20200 26.05900 21.41000
C  -4.14000 26.13800 22.92900
C  -4.31300 23.55400 20.91900
C  -4.79300 27.32000 20.77600
C  -4.05600 27.77300 19.57400
N  -3.87700 26.49000 25.87300
C  -3.07700 27.11800 24.95300
C  -2.21200 28.07500 25.67700
C  -2.45600 27.88000 27.01300
C  -3.37600 26.86300 27.08600
C  -1.28600 29.08200 25.03400
C  -2.17100 28.35800 28.28400
O  -1.49500 29.34100 28.61300
C  -2.91800 27.49400 29.29900
C  -1.95000 26.70900 30.17700
O  -0.87500 26.25500 29.84700
O  -2.49700 26.61000 31.42100
C  -1.65400 26.11700 32.55500
H  -7.93200 22.75200 28.51100
H  -7.32300 23.31100 21.99900
H  -2.62500 27.54000 22.87800
H  -4.63400 24.93000 30.87300
H  -7.25200 24.24100 30.23600
H  -4.64600 22.80400 30.89300
H  -5.63900 22.02100 29.80100
H  -6.35100 22.47900 31.38000
H  -7.17600 26.45100 30.53300
H  -5.78700 27.40100 30.08900
H  -6.89500 27.06400 32.81300
H  -5.35700 27.68500 32.47600
H  -8.73400 20.73400 27.62600
H  -9.69100 20.23200 26.25300
H  -10.13200 21.64600 26.96900
H  -9.22100 19.38800 24.19500
H  -10.30200 19.67700 22.79900
H  -10.51100 20.58800 24.28700
H  -5.89500 24.95700 20.47900
H  -3.14800 25.84000 21.23800
H  -4.64700 22.65200 21.43200
H  -3.22700 23.61900 20.98700
H  -4.62400 23.31500 19.90200
H  -5.02800 28.13800 21.45700
H  -5.81600 27.07100 20.49400
H  -3.15500 27.16900 19.47100
H  -3.66600 28.75700 19.83400
H  -4.60900 27.72800 18.63500
H  -0.68100 28.56700 24.28700
H  -0.58600 29.49600 25.75900
H  -1.84000 29.90000 24.57300
H  -3.55200 28.10200 29.94400
H  -0.59300 26.27500 32.35900
H  -1.81100 25.05200 32.72700
H  -2.00200 26.54700 33.49400

