158

Mg 48.94400 45.81300 42.77000
C  45.61200 46.22800 41.92600
C  48.60100 42.52700 41.83500
C  52.23900 45.62900 42.72500
C  49.11800 49.29200 43.39700
N  47.36800 44.54000 41.96600
C  46.05500 44.94400 41.79700
C  45.23700 43.73800 41.38600
C  46.06100 42.53900 41.89300
C  47.42800 43.21000 41.80200
C  45.73600 42.06000 43.36800
C  45.12500 43.74500 39.81300
C  43.77100 43.34100 39.24400
H  43.33300 44.21400 38.04000
N  50.32000 44.21100 42.35800
C  49.94100 42.94800 41.96600
C  51.15500 42.22400 41.70800
C  52.32200 43.09900 42.03500
C  51.69500 44.37800 42.36800
C  51.24000 40.84300 41.04500
C  53.79200 42.80800 41.87800
O  54.12000 41.62800 41.60600
C  54.88900 43.84800 41.96400
N  50.51800 47.35100 42.73100
C  51.73400 46.94500 42.97700
C  52.64800 48.14400 43.49000
C  51.61900 49.30800 43.64100
C  50.32300 48.67500 43.25200
C  53.47800 47.85900 44.81300
C  51.90600 50.62400 42.84600
C  52.84600 51.62400 43.63700
N  47.61400 47.42100 42.81300
C  47.82800 48.76800 43.08300
C  46.58900 49.49700 42.94700
C  45.63200 48.52300 42.47000
C  46.34900 47.27800 42.42300
C  46.42800 50.94700 43.21300
C  44.24100 48.29300 42.26500
O  43.22800 48.93200 42.41100
C  44.23900 46.78800 41.87200
C  43.20100 46.10500 42.61700
O  42.21700 45.56200 42.07100
O  43.37200 46.17000 43.96600
C  42.56200 45.21900 44.66100
H  48.41200 41.45800 41.71800
H  53.27500 45.57700 43.06700
H  49.19100 50.37400 43.52700
H  44.25300 43.81800 41.84700
H  46.09100 41.68500 41.21500
H  46.62900 42.24600 43.96500
H  45.41900 41.01700 43.40900
H  44.97200 42.76500 43.69700
H  45.72700 42.91000 39.45300
H  45.45300 44.70900 39.42300
H  43.03800 43.36500 40.05000
H  43.84100 42.28300 38.99400
H  51.33000 39.99300 41.72100
H  52.08000 40.72200 40.36100
H  50.48600 40.76200 40.26100
H  54.88100 44.19900 42.99600
H  54.58000 44.72300 41.39300
H  55.85200 43.38100 41.75900
H  53.39100 48.40900 42.73800
H  51.45200 49.46500 44.70700
H  53.17400 48.46000 45.67000
H  54.53200 47.96500 44.55400
H  53.34000 46.80700 45.06100
H  51.02900 51.21900 42.59000
H  52.42200 50.32400 41.93400
H  53.74300 51.82600 43.05200
H  53.11900 51.26900 44.63100
H  52.29900 52.54900 43.82300
H  45.38900 51.16800 42.97100
H  47.11900 51.56200 42.63600
H  46.70400 51.09600 44.25700
H  43.81700 46.61800 40.88100
H  42.45100 44.30000 44.08700
H  41.58500 45.68500 44.78800
H  42.92800 44.98700 45.66100
Mg -5.62400 25.54000 25.96100
C  -4.41000 26.72800 29.03400
C  -7.39500 23.06500 27.72600
C  -6.15200 23.83600 23.10800
C  -3.29000 27.67500 24.41000
N  -5.73200 24.91500 28.17200
C  -5.33800 25.63900 29.24400
C  -5.99700 25.11700 30.50400
C  -6.80200 23.82800 30.04700
C  -6.61600 23.89200 28.52000
C  -6.19600 22.50600 30.67300
C  -6.90700 26.19400 31.14600
C  -6.70600 26.30700 32.67700
H  -6.36300 25.09200 33.49300
N  -6.84300 23.87900 25.44800
C  -7.50300 23.02400 26.31300
C  -8.46600 22.27500 25.56100
C  -8.05200 22.31600 24.18700
C  -6.95500 23.35900 24.23500
C  -9.61400 21.51000 26.31200
C  -8.64800 21.76100 22.94500
O  -8.29900 22.12000 21.81700
C  -9.81700 20.78300 23.18200
N  -4.71300 25.68300 24.03900
C  -5.12000 24.81400 23.05700
C  -4.40200 25.26300 21.74700
C  -3.74900 26.61700 22.11700
C  -3.92500 26.67100 23.60600
C  -3.52300 24.15400 21.16000
C  -4.42200 27.83200 21.36000
C  -3.49500 28.52800 20.33300
N  -4.16400 27.01200 26.53100
C  -3.23400 27.76900 25.80600
C  -2.61200 28.69200 26.71000
C  -3.05000 28.33900 28.01200
C  -3.99500 27.27200 27.84300
C  -1.71400 29.81600 26.27900
C  -2.82600 28.67200 29.38000
O  -2.12000 29.46000 30.02200
C  -3.79300 27.65700 30.10400
C  -3.15400 26.88800 31.20400
O  -2.71000 25.75500 31.17700
O  -3.02400 27.73100 32.27700
C  -2.36100 27.15600 33.41500
H  -8.15100 22.48700 28.26100
H  -6.25000 23.16500 22.25200
H  -2.62900 28.43500 23.98700
H  -5.20600 24.87800 31.21500
H  -7.83400 23.97800 30.36300
H  -5.34700 22.11800 30.10900
H  -7.01300 21.82700 30.91900
H  -5.65100 22.61600 31.61000
H  -7.96300 25.93800 31.06200
H  -6.56000 27.12500 30.69600
H  -7.48300 26.78400 33.27400
H  -5.86400 26.99200 32.78300
H  -10.49400 21.53700 25.66900
H  -9.90200 22.01300 27.23500
H  -9.36800 20.46200 26.47900
H  -10.02800 20.32500 22.21500
H  -10.62900 21.49000 23.34900
H  -9.50800 20.08400 23.96000
H  -5.14300 25.39400 20.95900
H  -2.69900 26.58800 21.82800
H  -2.47400 24.44800 21.12100
H  -3.82100 23.85700 20.15400
H  -3.69900 23.36200 21.88700
H  -4.69600 28.56600 22.11900
H  -5.34600 27.48500 20.89600
H  -3.88200 28.33200 19.33300
H  -2.50400 28.08400 20.42100
H  -3.48000 29.59400 20.55900
H  -0.93100 29.79100 27.03700
H  -2.23900 30.76900 26.34000
H  -1.31100 29.56000 25.29900
H  -4.67200 28.18900 30.46700
H  -2.48700 27.73200 34.33200
H  -1.29100 27.17800 33.20800
H  -2.54300 26.10100 33.61800

