158

Mg 49.58500 47.68900 42.79900
C  46.33300 48.34200 41.40100
C  49.60000 44.77300 40.84500
C  52.82000 47.32600 43.52300
C  49.70900 51.06700 43.74900
N  48.15300 46.76300 41.25200
C  46.82800 47.12900 40.93700
C  46.17400 46.11000 39.95800
C  47.21500 44.95400 39.88700
C  48.41400 45.49900 40.71500
C  46.73100 43.50300 40.29600
C  45.64100 46.74500 38.59800
C  44.11000 46.48700 38.32000
H  43.50900 45.95500 37.02000
N  51.07000 46.28600 42.22300
C  50.88200 45.12000 41.50600
C  52.11600 44.41300 41.47500
C  53.04100 45.08100 42.32000
C  52.30800 46.26800 42.73500
C  52.32300 43.12600 40.72700
C  54.43300 44.62600 42.71800
O  54.92500 43.56800 42.21600
C  55.52700 45.35100 43.60800
N  51.08500 49.08600 43.50700
C  52.29800 48.55900 43.92000
C  52.99800 49.54100 44.85900
C  52.15300 50.88300 44.80700
C  50.91600 50.41200 43.94300
C  53.35800 49.05100 46.28800
C  52.88600 52.08100 44.03700
C  52.50500 53.53800 44.45500
N  48.25100 49.34700 42.73700
C  48.51700 50.63700 43.10800
C  47.33000 51.43500 42.84200
C  46.37500 50.54700 42.17600
C  47.02700 49.31500 42.13800
C  47.14000 52.88200 43.06200
C  45.04300 50.40600 41.57400
O  44.08700 51.18400 41.54600
C  44.93400 48.89400 41.29100
C  43.99000 48.18500 42.26600
O  44.17500 48.09600 43.46600
O  42.87900 47.82700 41.59100
C  41.93500 46.87500 42.09600
H  49.53800 43.78800 40.37700
H  53.80600 47.22600 43.98200
H  49.70400 52.05200 44.22100
H  45.29500 45.82500 40.53500
H  47.59300 44.96100 38.86500
H  45.65100 43.64900 40.25700
H  47.21900 43.25600 41.23800
H  47.12300 42.81800 39.54400
H  46.07900 46.22500 37.74600
H  45.85600 47.81400 38.57700
H  43.82500 47.53700 38.25500
H  43.64600 46.10800 39.23100
H  52.88200 43.42000 39.83900
H  51.36600 42.69800 40.43000
H  52.99800 42.43600 41.23300
H  55.60000 46.39500 43.30300
H  56.49700 44.89200 43.42000
H  55.34100 45.17000 44.66700
H  54.01100 49.62100 44.46300
H  51.79200 51.25900 45.76500
H  54.23700 49.57300 46.66600
H  53.49500 47.97100 46.22500
H  52.57600 49.22100 47.02700
H  52.60500 52.04900 42.98400
H  53.97000 51.96300 44.01000
H  51.96800 54.13100 43.71600
H  53.31800 54.10200 44.91400
H  51.84400 53.43400 45.31600
H  48.07600 53.38100 42.81300
H  46.84700 52.98200 44.10700
H  46.35300 53.37400 42.49100
H  44.61300 48.71000 40.26500
H  42.02400 46.53600 43.12800
H  41.74100 46.09900 41.35600
H  41.12700 47.60300 42.17000
Mg 42.41000 41.19200 26.35100
C  41.55100 43.78700 28.53000
C  43.38300 39.34300 29.20600
C  43.44400 38.84100 24.31100
C  41.87500 43.30700 23.58800
N  42.45500 41.57300 28.69000
C  41.95300 42.69200 29.28800
C  41.85000 42.58100 30.78800
C  42.44700 41.10200 31.02600
C  42.74600 40.60300 29.59700
C  43.69300 41.02400 32.00300
C  40.34300 42.50600 31.25000
C  40.01800 43.23300 32.56600
H  39.34700 42.52500 33.70700
N  43.43300 39.40700 26.72800
C  43.72400 38.81400 27.94500
C  44.32500 37.48000 27.65000
C  44.20000 37.25900 26.27300
C  43.70600 38.50000 25.70000
C  44.78200 36.52100 28.71400
C  44.43000 35.97500 25.42500
O  44.30900 35.93500 24.21400
C  44.82400 34.69700 26.12200
N  42.65600 41.16900 24.24600
C  43.01400 40.00600 23.65700
C  42.92700 40.12500 22.16700
C  42.56000 41.53400 21.88400
C  42.37000 42.10300 23.36800
C  44.23900 39.70100 21.39200
C  41.30700 41.72700 21.02200
C  41.21900 42.84500 19.94600
N  41.61400 43.00700 26.08600
C  41.56600 43.78900 24.93000
C  41.06600 45.15200 25.25600
C  41.02300 45.14400 26.67800
C  41.42100 43.87300 27.11400
C  40.87700 46.23500 24.26200
C  40.87200 46.05200 27.79400
O  40.69600 47.27000 27.79200
C  41.07300 45.12400 29.07500
C  42.13200 45.87300 29.88400
O  43.30300 45.89300 29.67300
O  41.45000 46.50500 30.92800
C  42.21700 46.94000 32.05400
H  43.50300 38.65000 30.04200
H  43.76300 38.07100 23.60700
H  41.64700 44.00500 22.77900
H  42.44800 43.41100 31.16300
H  41.67500 40.43900 31.41700
H  43.51800 40.20000 32.69500
H  43.92800 41.86400 32.65700
H  44.65100 40.73700 31.56900
H  40.12100 41.43900 31.22100
H  39.66300 42.80800 30.45400
H  39.34200 43.99800 32.18300
H  40.88300 43.68900 33.04900
H  44.06100 35.70400 28.75100
H  44.92400 37.08100 29.63900
H  45.72300 36.13500 28.32300
H  44.21700 34.46300 26.99600
H  45.89200 34.72500 26.33900
H  44.58200 33.91500 25.40300
H  42.18900 39.44500 21.74100
H  43.39200 42.05200 21.40700
H  44.65000 40.43700 20.70000
H  43.90700 38.91500 20.71400
H  44.99500 39.23000 22.02100
H  40.43500 41.90800 21.65100
H  41.04900 40.89100 20.37100
H  42.22100 43.16100 19.65700
H  40.64700 43.63200 20.43700
H  40.79500 42.40300 19.04400
H  40.70400 45.77600 23.28800
H  41.75200 46.87600 24.15500
H  39.97800 46.79700 24.51300
H  40.18100 45.05500 29.69800
H  43.28000 47.15300 31.93800
H  42.02800 46.19400 32.82600
H  41.71700 47.83900 32.41400

