158

Mg 7.97100 2.54300 27.63500
C  9.36200 1.03400 30.44500
C  5.95600 4.35800 29.80600
C  6.38400 3.90400 24.94500
C  9.68200 0.43800 25.64800
N  7.62300 2.56700 29.91100
C  8.38700 1.98700 30.82200
C  7.95800 2.45300 32.24100
C  6.67300 3.36200 32.00300
C  6.70000 3.39500 30.48800
C  5.29300 2.92500 32.52500
C  9.08600 3.07500 33.12900
C  8.63000 3.53300 34.51600
H  9.51000 3.28700 35.72500
N  6.48800 4.04000 27.39000
C  5.78000 4.61300 28.43700
C  4.86800 5.56100 27.90500
C  4.99600 5.51100 26.49500
C  6.05700 4.50100 26.20600
C  3.80500 6.37800 28.73900
C  4.23800 6.30900 25.52500
O  4.43700 6.21500 24.30900
C  3.20600 7.27800 25.86300
N  7.88700 2.12700 25.61800
C  7.20200 2.78800 24.67200
C  7.41000 2.24900 23.26900
C  8.71300 1.32300 23.50700
C  8.84100 1.35800 25.01000
C  6.07000 1.58900 22.71500
C  10.03800 1.89100 22.83700
C  10.85100 0.80100 22.20400
N  9.13300 0.86100 27.95000
C  9.78200 0.15800 27.00000
C  10.75800 -0.68500 27.59200
C  10.61900 -0.43100 28.96600
C  9.57800 0.54200 29.12600
C  11.67400 -1.54200 26.84100
C  11.11300 -0.76500 30.28100
O  12.01500 -1.57500 30.52500
C  10.32200 0.15600 31.36000
C  9.61100 -0.78000 32.29900
O  8.97600 -1.74000 32.02400
O  9.78000 -0.37800 33.58100
C  8.85600 -0.88500 34.59800
H  5.28900 4.88900 30.48800
H  5.96700 4.41900 24.07700
H  10.33900 -0.05800 24.93100
H  7.79400 1.56800 32.85500
H  6.88700 4.31800 32.48200
H  4.59700 2.71500 31.71300
H  4.96900 3.60200 33.31500
H  5.48500 1.97000 33.01500
H  9.45700 3.92300 32.55300
H  9.92100 2.37500 33.15600
H  7.65000 3.10300 34.72400
H  8.43900 4.60500 34.45500
H  3.59800 6.04000 29.75400
H  2.77700 6.29900 28.38500
H  4.07600 7.43200 28.79900
H  2.76500 7.71200 24.96600
H  3.52400 8.09800 26.50700
H  2.32900 6.74100 26.22300
H  7.56700 3.04100 22.53700
H  8.54000 0.26600 23.30700
H  6.18700 0.51100 22.83000
H  5.80900 1.96700 21.72700
H  5.30700 1.85200 23.44700
H  10.64800 2.32400 23.63000
H  9.98600 2.71200 22.12100
H  10.63000 0.77300 21.13700
H  10.64900 -0.19200 22.60400
H  11.89300 1.10700 22.28900
H  12.12800 -2.24200 27.54300
H  12.53400 -1.06900 26.36800
H  11.10200 -2.11900 26.11500
H  10.97300 0.83000 31.91700
H  9.38900 -1.43700 35.37200
H  8.05700 -1.55300 34.27700
H  8.33000 -0.01900 34.99800
Mg 44.04400 42.32700 26.09300
C  43.07900 44.62800 28.64000
C  45.29300 40.36900 28.48300
C  45.09900 40.45100 23.75500
C  43.38400 44.98000 23.77500
N  44.02400 42.56900 28.34800
C  43.65100 43.49600 29.22700
C  43.87900 43.09200 30.71100
C  44.85300 41.88200 30.49300
C  44.74400 41.55200 28.98700
C  46.31100 42.07300 31.02000
C  42.46200 42.80000 31.34500
C  42.11200 43.28200 32.73500
H  43.28700 43.47900 33.79900
N  44.99100 40.52800 26.11500
C  45.37900 39.84000 27.20700
C  45.81800 38.56000 26.80400
C  45.76100 38.53100 25.38100
C  45.22500 39.84200 25.01800
C  46.20500 37.45900 27.69600
C  46.27500 37.53600 24.42300
O  46.08800 37.63100 23.17800
C  46.97700 36.33600 24.89900
N  44.40600 42.78000 24.08000
C  44.80500 41.77200 23.35400
C  44.79400 42.13900 21.82800
C  44.13100 43.55400 21.83500
C  44.01500 43.79900 23.34000
C  46.11200 42.04800 21.11200
C  42.76300 43.57400 21.07100
C  41.72600 42.64600 21.63400
N  43.31500 44.37800 26.17800
C  43.11000 45.27100 25.15100
C  42.54900 46.53700 25.64800
C  42.53100 46.28800 27.00800
C  43.02200 44.97600 27.28400
C  42.05700 47.74300 24.88600
C  42.18700 46.87000 28.28800
O  41.63000 47.92600 28.52000
C  42.49400 45.82000 29.38900
C  43.38300 46.41500 30.49700
O  44.60300 46.66400 30.46500
O  42.59700 46.71400 31.54900
C  43.23800 47.15600 32.77400
H  45.74300 39.76300 29.27200
H  45.13800 39.73900 22.92800
H  43.12200 45.73200 23.02800
H  44.34500 43.95900 31.18000
H  44.47800 40.97600 30.96900
H  46.42000 43.10200 31.36400
H  47.02500 42.00600 30.20000
H  46.55000 41.39500 31.83900
H  42.24500 41.74100 31.20100
H  41.77600 43.32900 30.68500
H  41.39200 42.63400 33.23600
H  41.64900 44.26800 32.72600
H  47.25500 37.22700 27.51500
H  45.51300 36.62500 27.57900
H  46.21400 37.81300 28.72700
H  47.85400 36.56000 25.50700
H  47.10600 35.60500 24.10100
H  46.22500 35.77600 25.45500
H  44.08400 41.51200 21.28900
H  44.86800 44.19700 21.35400
H  46.10000 41.24200 20.37800
H  46.93800 41.97200 21.82000
H  46.25200 42.95100 20.51900
H  42.87100 43.41200 19.99800
H  42.40800 44.59900 21.17300
H  42.17600 41.91700 22.30800
H  41.28400 42.02400 20.85500
H  40.93600 43.22500 22.11300
H  42.02700 47.40400 23.85000
H  42.86200 48.45500 25.06600
H  41.07300 48.14900 25.12200
H  41.54700 45.45900 29.79100
H  44.01400 47.86200 32.47600
H  43.67200 46.39200 33.42000
H  42.45600 47.59800 33.39100

