158

Mg 35.14600 49.90500 25.46600
C  35.04900 48.16300 28.53300
C  33.80800 52.59200 27.19500
C  35.04700 51.51300 22.63000
C  36.61900 47.10200 23.92500
N  34.65200 50.38100 27.67000
C  34.70500 49.49000 28.68300
C  34.48900 50.33500 30.04600
C  33.91800 51.70000 29.58500
C  34.05100 51.56000 28.06500
C  32.48800 52.00700 30.07200
C  35.71500 50.36700 31.02300
C  35.41900 49.87000 32.45000
H  34.01500 49.92700 33.07200
N  34.40800 51.74500 25.00000
C  33.96600 52.72400 25.79600
C  33.59000 53.92500 25.07200
C  33.86600 53.53100 23.71600
C  34.51100 52.24200 23.72900
C  32.87600 55.21000 25.69800
C  33.50600 54.25300 22.37300
O  33.68800 53.80600 21.25100
C  32.91200 55.55700 22.41400
N  35.61300 49.37900 23.50400
C  35.55000 50.19700 22.54100
C  35.91900 49.56600 21.19600
C  36.73800 48.29300 21.71200
C  36.30900 48.25700 23.12300
C  34.61900 49.11900 20.50400
C  38.23800 48.37600 21.57200
C  38.92300 49.79300 21.76600
N  35.62600 48.00900 26.03100
C  36.26600 47.01500 25.35500
C  36.55600 45.91000 26.24200
C  35.98100 46.26400 27.50400
C  35.50600 47.60100 27.34500
C  37.16200 44.63100 25.84600
C  35.85700 45.83600 28.85700
O  36.18800 44.76100 29.45300
C  35.13400 47.12000 29.57300
C  33.81900 46.72400 30.13000
O  32.77500 46.71800 29.52500
O  33.92800 46.30600 31.44300
C  32.82800 45.80100 32.31300
H  33.34100 53.43500 27.70800
H  35.11500 52.14100 21.74000
H  37.09400 46.23400 23.46300
H  33.68700 49.75500 30.50200
H  34.63400 52.50200 29.76700
H  32.36600 52.75700 30.85400
H  32.02700 51.07700 30.40400
H  31.88000 52.38100 29.24800
H  36.07800 51.39200 31.09900
H  36.51300 49.70100 30.69300
H  36.08900 50.36100 33.15500
H  35.56300 48.79100 32.39700
H  33.43100 55.71500 26.48800
H  31.89600 54.88500 26.04700
H  32.89300 55.97900 24.92500
H  32.09500 55.57900 23.13500
H  32.44100 55.75400 21.45100
H  33.67200 56.32700 22.54700
H  36.45300 50.23400 20.52000
H  36.44300 47.31500 21.33200
H  33.74500 48.84900 21.09700
H  34.75300 48.22400 19.89700
H  34.47200 49.87400 19.73200
H  38.65500 47.93000 20.66900
H  38.68900 47.81100 22.38800
H  39.80200 49.69700 22.40400
H  38.26200 50.58700 22.11400
H  39.35500 50.06300 20.80300
H  37.48900 44.00600 26.67700
H  37.94900 44.80400 25.11200
H  36.34500 44.09500 25.36200
H  35.88100 47.38200 30.32300
H  31.87600 46.20800 31.97300
H  33.01900 46.10500 33.34200
H  32.71500 44.71800 32.34600
Mg -8.56500 40.38400 43.43300
C  -7.39700 37.26300 42.26000
C  -5.96400 41.91300 41.85300
C  -10.05600 43.36100 43.92300
C  -11.38600 38.64600 44.69400
N  -6.86200 39.61400 42.26600
C  -6.48400 38.33800 41.93600
C  -5.22700 38.31800 41.05100
C  -4.79400 39.75800 41.16000
C  -5.93300 40.49000 41.86000
C  -3.45500 39.89300 41.86900
C  -5.43400 37.64600 39.62800
C  -4.63800 36.47300 39.23900
H  -3.69000 36.59400 38.03300
N  -8.03900 42.40100 43.01600
C  -6.94800 42.81700 42.33000
C  -6.99700 44.29700 42.19600
C  -8.20700 44.70700 42.83700
C  -8.79500 43.46100 43.29500
C  -5.95300 45.06100 41.41200
C  -8.71800 46.20900 42.88700
O  -8.26200 47.11800 42.18900
C  -9.79300 46.55800 43.86100
N  -10.55100 40.95600 43.99900
C  -10.84200 42.27200 44.25500
C  -12.25800 42.36500 44.85400
C  -12.62300 40.84000 45.25500
C  -11.55000 40.04200 44.44300
C  -12.40600 43.28100 46.09600
C  -14.08500 40.43800 44.88200
C  -14.72200 39.48500 45.98800
N  -9.25100 38.36900 43.59700
C  -10.39400 37.81900 44.15400
C  -10.31900 36.40200 44.21300
C  -9.19300 36.11100 43.42900
C  -8.54800 37.37600 43.07900
C  -11.36900 35.46100 44.79100
C  -8.51800 35.07500 42.76800
O  -8.67400 33.83800 42.72800
C  -7.28800 35.73600 41.93900
C  -6.08000 35.06000 42.33000
O  -5.45100 35.28700 43.33900
O  -5.68100 34.15200 41.36900
C  -4.46500 33.40500 41.60400
H  -5.11600 42.43200 41.39900
H  -10.64800 44.25600 44.12900
H  -12.24300 38.28500 45.26600
H  -4.50400 37.74600 41.63100
H  -4.77900 40.17600 40.15400
H  -2.66900 39.46200 41.24800
H  -3.50500 39.29700 42.78000
H  -3.02300 40.87100 42.08300
H  -5.14300 38.32600 38.82700
H  -6.48800 37.43200 39.45200
H  -5.29500 35.63200 39.01300
H  -4.04100 36.11000 40.07500
H  -6.40300 45.89100 40.86700
H  -5.43600 44.40300 40.71300
H  -5.18600 45.49800 42.05100
H  -9.82400 47.63100 44.04600
H  -9.69000 46.06400 44.82700
H  -10.75500 46.28400 43.42800
H  -12.91400 42.78900 44.09400
H  -12.39000 40.59200 46.29100
H  -13.10300 44.11400 46.00400
H  -11.43900 43.75300 46.27000
H  -12.82800 42.75500 46.95200
H  -13.99500 39.84400 43.97300
H  -14.78700 41.24200 44.66000
H  -14.21300 39.58400 46.94700
H  -14.55500 38.45000 45.68800
H  -15.81000 39.55200 45.96900
H  -11.94300 35.10300 43.93700
H  -11.96700 35.79800 45.63800
H  -10.67600 34.72900 45.20600
H  -7.51900 35.62000 40.88000
H  -4.78200 32.42900 41.97200
H  -3.89600 33.73600 42.47300
H  -3.90400 33.05800 40.73600

