158

Mg 40.30800 9.78700 29.98300
C  42.18400 10.61600 32.90300
C  37.96200 8.34400 32.02000
C  38.55100 8.89100 27.25200
C  42.84200 11.00200 28.02500
N  40.19000 9.36500 32.20100
C  40.92100 9.93100 33.22900
C  40.35100 9.72800 34.59700
C  39.19200 8.73100 34.28200
C  39.05600 8.81300 32.75100
C  39.21000 7.27200 34.83300
C  39.85500 10.99100 35.49500
C  39.84500 10.87200 36.97200
H  40.74700 11.78900 37.81400
N  38.54700 8.63000 29.66500
C  37.64300 8.19400 30.59600
C  36.49800 7.61200 29.98900
C  36.64300 7.86100 28.58100
C  37.96600 8.49300 28.44400
C  35.34000 6.93800 30.71600
C  35.73000 7.43500 27.39300
O  36.00100 7.69700 26.22700
C  34.54500 6.53900 27.67400
N  40.64000 9.90700 27.97700
C  39.79700 9.45300 26.99900
C  40.25000 9.97700 25.64800
C  41.53100 10.74900 25.87500
C  41.76600 10.54000 27.34300
C  40.25900 9.00400 24.45400
C  41.52200 12.24100 25.41400
C  40.42400 13.09700 25.99200
N  42.17100 10.61000 30.35000
C  43.08600 11.12600 29.41900
C  44.24400 11.74300 30.15700
C  43.94600 11.51900 31.57400
C  42.69600 10.85100 31.57300
C  45.53400 12.27200 29.58200
C  44.43800 11.61100 32.93900
O  45.36300 12.15400 33.46400
C  43.23100 11.17000 33.84300
C  43.81500 10.24500 34.78700
O  43.92800 9.04800 34.63300
O  44.05400 10.88000 36.00200
C  44.18800 10.16700 37.26600
H  37.16700 8.02000 32.69500
H  38.04600 8.58100 26.33500
H  43.62200 11.40600 27.37600
H  41.09400 9.17200 35.16900
H  38.29400 9.17900 34.70700
H  38.32700 6.97500 35.39800
H  40.06500 7.22200 35.50800
H  39.33900 6.49600 34.07900
H  38.83600 11.22400 35.18600
H  40.57900 11.71400 35.11700
H  40.09300 9.85500 37.27500
H  38.81300 10.92300 37.31900
H  34.39600 7.48000 30.77900
H  35.61400 6.67900 31.73900
H  35.09600 5.95800 30.30300
H  33.85700 6.46200 26.83300
H  34.00600 7.07500 28.45600
H  34.85100 5.55100 28.02000
H  39.54100 10.79400 25.51800
H  42.42700 10.44200 25.33600
H  39.67900 8.11700 24.70800
H  41.29400 8.76300 24.21400
H  39.74900 9.54200 23.65400
H  41.49000 12.33000 24.32800
H  42.45000 12.65800 25.80400
H  39.88700 13.52700 25.14700
H  40.92500 13.94700 26.45400
H  39.84400 12.52800 26.71900
H  45.76400 11.76100 28.64700
H  46.27600 12.04200 30.34600
H  45.49300 13.34700 29.40500
H  42.76100 12.01100 34.35200
H  44.39300 10.83900 38.09900
H  44.98500 9.43600 37.13600
H  43.23100 9.66300 37.40200
Mg 35.99900 49.57800 25.12200
C  36.47400 47.99300 28.24600
C  35.33700 52.45700 26.84200
C  35.70300 51.11400 22.19800
C  37.22300 46.86000 23.59600
N  35.88200 50.09900 27.20800
C  36.13000 49.37200 28.35200
C  35.75000 50.08800 29.64500
C  35.23400 51.49300 29.14700
C  35.49400 51.35200 27.62900
C  33.68900 51.73900 29.56000
C  36.95900 50.19500 30.64000
C  36.70200 49.57100 32.01500
H  35.28500 49.74400 32.68900
N  35.57700 51.52200 24.53500
C  35.36900 52.59100 25.46000
C  35.18600 53.74100 24.63600
C  35.24800 53.35000 23.30300
C  35.50000 51.96100 23.28600
C  34.73800 55.13400 25.22600
C  34.89700 54.20000 21.97000
O  34.86100 53.78000 20.81900
C  34.68400 55.67000 22.08200
N  36.31000 49.05700 23.25000
C  36.14900 49.87800 22.16200
C  36.41800 49.12200 20.89000
C  37.25800 47.88700 21.33700
C  36.73400 47.84200 22.79500
C  35.07300 48.77900 20.15300
C  38.79800 47.96100 21.24800
C  39.36400 46.84200 20.32000
N  36.43000 47.68400 25.70100
C  36.96900 46.67400 24.95100
C  37.26500 45.56000 25.78500
C  37.11400 46.07700 27.07400
C  36.60400 47.31200 26.98900
C  37.84200 44.24600 25.31500
C  37.26000 45.77500 28.48900
O  37.53500 44.70200 29.05100
C  36.75800 46.95800 29.25500
C  35.58700 46.46000 30.03800
O  34.47800 46.28400 29.55300
O  36.01300 46.11600 31.30200
C  34.92100 45.50200 32.12900
H  34.92100 53.35000 27.31500
H  35.72800 51.58000 21.21100
H  37.72800 46.07300 23.03200
H  34.89900 49.56200 30.07600
H  35.82500 52.26700 29.63800
H  32.95300 51.34800 28.85800
H  33.38600 52.77800 29.68600
H  33.63900 51.21600 30.51500
H  37.36400 51.18800 30.83700
H  37.77700 49.61000 30.21900
H  37.44400 50.00700 32.68300
H  36.97200 48.51900 31.92000
H  35.43600 55.79100 24.70600
H  34.72500 55.09100 26.31500
H  33.73700 55.35900 24.85900
H  33.69200 55.99700 22.39600
H  34.74700 56.09100 21.07900
H  35.47000 56.23400 22.58400
H  36.93900 49.73400 20.15400
H  36.90200 47.04100 20.74900
H  34.24800 49.26000 20.67700
H  34.86400 47.70900 20.17700
H  35.19700 49.14000 19.13200
H  39.22100 47.67300 22.21100
H  39.11400 48.95600 20.93700
H  39.75600 47.16400 19.35500
H  38.71800 45.96900 20.22800
H  40.14200 46.37300 20.92200
H  37.33500 43.50300 25.93100
H  38.90600 44.18400 25.54400
H  37.57200 44.11900 24.26700
H  37.58700 47.30600 29.87200
H  33.92200 45.80000 31.81400
H  34.96900 45.92400 33.13300
H  35.02400 44.41700 32.13200

