158

Mg 47.28100 25.08500 28.47000
C  47.97500 27.53100 30.91400
C  46.49500 23.00500 31.08300
C  46.84600 22.69200 26.22300
C  48.75100 27.13700 26.17200
N  47.22200 25.19900 30.78200
C  47.43300 26.38400 31.51400
C  47.09500 26.15900 32.99500
C  46.62000 24.66000 33.03600
C  46.75600 24.24000 31.58400
C  47.38900 23.77900 33.97000
C  46.02800 27.15000 33.46900
C  46.44600 28.05500 34.65300
H  45.61500 28.34100 35.89200
N  46.70800 23.18500 28.58700
C  46.40800 22.45800 29.75200
C  45.95800 21.14000 29.46400
C  45.99300 21.03700 28.05100
C  46.55100 22.28400 27.57200
C  45.53500 20.19900 30.52400
C  45.74800 19.82000 27.23500
O  45.95400 19.72400 26.01100
C  45.37100 18.54500 27.89700
N  47.55000 24.98800 26.54500
C  47.40200 23.86700 25.79300
C  47.78400 24.00200 24.29800
C  48.23200 25.47800 24.28200
C  48.20300 25.90800 25.72500
C  48.64600 22.87300 23.68700
C  47.44900 26.40200 23.21300
C  48.06500 26.41000 21.78600
N  48.11600 26.91400 28.44000
C  48.72400 27.64200 27.46000
C  49.14500 28.91000 27.87900
C  48.87200 28.94200 29.24300
C  48.26100 27.65400 29.55000
C  49.81100 29.89900 26.92700
C  48.91200 29.72000 30.44000
O  49.28000 30.81200 30.64400
C  48.52400 28.74500 31.58100
C  49.72300 28.51500 32.42300
O  50.71600 27.96400 32.00200
O  49.55800 29.03600 33.75200
C  50.73900 28.73100 34.56800
H  46.28400 22.18000 31.76600
H  46.53300 22.01000 25.42900
H  49.30700 27.60900 25.35900
H  48.00600 26.34800 33.56300
H  45.55500 24.57500 33.25000
H  48.25400 23.26200 33.55500
H  46.79200 23.02800 34.48500
H  47.57700 24.38200 34.85900
H  45.09800 26.64000 33.71800
H  45.78000 27.83200 32.65700
H  46.81700 29.00900 34.27900
H  47.34300 27.62000 35.09400
H  46.19800 19.35400 30.71200
H  44.54500 19.79400 30.31700
H  45.34300 20.51600 31.54900
H  45.26200 17.77900 27.12900
H  44.41100 18.62200 28.40900
H  46.15200 18.22300 28.58600
H  46.90900 23.97100 23.64900
H  49.29100 25.50900 24.02300
H  49.60900 23.25400 23.34800
H  48.03400 22.38100 22.93100
H  48.86500 22.07100 24.39200
H  47.48400 27.40000 23.65000
H  46.41800 26.04700 23.21000
H  49.12200 26.16800 21.89900
H  47.98200 27.39500 21.32700
H  47.50000 25.70000 21.18200
H  49.22800 29.88000 26.00600
H  50.85300 29.67100 26.69900
H  49.75100 30.88300 27.39100
H  47.81300 29.22900 32.25200
H  51.68000 28.88100 34.03900
H  50.66700 27.67300 34.82200
H  50.62600 29.29900 35.49100
Mg 36.12100 49.34200 24.99800
C  36.51900 47.47600 28.04100
C  35.29200 52.09600 26.93100
C  35.57900 51.19600 22.16500
C  37.03200 46.51700 23.15900
N  35.73700 49.62300 27.28300
C  36.07900 48.81100 28.29400
C  36.01500 49.60500 29.62500
C  35.59000 51.03000 29.20000
C  35.53000 50.92800 27.68400
C  34.20000 51.46500 29.83000
C  37.37000 49.52400 30.43400
C  37.28000 48.82000 31.81100
H  35.94200 48.87000 32.51900
N  35.54300 51.39600 24.63200
C  35.27200 52.31500 25.54300
C  34.97600 53.56200 24.90100
C  35.08700 53.33600 23.51200
C  35.39200 51.89600 23.35200
C  34.68900 54.81200 25.65300
C  34.95900 54.33100 22.35400
O  35.15600 54.03200 21.15400
C  34.62700 55.86300 22.70300
N  36.12100 48.78000 23.03800
C  36.02800 49.79700 22.01400
C  36.18800 49.16300 20.57600
C  36.72700 47.73900 20.98800
C  36.66500 47.62400 22.46200
C  34.97200 49.11200 19.62000
C  37.97900 47.25700 20.30100
C  39.21300 47.84300 20.95900
N  36.70100 47.43800 25.42100
C  37.06600 46.36000 24.58100
C  37.49700 45.20400 25.35400
C  37.15400 45.56000 26.68800
C  36.79600 46.97300 26.73100
C  38.09200 43.89500 24.66000
C  37.11400 45.06000 28.11800
O  37.43600 44.01500 28.67500
C  36.77700 46.32400 29.00500
C  35.52900 46.01100 29.85400
O  34.44300 46.57600 29.69400
O  35.82900 45.13700 30.85500
C  34.70200 44.58000 31.61100
H  35.08800 52.91500 27.62300
H  35.53300 51.81800 21.26900
H  37.47100 45.78000 22.48200
H  35.25800 49.10600 30.23100
H  36.39200 51.76600 29.25500
H  34.17300 52.51300 30.12600
H  34.01100 50.96500 30.78000
H  33.29000 51.17300 29.30500
H  37.80400 50.52200 30.50100
H  38.14400 49.03000 29.84600
H  38.10900 49.15400 32.43500
H  37.38500 47.75100 31.62500
H  35.54500 55.46900 25.80100
H  34.15700 54.63300 26.58700
H  33.92500 55.43000 25.18100
H  35.40000 56.21800 23.38400
H  33.65500 55.93800 23.19100
H  34.71900 56.36600 21.74000
H  36.95000 49.71100 20.02100
H  36.00200 47.01500 20.61700
H  33.99900 49.11800 20.11200
H  35.01200 48.16500 19.08100
H  35.02300 49.90400 18.87300
H  38.07000 47.67400 19.29700
H  37.96700 46.17000 20.22900
H  39.91400 48.33100 20.28200
H  39.67400 46.91400 21.29500
H  39.04000 48.43300 21.85900
H  37.44500 43.48500 23.88400
H  38.35400 43.18700 25.44600
H  39.09700 44.11000 24.29600
H  37.68600 46.58300 29.54700
H  34.26700 43.78200 31.01000
H  33.95200 45.32800 31.86900
H  35.04100 44.27100 32.60000

