158

Mg 46.67400 35.16100 28.73500
C  45.08800 33.07000 31.19500
C  46.90300 37.54500 31.17200
C  47.65200 37.31200 26.39500
C  45.87200 32.74500 26.41900
N  46.26000 35.20000 30.98300
C  45.58600 34.22000 31.76000
C  45.45900 34.66400 33.19000
C  45.69200 36.21400 33.06700
C  46.34800 36.30600 31.67100
C  44.42800 37.00400 33.23000
C  46.48200 34.03900 34.16600
C  45.86900 33.89100 35.63600
H  46.14100 35.01200 36.63500
N  47.55800 37.11900 28.78900
C  47.59600 37.88900 29.94000
C  48.18700 39.16700 29.54400
C  48.29500 39.14300 28.11800
C  47.86600 37.79700 27.68300
C  48.38000 40.31100 30.53500
C  48.76800 40.20400 27.18000
O  48.83000 40.03700 25.97700
C  49.29800 41.54900 27.72600
N  46.61700 35.15200 26.66600
C  47.16900 36.11200 25.89500
C  46.87200 35.87500 24.37400
C  46.36400 34.34600 24.42000
C  46.29800 34.05000 25.98600
C  45.92600 36.96700 23.78200
C  47.32900 33.37400 23.60800
C  46.78500 32.45900 22.51800
N  45.84300 33.19700 28.74600
C  45.60200 32.36700 27.70500
C  45.01500 31.11100 28.16800
C  44.76400 31.37300 29.52500
C  45.25400 32.65500 29.82000
C  44.64300 29.89500 27.41900
C  44.18600 30.74400 30.69800
O  43.79000 29.62500 30.91200
C  44.20300 31.91900 31.77000
C  44.70500 31.39200 33.02500
O  45.63100 30.62000 33.23400
O  43.77600 31.74100 34.00200
C  43.85200 31.03200 35.27900
H  46.71700 38.31400 31.92400
H  47.91500 38.05200 25.63700
H  45.68400 32.03100 25.61500
H  44.48500 34.49500 33.64900
H  46.30800 36.63400 33.86100
H  43.58500 36.42100 33.59900
H  44.06800 37.35400 32.26300
H  44.63300 37.87700 33.85000
H  47.32100 34.73400 34.20500
H  46.83800 33.08300 33.78300
H  46.25100 33.01100 36.15500
H  44.79400 33.72000 35.58100
H  48.15100 41.32800 30.21500
H  49.43400 40.35800 30.80900
H  47.77100 40.20800 31.43300
H  49.93000 42.10400 27.03200
H  49.83000 41.39000 28.66400
H  48.41600 42.18500 27.80800
H  47.82100 35.92700 23.84000
H  45.35500 34.34800 24.00700
H  45.60600 37.71800 24.50400
H  45.05000 36.50500 23.32500
H  46.48300 37.50700 23.01700
H  47.86000 32.81800 24.38100
H  47.99700 34.02500 23.04400
H  45.78300 32.10000 22.75300
H  47.55300 31.68500 22.49500
H  46.84300 33.11300 21.64700
H  43.66800 30.05300 26.95900
H  44.54300 29.09300 28.15000
H  45.40000 29.57300 26.70400
H  43.22800 32.38500 31.91000
H  42.83000 31.21800 35.60700
H  44.55300 31.43700 36.00900
H  43.98200 29.94900 35.29600
Mg 15.96700 51.81400 25.91800
C  17.73700 51.07200 28.86200
C  13.23600 52.60400 27.91300
C  14.37700 52.61100 23.24100
C  18.63500 50.64100 24.00500
N  15.49500 51.71700 28.11500
C  16.44500 51.57100 29.11200
C  15.88800 51.85600 30.43700
C  14.32600 52.12600 30.07300
C  14.31200 52.20000 28.58200
C  13.20800 51.13900 30.59700
C  16.76900 53.00900 31.06200
C  17.00300 52.98800 32.54900
H  16.02700 52.12100 33.32200
N  14.00200 52.47800 25.53600
C  13.13700 52.67500 26.48000
C  11.92800 53.29400 25.83500
C  12.30000 53.41700 24.45900
C  13.60100 52.85500 24.35900
C  10.70600 53.79500 26.59300
C  11.55200 54.13700 23.36300
O  11.95400 54.18200 22.25400
C  10.26700 54.95600 23.60800
N  16.45300 51.58800 23.87500
C  15.61400 51.98900 22.97200
C  16.13600 51.66400 21.51300
C  17.57100 51.18500 21.71500
C  17.65200 51.13700 23.26100
C  15.19900 50.69200 20.69600
C  18.62300 52.16100 21.14400
C  19.33500 51.75400 19.78800
N  17.73600 50.97200 26.31200
C  18.75300 50.63800 25.44500
C  19.92400 50.18200 26.14600
C  19.53200 50.27700 27.50900
C  18.26400 50.78100 27.54100
C  21.25700 49.66900 25.49100
C  19.95900 49.99000 28.89300
O  20.97800 49.48600 29.33700
C  18.84500 50.64100 29.76000
C  18.38500 49.61000 30.79700
O  17.61200 48.70800 30.65300
O  19.13800 49.86100 31.94700
C  18.83800 48.91600 32.97600
H  12.42900 53.06800 28.48400
H  13.92800 52.88000 22.28200
H  19.53200 50.27300 23.50100
H  15.91400 50.88800 30.93700
H  14.25600 53.17200 30.36900
H  13.60800 50.54600 31.41900
H  12.92200 50.41700 29.83100
H  12.32600 51.63200 31.00700
H  16.07700 53.84500 30.96700
H  17.56700 53.23700 30.35500
H  16.95000 54.00700 32.93300
H  18.00400 52.56300 32.63300
H  10.66500 53.24600 27.53400
H  9.80400 53.61900 26.00700
H  10.66100 54.88400 26.58100
H  10.37400 55.64400 24.44700
H  9.50500 54.18000 23.67800
H  10.20400 55.66200 22.77900
H  16.15600 52.55200 20.88100
H  17.75200 50.18000 21.33500
H  14.57500 50.08400 21.35100
H  15.80000 50.13500 19.97800
H  14.51500 51.29500 20.09800
H  19.38000 52.30100 21.91500
H  18.14400 53.12600 20.98100
H  20.39400 51.53100 19.92500
H  19.16200 52.52400 19.03600
H  18.85300 50.82200 19.49500
H  21.55400 50.23200 24.60600
H  21.08100 48.62800 25.21700
H  22.01400 49.77000 26.26800
H  19.25200 51.49100 30.30700
H  18.90400 47.90200 32.58000
H  17.86700 49.05200 33.45200
H  19.56600 49.02300 33.78000

