158

Mg -2.11900 16.80500 26.99500
C  -2.70200 14.58400 29.59800
C  -2.42200 19.45400 29.16600
C  -2.07600 18.92500 24.34800
C  -2.53900 14.10100 24.73100
N  -2.42800 16.94500 29.13400
C  -2.47400 15.89400 30.08100
C  -2.63500 16.41500 31.51100
C  -2.62200 17.97100 31.23100
C  -2.53500 18.17400 29.71700
C  -3.87700 18.80400 31.76000
C  -1.58300 15.81900 32.54300
C  -1.15400 16.73600 33.73600
H  -1.18700 16.09200 35.18200
N  -1.97700 18.88900 26.79600
C  -2.16100 19.78600 27.80600
C  -2.06100 21.11000 27.29200
C  -1.94500 20.94200 25.86900
C  -2.04200 19.51800 25.60500
C  -2.09500 22.32400 28.25300
C  -1.82200 22.06700 24.84100
O  -2.00100 21.95200 23.60000
C  -1.77400 23.50500 25.34000
N  -2.59000 16.57000 24.79000
C  -2.25500 17.56000 23.97600
C  -2.49700 17.17000 22.48900
C  -2.36200 15.55700 22.62300
C  -2.46200 15.38500 24.15100
C  -3.93500 17.56200 22.03500
C  -1.11300 14.78500 21.99500
C  -1.37800 13.36200 21.41000
N  -2.51900 14.74000 27.09200
C  -2.60200 13.74800 26.09400
C  -2.71300 12.48900 26.66800
C  -2.79400 12.78900 28.02900
C  -2.65000 14.14400 28.24100
C  -2.86500 11.12700 26.08700
C  -2.91100 12.16700 29.30100
O  -3.05100 11.00500 29.63700
C  -2.83100 13.31900 30.38300
C  -1.64400 13.03700 31.22200
O  -0.45500 13.23900 30.93700
O  -2.09000 12.51000 32.41200
C  -1.09100 12.20300 33.40600
H  -2.48700 20.17500 29.98300
H  -1.95400 19.60000 23.49800
H  -2.60700 13.26200 24.03400
H  -3.62000 16.14700 31.89300
H  -1.71500 18.36300 31.69300
H  -4.44300 19.01100 30.85200
H  -3.68900 19.72800 32.30700
H  -4.59100 18.19900 32.31800
H  -0.76500 15.54900 31.87400
H  -2.04600 14.93200 32.97500
H  -1.66700 17.69700 33.69000
H  -0.14100 17.11700 33.61000
H  -3.06100 22.82700 28.21100
H  -1.37300 23.10800 28.02300
H  -2.10400 22.03700 29.30500
H  -1.63800 24.09900 24.43600
H  -0.79500 23.55200 25.81600
H  -2.59900 23.76700 26.00200
H  -1.78400 17.64400 21.81400
H  -3.25100 15.10200 22.18600
H  -4.60500 17.82600 22.85300
H  -4.39900 16.78600 21.42600
H  -3.79100 18.48700 21.47700
H  -0.28300 14.76600 22.70100
H  -0.73200 15.37300 21.16000
H  -0.91600 13.24900 20.43000
H  -2.44700 13.20500 21.26200
H  -0.96200 12.57300 22.03600
H  -3.88000 11.04100 25.69800
H  -2.57900 10.30200 26.73900
H  -2.26700 10.91400 25.20100
H  -3.71800 13.36300 31.01500
H  -1.44100 11.24600 33.79400
H  -1.23100 12.89500 34.23700
H  -0.04800 12.16700 33.09200
Mg -12.95700 15.90900 41.98300
C  -9.82500 14.22000 41.77500
C  -11.40700 18.61400 40.45000
C  -15.95000 17.16900 41.66300
C  -14.24700 12.85800 42.92300
N  -10.83600 16.33400 41.16500
C  -9.77800 15.54400 41.18600
C  -8.57000 16.22900 40.57300
C  -9.03700 17.68900 40.40100
C  -10.53000 17.55900 40.64100
C  -8.42100 18.63400 41.47700
C  -7.96200 15.51400 39.33100
C  -6.46400 15.33800 39.24200
H  -5.71900 16.02500 38.08700
N  -13.59300 17.70000 41.20700
C  -12.82500 18.71500 40.57600
C  -13.69600 19.80700 40.25900
C  -15.03400 19.38200 40.52500
C  -14.92300 18.04000 41.17300
C  -13.12600 21.11500 39.62900
C  -16.31000 20.11700 40.15400
O  -16.19400 21.16700 39.51900
C  -17.69000 19.57300 40.40500
N  -14.81600 15.05500 42.09700
C  -15.92900 15.81800 42.00400
C  -17.24200 15.10400 42.32900
C  -16.72100 13.63900 42.47100
C  -15.14200 13.85900 42.49100
C  -18.03200 15.62700 43.57700
C  -17.13700 12.73300 41.37900
C  -17.08400 11.15600 41.54000
N  -12.26200 13.97200 42.51800
C  -12.88400 12.80400 42.88700
C  -11.94900 11.68600 43.16700
C  -10.73200 12.29500 42.82000
C  -10.97300 13.61100 42.37700
C  -12.17900 10.29400 43.46300
C  -9.28300 11.97300 42.62600
O  -8.59700 11.03000 42.96000
C  -8.73700 13.16600 41.76900
C  -7.58800 13.54700 42.58200
O  -7.67900 13.89800 43.78100
O  -6.46500 13.58700 41.73400
C  -5.19800 13.95400 42.36500
H  -10.96100 19.52700 40.05000
H  -16.93600 17.63200 41.73300
H  -14.70400 11.93500 43.28400
H  -7.90300 16.20300 41.43500
H  -8.73600 18.11700 39.44500
H  -7.73100 19.29200 40.94800
H  -8.02300 18.05900 42.31300
H  -9.17300 19.29500 41.90800
H  -8.10500 16.14000 38.45000
H  -8.52400 14.60500 39.11900
H  -6.24700 14.27000 39.23200
H  -6.08700 15.61900 40.22500
H  -12.52200 20.99800 38.72900
H  -12.60000 21.70700 40.37700
H  -13.83000 21.87200 39.28100
H  -18.45300 20.30600 40.14300
H  -17.85300 19.51900 41.48100
H  -17.88100 18.58800 39.97700
H  -17.87900 15.15700 41.44600
H  -17.04100 13.17300 43.40300
H  -19.05100 15.88600 43.29000
H  -17.53600 16.50300 43.99400
H  -18.02800 14.90400 44.39200
H  -16.41600 13.04400 40.62300
H  -18.13500 13.07400 41.10200
H  -16.21700 10.75700 41.01500
H  -17.95400 10.73000 41.04000
H  -17.05500 10.87300 42.59200
H  -13.11100 10.25400 44.02700
H  -11.43200 9.93800 44.17300
H  -12.32100 9.68500 42.57100
H  -8.39200 12.74700 40.82300
H  -4.52600 14.14500 41.52900
H  -4.79900 13.11000 42.92700
H  -5.36900 14.77800 43.05800

