158

Mg 24.26500 -5.35500 45.46000
C  26.57600 -3.19100 43.85900
C  21.79500 -4.10200 43.53200
C  22.41900 -8.06500 46.31300
C  27.12100 -6.74500 47.23400
N  24.20600 -3.94200 43.77600
C  25.27800 -3.19600 43.32100
C  24.84300 -2.32300 42.18200
C  23.28400 -2.23900 42.43600
C  23.00700 -3.44100 43.37400
C  22.71900 -0.86500 42.96000
C  25.48500 -2.86600 40.82200
C  26.07100 -1.77900 39.88600
H  26.17100 -2.08800 38.33100
N  22.25900 -5.97400 45.06000
C  21.41200 -5.31100 44.22700
C  20.12100 -5.97300 44.29000
C  20.20800 -7.11300 45.14900
C  21.64200 -7.15300 45.52500
C  18.94900 -5.54600 43.46300
C  19.17600 -8.22100 45.43900
O  18.04800 -8.14700 44.93500
C  19.35500 -9.45100 46.27200
N  24.74900 -7.13600 46.58800
C  23.76800 -8.09100 46.72200
C  24.40800 -9.35500 47.34800
C  25.75300 -8.79500 47.86900
C  25.88800 -7.45300 47.22400
C  23.59700 -10.20300 48.40000
C  26.95100 -9.73800 47.72100
C  27.86200 -9.80600 48.98400
N  26.32000 -4.94200 45.75000
C  27.32300 -5.62600 46.47800
C  28.59900 -4.87800 46.21600
C  28.31000 -3.94300 45.17400
C  26.95300 -4.05700 44.93000
C  29.83100 -4.99800 46.93100
C  28.94000 -2.99800 44.26400
O  30.09000 -2.79400 44.06800
C  27.78600 -2.44800 43.40500
C  27.71300 -1.03400 43.66600
O  28.02500 -0.19300 42.88000
O  27.07900 -0.80600 44.85900
C  26.73100 0.58400 45.17900
H  20.99400 -3.68500 42.91800
H  21.76600 -8.88500 46.61900
H  28.02600 -7.19500 47.64800
H  25.30800 -1.36200 42.40200
H  22.89500 -2.30400 41.42000
H  23.42600 -0.03500 42.95800
H  22.40300 -0.90300 44.00300
H  21.83500 -0.56100 42.39900
H  24.74600 -3.41000 40.23300
H  26.29800 -3.55200 41.05700
H  27.10900 -1.61300 40.17600
H  25.53000 -0.84700 40.04500
H  18.91200 -6.29400 42.67100
H  19.15000 -4.61500 42.93300
H  18.08800 -5.44600 44.12400
H  20.07200 -10.16900 45.87300
H  18.37600 -9.92400 46.35400
H  19.61800 -9.19100 47.29800
H  24.59800 -9.99400 46.48600
H  25.54000 -8.54800 48.90900
H  23.23500 -11.03600 47.79800
H  22.74300 -9.68700 48.83700
H  24.14400 -10.74800 49.16900
H  27.60400 -9.38900 46.92000
H  26.53900 -10.72500 47.51100
H  27.55400 -9.12700 49.77900
H  28.88800 -9.54100 48.73300
H  27.83700 -10.76000 49.51100
H  30.17800 -5.99300 46.65200
H  29.61500 -4.96700 47.99800
H  30.51300 -4.21600 46.59500
H  28.09000 -2.53800 42.36200
H  27.44400 1.01300 45.88300
H  25.77000 0.64100 45.69000
H  26.65200 1.32100 44.38000
Mg 26.41300 50.13400 26.77700
C  24.49200 51.46800 29.35500
C  28.83700 49.35000 29.01100
C  28.23500 49.09500 24.23900
C  24.21600 51.56000 24.55400
N  26.69500 50.60700 29.01300
C  25.72800 50.96100 29.90300
C  26.18700 50.83000 31.38900
C  27.56300 50.13100 31.16100
C  27.72800 49.98600 29.64000
C  28.80100 50.75000 31.88800
C  25.08000 50.03200 32.23800
C  25.53900 49.01700 33.37500
H  24.62000 49.00600 34.64800
N  28.25300 49.33800 26.65100
C  29.12500 49.13700 27.67700
C  30.34800 48.53200 27.24100
C  30.25800 48.51200 25.81400
C  28.89500 48.97600 25.50700
C  31.43000 48.00400 28.17800
C  31.30200 48.25500 24.76400
O  31.08400 48.41300 23.54700
C  32.69500 47.97300 25.21800
N  26.20000 50.16400 24.65700
C  27.02300 49.57400 23.80500
C  26.48900 49.55300 22.34100
C  25.19900 50.42500 22.50200
C  25.17100 50.71400 23.99300
C  27.54400 50.09700 21.33200
C  23.89700 49.82000 22.02700
C  22.88700 50.81600 21.46200
N  24.59100 51.15200 26.87100
C  23.80600 51.60700 25.88500
C  22.66500 52.37100 26.42700
C  22.88800 52.32000 27.85100
C  24.07300 51.51300 28.00100
C  21.55200 53.11000 25.70600
C  22.34400 52.64100 29.14000
O  21.38100 53.30900 29.49900
C  23.37400 52.11400 30.16300
C  23.74100 53.34100 31.02000
O  24.52100 54.27400 30.79100
O  22.94300 53.19400 32.19800
C  23.30300 54.01700 33.35800
H  29.55000 49.02600 29.77200
H  28.69200 48.50100 23.44500
H  23.55300 51.97200 23.79000
H  26.30200 51.85900 31.73000
H  27.41600 49.08500 31.43100
H  29.20000 51.66700 31.45500
H  29.54300 49.95200 31.87100
H  28.56600 50.98700 32.92600
H  24.51900 49.35800 31.59100
H  24.41100 50.80200 32.62100
H  26.57300 49.24200 33.63800
H  25.45000 48.02300 32.93500
H  32.29200 48.64900 28.00500
H  31.71900 46.98600 27.91800
H  31.15200 48.13200 29.22400
H  33.37200 48.05800 24.36800
H  32.60400 47.03900 25.77300
H  32.97100 48.72900 25.95400
H  26.10300 48.61700 21.93700
H  25.43400 51.38200 22.03700
H  28.50900 50.24500 21.81700
H  27.32400 51.03900 20.82800
H  27.62900 49.19900 20.72100
H  23.40000 49.23400 22.80000
H  24.11100 49.10300 21.23400
H  21.91100 50.86700 21.94300
H  22.67200 50.60000 20.41500
H  23.25900 51.83500 21.56500
H  21.03000 52.60200 24.89500
H  21.96000 54.02200 25.27200
H  20.79200 53.43500 26.41700
H  22.88300 51.37200 30.79100
H  23.49700 55.06500 33.12900
H  24.21600 53.49800 33.65000
H  22.59000 53.95100 34.18000

