158

Mg 55.29000 23.59400 44.66600
C  53.14400 26.19200 43.71700
C  52.93300 21.23200 43.67400
C  57.65600 21.23200 44.73400
C  57.75900 26.14300 45.32500
N  53.32900 23.76500 43.73200
C  52.61700 24.94100 43.45400
C  51.25200 24.57800 42.82100
C  51.11600 23.02800 43.19900
C  52.55300 22.60600 43.59700
C  50.03800 22.72700 44.32600
C  51.04900 24.82400 41.29100
C  49.73300 25.37500 40.90200
H  49.00900 24.61600 39.86000
N  55.25300 21.47600 44.31500
C  54.21200 20.70400 43.96200
C  54.59700 19.28200 43.95600
C  55.98100 19.23900 44.31200
C  56.34200 20.67900 44.51900
C  53.69000 18.15300 43.57400
C  56.71900 18.01200 44.53300
O  56.19700 16.96000 44.35400
C  58.20300 17.98600 45.00100
N  57.42500 23.68900 44.93400
C  58.13800 22.58400 44.86200
C  59.64600 22.87200 45.10800
C  59.63100 24.40700 45.51900
C  58.18300 24.78900 45.15300
C  60.46200 21.95800 46.15900
C  60.84800 25.25500 44.95700
C  61.70700 26.00800 46.00000
N  55.38400 25.71200 44.73800
C  56.42100 26.60600 45.05100
C  55.88000 27.95400 45.08100
C  54.63100 27.83700 44.48800
C  54.40800 26.47700 44.28600
C  56.57300 29.21800 45.58900
C  53.44100 28.56100 44.18600
O  53.28300 29.75600 44.40000
C  52.47700 27.58200 43.48900
C  52.34400 27.94500 42.05000
O  53.06300 27.70700 41.14400
O  51.19700 28.68600 41.90500
C  50.89200 29.04700 40.53600
H  52.13100 20.53200 43.43200
H  58.34500 20.40600 44.55100
H  58.51600 26.86900 45.63000
H  50.49500 25.14800 43.36000
H  50.82200 22.39400 42.36200
H  49.16300 22.27000 43.86400
H  49.57700 23.62700 44.73200
H  50.55200 22.08900 45.04500
H  50.99300 23.82400 40.86100
H  51.94100 25.29100 40.87500
H  49.89200 26.43800 40.71900
H  49.07400 25.53600 41.75400
H  54.24600 17.40800 43.00500
H  52.98700 18.49400 42.81400
H  53.30900 17.72700 44.50200
H  58.85300 18.42500 44.24300
H  58.57700 17.01400 45.32000
H  58.26800 18.64100 45.87000
H  60.09500 22.61600 44.14800
H  59.58100 24.51500 46.60200
H  59.85900 21.19200 46.64600
H  60.91400 22.61400 46.90300
H  61.22700 21.58600 45.47700
H  60.58100 25.91500 44.13200
H  61.44100 24.56200 44.36000
H  62.70500 25.57000 45.98300
H  61.22900 25.92900 46.97700
H  61.74200 27.06300 45.72800
H  56.77500 29.83500 44.71300
H  57.51000 29.01900 46.11100
H  55.78000 29.72200 46.14200
H  51.48000 27.56400 43.92800
H  50.22200 29.90300 40.60800
H  50.50900 28.23500 39.91700
H  51.78500 29.44200 40.05100
Mg 40.66100 40.70900 26.41000
C  39.93800 42.91800 28.88800
C  42.09000 38.61800 28.72400
C  41.24300 38.42200 23.87500
C  39.89600 43.18300 23.98400
N  41.21000 40.84000 28.59900
C  40.54000 41.78300 29.39800
C  40.78500 41.39900 30.86000
C  41.78500 40.13200 30.76500
C  41.73700 39.82400 29.27300
C  43.19200 40.40100 31.34600
C  39.46800 41.09200 31.64300
C  39.21100 42.01100 32.88200
H  38.75900 41.33200 34.22700
N  41.45900 38.70300 26.34100
C  41.89600 38.03700 27.41100
C  42.32300 36.66900 26.99500
C  42.00500 36.62700 25.61200
C  41.51200 37.94200 25.20000
C  42.90300 35.64600 28.04000
C  42.20700 35.43000 24.59400
O  41.95900 35.44800 23.42000
C  42.96600 34.20000 25.10500
N  40.63000 40.75300 24.23800
C  40.95500 39.68400 23.42900
C  40.79500 40.04900 21.94500
C  40.31800 41.56600 21.96600
C  40.38300 41.89500 23.47800
C  41.98200 39.85800 21.01200
C  38.98000 41.78800 21.27400
C  37.73400 41.81200 22.18700
N  40.00400 42.58600 26.37200
C  39.71500 43.47100 25.36400
C  39.16300 44.68000 25.97700
C  39.25900 44.51700 27.33400
C  39.79800 43.20300 27.56200
C  38.70100 45.91500 25.22100
C  39.13500 45.15800 28.64900
O  38.62100 46.21600 29.02600
C  39.48000 44.10500 29.70500
C  40.54000 44.66300 30.58900
O  41.75500 44.77100 30.36800
O  39.86900 45.09900 31.72400
C  40.63900 46.05000 32.59700
H  42.60400 38.00800 29.47000
H  41.29800 37.63600 23.11900
H  39.51000 43.97100 23.33400
H  41.28600 42.29000 31.23700
H  41.51400 39.24700 31.34000
H  43.19100 41.32300 31.92700
H  43.92000 40.49200 30.54000
H  43.40500 39.53800 31.97600
H  39.49400 40.06600 32.00900
H  38.58700 41.20700 31.01100
H  38.37300 42.59900 32.50800
H  40.09000 42.61900 33.09700
H  42.24000 34.86500 28.41300
H  43.21600 36.16700 28.94500
H  43.77400 35.21300 27.54700
H  42.37300 33.79700 25.92600
H  44.00100 34.46100 25.32500
H  43.07000 33.52300 24.25600
H  39.98800 39.39500 21.61500
H  41.06000 42.17400 21.44900
H  42.92400 40.05200 21.52600
H  41.92600 40.54400 20.16700
H  42.05400 38.81600 20.70100
H  38.88000 41.08000 20.45200
H  39.03300 42.79000 20.84700
H  37.16300 42.73700 22.10400
H  37.86800 41.65500 23.25800
H  37.19000 40.94400 21.81800
H  37.61800 46.01100 25.30400
H  38.99100 45.94200 24.17100
H  39.07500 46.81800 25.70200
H  38.54300 43.92300 30.23300
H  41.12000 45.38900 33.31800
H  39.96200 46.74100 33.10000
H  41.40600 46.59100 32.04300

