158

Mg 34.89400 3.30800 29.15800
C  32.79200 4.19400 31.82500
C  37.46300 3.05400 31.41800
C  36.83500 2.76900 26.54100
C  32.12500 3.77100 26.96800
N  35.01900 3.53200 31.36700
C  34.04700 3.82200 32.28800
C  34.56700 3.90900 33.72400
C  36.09000 3.74500 33.49200
C  36.21300 3.44400 31.98900
C  36.98500 4.96800 33.86600
C  33.98700 2.83800 34.69900
C  34.75000 2.62600 36.03800
H  35.54300 3.70200 36.71800
N  36.88800 2.97100 29.03800
C  37.76400 2.89400 30.03700
C  39.03500 2.46200 29.49000
C  38.85100 2.31600 28.08800
C  37.49400 2.79000 27.81300
C  40.25200 2.17600 30.34300
C  39.85900 1.81700 27.06700
O  39.65600 1.98900 25.88400
C  41.17800 1.22500 27.50800
N  34.46800 3.35500 27.01600
C  35.45600 3.02400 26.17700
C  34.97100 3.14800 24.72000
C  33.41400 3.12600 24.95500
C  33.29300 3.47600 26.39200
C  35.58700 4.52900 24.19000
C  32.74100 1.76400 24.59400
C  31.45500 1.73400 23.83400
N  32.84700 3.81800 29.29500
C  31.89400 3.93300 28.36900
C  30.66500 4.29500 28.94600
C  30.94100 4.42400 30.33700
C  32.29900 4.12200 30.48800
C  29.43200 4.52500 28.22500
C  30.41300 4.76900 31.61500
O  29.31300 5.18500 31.88300
C  31.53100 4.48300 32.68500
C  31.66900 5.53600 33.64500
O  32.27200 6.57300 33.48500
O  30.96600 5.19700 34.80300
C  30.84300 6.16300 35.91800
H  38.23700 2.95500 32.18100
H  37.49700 2.54600 25.70100
H  31.21300 3.89100 26.38000
H  34.30300 4.92900 34.00200
H  36.38400 2.86100 34.05700
H  36.47000 5.64000 34.55200
H  37.22400 5.56700 32.98800
H  37.92700 4.63800 34.30500
H  34.00500 1.91000 34.12600
H  32.97200 3.20600 34.84700
H  35.33600 1.72000 35.88600
H  34.01700 2.28200 36.76700
H  40.33100 1.08900 30.31500
H  40.12800 2.48700 31.38100
H  41.14600 2.73200 30.05900
H  41.84900 1.18500 26.65100
H  40.93200 0.25000 27.93000
H  41.70600 1.78500 28.28000
H  35.27600 2.33400 24.06200
H  32.98200 3.85600 24.26900
H  35.77300 5.22200 25.01000
H  34.97600 5.00600 23.42400
H  36.55900 4.31100 23.74800
H  32.59000 1.13300 25.46900
H  33.40300 1.29600 23.86500
H  30.81100 2.57900 24.07800
H  30.99000 0.78700 24.10700
H  31.56500 1.67100 22.75200
H  29.35300 5.45800 27.66600
H  28.65000 4.52400 28.98500
H  29.25500 3.67000 27.57200
H  31.26500 3.63600 33.31800
H  31.11200 7.16500 35.58400
H  31.55300 5.97600 36.72400
H  29.78600 6.23200 36.17200
Mg 36.92600 49.36100 25.64700
C  36.77100 47.62400 28.77100
C  35.33000 51.92600 27.20500
C  36.53200 50.79000 22.60000
C  38.00500 46.47000 24.12600
N  36.03700 49.67200 27.70300
C  36.24400 48.91100 28.86400
C  35.98500 49.70200 30.14900
C  35.23700 50.94900 29.57800
C  35.67100 50.91200 28.11300
C  33.71000 50.95800 29.84800
C  37.31700 49.96000 30.99800
C  37.34500 49.40200 32.40200
H  36.05900 49.19500 33.15000
N  36.04500 51.11500 24.99900
C  35.45800 51.99800 25.78600
C  34.92500 53.05500 24.96900
C  35.26700 52.78100 23.59700
C  36.03300 51.52800 23.68600
C  34.21100 54.22500 25.50200
C  34.95400 53.60400 22.37800
O  35.37900 53.32200 21.26300
C  34.22000 54.90000 22.44600
N  37.52600 48.91500 23.71500
C  37.18500 49.61700 22.62200
C  37.31200 48.73500 21.28900
C  38.21400 47.62100 21.81600
C  37.83600 47.64100 23.29100
C  36.00200 48.29100 20.56100
C  39.70100 47.73000 21.45900
C  40.42000 48.97700 21.96900
N  37.37200 47.46100 26.26900
C  37.82100 46.39700 25.49100
C  38.02800 45.28400 26.38700
C  37.74600 45.72300 27.63200
C  37.27400 47.05400 27.56200
C  38.54200 43.92100 26.00300
C  37.68100 45.32700 28.97600
O  37.95500 44.26200 29.49100
C  37.25900 46.55600 29.74900
C  36.04700 46.14800 30.62900
O  34.89400 46.49400 30.39000
O  36.37300 45.33700 31.68500
C  35.30800 44.85400 32.52800
H  34.96100 52.82200 27.70700
H  36.20900 51.16500 21.62700
H  38.23800 45.46700 23.76300
H  35.27600 49.04000 30.64600
H  35.61700 51.79900 30.14400
H  33.53100 51.93600 30.29600
H  33.38200 50.10300 30.43900
H  33.11500 50.87000 28.93900
H  37.69100 50.96400 30.79800
H  38.04200 49.41700 30.39200
H  38.05800 50.02300 32.94500
H  37.84800 48.43500 32.38600
H  34.90900 55.06100 25.51600
H  33.85400 54.04500 26.51600
H  33.27400 54.42500 24.98300
H  34.17700 55.39800 21.47700
H  34.70800 55.56200 23.16100
H  33.18800 54.81000 22.78800
H  37.91000 49.31800 20.58900
H  37.84100 46.63100 21.55400
H  35.72400 47.27100 20.29500
H  35.96000 48.76800 19.58200
H  35.17100 48.77200 21.07600
H  39.85200 47.57900 20.39000
H  40.21100 46.88000 21.91100
H  39.68800 49.78500 22.00900
H  41.18300 49.18400 21.21900
H  40.85300 48.69100 22.92800
H  39.35900 43.70500 26.69100
H  38.97500 43.96500 25.00300
H  37.69200 43.23900 25.98700
H  38.07100 46.72100 30.45700
H  34.47900 45.55400 32.42300
H  35.72100 45.17800 33.48300
H  34.91200 43.84200 32.43600

