158

Mg 7.88200 3.45100 27.25700
C  9.34300 1.85200 30.02600
C  6.10100 5.45200 29.37300
C  6.68400 5.02600 24.46300
C  9.06000 0.80200 25.18600
N  7.81100 3.65300 29.46300
C  8.63200 3.02500 30.39500
C  8.44700 3.55300 31.89200
C  7.37300 4.73000 31.62100
C  7.09100 4.66900 30.04800
C  6.10000 4.42200 32.44300
C  9.78200 3.89800 32.54000
C  9.74400 4.83400 33.72500
H  10.56600 4.57400 34.96600
N  6.55600 5.03800 26.98300
C  5.98100 5.72300 27.97100
C  5.18300 6.78200 27.39400
C  5.57500 6.82200 25.97000
C  6.29000 5.58400 25.73200
C  4.35600 7.77400 28.12300
C  5.29600 7.85300 24.93000
O  5.76200 7.78500 23.79400
C  4.67400 9.14500 25.35800
N  7.95500 3.07700 25.13800
C  7.36200 3.82700 24.20800
C  7.39500 3.26900 22.81500
C  7.96600 1.89200 23.03800
C  8.39300 1.93100 24.52700
C  5.93900 3.21500 22.15600
C  9.19800 1.48700 22.13300
C  8.97900 0.16700 21.39600
N  8.94400 1.67300 27.51600
C  9.36200 0.74800 26.59000
C  10.15900 -0.19800 27.31300
C  10.19400 0.12800 28.63000
C  9.45100 1.33500 28.71200
C  10.93000 -1.29600 26.70600
C  10.73500 -0.16700 29.91100
O  11.37300 -1.15400 30.30700
C  10.23800 0.99500 30.84700
C  9.55100 0.29300 31.93300
O  8.50600 -0.33700 31.94000
O  10.39800 0.41400 33.02900
C  9.85600 -0.05900 34.28200
H  5.45200 6.07100 29.99600
H  6.19300 5.50200 23.61100
H  9.27200 -0.07500 24.57200
H  8.04800 2.73700 32.49500
H  7.79100 5.67000 31.98300
H  6.08800 3.43800 32.91300
H  5.22500 4.42400 31.79300
H  5.97100 5.27600 33.10800
H  10.40400 4.37300 31.78000
H  10.18100 2.95400 32.91000
H  8.73500 5.10100 34.04100
H  10.07400 5.75200 33.23900
H  4.10200 7.45400 29.13300
H  3.39500 8.00100 27.66100
H  4.85800 8.74000 28.17100
H  3.71700 9.03000 25.86800
H  4.51600 9.64000 24.40000
H  5.42000 9.69600 25.93200
H  7.95500 3.96500 22.19000
H  7.17300 1.14500 22.99100
H  5.70900 2.23300 21.74200
H  5.78800 4.05800 21.48200
H  5.27100 3.39600 22.99700
H  10.13600 1.49400 22.68900
H  9.22300 2.24700 21.35100
H  8.21500 -0.47400 21.83600
H  9.88700 -0.40100 21.59900
H  8.88700 0.38400 20.33200
H  11.85900 -1.43400 27.25900
H  11.19500 -1.19300 25.65300
H  10.31200 -2.18000 26.86300
H  11.12000 1.55400 31.16000
H  9.70900 0.84000 34.88000
H  10.53500 -0.67900 34.86700
H  8.90400 -0.58900 34.29600
Mg 54.08200 25.49000 44.80800
C  51.42400 27.66400 44.10400
C  52.27800 22.95500 43.42000
C  56.85700 23.51400 44.78900
C  55.97600 28.22700 45.73500
N  52.15200 25.45700 43.75200
C  51.11900 26.42000 43.58900
C  49.93500 25.83900 42.95500
C  50.22000 24.32800 43.09500
C  51.72400 24.21300 43.34900
C  49.27900 23.59900 44.11800
C  49.76600 26.22800 41.42900
C  48.36800 26.07700 40.70900
H  48.46300 25.44800 39.33700
N  54.47300 23.50200 44.36100
C  53.57300 22.63000 43.78600
C  54.12800 21.29500 43.65600
C  55.46500 21.42700 44.06400
C  55.70600 22.85700 44.43200
C  53.46500 20.11500 42.99100
C  56.44300 20.30900 43.86700
O  56.09100 19.16200 43.52400
C  57.88400 20.45800 44.15800
N  56.11500 25.80800 44.88400
C  57.05700 24.83900 44.96100
C  58.39500 25.38300 45.43500
C  58.14300 26.91400 45.49500
C  56.62100 27.00800 45.40900
C  58.91800 24.74200 46.72300
C  58.87600 27.78800 44.40500
C  59.56600 29.04200 44.98400
N  53.75300 27.58500 45.10700
C  54.57800 28.56900 45.59700
C  53.85400 29.80200 45.69600
C  52.56800 29.51900 45.14700
C  52.61000 28.14500 44.72700
C  54.33400 31.11900 46.16500
C  51.23700 30.04900 44.89900
O  50.76600 31.17600 45.12800
C  50.45100 28.84000 44.27500
C  49.80700 29.33600 42.98900
O  50.37100 29.51300 41.95000
O  48.46600 29.45600 43.11100
C  47.81000 30.05400 41.94700
H  51.53400 22.20000 43.15800
H  57.74000 22.88800 44.93500
H  56.64500 29.05000 45.99500
H  49.01600 26.16400 43.44200
H  50.10500 23.88300 42.10700
H  48.72300 22.85200 43.55000
H  48.61100 24.34600 44.54600
H  49.78000 23.29400 45.03600
H  50.45100 25.61400 40.84400
H  50.12400 27.24400 41.26500
H  48.00900 27.09700 40.57600
H  47.78200 25.37900 41.30800
H  52.39500 20.20300 42.80700
H  53.36900 19.26800 43.67000
H  53.93800 19.76800 42.07200
H  58.36000 19.50100 43.94300
H  57.90400 20.68600 45.22400
H  58.22900 21.27600 43.52500
H  59.15800 25.07700 44.71800
H  58.21100 27.32000 46.50400
H  59.98500 24.53400 46.63300
H  58.48800 23.76300 46.93500
H  58.76700 25.37300 47.59800
H  58.08700 28.19500 43.77300
H  59.71300 27.23600 43.97500
H  59.74100 29.70700 44.13800
H  60.48900 28.88100 45.54200
H  58.89700 29.59000 45.64800
H  54.69300 31.45100 45.19200
H  55.11800 31.04500 46.91900
H  53.51100 31.75800 46.48800
H  49.66500 28.76800 45.02700
H  47.93600 29.33100 41.14000
H  48.21000 31.01300 41.61800
H  46.73900 30.24900 41.99600

