158

Mg -0.01800 7.42100 26.14400
C  1.00900 9.10700 28.91800
C  -0.45400 4.69000 27.87700
C  -0.74700 5.90300 23.18300
C  0.86300 10.34200 24.23900
N  0.44200 6.91900 28.17300
C  0.64600 7.77000 29.17700
C  0.53800 7.06300 30.54900
C  0.40400 5.55300 30.16200
C  0.12500 5.71100 28.63500
C  1.68400 4.71100 30.44600
C  -0.68600 7.56400 31.42900
C  -0.49600 7.62800 32.90300
H  0.62800 6.79700 33.57800
N  -0.57400 5.53100 25.60200
C  -0.68400 4.52600 26.46800
C  -1.25100 3.37400 25.76500
C  -1.34800 3.77900 24.35300
C  -0.84200 5.09200 24.33200
C  -1.69500 2.11100 26.55700
C  -1.77500 2.87900 23.22400
O  -1.88900 3.16300 22.02700
C  -2.11900 1.37500 23.54800
N  0.10000 8.03100 24.05600
C  -0.19500 7.18000 23.07000
C  0.11600 7.76300 21.62800
C  0.32200 9.26600 21.92600
C  0.41400 9.24700 23.52700
C  1.26600 7.03300 20.87300
C  -0.69800 10.17400 21.34800
C  -2.17600 10.08700 21.93700
N  0.70600 9.37200 26.45200
C  1.03700 10.39900 25.61200
C  1.42900 11.60000 26.36400
C  1.51900 11.18300 27.65100
C  1.01200 9.79900 27.67600
C  1.73000 12.98200 25.88000
C  1.84800 11.52600 29.01200
O  2.38000 12.54300 29.54900
C  1.44700 10.22200 29.86500
C  2.60300 9.85300 30.77700
O  3.54600 9.14500 30.45600
O  2.51300 10.60600 31.88800
C  3.68300 10.87300 32.74300
H  -0.61500 3.75800 28.42200
H  -1.24600 5.37500 22.36800
H  0.99700 11.25400 23.65300
H  1.51500 7.23000 31.00200
H  -0.48300 5.13000 30.63400
H  2.28600 4.70000 29.53700
H  1.55700 3.67900 30.77100
H  2.30800 5.26200 31.15000
H  -1.59400 7.01700 31.17500
H  -0.89000 8.57200 31.06900
H  -1.34800 7.15100 33.38600
H  -0.46500 8.61700 33.36100
H  -2.66600 1.78100 26.18700
H  -1.79000 2.06000 27.64100
H  -1.03000 1.27300 26.34700
H  -1.19300 0.94600 23.93200
H  -2.37500 0.79600 22.66100
H  -2.95300 1.51400 24.23600
H  -0.77800 7.61600 21.02200
H  1.27800 9.56600 21.49600
H  1.25200 5.97300 21.12700
H  2.18700 7.44000 21.29100
H  1.22200 7.10000 19.78600
H  -0.72700 10.07200 20.26300
H  -0.35300 11.17300 21.61600
H  -2.42700 11.09100 22.28000
H  -2.20100 9.45200 22.82300
H  -2.97500 9.63200 21.35000
H  1.58400 13.70300 26.68500
H  1.13900 13.20800 24.99200
H  2.77100 13.05200 25.56300
H  0.53900 10.51800 30.38900
H  3.59500 10.28500 33.65700
H  3.56700 11.94400 32.90600
H  4.66400 10.64700 32.32500
Mg 45.73000 4.72200 47.43300
C  43.52000 7.37400 46.58700
C  43.26300 2.42200 46.65000
C  48.05200 2.16300 47.74600
C  48.30700 7.01100 47.56200
N  43.60000 4.92700 46.85400
C  42.95700 6.06500 46.34700
C  41.47700 5.83700 45.95500
C  41.44200 4.25600 46.09400
C  42.88000 3.81500 46.52100
C  40.34900 3.72100 47.05000
C  41.39000 6.22200 44.40600
C  40.55500 7.45900 44.09600
H  41.11700 8.43600 43.02200
N  45.59400 2.53600 47.27300
C  44.51800 1.79400 46.93600
C  44.91500 0.39600 46.90300
C  46.35100 0.35500 47.17800
C  46.70700 1.75000 47.44400
C  43.93300 -0.66600 46.51900
C  47.14800 -0.97400 47.21200
O  46.58200 -2.04500 46.94100
C  48.68400 -1.02000 47.48600
N  47.79600 4.65500 47.76400
C  48.53900 3.48300 47.90400
C  50.02000 3.74800 48.09000
C  50.07400 5.26700 48.08600
C  48.63200 5.69800 47.75600
C  50.65800 3.16500 49.41600
C  51.13200 5.91900 47.12800
C  52.13200 6.90100 47.79300
N  45.94900 6.84900 47.24400
C  47.06000 7.58900 47.31000
C  46.68100 9.01200 47.21500
C  45.29300 8.96200 46.86800
C  44.84800 7.63700 46.91000
C  47.61500 10.17100 47.23800
C  44.14900 9.77400 46.54200
O  44.09800 10.93000 46.31700
C  42.97400 8.79900 46.37800
C  41.99600 9.16400 47.42700
O  41.72900 8.51800 48.38700
O  41.14500 10.11200 46.90000
C  39.87200 10.11500 47.54700
H  42.44300 1.70000 46.64200
H  48.84400 1.42400 47.88200
H  49.06500 7.79100 47.46900
H  40.78200 6.35000 46.61800
H  41.18400 3.83300 45.12300
H  39.42000 3.43400 46.55900
H  40.19000 4.56300 47.72400
H  40.65400 2.99800 47.80700
H  40.95000 5.39700 43.84600
H  42.38600 6.38400 43.99400
H  40.37200 8.05300 44.99100
H  39.58700 7.14200 43.70700
H  44.09100 -1.53900 47.15200
H  44.07500 -0.92800 45.47000
H  42.89100 -0.39400 46.68300
H  49.12100 -2.00200 47.30400
H  48.88100 -0.68700 48.50500
H  49.19700 -0.24900 46.91100
H  50.49900 3.32600 47.20700
H  50.13300 5.57600 49.13000
H  49.84100 2.60600 49.87300
H  51.06700 3.84000 50.16900
H  51.40800 2.51000 48.97300
H  50.73400 6.51700 46.30800
H  51.70400 5.14800 46.61300
H  53.08900 6.49000 47.47200
H  52.04200 7.01200 48.87300
H  51.98000 7.86300 47.30200
H  47.65500 10.53200 48.26600
H  47.26200 11.02600 46.66100
H  48.62300 9.88000 46.94400
H  42.65600 8.79000 45.33600
H  39.98500 10.69800 48.46100
H  39.51400 9.11900 47.81000
H  39.11400 10.58300 46.91900

