158

Mg 6.83100 54.14000 39.87500
C  6.30500 50.53200 39.61200
C  10.10700 53.49300 39.24700
C  7.10900 57.24600 39.56000
C  3.28600 54.43600 39.95100
N  8.07500 52.21600 39.24200
C  7.66700 50.92900 39.38400
C  8.85900 49.99100 39.23800
C  9.97700 50.94800 39.56000
C  9.38800 52.37600 39.31600
C  10.59400 50.77000 40.97800
C  9.07400 49.27100 37.93300
C  8.78300 50.05300 36.62400
H  7.63500 49.59500 35.66700
N  8.38300 55.24800 39.41200
C  9.70200 54.83300 39.19500
C  10.56000 55.93800 39.15700
C  9.73100 57.15000 39.17300
C  8.36800 56.60100 39.41900
C  12.01900 55.86700 38.66500
C  10.15400 58.65300 38.99000
O  11.37700 58.90100 39.00700
C  9.18500 59.79400 38.91800
N  5.33200 55.58500 39.52700
C  5.78300 56.86500 39.61800
C  4.60300 57.88900 39.67500
C  3.34100 56.97200 39.72800
C  3.99200 55.56400 39.68800
C  4.71700 58.79100 40.93100
C  2.21200 57.22900 38.65900
C  0.96900 57.85200 39.16000
N  5.11600 52.81100 39.78700
C  3.76000 53.09200 39.97000
C  3.00900 51.84500 40.31500
C  4.01700 50.82500 40.20400
C  5.26800 51.48300 39.80800
C  1.59800 51.66700 40.75100
C  4.21200 49.41500 40.33400
O  3.42300 48.53400 40.68300
C  5.75500 49.14900 39.90700
C  5.72300 48.11100 38.86900
O  5.68400 48.31500 37.68500
O  5.68700 46.85700 39.38600
C  5.82900 45.71400 38.53700
H  11.17800 53.27600 39.25200
H  7.09600 58.31500 39.34000
H  2.22400 54.51300 40.19300
H  8.73900 49.25100 40.03000
H  10.80100 50.92800 38.84700
H  10.01300 50.24200 41.73400
H  10.74400 51.77400 41.37400
H  11.55500 50.27300 40.84000
H  8.48600 48.35700 37.84600
H  10.02900 48.74700 37.96900
H  9.70600 50.09800 36.04700
H  8.58600 51.07100 36.96100
H  12.51600 54.95800 39.00500
H  12.61600 56.64100 39.14900
H  12.11100 55.93800 37.58200
H  8.50500 59.78800 39.76900
H  8.60200 59.73800 37.99900
H  9.90700 60.60500 38.81900
H  4.81500 58.48600 38.78800
H  2.93500 56.94300 40.73900
H  4.70600 59.75400 40.42000
H  5.62000 58.51100 41.47300
H  3.80700 58.67500 41.51900
H  1.91700 56.29000 38.19100
H  2.66300 57.85200 37.88600
H  0.21100 57.24800 38.66200
H  0.92500 58.84200 38.70600
H  0.89400 57.82900 40.24700
H  0.98100 51.53300 39.86300
H  1.20400 52.57500 41.20800
H  1.33800 50.78700 41.34000
H  6.27200 48.78600 40.79500
H  6.62500 45.07100 38.91300
H  6.23600 45.77700 37.52800
H  4.84100 45.25300 38.54500
Mg 17.35600 51.04400 25.87800
C  19.31300 49.88100 28.46400
C  15.36700 52.65500 28.32300
C  15.88100 52.68900 23.49100
C  19.81300 49.83800 23.56900
N  17.28900 51.20200 28.13100
C  18.14800 50.53600 28.95300
C  17.88500 50.96900 30.45900
C  16.41600 51.54500 30.33100
C  16.36500 51.85200 28.90100
C  15.28400 50.53300 30.71300
C  18.92200 51.92400 31.23000
C  18.82900 51.87300 32.76900
H  17.86400 50.98700 33.50100
N  15.67500 52.24000 25.87000
C  15.04100 52.81800 26.94700
C  13.96600 53.65900 26.45600
C  14.08900 53.76800 25.07100
C  15.26300 52.84400 24.72800
C  12.98500 54.30200 27.31200
C  13.14700 54.46900 24.06200
O  13.16700 54.16700 22.87100
C  12.00900 55.47100 24.55700
N  17.96800 51.39000 23.88400
C  17.09400 52.09300 23.04100
C  17.45800 51.97500 21.56800
C  18.81700 51.27800 21.67200
C  18.88800 50.76900 23.09900
C  16.45600 51.41100 20.48000
C  19.98000 52.38900 21.44400
C  21.19500 51.74900 20.70100
N  19.07500 49.82700 25.98400
C  20.02700 49.47700 24.99300
C  21.13900 48.68500 25.60400
C  20.87000 48.78000 26.96500
C  19.64300 49.59900 27.13300
C  22.28700 47.96300 24.89900
C  21.37200 48.45100 28.29800
O  22.32300 47.86100 28.63300
C  20.32900 49.12800 29.32000
C  19.75200 48.18200 30.26000
O  18.93800 47.33000 29.89200
O  20.29400 48.33500 31.54700
C  19.69400 47.45000 32.51400
H  14.71000 53.11400 29.06500
H  15.38500 53.18200 22.65200
H  20.61900 49.45600 22.93900
H  17.91800 49.97900 30.91400
H  16.14200 52.49700 30.78400
H  14.80400 50.20300 29.79200
H  14.55500 50.95200 31.40700
H  15.71000 49.73200 31.31600
H  18.92600 52.98300 30.97000
H  19.94100 51.63700 30.97200
H  18.59900 52.87700 33.12500
H  19.81600 51.54300 33.09300
H  12.05000 54.01000 26.83400
H  13.12200 55.38200 27.25100
H  12.99700 53.93700 28.33900
H  11.16000 54.87600 24.89300
H  11.71700 56.16700 23.77000
H  12.54800 56.11000 25.25600
H  17.47900 53.03200 21.30400
H  18.85100 50.44100 20.97500
H  17.04800 50.84200 19.76400
H  15.89700 52.20200 19.98000
H  15.68200 50.79100 20.93300
H  20.37400 52.80300 22.37200
H  19.60800 53.15400 20.76200
H  21.42000 52.39800 19.85500
H  20.85400 50.82700 20.22900
H  22.03200 51.52900 21.36500
H  21.90500 47.26500 24.15400
H  22.83800 47.28000 25.54500
H  23.04300 48.62000 24.47000
H  20.91200 49.84700 29.89500
H  18.60700 47.50300 32.45400
H  19.90000 47.78000 33.53300
H  19.97700 46.40500 32.38800

