158

Mg 7.30700 3.15300 27.66500
C  8.56500 1.99700 30.74500
C  5.18300 5.14900 29.42300
C  5.98900 4.12600 24.77500
C  8.95300 0.51300 26.02900
N  7.05100 3.55700 29.89700
C  7.68900 3.03100 30.97700
C  7.23300 3.70500 32.32400
C  5.99200 4.49200 31.84900
C  6.08500 4.49900 30.26800
C  4.60100 3.86900 32.35300
C  8.35300 4.57600 33.06100
C  8.67300 4.12100 34.48600
H  9.69200 4.89700 35.34500
N  5.75000 4.40900 27.16200
C  5.00500 5.17100 27.99700
C  4.07700 5.90700 27.26600
C  4.32200 5.73700 25.84100
C  5.41100 4.77100 25.86300
C  2.95900 6.52000 28.01000
C  3.65200 6.35300 24.66300
O  4.02400 6.02800 23.50600
C  2.61000 7.38000 24.91900
N  7.41400 2.43700 25.69200
C  7.03200 3.22700 24.66100
C  7.42900 2.63100 23.30600
C  8.30600 1.37100 23.71900
C  8.26500 1.43100 25.25700
C  6.27500 2.28100 22.30400
C  9.68600 1.30900 23.11700
C  10.06400 0.04700 22.32600
N  8.57500 1.59700 28.17300
C  9.16400 0.61000 27.39000
C  10.04800 -0.13500 28.23400
C  9.86200 0.38800 29.51000
C  8.94100 1.39700 29.48200
C  10.97400 -1.30900 27.83200
C  10.32600 0.28700 30.89600
O  11.13300 -0.50000 31.36100
C  9.58600 1.37100 31.70700
C  9.02300 0.60300 32.82800
O  7.89800 0.08700 32.99500
O  10.00900 0.68100 33.87300
C  9.45500 0.42500 35.23000
H  4.51700 5.79600 29.99800
H  5.89000 4.61700 23.80500
H  9.51400 -0.25100 25.48700
H  6.98600 2.85800 32.96500
H  6.00900 5.55100 32.10600
H  3.97400 3.51100 31.53600
H  4.01500 4.57300 32.94500
H  4.86800 3.07600 33.05100
H  8.17600 5.64700 32.96200
H  9.27500 4.40500 32.50500
H  9.10300 3.13000 34.33700
H  7.79100 3.90300 35.08800
H  3.31200 7.52800 28.23000
H  2.80000 6.08900 28.99900
H  2.04100 6.42600 27.43000
H  1.69600 6.93600 25.31400
H  2.37000 7.88800 23.98600
H  3.05700 8.08500 25.62000
H  8.11500 3.36600 22.88500
H  7.75000 0.47200 23.45300
H  5.45700 2.36900 23.01900
H  6.25300 1.25200 21.94600
H  6.15300 2.98500 21.48100
H  10.38800 1.29700 23.95000
H  9.99800 2.11800 22.45700
H  9.25600 -0.66400 22.15500
H  10.97600 -0.32500 22.79400
H  10.55300 0.14100 21.35600
H  10.42900 -2.25200 27.88900
H  11.84800 -1.21700 28.47700
H  11.16400 -1.15800 26.76900
H  10.27500 2.12000 32.09700
H  8.71100 1.19000 35.45200
H  10.25000 0.38200 35.97600
H  8.94500 -0.52100 35.41000
Mg 17.59200 51.36300 25.99200
C  19.40200 49.97900 28.58400
C  15.13500 52.22100 28.22800
C  15.54200 52.22400 23.32900
C  19.66500 49.59800 23.72000
N  17.31500 51.02400 28.22000
C  18.23300 50.52600 29.05500
C  17.62600 50.66100 30.50300
C  16.17400 51.09900 30.33100
C  16.21900 51.46700 28.86500
C  15.15400 49.93000 30.67200
C  18.34900 51.71200 31.42500
C  18.47600 51.45500 32.98100
H  17.30600 52.10500 33.81600
N  15.81800 52.40700 25.80900
C  14.97700 52.69500 26.90300
C  13.95700 53.54900 26.37700
C  14.09200 53.57600 24.94600
C  15.18800 52.72600 24.62900
C  13.01900 54.19900 27.32000
C  13.21600 54.37200 23.87400
O  13.54200 54.48700 22.71200
C  11.98100 55.10900 24.35800
N  17.50300 50.80500 23.82000
C  16.61700 51.39300 22.98300
C  16.93100 50.99500 21.50900
C  18.33900 50.33700 21.62700
C  18.57800 50.28900 23.14900
C  15.87200 50.21300 20.83300
C  19.49300 50.99500 20.80900
C  20.38800 52.17400 21.33900
N  19.19000 50.06500 26.09900
C  19.93500 49.48200 25.09300
C  20.99500 48.73000 25.72000
C  20.83900 48.89900 27.08600
C  19.66600 49.73400 27.28200
C  22.09700 47.93200 24.97100
C  21.37500 48.51400 28.31700
O  22.37500 47.87200 28.50900
C  20.41600 49.22500 29.34600
C  19.82400 48.12800 30.16700
O  18.73300 47.58200 29.94100
O  20.44200 48.11500 31.32700
C  19.88000 47.33000 32.43600
H  14.36800 52.36500 28.99200
H  14.88800 52.52500 22.50800
H  20.40100 49.16300 23.04100
H  17.69600 49.72300 31.05400
H  15.89800 51.99700 30.88300
H  14.92000 49.25400 29.85000
H  14.16600 50.27800 30.97300
H  15.60100 49.30900 31.44900
H  17.88400 52.67900 31.23700
H  19.34600 51.85400 31.00900
H  19.37800 51.91700 33.38300
H  18.41100 50.37000 33.06500
H  13.50900 54.40900 28.27100
H  12.09600 53.62000 27.31700
H  12.70300 55.17100 26.94200
H  11.29600 55.40600 23.56500
H  12.29700 56.03000 24.84700
H  11.49000 54.36800 24.98900
H  17.05100 51.88600 20.89300
H  18.22600 49.30100 21.30800
H  15.18500 50.93800 20.39600
H  15.40600 49.50000 21.51300
H  16.27500 49.64000 19.99700
H  18.99000 51.41400 19.93700
H  20.12200 50.19400 20.41900
H  21.46600 52.05600 21.22900
H  20.11700 52.35900 22.37800
H  20.13300 53.09000 20.80600
H  22.99300 48.55200 24.93200
H  21.84000 47.66900 23.94500
H  22.34400 47.01700 25.50900
H  20.92900 49.87300 30.05600
H  20.11100 46.30400 32.14800
H  18.82700 47.56300 32.59300
H  20.33000 47.54100 33.40500

