158

Mg -2.79100 17.44400 26.80800
C  -2.88400 15.61300 29.80200
C  -3.60000 20.23300 28.68300
C  -2.95300 19.09300 23.95200
C  -3.01800 14.40600 24.93300
N  -3.22700 17.77300 28.98600
C  -3.07300 16.92400 30.03900
C  -3.34000 17.57600 31.41500
C  -3.88100 19.02900 30.96200
C  -3.55700 19.06300 29.41000
C  -5.32300 19.29800 31.40300
C  -2.06800 17.71300 32.37500
C  -2.32500 17.87600 33.86100
H  -1.09200 17.61800 34.73000
N  -3.18700 19.40500 26.39600
C  -3.27900 20.46000 27.29100
C  -3.33600 21.70000 26.53100
C  -3.07300 21.40700 25.16400
C  -3.01900 19.91700 25.12300
C  -3.56700 23.06400 27.16600
C  -2.79700 22.33400 23.96600
O  -2.51200 21.92400 22.85900
C  -3.02700 23.75300 24.08500
N  -2.94000 16.85300 24.73300
C  -2.97500 17.78000 23.77600
C  -3.03500 17.00800 22.30900
C  -2.70600 15.51200 22.72800
C  -2.99200 15.57100 24.22800
C  -4.46700 17.26000 21.65600
C  -1.17600 15.22100 22.43100
C  -0.97900 13.79800 21.73500
N  -2.76500 15.45900 27.18400
C  -2.87500 14.37200 26.37400
C  -2.92900 13.16200 27.20600
C  -2.86900 13.64200 28.49800
C  -2.83100 15.01000 28.46900
C  -3.14200 11.77600 26.77000
C  -2.94700 13.14200 29.84300
O  -3.13100 11.99600 30.18200
C  -2.76000 14.34200 30.81800
C  -1.45400 14.31900 31.44800
O  -0.38100 14.52000 30.84600
O  -1.58700 13.93000 32.76600
C  -0.36000 13.66900 33.59400
H  -3.72900 21.17900 29.21300
H  -2.84200 19.56600 22.97400
H  -2.87400 13.44300 24.43800
H  -4.12800 16.95600 31.84300
H  -3.21200 19.80100 31.34000
H  -5.97700 19.33000 30.53100
H  -5.23800 20.27400 31.88100
H  -5.68500 18.55600 32.11400
H  -1.55100 18.61100 32.03700
H  -1.37500 16.91700 32.10200
H  -3.05500 17.16400 34.24700
H  -2.75300 18.87800 33.83400
H  -4.56800 23.46400 27.00900
H  -2.86400 23.79100 26.76000
H  -3.42500 23.13100 28.24500
H  -3.98300 23.92400 24.58000
H  -3.40100 24.15700 23.14400
H  -2.23700 24.30000 24.59900
H  -2.19900 17.43200 21.75300
H  -3.35700 14.76400 22.27500
H  -5.17000 17.41200 22.47500
H  -4.73500 16.39000 21.05500
H  -4.37100 18.18700 21.09000
H  -0.61200 15.13600 23.36000
H  -0.71000 15.87100 21.69000
H  -0.15000 13.83700 21.02900
H  -1.88500 13.57500 21.17000
H  -0.71500 13.00300 22.43200
H  -2.51300 11.20100 27.44900
H  -2.80300 11.62600 25.74500
H  -4.17200 11.43200 26.86500
H  -3.55000 14.45300 31.56000
H  -0.41500 14.08000 34.60200
H  0.56100 14.04900 33.15200
H  -0.30400 12.58300 33.66700
Mg 17.09700 51.37300 26.21100
C  18.92000 49.96200 28.74400
C  14.50600 52.04300 28.50300
C  15.13900 52.48100 23.74700
C  19.50400 50.30900 23.94100
N  16.85100 51.04100 28.36100
C  17.66900 50.45400 29.20800
C  17.28700 50.75200 30.63700
C  15.80400 51.31500 30.53900
C  15.69500 51.50900 29.01200
C  14.72200 50.36300 31.18000
C  18.21200 51.79200 31.32800
C  18.67200 51.42400 32.66900
H  18.03300 52.05200 33.85100
N  15.05400 52.16300 26.12100
C  14.23300 52.40300 27.18700
C  13.10200 53.17700 26.74400
C  13.24300 53.30400 25.31500
C  14.52300 52.59400 24.97300
C  11.98800 53.64100 27.67800
C  12.32100 53.99800 24.38000
O  12.41200 53.97100 23.15900
C  11.08100 54.71600 24.90000
N  17.18600 51.17800 24.10900
C  16.29900 51.86400 23.34200
C  16.69600 51.78300 21.82200
C  18.10300 51.17900 21.85800
C  18.33200 50.87400 23.40800
C  15.70100 51.03000 20.82600
C  19.21200 52.14200 21.32800
C  20.44400 51.48500 20.66300
N  18.93300 50.42900 26.32200
C  19.77900 50.06700 25.31100
C  20.95900 49.40200 25.89800
C  20.66900 49.31100 27.26300
C  19.34900 49.90300 27.40800
C  22.09300 48.87000 25.13100
C  21.12800 48.85100 28.56700
O  22.10200 48.24700 28.80700
C  19.99300 49.29400 29.57500
C  19.52900 48.17300 30.40900
O  18.62500 47.40300 30.16500
O  20.20900 48.26700 31.64800
C  19.91800 47.28500 32.68500
H  13.75900 52.26000 29.26900
H  14.61300 52.99900 22.94200
H  20.25500 49.98700 23.21700
H  17.26800 49.74400 31.05300
H  15.63600 52.27800 31.02100
H  14.22700 49.98000 30.28700
H  13.96800 50.89000 31.76400
H  15.12200 49.47800 31.67400
H  17.70800 52.75800 31.34800
H  19.05800 51.99000 30.67000
H  19.71400 51.71600 32.79800
H  18.46900 50.35800 32.76800
H  11.19100 52.90800 27.54900
H  11.67100 54.66200 27.46700
H  12.30200 53.73900 28.71700
H  11.23600 55.41000 25.72600
H  10.37700 53.92800 25.16900
H  10.67000 55.32800 24.09800
H  16.81500 52.76700 21.36800
H  18.07900 50.19700 21.38500
H  15.20000 51.72100 20.14900
H  14.95800 50.50000 21.42300
H  16.31100 50.25800 20.35700
H  19.63000 52.62100 22.21300
H  18.80300 52.89500 20.65400
H  20.45700 50.40500 20.80500
H  21.42000 51.94000 20.83500
H  20.18600 51.51000 19.60400
H  21.82200 47.88200 24.75900
H  22.95700 48.91400 25.79400
H  22.48300 49.41700 24.27300
H  20.45700 50.05100 30.20700
H  19.02300 47.63400 33.20000
H  20.76100 47.11800 33.35600
H  19.60500 46.32000 32.28600

