158

Mg 1.83400 -1.31600 43.70400
C  5.31600 -0.70900 43.14200
C  1.15800 1.66100 42.11200
C  -1.31600 -2.40300 43.42700
C  2.73400 -4.41100 45.22100
N  3.07400 0.23800 42.53300
C  4.42700 0.32300 42.57400
C  4.89800 1.48000 41.73500
C  3.65000 2.35200 41.59500
C  2.51600 1.36500 42.08700
C  3.66500 3.54600 42.52800
C  5.54600 1.00100 40.45900
C  6.81800 1.75300 39.98000
H  6.67600 2.28800 38.52600
N  0.11700 -0.51000 42.92000
C  0.08100 0.74600 42.39700
C  -1.30000 1.02900 42.18200
C  -2.05400 -0.11900 42.42000
C  -1.10400 -1.09400 42.90900
C  -1.74400 2.37100 41.73200
C  -3.56500 -0.27500 42.32100
O  -4.21000 0.66900 41.80900
C  -4.49400 -1.50200 42.54200
N  0.86100 -3.20700 44.27100
C  -0.46400 -3.35500 44.05600
C  -0.97800 -4.69600 44.46100
C  0.31000 -5.24400 45.19000
C  1.40600 -4.29300 44.81200
C  -2.20800 -4.66200 45.28200
C  0.56200 -6.70300 44.80300
C  0.54800 -7.61700 46.07500
N  3.60000 -2.37900 44.15700
C  3.78700 -3.60500 44.79700
C  5.27400 -3.78300 45.03900
C  5.90900 -2.71200 44.34600
C  4.81900 -1.87900 43.77900
C  5.94500 -4.90800 45.67000
C  7.17700 -2.11000 43.96700
O  8.30000 -2.58100 44.17500
C  6.87000 -0.68000 43.31400
C  7.21500 0.38900 44.16500
O  6.50500 0.91300 45.01600
O  8.49900 0.73000 43.86800
C  8.77200 2.13800 44.16600
H  0.98400 2.60200 41.58500
H  -2.38200 -2.64000 43.43000
H  3.05900 -5.29000 45.78200
H  5.64600 1.94100 42.37900
H  3.54100 2.71100 40.57100
H  3.05900 3.48300 43.43200
H  3.47700 4.42000 41.90400
H  4.64800 3.65200 42.98800
H  4.73900 0.99000 39.72700
H  5.95800 0.00100 40.59000
H  7.61300 1.00700 39.95400
H  7.10600 2.67200 40.49200
H  -2.77800 2.59400 41.46800
H  -1.09500 2.71500 40.92700
H  -1.50700 2.96100 42.61600
H  -5.52700 -1.43300 42.20200
H  -4.63500 -1.82700 43.57400
H  -4.20000 -2.33500 41.90400
H  -1.18400 -5.23000 43.53400
H  0.29600 -4.98500 46.24900
H  -2.28100 -5.42700 46.05500
H  -3.11700 -4.66000 44.67900
H  -2.16400 -3.67000 45.73200
H  1.49500 -6.76600 44.24300
H  -0.21800 -7.08700 44.14500
H  1.55500 -8.03000 46.13800
H  -0.05400 -8.44800 45.70800
H  0.16800 -7.12600 46.97100
H  6.73900 -4.60800 46.35400
H  6.43700 -5.28400 44.77300
H  5.21200 -5.53500 46.17900
H  7.36800 -0.61600 42.34700
H  9.29600 2.57300 43.31500
H  9.55700 2.21800 44.91800
H  7.89100 2.74000 44.38700
Mg 35.39500 0.94400 29.43700
C  33.07400 1.64300 31.99100
C  37.76100 0.53900 31.68800
C  37.67200 0.44300 26.68000
C  32.91800 1.64600 26.97500
N  35.42200 1.37600 31.68000
C  34.35700 1.33100 32.48600
C  34.80300 1.23800 33.99400
C  36.32600 1.15700 33.82000
C  36.50700 0.96000 32.36000
C  37.14700 2.32400 34.43200
C  34.13200 0.10200 34.72900
C  33.74100 0.55000 36.18000
H  34.61200 1.56900 36.99700
N  37.37200 0.50900 29.22100
C  38.17300 0.48500 30.34100
C  39.53000 0.14400 29.94600
C  39.57300 0.17700 28.51500
C  38.13600 0.39000 28.02500
C  40.75700 0.07900 30.95200
C  40.71300 -0.09600 27.61500
O  40.59400 -0.09300 26.40200
C  42.12100 -0.43400 28.05500
N  35.21000 0.94100 27.13800
C  36.29100 0.66400 26.25700
C  35.97900 0.71500 24.77000
C  34.37800 0.88400 24.89200
C  34.12600 1.18400 26.43700
C  36.65300 1.90500 24.04600
C  33.61200 -0.40400 24.47200
C  33.81400 -1.68500 25.28800
N  33.43300 1.52200 29.38600
C  32.56400 1.72200 28.35500
C  31.32400 2.15800 28.89400
C  31.40600 2.10200 30.30300
C  32.78600 1.71700 30.56200
C  30.15100 2.68300 28.10500
C  30.75900 2.36600 31.59800
O  29.62000 2.81200 31.85000
C  31.91800 2.13400 32.77100
C  32.21100 3.50700 33.34800
O  32.87600 4.36300 32.77200
O  31.69100 3.62300 34.65500
C  31.90000 4.84700 35.37000
H  38.54800 0.25100 32.38800
H  38.40500 0.29600 25.88400
H  32.18600 1.81900 26.18300
H  34.55800 2.18900 34.46700
H  36.73100 0.21400 34.18900
H  37.46500 2.22000 35.47000
H  36.56600 3.23700 34.56400
H  38.08400 2.43300 33.88700
H  34.71200 -0.81300 34.84700
H  33.21100 -0.21000 34.23700
H  33.68800 -0.37300 36.75900
H  32.70300 0.88100 36.17800
H  41.31700 -0.84600 30.82100
H  40.57700 0.07200 32.02700
H  41.33800 0.98800 30.80100
H  42.49900 0.19800 28.85800
H  42.69900 -0.36300 27.13300
H  42.24000 -1.48400 28.32200
H  36.31900 -0.23600 24.35900
H  33.94900 1.77300 24.42900
H  37.13200 1.41800 23.19700
H  37.51200 2.34700 24.55100
H  35.90100 2.66300 23.82600
H  33.85400 -0.58700 23.42500
H  32.54500 -0.18600 24.52900
H  34.24900 -1.48600 26.26800
H  34.46400 -2.35200 24.72200
H  32.92400 -2.31300 25.31600
H  29.79000 1.86300 27.48500
H  30.44000 3.47400 27.41400
H  29.52400 3.27300 28.77300
H  31.50500 1.47100 33.53200
H  30.92400 5.30200 35.53900
H  32.55600 5.54000 34.84400
H  32.39200 4.66200 36.32500

