158

Mg 35.62100 2.84100 30.32100
C  33.10600 3.64500 32.60700
C  37.83200 2.78600 32.91700
C  38.03600 1.84100 28.13200
C  33.29100 2.88800 27.81500
N  35.48700 3.08800 32.46700
C  34.34000 3.30000 33.22600
C  34.57100 3.22600 34.67700
C  36.09000 2.96900 34.81000
C  36.52700 3.02300 33.28500
C  36.80400 4.02900 35.75500
C  33.69200 2.08800 35.32600
C  33.21000 2.46100 36.80100
H  33.91500 3.46100 37.73700
N  37.69900 2.45700 30.47400
C  38.36300 2.47500 31.64800
C  39.72900 2.01400 31.35600
C  39.79800 1.69400 29.95900
C  38.52200 2.01800 29.43200
C  40.78800 1.69600 32.46900
C  40.97200 1.04500 29.15400
O  40.86900 0.88100 27.92600
C  42.19500 0.47000 29.96200
N  35.74300 2.56900 28.30500
C  36.74000 2.08000 27.65400
C  36.46700 1.72700 26.17000
C  34.96000 1.98100 26.06900
C  34.60200 2.48400 27.49000
C  37.27000 2.55700 25.06800
C  34.04400 0.77700 25.61900
C  33.06400 1.10800 24.37200
N  33.68700 3.33300 30.13700
C  32.82100 3.36200 29.05700
C  31.52600 3.91300 29.49200
C  31.58400 4.10200 30.85000
C  32.91500 3.58100 31.18400
C  30.34400 4.17300 28.72200
C  30.92400 4.55200 32.08100
O  29.85700 5.08400 32.39600
C  31.86800 4.18700 33.29600
C  32.06900 5.37900 34.12900
O  32.52900 6.43700 33.70800
O  31.58600 5.14200 35.43200
C  31.78500 6.20100 36.38600
H  38.53000 2.91100 33.74800
H  38.66200 1.44000 27.33300
H  32.58600 2.86800 26.98100
H  34.35100 4.19100 35.13300
H  36.34100 1.96500 35.15000
H  37.44800 4.56100 35.05500
H  37.37900 3.61800 36.58500
H  36.13000 4.82900 36.06100
H  34.36000 1.22700 35.32600
H  32.88400 1.77300 34.66500
H  33.07400 1.54800 37.38100
H  32.19300 2.81500 36.63500
H  40.37800 2.15900 33.36700
H  41.78200 2.10800 32.29300
H  40.89800 0.63000 32.66800
H  41.88200 -0.13800 30.81100
H  42.77700 1.34400 30.25400
H  42.72100 -0.13500 29.22300
H  36.58700 0.65100 26.04300
H  34.67300 2.81400 25.42700
H  36.66300 3.20700 24.43800
H  37.74000 1.79500 24.44700
H  37.99400 3.11400 25.66300
H  33.50600 0.52800 26.53400
H  34.66800 -0.07600 25.35400
H  33.25500 0.31200 23.65200
H  33.25600 2.06300 23.88200
H  32.02800 1.16300 24.70700
H  30.48900 4.71200 27.78600
H  29.83700 4.76100 29.48700
H  29.78300 3.24800 28.59100
H  31.32900 3.39400 33.81300
H  31.06900 6.91600 35.98100
H  32.76500 6.56800 36.69000
H  31.37900 5.74400 37.28900
Mg 0.71300 43.18100 26.29500
C  2.98100 43.75700 28.75400
C  -1.65700 42.66500 28.53100
C  -1.21200 42.32600 23.72000
C  3.49000 43.37700 23.93900
N  0.72000 42.91500 28.43100
C  1.76400 43.38400 29.27000
C  1.26500 43.36000 30.75100
C  -0.14700 42.74100 30.55500
C  -0.42700 42.82400 29.06800
C  -0.58200 41.38900 31.16200
C  1.22900 44.79600 31.39800
C  1.24200 44.80200 32.93200
H  0.98700 43.46400 33.65900
N  -1.23900 42.71400 26.17100
C  -2.06800 42.50800 27.20600
C  -3.41200 42.30700 26.62100
C  -3.28700 42.28600 25.18200
C  -1.89600 42.45200 24.93800
C  -4.65100 42.23800 27.43200
C  -4.41100 41.99700 24.08300
O  -4.17000 42.11300 22.90500
C  -5.90200 41.75400 24.35500
N  1.15800 42.84600 24.17600
C  0.14500 42.48600 23.37200
C  0.64300 42.26600 21.87700
C  2.03400 43.05700 21.93200
C  2.25800 43.10000 23.46500
C  0.78000 40.73400 21.43800
C  1.90300 44.48200 21.28300
C  2.91700 44.93600 20.21200
N  2.76000 43.54200 26.30100
C  3.79500 43.67200 25.31400
C  5.03000 44.08200 25.97400
C  4.76200 44.09000 27.35300
C  3.39800 43.74800 27.47400
C  6.27500 44.36600 25.32000
C  5.36900 44.30900 28.58100
O  6.57300 44.49900 28.89300
C  4.14300 44.14100 29.57000
C  4.64800 43.13600 30.57900
O  4.49700 41.96200 30.65400
O  4.97700 43.92500 31.71400
C  5.13000 43.28200 32.98200
H  -2.47400 42.57600 29.25000
H  -1.85800 42.12900 22.86200
H  4.34600 43.49300 23.27000
H  1.91100 42.75000 31.38200
H  -0.87700 43.40600 31.01800
H  0.21900 40.78900 31.59500
H  -1.08200 40.76400 30.42200
H  -1.31400 41.54400 31.95600
H  0.26000 45.23000 31.15200
H  2.00800 45.50000 31.10200
H  0.50700 45.53100 33.27200
H  2.18000 45.23400 33.28000
H  -5.07100 43.24400 27.42300
H  -4.41800 41.99300 28.46800
H  -5.34700 41.51700 27.00400
H  -6.44000 41.70500 23.40900
H  -6.33600 42.52100 24.99800
H  -5.84700 40.82900 24.92900
H  -0.07300 42.72400 21.19600
H  2.66200 42.41900 21.31200
H  0.39900 40.10500 22.24300
H  1.84100 40.48800 21.40200
H  0.17700 40.43000 20.58300
H  1.94300 45.19300 22.10800
H  0.91700 44.67600 20.86000
H  3.60000 44.15800 19.87200
H  3.61100 45.70900 20.54200
H  2.35900 45.29700 19.34800
H  6.79300 43.45800 25.01000
H  7.00000 44.88000 25.95100
H  6.08400 45.03700 24.48300
H  3.91600 45.15100 29.90900
H  6.02000 42.65500 32.93700
H  4.35700 42.58100 33.29900
H  5.32700 44.02000 33.76100

