158

Mg 40.51100 10.15400 29.81900
C  42.51300 11.37900 32.29500
C  38.27100 9.02700 32.17400
C  38.61000 8.80000 27.31400
C  43.10200 10.64100 27.50900
N  40.41200 10.31000 31.94100
C  41.24900 10.97700 32.74900
C  40.69400 11.05200 34.20400
C  39.44100 10.06400 34.22000
C  39.38800 9.73800 32.65700
C  39.67700 8.73700 35.03100
C  40.57600 12.50600 34.65500
C  39.76100 12.74100 35.95200
H  40.64700 13.26000 37.10100
N  38.65800 9.16300 29.73400
C  37.85600 8.83100 30.83100
C  36.66500 8.18500 30.34300
C  36.76100 8.12200 28.92900
C  38.00500 8.75300 28.58600
C  35.62200 7.54900 31.32400
C  35.73800 7.62400 28.01800
O  35.75800 7.74400 26.78600
C  34.55700 6.92500 28.59300
N  40.88300 9.88500 27.65100
C  39.95300 9.17600 26.95000
C  40.46300 9.04300 25.47400
C  41.92800 9.65300 25.54800
C  41.97600 10.07600 26.97100
C  40.35900 7.69000 24.67200
C  42.29500 10.72900 24.55300
C  42.13400 12.17700 24.95000
N  42.43500 10.98600 29.79500
C  43.38500 11.15900 28.82600
C  44.60100 11.66800 29.42800
C  44.29400 11.91200 30.79200
C  42.97900 11.41500 30.97000
C  45.82200 12.12100 28.78200
C  44.77600 12.47000 31.99800
O  45.85800 13.05200 32.27400
C  43.59000 12.22300 33.06400
C  44.17400 11.37500 34.10500
O  44.91700 10.38900 34.00200
O  43.77100 11.79300 35.32100
C  44.21700 10.98000 36.47600
H  37.56300 8.74800 32.95700
H  38.04900 8.32600 26.50600
H  43.95300 10.87300 26.86500
H  41.47200 10.62100 34.83400
H  38.49100 10.55900 34.42200
H  39.80900 7.90000 34.34500
H  38.87700 8.44200 35.70900
H  40.54300 8.71200 35.69300
H  40.09100 13.02800 33.83000
H  41.56400 12.95900 34.74100
H  39.23900 11.87000 36.35000
H  39.02800 13.50500 35.69400
H  35.56900 6.47800 31.13000
H  34.68000 8.07800 31.18100
H  35.85800 7.68400 32.38000
H  33.91100 7.57800 29.17900
H  34.95400 6.04000 29.09000
H  33.82200 6.58500 27.86400
H  39.69900 9.55700 24.89100
H  42.68500 8.87700 25.42700
H  39.62800 7.68100 23.86300
H  40.18600 6.84900 25.34300
H  41.35800 7.58600 24.24900
H  41.66300 10.49000 23.69700
H  43.36400 10.52800 24.47800
H  43.03000 12.59700 25.40800
H  41.26200 12.13700 25.60400
H  41.78800 12.85000 24.16600
H  46.03600 11.61000 27.84400
H  46.63800 11.83300 29.44500
H  45.86500 13.20100 28.63900
H  43.30100 13.19500 33.46300
H  43.59300 11.37600 37.27700
H  45.27000 11.11800 36.72100
H  43.95500 9.93500 36.31000
Mg 47.77700 16.48200 28.06200
C  45.62700 16.96600 30.98700
C  50.22800 18.22300 30.00400
C  49.44800 16.81900 25.39100
C  44.97100 15.36900 26.37000
N  47.94600 17.33200 30.37900
C  46.90300 17.47000 31.26300
C  47.51100 17.93200 32.67000
C  48.82000 18.62500 32.18400
C  49.07300 18.03100 30.78800
C  48.79300 20.19400 32.24700
C  47.83000 16.68900 33.52100
C  47.86200 16.90200 35.10700
H  47.80900 18.26800 35.63400
N  49.72000 17.19900 27.75900
C  50.51900 17.87700 28.63900
C  51.77600 17.92000 27.92600
C  51.56500 17.69500 26.53200
C  50.17800 17.18100 26.49000
C  53.06700 18.28500 28.61600
C  52.48400 17.76100 25.32600
O  52.12500 17.60500 24.15300
C  53.95900 18.02400 25.49100
N  47.21900 16.22600 26.11800
C  48.13500 16.35300 25.14300
C  47.57700 15.90700 23.75300
C  46.23000 15.25200 24.12600
C  46.08200 15.61500 25.62400
C  47.40900 16.97700 22.70800
C  46.28800 13.71500 23.85400
C  45.37500 13.30000 22.71500
N  45.68900 16.25600 28.47800
C  44.72500 15.73000 27.68000
C  43.53000 15.66100 28.38600
C  43.81600 16.09600 29.64400
C  45.17800 16.44900 29.71200
C  42.20600 15.08000 27.92700
C  43.27300 16.26600 31.04500
O  42.14600 16.03100 31.50500
C  44.47900 16.73500 31.96100
C  44.03100 17.94000 32.67800
O  43.96600 19.04400 32.29400
O  43.47700 17.59500 33.83000
C  42.87200 18.56300 34.74500
H  51.04600 18.81800 30.41700
H  50.01700 16.72200 24.46400
H  44.18500 14.83500 25.83300
H  46.81700 18.63800 33.12600
H  49.69800 18.31400 32.75100
H  49.15800 20.72600 31.36800
H  49.45000 20.49800 33.06200
H  47.81000 20.66400 32.29100
H  48.78000 16.25900 33.20300
H  47.01700 16.00500 33.27800
H  48.77300 16.38500 35.40900
H  47.01400 16.42300 35.59600
H  53.01800 17.88000 29.62700
H  53.25600 19.35900 28.64000
H  53.95100 17.88400 28.12000
H  54.51700 17.33900 26.12900
H  54.24100 19.04800 25.73600
H  54.28200 17.70000 24.50200
H  48.26900 15.17300 23.33900
H  45.39700 15.67100 23.56200
H  46.47500 17.48100 22.46200
H  47.85300 16.66700 21.76100
H  47.89100 17.87300 23.09900
H  45.98300 13.08100 24.68700
H  47.28000 13.29300 23.69200
H  45.17300 14.15900 22.07500
H  44.46100 12.92100 23.17300
H  45.85200 12.54500 22.09000
H  42.37900 14.02800 27.69900
H  41.99000 15.54200 26.96400
H  41.37200 15.19900 28.61800
H  44.79800 16.01500 32.71500
H  43.60100 18.75000 35.53400
H  42.04200 18.07000 35.25100
H  42.49600 19.43300 34.20600

