158

Mg 25.77500 0.76100 28.83300
C  27.23300 0.34400 31.93600
C  22.74100 0.91000 30.36000
C  24.43400 0.86700 25.72600
C  28.89300 -0.25200 27.31500
N  25.11600 0.47900 30.99100
C  25.86600 0.47000 32.06500
C  25.01200 0.42800 33.39400
C  23.54000 0.70400 32.82200
C  23.76300 0.69400 31.28200
C  22.48000 -0.31100 33.26600
C  25.53300 1.53900 34.45800
C  25.24700 1.13300 35.91400
H  26.09300 1.86100 36.92600
N  23.84800 0.82200 28.12600
C  22.74400 0.87600 28.92300
C  21.59000 0.89100 28.11500
C  22.08200 0.89900 26.73500
C  23.48700 0.85400 26.85400
C  20.18800 0.89200 28.77000
C  21.30500 0.86100 25.44400
O  21.83500 0.60200 24.37400
C  19.86300 1.26500 25.48200
N  26.56000 0.32000 26.71700
C  25.79100 0.55400 25.63200
C  26.65200 0.45400 24.33300
C  28.08500 -0.07400 24.93200
C  27.83600 -0.01700 26.42200
C  25.98300 -0.27900 23.13300
C  29.30200 0.83000 24.48100
C  30.59800 0.03600 24.31000
N  27.75500 0.30200 29.45100
C  28.88100 -0.13500 28.71600
C  29.96800 -0.30900 29.63200
C  29.39400 -0.07000 30.95800
C  27.98000 0.23500 30.72500
C  31.41800 -0.71000 29.32600
C  29.69800 -0.10200 32.34100
O  30.72300 -0.33700 32.97400
C  28.32100 0.14000 33.01200
C  28.02100 -0.94900 34.02300
O  27.52100 -2.00200 33.71500
O  28.64900 -0.65500 35.23700
C  28.55000 -1.82300 36.21500
H  21.81800 1.02400 30.93200
H  24.20000 0.92800 24.66100
H  29.83400 -0.61700 26.89800
H  25.05700 -0.59200 33.77800
H  23.19600 1.66200 33.21200
H  22.88600 -0.89500 34.09200
H  22.27400 -1.14900 32.59900
H  21.50400 0.02800 33.61300
H  24.99800 2.46600 34.25400
H  26.57500 1.80300 34.27800
H  25.35800 0.06300 36.08500
H  24.22200 1.38500 36.18300
H  20.26700 0.80600 29.85400
H  19.54000 0.19200 28.24300
H  19.80300 1.88500 28.53700
H  19.59400 1.51700 24.45600
H  19.78400 2.13300 26.13600
H  19.20700 0.45800 25.80900
H  26.78400 1.50700 24.08600
H  28.23000 -1.13600 24.73600
H  26.79700 -0.82100 22.65200
H  25.63900 0.44900 22.39800
H  25.16800 -0.93800 23.42900
H  29.53400 1.53500 25.28000
H  29.17400 1.41300 23.56900
H  30.79500 -0.25800 23.28000
H  30.48000 -0.84300 24.94400
H  31.42700 0.64700 24.66700
H  31.80700 -1.32100 30.14000
H  32.02000 0.19800 29.30400
H  31.48600 -1.23400 28.37200
H  28.53600 1.05000 33.57200
H  29.44500 -2.41100 36.41700
H  27.76100 -2.50400 35.89700
H  28.34900 -1.38600 37.19400
Mg -10.64600 40.00700 42.45900
C  -10.14100 36.65600 41.30700
C  -7.67500 40.90300 41.09900
C  -11.53400 43.24500 42.79600
C  -14.03700 39.16300 42.94700
N  -9.18800 38.92400 41.21300
C  -9.10300 37.55000 41.02600
C  -7.82500 37.18100 40.28300
C  -6.92700 38.51600 40.42000
C  -7.94300 39.53400 40.89500
C  -5.84500 38.36000 41.46500
C  -8.05300 36.74100 38.81900
C  -7.36600 35.50800 38.31700
H  -6.22400 35.61100 37.32100
N  -9.67500 41.87600 42.12500
C  -8.44800 41.97300 41.49900
C  -8.12500 43.36600 41.41000
C  -9.19400 44.09900 42.07100
C  -10.17000 43.09700 42.40100
C  -6.88200 43.85300 40.69100
C  -9.32800 45.54000 42.27100
O  -8.69400 46.34700 41.61500
C  -10.27000 46.16800 43.23600
N  -12.48100 41.12800 42.63000
C  -12.51300 42.34800 43.00600
C  -13.95000 42.85000 43.22800
C  -14.79200 41.54000 43.13100
C  -13.68500 40.54900 42.84100
C  -14.05800 43.59800 44.55800
C  -15.77500 41.37900 41.95000
C  -17.12400 40.72500 42.31500
N  -11.80100 38.21100 42.47900
C  -13.16600 38.02100 42.73000
C  -13.41400 36.59400 42.58100
C  -12.22100 36.02300 42.10800
C  -11.30600 37.09400 41.91600
C  -14.70000 35.92500 42.95700
C  -11.66900 34.76100 41.76200
O  -11.97300 33.65200 41.84200
C  -10.31000 35.20100 41.11100
C  -9.17400 34.32500 41.59500
O  -8.60500 34.41100 42.66900
O  -8.73400 33.43600 40.65800
C  -7.50600 32.55700 40.94800
H  -6.64300 41.19800 40.89800
H  -11.86100 44.26900 42.98800
H  -15.07200 38.89900 43.17300
H  -7.28500 36.40600 40.82600
H  -6.35400 38.80000 39.53700
H  -4.97000 39.00500 41.38700
H  -5.49200 37.32900 41.48200
H  -6.22600 38.69100 42.43100
H  -7.59200 37.57800 38.29500
H  -9.07500 36.80500 38.44600
H  -8.11200 34.85400 37.86600
H  -6.89400 34.97700 39.14400
H  -7.21100 44.79200 40.24400
H  -6.47200 43.13900 39.97700
H  -6.04700 44.17100 41.31500
H  -11.19300 46.38500 42.69800
H  -9.86400 46.89200 43.94200
H  -10.55300 45.42800 43.98400
H  -14.18300 43.53700 42.41500
H  -15.18900 41.24900 44.10400
H  -13.12100 44.08000 44.83600
H  -14.40100 42.88200 45.30600
H  -14.84800 44.33100 44.39500
H  -15.36700 40.89700 41.06100
H  -16.06400 42.36100 41.57700
H  -17.08000 40.28200 43.31000
H  -17.49600 40.01600 41.57500
H  -17.90700 41.48400 42.31400
H  -14.75800 34.86800 42.70000
H  -15.43200 36.33900 42.26400
H  -14.92500 36.09200 44.01000
H  -10.42700 34.96100 40.05500
H  -7.17000 32.46000 41.98000
H  -6.57700 32.94000 40.52500
H  -7.68500 31.67200 40.33700

