158

Mg -3.06400 17.16400 25.88600
C  -3.28000 14.78500 28.51600
C  -3.74300 19.56800 28.01800
C  -3.04600 19.20200 23.20100
C  -2.73000 14.33300 23.71300
N  -3.54700 17.08900 28.01900
C  -3.45500 16.10700 28.98600
C  -3.67200 16.68300 30.38300
C  -3.75900 18.26200 30.18200
C  -3.75600 18.33600 28.63500
C  -4.83900 18.95900 31.02700
C  -2.73000 16.10500 31.37100
C  -2.17200 16.92300 32.55800
H  -1.81800 16.16900 33.89400
N  -3.48000 19.15400 25.57000
C  -3.67300 19.96400 26.66300
C  -3.64100 21.34700 26.17000
C  -3.19200 21.31600 24.82400
C  -3.25200 19.83100 24.44200
C  -3.94900 22.53900 27.14500
C  -2.83300 22.49900 23.94300
O  -2.36000 22.35700 22.81500
C  -2.87300 23.95800 24.42000
N  -2.80700 16.83900 23.73200
C  -2.99900 17.88200 22.83400
C  -2.71200 17.33300 21.40900
C  -2.84900 15.80300 21.60400
C  -2.68700 15.63700 23.13200
C  -3.46700 17.96800 20.29600
C  -1.87500 14.97900 20.68700
C  -2.66600 14.05100 19.71500
N  -3.02600 15.03500 26.04900
C  -2.85500 14.05400 25.10200
C  -2.84600 12.70200 25.72100
C  -3.03400 12.98200 27.02300
C  -3.13000 14.36900 27.17700
C  -2.64400 11.43500 25.13100
C  -3.19200 12.36200 28.33200
O  -3.17900 11.18400 28.61900
C  -3.40700 13.50900 29.31900
C  -2.42100 13.34000 30.43700
O  -1.24000 13.57900 30.38100
O  -3.06900 12.67400 31.44700
C  -2.27500 12.18600 32.57800
H  -3.82900 20.42900 28.68400
H  -2.95400 19.84200 22.32100
H  -2.60000 13.47100 23.05500
H  -4.66600 16.27500 30.56900
H  -2.81900 18.60700 30.61200
H  -4.67000 19.98200 31.36100
H  -4.97900 18.44800 31.98000
H  -5.73000 18.75900 30.43200
H  -1.83200 15.92400 30.77900
H  -3.05700 15.15700 31.79800
H  -2.83600 17.75100 32.80400
H  -1.22100 17.37600 32.27600
H  -3.00700 22.94800 27.50900
H  -4.60300 22.36600 28.00000
H  -4.44600 23.25400 26.48900
H  -3.88000 24.35200 24.28500
H  -2.20000 24.50200 23.75800
H  -2.50300 24.13400 25.43000
H  -1.70000 17.66200 21.17500
H  -3.89200 15.55200 21.41100
H  -2.79900 18.37500 19.53600
H  -4.03700 18.84600 20.60100
H  -4.11800 17.22200 19.84000
H  -1.37400 14.26800 21.34400
H  -1.16400 15.65200 20.20800
H  -2.55000 12.98500 19.91100
H  -2.20900 14.41600 18.79500
H  -3.70700 14.36900 19.67900
H  -1.94900 11.44400 24.29100
H  -3.58200 11.06900 24.71400
H  -2.30600 10.64200 25.79900
H  -4.44900 13.33300 29.58500
H  -1.53700 12.86900 32.99800
H  -1.80000 11.31600 32.12500
H  -2.93200 11.98700 33.42500
Mg 49.39000 45.01700 43.50400
C  45.88300 45.33700 42.73000
C  49.28800 41.76800 42.74800
C  52.66200 45.27400 43.24800
C  49.24400 48.71300 43.84800
N  47.76600 43.77500 42.80900
C  46.44100 44.05400 42.61400
C  45.66100 42.73000 42.44600
C  46.73600 41.62100 42.85500
C  48.05900 42.38600 42.76400
C  46.65900 40.86100 44.15500
C  45.03300 42.47900 41.03900
C  45.69600 43.14700 39.83500
H  45.62700 42.55800 38.39900
N  50.83800 43.69600 43.00300
C  50.61300 42.35800 42.87200
C  51.90600 41.70400 42.79700
C  52.90400 42.69500 42.80300
C  52.12900 43.99700 43.04400
C  52.10000 40.23300 42.65000
C  54.36900 42.51400 42.67200
O  54.83000 41.39600 42.60700
C  55.40800 43.66900 42.62300
N  50.77200 46.76400 43.39200
C  52.07700 46.53300 43.35400
C  52.87600 47.84800 43.58700
C  51.80100 48.96300 43.68400
C  50.49500 48.12900 43.64900
C  53.92600 47.80700 44.73300
C  51.83100 50.03600 42.51700
C  52.02500 51.50500 42.86800
N  47.86400 46.67000 43.58100
C  48.01700 48.08000 43.75500
C  46.73500 48.65400 43.70500
C  45.85500 47.67000 43.30100
C  46.64400 46.48300 43.17000
C  46.43700 50.11400 43.92500
C  44.51000 47.38000 42.87000
O  43.58600 48.14100 42.86900
C  44.48800 45.88600 42.36600
C  43.46100 45.09800 43.04600
O  42.72800 44.28200 42.50600
O  43.43100 45.47300 44.37200
C  42.26900 45.02700 45.13200
H  49.29800 40.67800 42.80700
H  53.75100 45.32200 43.31800
H  49.29200 49.78700 44.04000
H  44.98400 42.69200 43.29900
H  46.77800 40.93900 42.00500
H  46.54800 39.81900 43.85700
H  45.76200 41.10600 44.72200
H  47.50900 41.02700 44.81700
H  44.00700 42.84700 41.01500
H  45.00600 41.41000 40.82500
H  46.74600 43.34500 40.04700
H  45.12800 44.07100 39.72600
H  52.69100 39.86900 43.49000
H  52.58400 40.16500 41.67500
H  51.12700 39.74500 42.69800
H  55.22100 44.27900 41.73900
H  56.36800 43.17000 42.49000
H  55.42300 44.18300 43.58400
H  53.37000 48.01200 42.62900
H  51.75000 49.50100 44.63000
H  54.95800 47.83600 44.38100
H  53.95300 46.85400 45.26200
H  53.73000 48.57100 45.48500
H  50.89100 49.98000 41.96600
H  52.70500 49.89400 41.88100
H  51.20900 52.01800 42.36000
H  52.98900 51.90300 42.55300
H  51.98500 51.59100 43.95400
H  45.37700 50.34000 44.04200
H  46.95200 50.80600 43.26000
H  46.92000 50.44100 44.84600
H  44.25800 45.93300 41.30200
H  42.59700 45.04100 46.17200
H  42.07300 43.99900 44.82700
H  41.43400 45.72800 45.16800

