158

Mg 23.96300 -6.77000 46.29900
C  26.39700 -4.60700 45.16400
C  21.63800 -5.19400 44.36500
C  21.92000 -9.55300 46.55900
C  26.55000 -8.65600 47.90100
N  24.11600 -5.22400 44.85800
C  25.15100 -4.42700 44.58000
C  24.76800 -3.32200 43.53600
C  23.19800 -3.39600 43.59400
C  22.96500 -4.66300 44.29700
C  22.43100 -2.24500 44.27000
C  25.46500 -3.67500 42.13500
C  26.01400 -2.43300 41.34100
H  25.85400 -2.38800 39.84800
N  21.97400 -7.20200 45.72000
C  21.20600 -6.40700 44.95600
C  19.96800 -7.13400 44.69300
C  20.06600 -8.39600 45.33300
C  21.35500 -8.37600 45.96600
C  19.00000 -6.61800 43.60200
C  18.85600 -9.40200 45.37200
O  17.86300 -9.26200 44.64000
C  18.85300 -10.59900 46.24000
N  24.18100 -8.73100 47.20700
C  23.17300 -9.71100 47.15500
C  23.57200 -10.95000 47.99900
C  25.04700 -10.57500 48.53500
C  25.28500 -9.26900 47.86800
C  22.53600 -11.52700 48.99100
C  26.11500 -11.66800 48.26500
C  26.68200 -12.31800 49.50500
N  26.01200 -6.60600 46.61000
C  26.90200 -7.39900 47.30400
C  28.24500 -6.75200 47.42900
C  28.12900 -5.68000 46.49800
C  26.75800 -5.66200 46.05500
C  29.42200 -7.32700 48.17200
C  28.72200 -4.52700 45.85400
O  29.85000 -4.14300 45.81600
C  27.63500 -3.81500 44.99600
C  27.48000 -2.51700 45.67200
O  26.70800 -2.27300 46.61800
O  28.32900 -1.63200 45.14500
C  28.33600 -0.33800 45.92800
H  20.84700 -4.61800 43.88000
H  21.20700 -10.35900 46.74100
H  27.35400 -9.06900 48.51500
H  25.14600 -2.36300 43.89100
H  22.73500 -3.56000 42.62100
H  23.01500 -1.32500 44.24700
H  22.09500 -2.51500 45.27100
H  21.48200 -2.10100 43.75300
H  24.86200 -4.12600 41.34700
H  26.37400 -4.17600 42.46800
H  26.98800 -2.08500 41.68400
H  25.36400 -1.65400 41.73900
H  18.40900 -7.46700 43.25900
H  19.59200 -6.31200 42.73900
H  18.41200 -5.74300 43.88100
H  19.12700 -10.33000 47.26000
H  19.53500 -11.36200 45.86400
H  17.83800 -10.99500 46.26600
H  23.74100 -11.68600 47.21300
H  24.96400 -10.38300 49.60400
H  22.98500 -11.63700 49.97800
H  22.35000 -12.53000 48.60800
H  21.68900 -10.84000 49.00800
H  26.92800 -11.33400 47.62000
H  25.60800 -12.51300 47.79800
H  26.14700 -13.25100 49.68400
H  26.66300 -11.67800 50.38700
H  27.71900 -12.54100 49.25700
H  29.80000 -8.25500 47.74300
H  29.23100 -7.53200 49.22600
H  30.20500 -6.57700 48.06700
H  27.85900 -3.61100 43.94900
H  28.48200 -0.60800 46.97400
H  27.48100 0.28000 45.65700
H  29.20100 0.06300 45.40100
Mg 16.25000 50.89700 25.27400
C  18.03200 49.62900 27.90600
C  13.62700 51.75400 27.48400
C  14.63300 52.16900 22.66800
C  18.90100 49.80100 23.11400
N  15.94100 50.80500 27.38800
C  16.90300 50.39800 28.30200
C  16.42100 50.60300 29.75800
C  14.89500 50.87500 29.55600
C  14.77400 51.15900 28.06800
C  13.92000 49.77700 30.05100
C  17.32500 51.63900 30.33800
C  17.32900 51.84800 31.86600
H  16.38800 51.03300 32.79100
N  14.37100 51.95100 25.11700
C  13.47600 52.16800 26.09800
C  12.37700 52.92400 25.53000
C  12.63000 52.96300 24.13500
C  13.90200 52.38000 23.89500
C  11.22800 53.45600 26.38100
C  11.82700 53.62000 23.10100
O  12.17100 53.74600 21.96000
C  10.44900 54.15600 23.46700
N  16.74000 50.97700 23.22000
C  15.82800 51.53600 22.38400
C  16.25900 51.27700 20.92200
C  17.72900 50.78400 21.13000
C  17.85900 50.54400 22.60900
C  15.30900 50.31300 20.17800
C  18.81600 51.78700 20.72800
C  19.64300 51.46900 19.37500
N  18.02700 49.84200 25.42400
C  19.00900 49.49600 24.51200
C  20.00900 48.66700 25.10800
C  19.66200 48.78300 26.45700
C  18.46100 49.49500 26.56100
C  21.15000 47.94000 24.52700
C  20.07600 48.32300 27.84300
O  20.92700 47.54800 28.20900
C  19.05500 48.86400 28.83100
C  18.45400 47.63800 29.40900
O  17.89300 46.75800 28.75900
O  18.52400 47.67100 30.79000
C  17.60900 46.81300 31.57100
H  12.84500 51.90100 28.23100
H  14.14200 52.38200 21.71600
H  19.62900 49.34600 22.44000
H  16.53000 49.66600 30.30400
H  14.73900 51.84800 30.02300
H  13.23400 50.38400 30.64300
H  14.40500 49.05300 30.70500
H  13.45100 49.20800 29.24800
H  17.13700 52.61900 29.90000
H  18.38900 51.49500 30.15100
H  17.30300 52.92700 32.02100
H  18.32700 51.57800 32.21200
H  10.97800 54.50800 26.24500
H  11.27000 53.17500 27.43400
H  10.36800 52.87900 26.04100
H  10.45100 54.99700 24.16000
H  9.88900 53.27400 23.77700
H  10.17000 54.72300 22.57900
H  16.28900 52.24900 20.43000
H  17.71600 49.83400 20.59500
H  15.83400 49.69300 19.45100
H  14.56200 50.82400 19.57100
H  14.78200 49.62000 20.83300
H  19.54400 51.83300 21.53900
H  18.36600 52.77800 20.78500
H  19.14300 51.28800 18.42300
H  20.46200 50.77600 19.57000
H  20.10400 52.43500 19.16800
H  22.09600 48.45100 24.70500
H  20.97900 47.64000 23.49300
H  21.13300 46.98900 25.05900
H  19.58800 49.50200 29.53700
H  16.95700 47.52100 32.08300
H  18.07600 46.21200 32.35100
H  16.91100 46.23900 30.96100

