158

Mg 30.03600 57.37600 40.23000
C  27.37800 55.19400 39.21300
C  32.30600 55.07900 39.29300
C  32.36100 59.73800 40.36900
C  27.49700 59.83900 40.57900
N  29.80800 55.50100 39.02500
C  28.70000 54.76500 38.88300
C  28.96200 53.32900 38.42700
C  30.52800 53.29700 38.59200
C  30.93000 54.75200 39.07200
C  31.21000 52.10300 39.32700
C  28.31800 52.99100 37.01700
C  28.78000 53.84200 35.75300
H  27.66300 54.40900 34.92700
N  32.10900 57.41500 40.04400
C  32.86200 56.33300 39.64200
C  34.26300 56.69000 39.64100
C  34.38100 58.11400 40.03400
C  32.91400 58.52100 40.15800
C  35.28500 55.63600 39.27700
C  35.61400 58.91300 40.24600
O  36.71300 58.36200 40.06800
C  35.53900 60.28000 40.83300
N  29.94300 59.44800 40.51700
C  31.03800 60.16500 40.61000
C  30.74600 61.72700 40.79600
C  29.19800 61.65600 40.98000
C  28.84100 60.22800 40.75300
C  31.63300 62.39500 41.91500
C  28.53400 62.58400 39.81400
C  27.29800 63.39100 40.24100
N  27.78800 57.46600 40.14000
C  26.97200 58.53600 40.32700
C  25.58100 58.10600 40.20000
C  25.69300 56.76600 39.76400
C  27.03300 56.45500 39.69900
C  24.31900 58.97300 40.54400
C  24.90500 55.63400 39.38000
O  23.66800 55.55200 39.33100
C  26.00300 54.58400 38.93500
C  25.60400 53.33800 39.68700
O  26.24800 52.80700 40.60700
O  24.50000 52.78700 39.13000
C  23.92600 51.70100 39.99300
H  32.84700 54.16200 39.05000
H  33.08800 60.54900 40.45200
H  26.79700 60.67700 40.59800
H  28.47700 52.65200 39.13000
H  30.99600 53.43900 37.61800
H  31.67400 52.49800 40.23000
H  31.94000 51.60700 38.68700
H  30.49700 51.34700 39.65700
H  27.23400 52.94300 37.11800
H  28.64100 51.95600 36.90100
H  29.24300 53.11100 35.09100
H  29.41900 54.66700 36.06900
H  35.37800 54.84300 40.01800
H  36.18800 56.07600 38.85300
H  34.86300 55.11500 38.41700
H  35.13600 60.97700 40.09900
H  36.54600 60.48100 41.19800
H  34.83700 60.30400 41.66600
H  31.04200 62.16300 39.84200
H  28.91700 61.98200 41.98200
H  32.24200 61.63400 42.40500
H  30.87100 62.75700 42.60500
H  32.30900 63.09400 41.42300
H  28.37200 61.90900 38.97400
H  29.21900 63.35300 39.45600
H  26.47600 63.16200 39.56200
H  27.53400 64.44300 40.08400
H  27.05900 63.35400 41.30300
H  24.19300 59.73500 39.77400
H  24.51800 59.64200 41.38100
H  23.45800 58.31200 40.64400
H  25.73200 54.35200 37.90500
H  23.97900 52.00300 41.03900
H  24.33900 50.70100 39.85700
H  22.86200 51.65300 39.75800
Mg 16.58900 52.37500 25.81600
C  18.19500 50.80600 28.54100
C  14.01900 53.24600 27.83000
C  15.00300 53.47300 23.07000
C  18.87300 50.65400 23.71200
N  16.14800 52.03500 27.94800
C  17.04600 51.54100 28.88800
C  16.49500 51.83400 30.33500
C  14.99300 52.31600 30.04200
C  15.01000 52.49700 28.51400
C  13.96300 51.25900 30.52900
C  17.48000 52.79900 31.18800
C  17.65900 52.55000 32.71200
H  16.43500 51.93300 33.41300
N  14.84200 53.35700 25.49400
C  13.89600 53.54400 26.45800
C  12.74100 54.26100 25.93500
C  12.95300 54.40900 24.51900
C  14.27500 53.70600 24.27800
C  11.51200 54.57400 26.65000
C  12.09900 55.09100 23.45300
O  12.49200 55.14700 22.31100
C  10.73500 55.74000 23.78800
N  16.86400 51.93600 23.63300
C  16.09900 52.72500 22.78900
C  16.60800 52.49200 21.36600
C  17.85000 51.63000 21.57100
C  17.88600 51.33400 23.07500
C  15.44900 51.87600 20.49000
C  19.14100 52.26400 20.88400
C  20.13300 53.05400 21.72500
N  18.18400 50.97700 26.04300
C  19.04400 50.46300 25.08400
C  20.13100 49.72900 25.77800
C  19.78800 49.78700 27.13300
C  18.63500 50.58100 27.22800
C  21.19700 48.91300 25.17400
C  20.10500 49.30600 28.48900
O  20.98100 48.56100 28.82500
C  19.15800 50.08300 29.47100
C  18.71100 49.25300 30.58800
O  17.83500 48.39800 30.49600
O  19.37500 49.54100 31.76600
C  19.00700 48.76800 32.92100
H  13.19100 53.68600 28.39100
H  14.54800 53.92600 22.18600
H  19.59300 50.20800 23.02300
H  16.54900 50.96400 30.98800
H  14.73200 53.29000 30.45500
H  14.33000 50.23400 30.58800
H  13.11200 51.31800 29.85100
H  13.49300 51.60100 31.45200
H  17.11100 53.80900 31.01000
H  18.48600 52.88600 30.77800
H  17.80700 53.52500 33.17700
H  18.59300 52.09100 33.03500
H  11.03400 55.50300 26.34000
H  11.73100 54.78900 27.69600
H  10.99800 53.61300 26.64600
H  10.28000 56.16400 22.89300
H  10.71900 56.59500 24.46300
H  10.04900 54.99800 24.19600
H  16.91100 53.44100 20.92300
H  17.63600 50.66700 21.10800
H  14.51000 51.76800 21.03200
H  15.75100 50.87100 20.19500
H  15.32200 52.48300 19.59300
H  18.90500 52.95100 20.07100
H  19.72600 51.46100 20.43600
H  19.78600 53.24000 22.74100
H  20.15600 54.05100 21.28600
H  21.15500 52.67600 21.72600
H  20.59900 48.08300 24.80000
H  21.98900 48.65900 25.87900
H  21.52800 49.61500 24.40900
H  19.76400 50.81500 30.00600
H  17.93700 48.61300 33.05800
H  19.39900 49.32100 33.77500
H  19.36100 47.73800 32.97800

