158

Mg 24.11600 -6.82400 46.22700
C  26.60800 -4.72900 45.10900
C  21.91800 -5.13700 43.90800
C  21.98800 -9.40800 46.23400
C  26.61200 -8.72100 47.84900
N  24.26500 -5.22800 44.69300
C  25.43300 -4.53800 44.44100
C  25.20600 -3.28700 43.54800
C  23.61300 -3.28800 43.42700
C  23.19800 -4.58700 44.07400
C  22.88100 -2.06400 44.11600
C  26.00800 -3.52700 42.16000
C  27.08800 -2.46900 41.80700
H  27.00700 -1.74800 40.50200
N  22.20300 -7.20600 45.18100
C  21.49500 -6.33100 44.40000
C  20.14700 -6.82100 44.13600
C  20.18100 -8.16100 44.69800
C  21.53100 -8.31800 45.41000
C  19.01900 -6.01500 43.41800
C  19.08500 -9.22400 44.44800
O  18.05400 -8.89900 43.86900
C  19.19300 -10.60000 44.99700
N  24.39300 -8.94600 46.66400
C  23.26500 -9.66600 46.76400
C  23.51900 -10.88700 47.64400
C  25.00800 -10.82000 48.04300
C  25.45900 -9.43300 47.46200
C  22.47700 -10.92900 48.80700
C  25.90900 -11.95500 47.49200
C  26.20500 -13.15300 48.35600
N  26.11600 -6.62100 46.64100
C  27.03100 -7.49600 47.29800
C  28.33500 -6.77600 47.26100
C  28.17700 -5.68200 46.43400
C  26.83100 -5.63500 46.07400
C  29.57200 -7.16400 48.03200
C  28.86600 -4.58500 45.85900
O  30.04700 -4.33600 45.96100
C  27.83700 -3.88800 44.96500
C  27.73000 -2.45800 45.43000
O  26.86600 -1.94500 46.15000
O  28.85300 -1.73000 45.00800
C  29.03600 -0.35400 45.35500
H  21.15500 -4.58100 43.36000
H  21.32900 -10.24800 46.46100
H  27.27500 -9.39100 48.40000
H  25.44100 -2.30300 43.95600
H  23.39700 -3.24700 42.35900
H  22.32400 -1.47300 43.38800
H  23.63100 -1.45500 44.62100
H  22.15800 -2.39900 44.86000
H  25.29300 -3.66300 41.34900
H  26.53500 -4.48100 42.16400
H  28.12600 -2.80200 41.81000
H  26.97300 -1.67100 42.54100
H  18.04500 -6.37500 43.75000
H  19.20000 -6.11200 42.34800
H  19.13800 -4.96100 43.66700
H  20.19200 -10.94700 44.73300
H  18.51400 -11.31500 44.53200
H  19.02000 -10.76000 46.06100
H  23.42200 -11.73000 46.96000
H  25.07500 -10.86900 49.13000
H  22.92900 -10.66900 49.76400
H  22.11600 -11.95300 48.71200
H  21.69700 -10.17600 48.69000
H  26.86400 -11.48700 47.25500
H  25.37700 -12.27800 46.59700
H  26.06300 -14.05500 47.76100
H  25.61000 -13.19600 49.26800
H  27.22500 -13.14500 48.73800
H  29.27300 -7.85300 48.82100
H  30.06100 -6.27800 48.43700
H  30.29800 -7.59600 47.34300
H  28.21700 -3.84800 43.94400
H  30.11000 -0.18800 45.26400
H  28.81800 -0.21200 46.41300
H  28.39600 0.31000 44.77400
Mg -8.88000 40.95800 42.83200
C  -7.91500 37.68300 41.92400
C  -6.05700 42.15300 41.11100
C  -10.02500 44.16400 43.15200
C  -11.95900 39.66700 43.75100
N  -7.31000 40.02800 41.60200
C  -7.02200 38.68800 41.51700
C  -5.80800 38.41400 40.63900
C  -5.04700 39.82000 40.74800
C  -6.17100 40.75300 41.20300
C  -3.94500 39.91800 41.78300
C  -6.18200 37.79300 39.21300
C  -5.47200 36.44800 38.74700
H  -4.48300 36.60100 37.56500
N  -8.22200 42.88200 42.00400
C  -6.96900 43.20300 41.46300
C  -6.77200 44.63800 41.46200
C  -7.95800 45.22000 42.14400
C  -8.82300 44.08600 42.37400
C  -5.50200 45.25000 40.88100
C  -8.18500 46.68700 42.44500
O  -7.36500 47.46600 42.10900
C  -9.36200 47.24400 43.12300
N  -10.70900 41.76500 43.38700
C  -10.91500 43.14800 43.53000
C  -12.26000 43.43700 44.24200
C  -12.91600 41.96100 44.22400
C  -11.81800 41.03400 43.82100
C  -12.24500 44.11200 45.61800
C  -14.16700 41.77900 43.41700
C  -15.52200 41.72000 44.18800
N  -9.66600 39.07200 43.05500
C  -10.97100 38.70000 43.41000
C  -11.03700 37.32700 43.50600
C  -9.82700 36.80900 42.92800
C  -9.10700 37.91600 42.59800
C  -12.13100 36.54300 44.13400
C  -9.03400 35.64500 42.50000
O  -9.40700 34.49000 42.45600
C  -7.80500 36.16500 41.84900
C  -6.69600 35.57000 42.63600
O  -6.63700 35.67400 43.85600
O  -5.74800 34.93600 41.85800
C  -4.57600 34.41600 42.56600
H  -5.14900 42.52400 40.63000
H  -10.35800 45.16400 43.43700
H  -12.91100 39.27600 44.11700
H  -5.23100 37.60700 41.08900
H  -4.69100 40.27500 39.82400
H  -3.09000 40.23900 41.18600
H  -3.90600 38.91100 42.19800
H  -4.12500 40.57300 42.63600
H  -5.87400 38.63300 38.59000
H  -7.23500 37.69100 38.95000
H  -6.22000 35.67200 38.58600
H  -4.94700 36.07900 39.62800
H  -5.72700 46.11300 40.25500
H  -4.99300 44.48100 40.30000
H  -4.74400 45.62900 41.56600
H  -9.16600 48.31200 43.22400
H  -9.48800 46.89200 44.14700
H  -10.28000 47.05400 42.56600
H  -12.74900 44.11700 43.54500
H  -13.22100 41.82700 45.26100
H  -13.01500 44.88200 45.58500
H  -11.24600 44.52800 45.74900
H  -12.41900 43.51500 46.51200
H  -14.10300 40.89800 42.77800
H  -14.26300 42.70000 42.84100
H  -15.34900 41.64300 45.26200
H  -16.07100 40.79700 44.00300
H  -16.06100 42.64900 44.00100
H  -12.90300 36.45100 43.36900
H  -12.48100 36.88200 45.10900
H  -11.68900 35.58600 44.40900
H  -7.72200 35.81500 40.82000
H  -4.63900 33.32900 42.52600
H  -4.37900 34.67600 43.60600
H  -3.69300 34.72200 42.00400

