158

Mg 54.00700 24.70800 44.87600
C  51.51400 27.29200 44.18800
C  51.58400 22.48200 43.90300
C  56.44900 22.55400 44.61400
C  56.16900 27.39600 45.69800
N  51.90900 24.92200 43.83500
C  51.09900 26.03100 43.76700
C  49.65900 25.72700 43.40700
C  49.69600 24.13100 43.68400
C  51.10900 23.78100 43.76900
C  48.93500 23.65500 44.98000
C  49.15000 26.10500 41.91800
C  50.20900 25.99100 40.75400
H  49.66500 25.40700 39.38900
N  54.03200 22.79900 44.40400
C  52.95300 22.01800 44.04400
C  53.46100 20.67600 43.88500
C  54.82100 20.65600 44.09300
C  55.22400 22.04800 44.36000
C  52.56400 19.54800 43.46400
C  55.72100 19.46000 43.96000
O  55.23800 18.51900 43.32700
C  57.16300 19.34100 44.34200
N  56.03400 24.93500 45.18200
C  56.86900 23.81300 44.99500
C  58.33100 24.22400 45.24200
C  58.20900 25.71000 45.74900
C  56.72700 26.08600 45.42800
C  59.13100 23.21200 46.18700
C  59.23400 26.66700 44.93300
C  58.93600 26.84900 43.39900
N  53.87600 26.86300 45.09500
C  54.82600 27.80700 45.50100
C  54.21600 29.04500 45.69700
C  52.93800 28.98600 45.14700
C  52.72900 27.59400 44.81400
C  54.90700 30.23300 46.29700
C  51.72300 29.70100 44.86100
O  51.39300 30.85900 44.99400
C  50.75200 28.62000 44.22300
C  50.47200 29.08100 42.80900
O  51.31400 29.22800 41.93500
O  49.15400 29.33600 42.62100
C  48.73600 29.89000 41.38900
H  50.82000 21.72700 43.70500
H  57.31100 21.89200 44.50900
H  56.81400 28.21800 46.01400
H  49.04100 26.26500 44.12700
H  49.15500 23.71200 42.83600
H  48.48800 24.40400 45.63400
H  49.57100 23.01400 45.59200
H  48.12000 23.04200 44.59600
H  48.74500 27.11600 41.96100
H  48.26600 25.58100 41.55500
H  51.14800 25.50900 41.02600
H  50.50100 26.99400 40.44100
H  52.98500 19.29800 42.49100
H  51.53000 19.88200 43.38600
H  52.53200 18.68600 44.13000
H  57.49600 18.32300 44.54300
H  57.18200 19.82400 45.32000
H  57.86200 19.80800 43.64800
H  58.89700 24.34700 44.31900
H  58.31300 25.66100 46.83300
H  58.52600 22.33500 46.41700
H  59.49800 23.64000 47.12000
H  60.03700 22.97300 45.62900
H  60.17100 26.11600 45.00500
H  59.32800 27.63100 45.43300
H  59.65000 26.41400 42.70000
H  58.87800 27.91400 43.17400
H  57.91600 26.51300 43.21400
H  55.99000 30.16600 46.40400
H  54.52000 30.29600 47.31400
H  54.60300 31.14500 45.78400
H  49.84100 28.41300 44.78500
H  49.08600 29.28500 40.55300
H  49.15900 30.89500 41.39200
H  47.68700 30.11400 41.19700
Mg 49.85100 46.42600 43.09600
C  47.27200 48.67900 42.24700
C  47.95400 43.89400 41.84400
C  52.66200 44.70600 43.00500
C  51.64600 49.33900 43.95900
N  47.86800 46.36900 42.22500
C  46.99800 47.35400 41.85100
C  45.80900 46.77900 41.16100
C  45.83300 45.28200 41.67700
C  47.33600 45.16200 41.86800
C  45.14300 44.93500 42.95700
C  45.80300 46.86700 39.60600
C  44.40100 46.68900 38.93200
H  44.46700 45.55700 37.92400
N  50.24300 44.55200 42.55200
C  49.37500 43.69100 42.01300
C  49.98200 42.46400 41.84100
C  51.32900 42.60000 42.17900
C  51.53300 43.99900 42.60500
C  49.34900 41.11200 41.42100
C  52.44500 41.60400 41.87600
O  52.22100 40.51900 41.39400
C  53.93900 41.93000 42.19300
N  51.90300 46.99400 43.32500
C  52.87400 45.99500 43.32200
C  54.18200 46.48100 43.95300
C  53.91700 48.00100 43.81600
C  52.36700 48.16000 43.66500
C  54.64600 45.94000 45.34700
C  54.68600 48.76300 42.75800
C  56.19400 49.11600 43.01200
N  49.53700 48.51500 43.37000
C  50.28600 49.51700 43.80400
C  49.53100 50.80100 43.84000
C  48.39700 50.55600 43.12600
C  48.42700 49.12600 42.87100
C  50.22700 52.09700 44.27700
C  47.19600 51.14900 42.64300
O  46.74800 52.27700 42.77600
C  46.41000 49.96000 41.99100
C  45.11600 49.79500 42.66100
O  45.00400 49.28500 43.70700
O  44.10200 49.91900 41.73300
C  42.78000 49.54500 42.29100
H  47.31800 43.13300 41.38800
H  53.63300 44.24400 43.19300
H  52.22100 50.21300 44.27200
H  44.90100 47.24900 41.53900
H  45.55900 44.57600 40.89400
H  44.27500 44.31000 42.75000
H  44.77500 45.86900 43.38100
H  45.79000 44.43800 43.67900
H  46.44000 46.01600 39.36800
H  46.12500 47.82700 39.20200
H  44.14600 47.61300 38.41200
H  43.60100 46.33500 39.58200
H  48.26000 41.15900 41.43600
H  49.64600 40.41800 42.20800
H  49.79200 40.84800 40.46100
H  53.94000 42.14700 43.26100
H  54.06500 42.92800 41.77100
H  54.64700 41.20800 41.78700
H  54.99700 46.24600 43.26800
H  54.24200 48.51100 44.72300
H  55.72700 46.02200 45.46100
H  54.40300 44.88400 45.46400
H  54.31600 46.62000 46.13300
H  54.08400 49.61000 42.42900
H  54.73900 48.09300 41.90000
H  56.18700 50.20500 42.98200
H  56.86600 48.60000 42.32700
H  56.46800 48.92000 44.04800
H  51.20100 52.16800 43.79200
H  50.49100 52.11000 45.33400
H  49.62900 52.99300 44.11100
H  46.33100 50.21000 40.93300
H  42.68000 48.46800 42.42900
H  41.98000 49.89600 41.64000
H  42.73200 50.14100 43.20200

