158

Mg 1.73000 8.16000 25.70800
C  1.79300 10.13800 28.67000
C  1.93700 5.46400 27.65000
C  1.67200 6.37500 22.90100
C  2.11900 11.09600 23.78800
N  1.57900 7.82300 27.97700
C  1.66500 8.73500 28.92300
C  1.57100 8.06100 30.27700
C  1.88200 6.54800 29.95700
C  1.87000 6.63800 28.41700
C  3.21700 5.91400 30.55900
C  0.25100 8.40300 31.07900
C  0.27400 8.49200 32.66000
H  1.60400 7.95700 33.39800
N  1.72300 6.19600 25.38900
C  1.85800 5.20300 26.29000
C  1.98500 3.92200 25.55300
C  1.80100 4.16800 24.14400
C  1.77200 5.65100 24.09100
C  2.16300 2.62400 26.30300
C  1.81200 3.18400 22.97100
O  1.70100 3.59000 21.84000
C  1.91600 1.81900 23.20700
N  1.85300 8.74100 23.59700
C  1.71400 7.78000 22.59700
C  1.71600 8.43500 21.16900
C  1.70100 10.00000 21.50500
C  1.88200 9.98000 23.00300
C  2.96300 7.99700 20.28100
C  0.32000 10.70700 21.05100
C  0.20600 11.08800 19.58400
N  1.84600 10.18300 26.10000
C  2.04400 11.25300 25.22800
C  2.04200 12.50100 26.05200
C  1.93700 12.10100 27.40800
C  1.84700 10.69000 27.35000
C  2.25400 13.87400 25.52900
C  2.00300 12.64000 28.77400
O  2.20900 13.74900 29.17300
C  1.83300 11.30800 29.68800
C  3.06600 11.14800 30.52500
O  4.13800 10.90000 30.13600
O  2.82300 11.53200 31.78300
C  3.80600 11.37200 32.87300
H  1.99600 4.59400 28.30800
H  1.69500 5.92800 21.90500
H  2.04500 11.97700 23.14800
H  2.43400 8.27100 30.90800
H  1.02600 5.97800 30.31900
H  2.96000 4.92200 30.93100
H  3.55800 6.57700 31.35400
H  4.04500 5.83900 29.85400
H  -0.50200 7.64000 30.88800
H  -0.23400 9.31500 30.73100
H  -0.63300 7.96500 32.95600
H  0.27800 9.55800 32.88400
H  2.86100 1.91900 25.85100
H  1.18500 2.27100 26.62700
H  2.65000 2.73100 27.27200
H  2.91100 1.50400 23.52200
H  1.67400 1.25000 22.30900
H  1.10100 1.65500 23.91200
H  0.75600 8.18700 20.71700
H  2.50500 10.52400 20.99000
H  2.56300 7.63900 19.33200
H  3.47100 7.18400 20.79900
H  3.56300 8.86200 19.99700
H  0.20200 11.67700 21.53300
H  -0.53700 10.04400 21.16700
H  -0.18600 12.09900 19.46800
H  -0.50400 10.39900 19.12600
H  1.20000 10.96600 19.15500
H  2.49000 13.87700 24.46500
H  3.10200 14.30500 26.06000
H  1.43200 14.50900 25.86100
H  0.93700 11.29200 30.30800
H  4.55500 10.61600 32.63600
H  3.14800 11.03000 33.67200
H  4.22400 12.32800 33.19100
Mg 15.68400 51.77100 25.83000
C  17.52200 50.93000 28.53200
C  13.01100 52.17200 27.91400
C  13.73300 52.02900 23.11800
C  18.36200 50.70200 23.77500
N  15.42500 51.77800 28.05600
C  16.35000 51.44300 28.96000
C  15.88800 51.83800 30.37900
C  14.33900 51.85200 30.14300
C  14.19800 51.96600 28.63400
C  13.61400 50.50500 30.70100
C  16.45600 53.16800 30.90500
C  16.63400 53.26800 32.44600
H  16.00700 52.31500 33.41900
N  13.65500 52.24400 25.54900
C  12.75100 52.24300 26.55500
C  11.41800 52.55600 25.92100
C  11.58700 52.38900 24.53200
C  13.06400 52.27100 24.31300
C  10.12900 52.68900 26.68600
C  10.54700 52.51000 23.42100
O  10.92300 52.43300 22.24400
C  9.13700 52.87700 23.76300
N  16.07100 51.51600 23.76100
C  15.09400 51.73400 22.88100
C  15.60500 51.62100 21.48400
C  17.15600 51.42700 21.69500
C  17.22100 51.19200 23.17000
C  14.99500 50.44100 20.67200
C  18.11500 52.66300 21.27400
C  18.96500 52.46200 20.06300
N  17.53600 50.80800 26.04100
C  18.56800 50.51100 25.15900
C  19.70400 49.90800 25.83000
C  19.34300 50.19600 27.17100
C  18.03800 50.66400 27.25200
C  20.97000 49.35200 25.23900
C  19.79500 49.94600 28.47600
O  20.86300 49.45900 28.79800
C  18.68200 50.50900 29.45900
C  18.26100 49.41600 30.42200
O  17.20000 48.71900 30.40400
O  19.19200 49.41100 31.45400
C  18.86900 48.69200 32.67600
H  12.13200 52.27000 28.55400
H  13.19200 52.17500 22.18100
H  19.17700 50.34300 23.14300
H  16.11400 51.15500 31.19800
H  13.86100 52.69100 30.64800
H  13.77700 50.55600 31.77800
H  14.18200 49.67500 30.28200
H  12.61800 50.45800 30.26100
H  15.84500 54.02100 30.61000
H  17.41600 53.22500 30.39300
H  16.35400 54.29400 32.68300
H  17.71000 53.30200 32.61400
H  10.25500 53.24300 27.61600
H  9.76800 51.68900 26.92700
H  9.27500 53.23400 26.28500
H  9.06800 53.86300 24.22400
H  8.66300 52.03600 24.27000
H  8.60700 52.96700 22.81400
H  15.37000 52.52700 20.92600
H  17.46500 50.47200 21.27000
H  14.43500 49.93300 21.45700
H  15.74800 49.81500 20.19300
H  14.28500 50.88600 19.97500
H  18.90900 52.81200 22.00600
H  17.58500 53.60400 21.12200
H  19.07000 51.46500 19.63500
H  19.99800 52.54400 20.40000
H  18.69700 53.13600 19.24800
H  21.31700 48.72200 26.05800
H  21.61300 50.21300 25.05800
H  20.80800 48.88600 24.26700
H  19.01000 51.45000 29.90100
H  19.13100 49.30100 33.54100
H  19.39700 47.73900 32.72000
H  17.79000 48.53700 32.70800

