158

Mg 41.09400 41.34200 27.09000
C  40.19500 43.48900 29.77200
C  41.76200 38.91700 29.59500
C  42.12500 39.18000 24.72400
C  40.79900 43.80500 24.96200
N  41.27000 41.35200 29.47600
C  40.59900 42.24100 30.29000
C  40.65100 41.83200 31.80000
C  41.14400 40.31800 31.71800
C  41.48600 40.18100 30.12900
C  42.43400 39.95600 32.51000
C  39.31000 42.09400 32.56000
C  39.01900 41.18700 33.78100
H  38.50000 41.74600 35.16400
N  41.91200 39.42000 27.18600
C  42.06600 38.60900 28.29500
C  42.51800 37.24500 27.85300
C  42.48500 37.26400 26.44400
C  42.13700 38.64200 26.05700
C  43.09300 36.22300 28.88600
C  42.84100 36.07600 25.41000
O  42.82500 36.25800 24.21300
C  43.15100 34.67100 25.87900
N  41.52600 41.43700 25.12100
C  41.84900 40.50600 24.33000
C  41.95600 40.93400 22.93000
C  41.59600 42.48400 22.98700
C  41.31200 42.60700 24.43100
C  43.29500 40.56600 22.17400
C  40.40300 42.84400 22.02600
C  39.01000 42.60400 22.59400
N  40.61400 43.29900 27.23800
C  40.60900 44.21000 26.23000
C  40.09400 45.48800 26.80500
C  39.90800 45.25000 28.14900
C  40.30100 43.90200 28.41100
C  39.67300 46.70000 25.98700
C  39.42200 45.82500 29.36500
O  38.86000 46.88300 29.56100
C  39.65800 44.78000 30.51200
C  40.66500 45.27900 31.54000
O  41.89700 45.37700 31.25100
O  40.14800 45.51900 32.79100
C  41.06200 45.63100 33.92500
H  41.83800 38.11300 30.33000
H  42.46000 38.54600 23.90000
H  40.61400 44.59500 24.23100
H  41.42000 42.48100 32.21900
H  40.40800 39.58200 32.04200
H  43.20300 39.61600 31.81600
H  42.17100 39.24300 33.29100
H  42.82200 40.89000 32.91500
H  38.46400 42.02600 31.87600
H  39.34000 43.12200 32.92100
H  39.94000 40.65700 34.02300
H  38.25100 40.45900 33.51900
H  42.57800 35.28000 28.70300
H  42.79200 36.52800 29.88900
H  44.17400 36.09000 28.88700
H  42.18200 34.36600 26.27200
H  43.81600 34.70100 26.74200
H  43.43400 33.93700 25.12400
H  41.14400 40.44400 22.39400
H  42.36100 43.21600 22.72800
H  43.49100 41.35900 21.45200
H  43.21600 39.67200 21.55500
H  44.06500 40.38500 22.92500
H  40.50200 42.18600 21.16300
H  40.53600 43.90000 21.79100
H  38.73800 43.48900 23.16900
H  38.96600 41.71100 23.21800
H  38.40300 42.41300 21.70900
H  38.73500 46.53300 25.45900
H  40.45500 46.88700 25.25100
H  39.70000 47.60300 26.59700
H  38.67300 44.63300 30.95600
H  42.12300 45.39500 33.83900
H  40.67000 45.08200 34.78200
H  41.00000 46.68300 34.20100
Mg -9.45000 18.09100 42.04200
C  -5.98800 17.42200 42.25100
C  -8.73800 21.27300 41.37600
C  -12.74500 18.56200 41.67400
C  -9.94800 14.52000 41.97300
N  -7.55700 19.13000 41.59300
C  -6.33300 18.73500 42.02200
C  -5.34200 19.86500 41.70800
C  -6.27700 21.13600 41.61300
C  -7.65400 20.49500 41.56700
C  -6.04200 22.18300 42.78500
C  -4.43300 19.44600 40.49200
C  -4.99300 18.69700 39.25200
H  -4.79900 19.17600 37.79000
N  -10.60700 19.73200 41.70800
C  -10.09000 20.96000 41.42200
C  -11.16800 21.90400 41.50600
C  -12.41300 21.16900 41.52400
C  -11.98900 19.79500 41.63200
C  -10.96700 23.35500 41.24200
C  -13.85200 21.78300 41.48700
O  -13.91000 23.00000 41.41500
C  -15.13300 20.97000 41.85400
N  -11.04000 16.70300 41.80500
C  -12.35000 17.17300 41.70400
C  -13.37400 15.99800 41.88400
C  -12.45400 14.77100 41.63600
C  -11.03600 15.33700 41.85100
C  -14.30600 15.91900 43.12300
C  -12.61600 14.04400 40.22600
C  -12.61300 12.50200 40.18200
N  -8.29700 16.25200 42.15300
C  -8.61100 14.91900 42.15500
C  -7.40400 14.11700 42.41900
C  -6.38200 15.03600 42.57600
C  -6.94400 16.38100 42.36100
C  -7.14700 12.56000 42.45300
C  -4.94500 15.18400 42.84300
O  -4.10300 14.33100 43.10300
C  -4.64500 16.72900 42.57400
C  -4.01400 17.25400 43.75900
O  -2.82200 17.02100 44.07700
O  -4.80300 18.09800 44.53200
C  -4.12700 18.79000 45.63700
H  -8.36100 22.29400 41.28500
H  -13.81900 18.56300 41.47700
H  -10.12600 13.44500 41.90200
H  -4.81500 19.79000 42.65900
H  -6.15800 21.59100 40.62900
H  -6.98900 22.25600 43.31900
H  -5.70100 23.16000 42.44200
H  -5.22400 21.75600 43.36500
H  -3.61300 18.84500 40.88400
H  -4.08200 20.45500 40.27600
H  -6.07800 18.60100 39.28900
H  -4.48300 17.73500 39.29500
H  -10.96000 23.66300 40.19600
H  -10.02600 23.72400 41.65000
H  -11.62900 23.94000 41.88100
H  -14.91500 20.31100 42.69500
H  -15.36000 20.35200 40.98500
H  -16.01300 21.59300 42.01300
H  -14.02400 15.96700 41.01000
H  -12.58400 14.04200 42.43600
H  -14.43700 14.84500 43.25700
H  -15.25000 16.44300 42.97500
H  -13.88200 16.32500 44.04100
H  -11.70400 14.37800 39.73200
H  -13.47000 14.35100 39.62200
H  -13.46200 12.06400 39.65800
H  -12.82400 12.12900 41.18500
H  -11.75900 11.99400 39.73500
H  -6.38000 12.27400 41.73400
H  -8.07100 12.05800 42.16400
H  -7.07100 12.23300 43.49000
H  -3.90800 16.82000 41.77600
H  -4.51200 19.80600 45.72300
H  -3.04800 18.94000 45.62100
H  -4.26200 18.22400 46.55800

