158

Mg 8.87500 4.45000 27.61200
C  9.72000 2.74100 30.66100
C  6.71300 6.36500 29.56400
C  7.80900 5.88100 24.83300
C  10.49600 1.92200 25.85100
N  8.15700 4.40100 29.76300
C  8.74500 3.73400 30.86200
C  8.25800 4.27900 32.23000
C  7.10100 5.24500 31.77500
C  7.28200 5.28400 30.23100
C  5.71000 4.77600 32.25300
C  9.38300 4.94700 33.18200
C  9.58200 4.27700 34.55500
H  10.79200 4.61500 35.30300
N  7.58200 6.02200 27.26900
C  6.86500 6.73700 28.19300
C  6.17600 7.81600 27.54700
C  6.47700 7.68500 26.13400
C  7.33500 6.49500 26.04300
C  5.29900 8.85300 28.27400
C  5.91300 8.54600 24.98500
O  6.31400 8.33800 23.80200
C  4.90900 9.64400 25.26400
N  9.09200 3.87300 25.63000
C  8.55900 4.65100 24.62600
C  8.78700 4.05800 23.19000
C  9.53400 2.68400 23.56600
C  9.85400 2.86700 25.10500
C  7.51400 3.91900 22.42300
C  10.77100 2.33900 22.59000
C  10.89600 0.87900 22.24700
N  10.04000 2.83500 28.02900
C  10.57600 1.88100 27.25700
C  11.16000 0.84500 28.03000
C  10.98600 1.26000 29.35300
C  10.19100 2.38900 29.33600
C  11.90000 -0.42100 27.55200
C  11.18800 0.89700 30.72800
O  11.85900 -0.06500 31.16200
C  10.41300 1.93500 31.67500
C  9.67700 1.05100 32.55100
O  8.52200 0.72800 32.34800
O  10.47100 0.84000 33.66700
C  9.87300 0.18900 34.86100
H  6.01400 6.91100 30.20100
H  7.42600 6.26300 23.88500
H  10.97200 1.06800 25.36500
H  7.73400 3.50200 32.78600
H  7.19300 6.27900 32.10800
H  4.98400 4.60000 31.46000
H  5.36400 5.61200 32.86100
H  5.80800 3.94300 32.95000
H  9.30700 6.02700 33.30400
H  10.35100 4.77900 32.70900
H  9.62100 3.20500 34.36400
H  8.69700 4.55800 35.12600
H  5.64100 9.06600 29.28700
H  4.29900 8.44000 28.40700
H  5.24900 9.79600 27.73000
H  4.45300 9.91900 24.31300
H  5.37900 10.49400 25.76000
H  4.09800 9.33800 25.92500
H  9.60500 4.68900 22.84500
H  8.74900 1.92900 23.51900
H  7.36100 2.90300 22.05800
H  7.62800 4.56500 21.55200
H  6.58500 4.23100 22.90000
H  11.73200 2.73300 22.92100
H  10.48300 2.86700 21.68200
H  10.10500 0.20900 22.58400
H  11.76500 0.59800 22.84400
H  11.07900 0.83900 21.17400
H  12.95800 -0.18500 27.66600
H  11.71700 -0.81000 26.55000
H  11.57000 -1.19600 28.24300
H  11.07800 2.53900 32.29400
H  9.25400 -0.66400 34.58300
H  9.27800 0.91500 35.41600
H  10.61700 -0.17500 35.57000
Mg 54.55000 24.43100 44.87100
C  52.16500 26.76200 43.77900
C  52.62400 21.89200 43.80300
C  57.28000 22.40000 45.18600
C  56.48900 27.18900 46.04500
N  52.67400 24.42300 43.84200
C  51.87400 25.41800 43.41100
C  50.71200 24.84900 42.66800
C  50.64600 23.41700 43.23100
C  52.08800 23.21000 43.63600
C  49.56700 23.20100 44.34300
C  50.75600 25.00900 41.11400
C  49.30600 24.75200 40.39800
H  49.39600 24.41800 38.91500
N  54.90700 22.43500 44.48700
C  53.96400 21.54500 44.08200
C  54.54600 20.28900 43.98600
C  55.88300 20.33500 44.37400
C  56.10500 21.76500 44.70300
C  53.69600 19.08200 43.70700
C  56.80000 19.18600 44.55800
O  56.43700 18.10500 44.23000
C  58.23900 19.29600 45.05600
N  56.60200 24.75400 45.48000
C  57.53000 23.77300 45.45300
C  58.87500 24.32300 45.97600
C  58.58800 25.76700 46.36000
C  57.12200 25.94900 45.91500
C  59.58300 23.53600 47.11000
C  59.51300 26.82300 45.63800
C  60.08700 27.83600 46.52800
N  54.34400 26.51200 45.08600
C  55.16000 27.48000 45.70000
C  54.51400 28.73800 45.59500
C  53.35900 28.51000 44.88200
C  53.27200 27.12600 44.58900
C  54.95400 30.06400 46.21800
C  52.16400 29.16400 44.38200
O  51.78900 30.31100 44.41200
C  51.40500 27.97900 43.61300
C  51.26800 28.30400 42.17000
O  52.22900 28.62800 41.50000
O  50.02700 28.04100 41.64400
C  49.97000 28.34900 40.18300
H  52.01100 21.02400 43.55000
H  58.25500 21.90800 45.22100
H  57.00200 27.99900 46.56900
H  49.81000 25.37600 42.98000
H  50.42200 22.75100 42.39800
H  50.13100 22.81000 45.19000
H  48.81000 22.46600 44.07200
H  49.06400 24.09900 44.70300
H  51.41700 24.29500 40.62400
H  51.26800 25.94900 40.90800
H  48.73000 25.67400 40.47400
H  48.68300 24.00600 40.89200
H  54.20300 18.30700 43.13400
H  52.86900 19.37600 43.06000
H  53.30400 18.74300 44.66600
H  58.67800 19.90800 44.26700
H  58.58000 18.26500 45.14500
H  58.38100 19.85300 45.98200
H  59.48100 24.21500 45.07600
H  58.50700 25.82000 47.44500
H  60.02400 24.19900 47.85300
H  60.32000 22.93300 46.57800
H  58.93800 22.78900 47.57300
H  59.02400 27.29800 44.78700
H  60.39100 26.23500 45.37200
H  60.11400 28.72400 45.89700
H  61.02900 27.53700 46.98800
H  59.42000 27.99500 47.37500
H  54.47300 30.12400 47.19400
H  54.41000 30.73400 45.55300
H  56.00600 30.31400 46.35900
H  50.39000 27.80200 43.96900
H  50.67200 27.70400 39.65400
H  50.36000 29.33100 39.91200
H  48.93600 28.28900 39.84500

