158

Mg 49.19200 45.33200 42.71200
C  45.94400 45.86200 41.57600
C  49.07100 42.04300 41.28300
C  52.51600 45.27000 42.89300
C  49.27900 48.86200 43.66500
N  47.76800 44.19800 41.33000
C  46.49700 44.66200 41.10500
C  45.72900 43.53600 40.38000
C  46.55500 42.25900 40.65400
C  47.90400 42.84300 41.06000
C  46.00700 41.35100 41.81100
C  45.54600 43.78200 38.89500
C  44.15100 43.47900 38.39000
H  44.08000 42.29100 37.36900
N  50.54800 43.81200 42.23800
C  50.34100 42.49400 41.74300
C  51.60400 41.80700 41.77500
C  52.61600 42.71600 42.23800
C  51.90100 44.02700 42.49500
C  51.69200 40.39400 41.29100
C  54.02000 42.38200 42.41600
O  54.47700 41.23700 42.18700
C  54.99100 43.38800 42.91500
N  50.64400 46.88200 43.26500
C  51.98800 46.50800 43.28600
C  52.87100 47.71300 43.66000
C  51.75100 48.72300 44.19300
C  50.47300 48.12600 43.71200
C  53.97600 47.47900 44.73200
C  52.00400 50.23900 44.01600
C  53.54700 50.73000 43.91400
N  47.86100 47.03700 42.72900
C  48.02600 48.36700 43.14200
C  46.82500 49.11100 42.95500
C  45.90500 48.14100 42.36800
C  46.59700 46.92200 42.19800
C  46.53400 50.49500 43.50900
C  44.54300 47.85200 41.90400
O  43.55200 48.54000 42.00800
C  44.54700 46.36400 41.27700
C  43.45100 45.64100 41.90900
O  43.32600 45.48000 43.08700
O  42.46200 45.38500 40.96400
C  41.18900 44.87900 41.46800
H  49.02000 40.95900 41.15900
H  53.60700 45.30800 42.87400
H  49.39600 49.82200 44.17000
H  44.76200 43.30900 40.82700
H  46.71700 41.60600 39.79700
H  46.72200 41.26300 42.62900
H  45.64200 40.38000 41.47600
H  45.10300 41.86700 42.13300
H  46.35500 43.14600 38.53600
H  45.84000 44.80800 38.67300
H  43.85500 44.38900 37.86700
H  43.53900 43.29200 39.27200
H  51.86400 40.35300 40.21600
H  50.74900 39.95200 41.61300
H  52.45600 39.81700 41.81200
H  54.63400 43.84200 43.84000
H  55.16000 44.10600 42.11300
H  55.94800 42.96300 43.21700
H  53.30200 48.00600 42.70300
H  51.60600 48.44300 45.23600
H  54.88500 48.07500 44.81200
H  54.27700 46.44200 44.58300
H  53.53400 47.66800 45.71100
H  51.61400 50.72500 44.91000
H  51.38500 50.58400 43.18800
H  53.73400 51.34200 44.79600
H  53.69500 51.45000 43.10900
H  54.25900 49.92400 43.73400
H  47.20100 51.29500 43.18600
H  46.41400 50.31700 44.57700
H  45.58900 50.88400 43.13100
H  44.32500 46.46000 40.21400
H  41.24100 43.87500 41.88700
H  40.47800 44.80800 40.64500
H  40.67200 45.60600 42.09500
Mg 5.89700 54.34600 39.90700
C  4.99400 50.91300 39.80400
C  8.86200 53.72700 39.07900
C  6.07700 57.66700 39.24300
C  2.25400 54.89200 40.21400
N  6.79600 52.51500 39.25000
C  6.35300 51.22100 39.36700
C  7.50700 50.25100 39.31100
C  8.75200 51.15400 39.42800
C  8.16000 52.57900 39.26800
C  9.54900 51.05700 40.71700
C  7.52200 49.44200 37.94600
C  7.41200 50.13900 36.51300
H  6.19000 49.98100 35.64200
N  7.37900 55.55200 39.45100
C  8.63100 55.08800 39.12500
C  9.50600 56.23900 39.03700
C  8.66900 57.46600 39.20600
C  7.28300 56.90200 39.29200
C  10.95300 56.03700 38.70400
C  9.08200 58.89100 39.34800
O  10.27400 59.09500 39.06200
C  8.23400 60.05300 39.77500
N  4.35700 56.05200 39.53400
C  4.73400 57.33500 39.35200
C  3.54000 58.37800 39.42100
C  2.31900 57.43200 39.60400
C  2.99300 56.05900 39.82100
C  3.67400 59.35800 40.55400
C  1.44700 57.47500 38.39800
C  0.21900 58.41400 38.43100
N  3.98300 53.21200 39.98900
C  2.63500 53.54200 40.28000
C  1.86800 52.38400 40.61400
C  2.77700 51.33100 40.36500
C  4.05000 51.87900 40.02000
C  0.46300 52.33400 41.17500
C  2.84800 49.92200 40.30600
O  2.01500 49.04700 40.42400
C  4.33700 49.57500 40.00000
C  4.26500 48.62200 38.87200
O  4.15700 48.90700 37.71000
O  4.61100 47.36900 39.34400
C  4.77800 46.31400 38.30500
H  9.92200 53.48000 38.99000
H  6.20100 58.71500 38.96400
H  1.17100 55.03700 40.22900
H  7.24000 49.61800 40.15800
H  9.46200 51.03300 38.61100
H  9.46300 50.06900 41.17000
H  9.13600 51.72300 41.47500
H  10.62700 51.11100 40.56100
H  6.69900 48.72800 37.92500
H  8.46600 48.90500 38.03800
H  8.26500 49.80200 35.92600
H  7.50400 51.22300 36.59000
H  11.37100 56.89700 38.17900
H  11.21100 55.17600 38.08800
H  11.51600 55.94000 39.63200
H  8.93800 60.75800 40.21600
H  7.54700 59.67200 40.53000
H  7.83900 60.46200 38.84400
H  3.41900 58.94900 38.50000
H  1.64600 57.67500 40.42500
H  3.38800 58.92400 41.51200
H  3.14100 60.26300 40.26100
H  4.66300 59.79100 40.70400
H  1.05900 56.46200 38.28900
H  2.02900 57.70500 37.50600
H  -0.25700 58.51500 39.40700
H  -0.47100 57.95700 37.72200
H  0.46000 59.43800 38.14600
H  0.34300 51.58000 41.95300
H  -0.11800 52.00400 40.31400
H  0.06000 53.33000 41.35900
H  4.61600 49.09900 40.94100
H  4.75600 45.29200 38.68400
H  5.69000 46.53500 37.75100
H  3.89100 46.44100 37.68400

