158

Mg 35.96500 3.10400 30.44300
C  33.42000 4.14100 32.67300
C  38.02800 2.72800 33.32400
C  38.59200 2.42300 28.39200
C  33.94400 3.89800 27.80800
N  35.76100 3.58500 32.69600
C  34.64200 3.85100 33.31800
C  34.79000 3.66500 34.89500
C  36.35300 3.65800 35.04700
C  36.76300 3.23700 33.63900
C  37.00500 4.95200 35.48200
C  34.04100 2.33300 35.38400
C  33.15000 2.46500 36.67400
H  33.57100 3.43900 37.73900
N  38.02700 2.58300 30.74700
C  38.64000 2.48100 32.01800
C  40.00500 1.94100 31.81400
C  40.18300 1.87600 30.34900
C  38.90000 2.31400 29.74700
C  40.93500 1.56100 33.02800
C  41.38300 1.37400 29.54000
O  41.25800 1.21300 28.32700
C  42.71400 1.16600 30.23600
N  36.29900 3.39100 28.45900
C  37.45900 2.98000 27.77200
C  37.16600 2.98500 26.21500
C  35.62500 3.24700 26.14300
C  35.25200 3.55500 27.54000
C  37.97000 4.02500 25.40300
C  34.77800 2.08700 25.55200
C  34.04400 2.38000 24.24900
N  34.03100 3.92700 30.20600
C  33.32000 4.06000 29.00900
C  31.90000 4.35800 29.37800
C  31.91200 4.41800 30.81500
C  33.28100 4.15200 31.26700
C  30.66200 4.55200 28.55900
C  31.08300 4.76200 31.98500
O  29.82700 4.99300 32.11300
C  32.02500 4.51400 33.24800
C  31.95400 5.77300 33.97000
O  32.40600 6.84000 33.61000
O  31.29700 5.45200 35.15400
C  30.91800 6.58700 36.04300
H  38.71900 2.50300 34.13900
H  39.36900 2.32900 27.63100
H  33.39300 4.20500 26.91600
H  34.42200 4.58800 35.34300
H  36.64800 2.80000 35.65000
H  37.45700 4.84200 36.46800
H  36.39700 5.84700 35.34800
H  37.87100 5.09100 34.83500
H  34.78700 1.55900 35.56500
H  33.32500 2.12400 34.59000
H  33.11800 1.48300 37.14700
H  32.09200 2.54500 36.42400
H  41.05400 0.47900 32.98200
H  40.58600 1.87700 34.01100
H  41.80900 2.16700 32.78900
H  42.61600 0.42700 31.03200
H  43.08700 2.09800 30.66100
H  43.36500 0.74200 29.47200
H  37.40100 2.00200 25.80800
H  35.42700 4.18100 25.61700
H  37.34400 4.67100 24.78600
H  38.80000 3.55600 24.87400
H  38.28900 4.68200 26.21200
H  34.14600 1.78700 26.38700
H  35.38900 1.26100 25.18800
H  33.96700 3.46100 24.13100
H  33.07200 1.89000 24.30800
H  34.53500 1.90000 23.40300
H  30.87200 4.27100 27.52700
H  30.52200 5.63200 28.61500
H  29.77200 4.08100 28.97600
H  31.61400 3.67300 33.80600
H  30.73900 7.58100 35.63400
H  31.78700 6.76100 36.67700
H  30.07400 6.29800 36.67000
Mg -11.24600 17.30300 42.23000
C  -7.69100 16.29600 42.13000
C  -10.03800 20.31600 40.91100
C  -14.31400 17.80000 40.93300
C  -12.00400 13.80600 42.38300
N  -9.14200 18.13200 41.53400
C  -7.89300 17.58100 41.60900
C  -6.81200 18.43700 40.94300
C  -7.50900 19.89600 41.04200
C  -8.99200 19.47400 41.16900
C  -6.99200 20.90400 42.18700
C  -6.42400 17.98300 39.50900
C  -5.00800 17.37300 39.28900
H  -4.97700 16.22000 38.37000
N  -12.11600 18.98500 41.29500
C  -11.48100 20.13700 40.81700
C  -12.41400 21.00200 40.26500
C  -13.71400 20.34700 40.29600
C  -13.42800 18.96300 40.84900
C  -12.01600 22.46400 39.88400
C  -14.98800 21.01800 39.99900
O  -14.98500 22.13700 39.51200
C  -16.28400 20.33800 40.33600
N  -12.83900 15.98600 41.64200
C  -14.07200 16.44300 41.19700
C  -15.02600 15.33700 40.86400
C  -14.23900 14.07900 41.12100
C  -12.96900 14.61300 41.84300
C  -16.39100 15.29000 41.52900
C  -13.96900 13.28500 39.82700
C  -14.72200 11.89600 39.78600
N  -10.17900 15.49600 42.52200
C  -10.63900 14.19200 42.65100
C  -9.57600 13.35400 43.11500
C  -8.42500 14.09300 42.85300
C  -8.81700 15.37300 42.46800
C  -9.63200 11.91000 43.61200
C  -6.95500 14.02600 42.81100
O  -6.28000 13.01500 42.92100
C  -6.47600 15.43100 42.27700
C  -5.38900 15.91100 43.16100
O  -5.34600 17.03900 43.69700
O  -4.45700 14.92700 43.30300
C  -3.53400 15.15900 44.43700
H  -9.75600 21.31900 40.58500
H  -15.33400 17.88200 40.55300
H  -12.12400 12.72100 42.35700
H  -5.93300 18.45600 41.58700
H  -7.32000 20.38100 40.08400
H  -6.90600 21.78800 41.55500
H  -5.99900 20.70800 42.59100
H  -7.67600 21.01300 43.02800
H  -6.48000 18.85500 38.85900
H  -7.15200 17.26100 39.13900
H  -4.79400 16.91800 40.25600
H  -4.29400 18.16900 39.07900
H  -11.56400 22.35700 38.89800
H  -11.29300 22.59200 40.68900
H  -12.70500 23.30500 39.80000
H  -16.16100 19.80100 41.27700
H  -16.51200 19.70700 39.47800
H  -16.94000 21.17800 40.56500
H  -15.25000 15.36800 39.79800
H  -14.68300 13.41700 41.86500
H  -16.95900 14.69600 40.81300
H  -16.80700 16.28600 41.67700
H  -16.48100 14.68300 42.43000
H  -12.89700 13.26500 39.63400
H  -14.33500 13.85300 38.97200
H  -15.24600 11.83800 38.83200
H  -15.45700 11.76000 40.58000
H  -13.98300 11.10300 39.67000
H  -8.76400 11.31600 43.32800
H  -10.52500 11.37500 43.28900
H  -9.60200 11.98900 44.69900
H  -6.10900 15.10900 41.30200
H  -2.89600 14.27600 44.47000
H  -4.17800 15.32300 45.30100
H  -2.95200 16.04500 44.18400

