158

Mg 36.13300 1.90600 29.94300
C  33.77500 2.91400 32.39700
C  38.28200 1.25600 32.41600
C  38.14500 0.90300 27.63400
C  33.57800 2.24500 27.56000
N  36.08400 2.33800 32.18000
C  35.01900 2.69100 33.00400
C  35.37900 2.47700 34.48200
C  36.95000 2.29300 34.43500
C  37.07800 1.88400 32.90700
C  37.76600 3.58500 34.64800
C  34.59000 1.43300 35.24600
C  33.95800 1.81700 36.63800
H  34.57100 2.99500 37.42100
N  38.08300 1.30700 30.01300
C  38.78000 1.12700 31.08500
C  40.13300 0.68400 30.66400
C  40.11600 0.52700 29.26700
C  38.78500 0.93200 28.90200
C  41.30500 0.53700 31.67300
C  41.29000 0.06200 28.38000
O  41.14700 0.03800 27.15200
C  42.64000 -0.41400 28.83200
N  35.84200 1.51400 27.93100
C  36.88500 1.14400 27.16600
C  36.53100 1.31000 25.70300
C  35.04400 1.25200 25.70400
C  34.79200 1.75300 27.12300
C  37.22300 2.50000 24.95600
C  34.42500 -0.17100 25.47700
C  33.22000 -0.23200 24.54800
N  33.99000 2.55000 29.88100
C  33.13500 2.69800 28.82300
C  31.81400 3.09800 29.37200
C  32.01500 3.16600 30.73000
C  33.34200 2.84400 31.03200
C  30.57600 3.24400 28.46100
C  31.39700 3.48000 32.04400
O  30.24900 3.78200 32.30800
C  32.50200 3.32300 33.11900
C  32.57200 4.61600 33.76700
O  33.17600 5.60200 33.35600
O  31.73800 4.68500 34.83000
C  31.76600 5.84500 35.78000
H  39.04100 1.04100 33.17200
H  38.77600 0.45200 26.86500
H  32.74300 2.34200 26.86300
H  35.22100 3.43700 34.97300
H  37.14000 1.46000 35.11200
H  37.25700 4.53000 34.45900
H  38.66300 3.51900 34.03200
H  38.02900 3.50700 35.70300
H  35.24200 0.57100 35.38900
H  33.72500 1.13600 34.65200
H  33.99800 0.89200 37.21400
H  32.88500 1.89800 36.46500
H  41.00500 0.97500 32.62500
H  42.25500 1.01000 31.42400
H  41.39800 -0.54700 31.74000
H  43.41100 -0.60400 28.08600
H  42.55700 -1.32200 29.42900
H  43.02800 0.39200 29.45600
H  36.91400 0.40900 25.22300
H  34.65900 2.07300 25.10000
H  36.40800 3.13600 24.61100
H  37.97700 2.25300 24.20900
H  37.70400 3.20200 25.63700
H  34.18700 -0.65700 26.42300
H  35.20900 -0.79400 25.04700
H  33.52700 -0.85500 23.70800
H  32.85500 0.72200 24.16700
H  32.38300 -0.78000 24.98200
H  29.76000 2.69200 28.92800
H  30.77300 2.71000 27.53100
H  30.41200 4.27300 28.14100
H  32.14700 2.60800 33.86100
H  32.68700 6.40000 35.60000
H  31.84900 5.43500 36.78600
H  30.93500 6.54900 35.74200
Mg 42.11700 40.50400 27.08200
C  41.21100 42.73000 29.52200
C  42.99600 38.35900 29.44700
C  42.90900 38.34000 24.71000
C  41.19600 42.83300 24.52600
N  41.98100 40.51300 29.21600
C  41.50400 41.49200 29.99800
C  41.55500 41.12400 31.48800
C  42.16400 39.72200 31.37600
C  42.38300 39.53300 29.95800
C  43.48300 39.49900 32.27800
C  40.17700 41.25700 32.23000
C  40.14700 42.10500 33.62000
H  39.54200 41.34400 34.84200
N  42.93700 38.62800 27.09000
C  43.25800 37.94400 28.18300
C  43.81400 36.61800 27.85300
C  43.65200 36.53300 26.42000
C  43.06800 37.79900 26.02500
C  44.26900 35.57500 28.79100
C  44.00000 35.43100 25.47500
O  43.76300 35.43900 24.26100
C  44.66300 34.16900 25.99400
N  42.03800 40.59500 24.93800
C  42.37000 39.51000 24.19600
C  42.18100 39.72900 22.67300
C  41.46700 41.16600 22.63800
C  41.57900 41.57600 24.10400
C  43.44200 39.58500 21.78700
C  40.00900 41.30800 22.06800
C  39.50000 42.72400 21.63500
N  41.35000 42.42100 26.94900
C  41.08800 43.26100 25.88100
C  40.61600 44.49500 26.42600
C  40.65900 44.34600 27.86600
C  41.14800 43.06000 28.08100
C  40.34000 45.66500 25.69500
C  40.50800 45.10400 29.12900
O  40.09600 46.21500 29.36400
C  40.74600 44.03900 30.27400
C  41.66900 44.60900 31.30800
O  42.82200 44.81100 31.07100
O  41.02400 44.97000 32.45700
C  41.74800 45.48700 33.61200
H  43.22800 37.69100 30.27900
H  43.11900 37.65100 23.88900
H  41.09800 43.55900 23.71600
H  42.25400 41.68200 32.11200
H  41.35600 39.11300 31.78200
H  43.62100 38.44500 32.52100
H  43.31100 39.91200 33.27200
H  44.32200 39.92600 31.72800
H  39.82400 40.28300 32.56900
H  39.51200 41.71400 31.49700
H  39.55500 42.98000 33.35000
H  41.14800 42.43400 33.90200
H  43.71900 34.64600 28.64000
H  44.19100 35.91700 29.82300
H  45.28800 35.31700 28.50100
H  43.81500 33.77300 26.55300
H  45.54000 34.51200 26.54300
H  44.92500 33.40000 25.26800
H  41.40600 39.07700 22.27200
H  42.04300 41.92700 22.10900
H  43.46500 40.23200 20.91100
H  43.56100 38.58600 21.36700
H  44.37700 39.86700 22.27000
H  39.27200 40.78300 22.67700
H  40.00600 40.83900 21.08400
H  39.13900 42.65800 20.60800
H  40.36300 43.38700 21.57300
H  38.83900 43.22600 22.34200
H  40.54500 45.57000 24.62900
H  41.05200 46.41900 26.03000
H  39.33000 46.03900 25.86100
H  39.77200 43.91200 30.74700
H  42.75200 45.85200 33.39400
H  41.79500 44.60400 34.24900
H  41.20500 46.30400 34.08700

