158

Mg 25.06500 2.04800 29.83400
C  27.56100 2.11400 32.51100
C  22.73700 2.32900 32.01700
C  22.98400 1.97100 27.18800
C  27.82800 1.32900 27.60600
N  25.21200 2.33300 31.96700
C  26.21500 2.45100 32.88800
C  25.67300 2.48200 34.32000
C  24.16200 2.47300 34.04000
C  24.01100 2.35600 32.58200
C  23.39200 1.52400 34.97400
C  26.20800 3.72800 35.16600
C  26.91600 3.39900 36.48100
H  26.88200 4.39500 37.62900
N  23.08500 2.16800 29.62400
C  22.22900 2.29400 30.64600
C  20.85000 2.20300 30.16800
C  20.90500 1.95600 28.77500
C  22.38400 2.04700 28.46300
C  19.68600 2.15200 31.12100
C  19.80600 1.66600 27.73900
O  20.04400 1.51600 26.57400
C  18.44800 1.58200 28.06200
N  25.32500 1.66100 27.71100
C  24.32300 1.72900 26.79500
C  24.77500 1.54900 25.35200
C  26.31600 1.54500 25.56500
C  26.54400 1.48100 27.04800
C  24.10300 0.30300 24.61100
C  27.19300 2.57100 24.72200
C  27.82600 3.77600 25.47000
N  27.25100 1.78700 29.99800
C  28.11600 1.47700 29.00400
C  29.46600 1.39000 29.63300
C  29.25300 1.57000 30.99500
C  27.93100 1.94000 31.13600
C  30.77600 1.04800 28.96000
C  29.86900 1.53200 32.32400
O  31.05200 1.24300 32.69400
C  28.78100 1.95800 33.35400
C  28.68500 0.89900 34.41300
O  27.94100 -0.04100 34.41400
O  29.33800 1.38000 35.58000
C  29.04500 0.69600 36.80900
H  21.99000 2.47300 32.80100
H  22.30600 1.84000 26.34200
H  28.51200 1.01400 26.81600
H  25.91400 1.52800 34.78900
H  23.91000 3.48200 34.36700
H  22.60700 2.10800 35.45400
H  24.06800 1.05200 35.68700
H  22.93300 0.78100 34.32100
H  25.41900 4.44000 35.40800
H  26.94300 4.20700 34.51900
H  27.96900 3.30700 36.21400
H  26.50800 2.43100 36.77000
H  19.12300 1.22100 31.05000
H  18.93000 2.86100 30.78400
H  19.95900 2.27800 32.16900
H  18.44200 0.61600 28.56800
H  17.82100 1.55600 27.17000
H  18.00000 2.36500 28.67300
H  24.40800 2.49300 24.94900
H  26.69600 0.59500 25.19200
H  23.29700 -0.01300 25.27300
H  24.86300 -0.46800 24.48400
H  23.77500 0.76700 23.68100
H  26.55600 3.03400 23.96900
H  28.00100 2.12200 24.14500
H  28.88900 3.53800 25.51100
H  27.47000 3.88100 26.49500
H  27.74800 4.72600 24.94000
H  30.63500 1.14600 27.88400
H  31.07800 0.05000 29.27800
H  31.50800 1.82300 29.18900
H  29.09500 2.90600 33.79100
H  29.95000 0.35400 37.31200
H  28.34400 -0.13800 36.84200
H  28.55500 1.38500 37.49800
Mg 44.53500 4.66100 47.49400
C  42.57900 7.49000 47.00500
C  41.70600 2.80700 46.87900
C  46.44600 1.94900 47.40000
C  47.43600 6.69200 47.73900
N  42.40100 5.13300 46.97900
C  41.82900 6.35300 46.93900
C  40.46600 6.16800 46.41200
C  40.09800 4.69600 46.76500
C  41.50500 4.14900 46.86700
C  39.07000 4.48900 47.90600
C  40.28000 6.55100 44.94200
C  38.99700 7.31200 44.58700
H  39.30400 8.39600 43.57600
N  44.13500 2.58600 47.22100
C  42.84600 2.06000 46.92700
C  43.00600 0.61300 46.72600
C  44.43500 0.33100 46.88400
C  45.06100 1.64400 47.21700
C  41.84800 -0.26400 46.27000
C  44.98900 -1.01200 46.53000
O  44.13100 -1.84400 46.14500
C  46.39200 -1.33000 46.55600
N  46.67000 4.40700 47.24100
C  47.20000 3.13300 47.33900
C  48.69700 3.08700 47.38200
C  49.04200 4.60800 47.63900
C  47.66000 5.29100 47.55700
C  49.22800 2.12000 48.48300
C  49.99500 5.18000 46.57700
C  51.38800 5.55900 46.93500
N  44.95200 6.66400 47.36100
C  46.15600 7.35900 47.51200
C  45.90200 8.81700 47.24100
C  44.46900 8.88600 47.29100
C  43.93200 7.54900 47.29400
C  46.98200 9.90400 47.16200
C  43.38200 9.80200 47.07300
O  43.42400 11.02300 46.93300
C  42.10000 8.93700 47.01100
C  41.23700 9.26600 48.17000
O  41.37800 8.75600 49.29000
O  40.20800 10.13900 47.78500
C  39.19300 10.48600 48.76900
H  40.76500 2.30200 46.64900
H  47.01400 1.01800 47.33600
H  48.31600 7.32700 47.85600
H  39.76500 6.71100 47.04600
H  39.57900 4.22800 45.92900
H  38.81700 5.46500 48.32200
H  39.40700 3.90700 48.76300
H  38.18600 3.99300 47.50500
H  40.35500 5.56300 44.48600
H  41.14400 7.07300 44.53200
H  38.50200 7.68000 45.48500
H  38.39000 6.56800 44.07100
H  41.91400 -0.20800 45.18300
H  40.93100 0.12900 46.70700
H  41.86700 -1.32300 46.52900
H  46.81100 -0.70600 45.76700
H  46.50400 -2.39900 46.37100
H  46.69100 -1.12000 47.58300
H  49.01000 2.76600 46.38800
H  49.48200 4.84000 48.60900
H  48.55400 1.34600 48.85100
H  49.63300 2.68900 49.32000
H  50.02200 1.53400 48.02000
H  49.57300 6.06700 46.10400
H  50.16100 4.46900 45.76800
H  51.52000 5.71000 48.00600
H  51.77000 6.48100 46.49700
H  52.11700 4.85400 46.53500
H  47.85500 9.75100 47.79600
H  46.51900 10.84900 47.44700
H  47.18500 9.92600 46.09100
H  41.49900 9.19500 46.13900
H  38.36900 11.00700 48.28200
H  39.44400 11.09500 49.63700
H  38.85600 9.51300 49.12900

