158

Mg 40.45000 9.42800 29.18200
C  42.25500 10.59200 31.81400
C  38.19600 7.91100 31.40800
C  38.76500 8.18300 26.56600
C  43.04100 10.51400 26.99500
N  40.26000 9.26100 31.30600
C  41.04300 9.88700 32.20100
C  40.50200 9.82100 33.69000
C  39.35700 8.75200 33.46400
C  39.26900 8.58300 31.94200
C  39.40700 7.44400 34.22900
C  40.14400 11.21200 34.24000
C  40.06800 11.32600 35.76100
H  40.91700 12.38400 36.42900
N  38.70500 8.15100 29.00700
C  37.93200 7.66900 30.03800
C  36.79100 6.96200 29.45600
C  36.83300 7.28600 28.05000
C  38.16300 7.90400 27.84200
C  35.79400 6.20600 30.27500
C  35.84400 7.07100 26.89700
O  36.03100 7.54700 25.79000
C  34.57100 6.33500 27.22200
N  40.88700 9.20900 27.08900
C  39.98300 8.70700 26.22500
C  40.44800 8.88600 24.83300
C  41.81800 9.58100 24.92400
C  41.96600 9.81100 26.44200
C  40.55100 7.52600 24.09400
C  41.90200 10.83900 24.07800
C  40.94200 12.01300 24.52700
N  42.31700 10.37900 29.31800
C  43.21700 10.77500 28.35900
C  44.34300 11.46100 29.00900
C  44.01000 11.39200 30.40400
C  42.75800 10.78800 30.50300
C  45.66300 12.06800 28.51100
C  44.43300 11.68100 31.77700
O  45.41300 12.20200 32.22600
C  43.30300 11.23800 32.78200
C  43.78000 10.31300 33.80000
O  44.37400 9.23900 33.59500
O  43.54700 10.71800 35.09500
C  44.03600 9.85800 36.23800
H  37.47900 7.57200 32.15900
H  38.20600 8.02100 25.64200
H  43.83900 10.76200 26.29200
H  41.17800 9.36600 34.41400
H  38.41100 9.21300 33.74900
H  38.54800 7.42700 34.89900
H  40.35400 7.31300 34.75200
H  39.43300 6.57300 33.57500
H  39.17400 11.38000 33.77400
H  40.83800 11.93500 33.81100
H  40.17400 10.30300 36.12100
H  39.02900 11.60600 35.93500
H  34.82400 6.70000 30.22500
H  36.07800 6.06100 31.31700
H  35.84600 5.32200 29.63900
H  34.11500 7.01400 27.94300
H  34.74300 5.30800 27.54300
H  33.99000 6.48100 26.31100
H  39.73200 9.52700 24.31900
H  42.56900 8.86500 24.58800
H  41.58900 7.47200 23.76500
H  39.85100 7.38700 23.27000
H  40.27800 6.70600 24.75900
H  41.53800 10.52700 23.09900
H  42.92600 11.20500 24.15800
H  40.55900 11.94000 25.54500
H  40.09600 12.09200 23.84400
H  41.49400 12.95100 24.48000
H  46.13900 12.49500 29.39300
H  45.52100 12.76000 27.68100
H  46.31800 11.31900 28.06500
H  43.01400 12.13700 33.32700
H  45.05500 9.53200 36.03100
H  43.32900 9.06000 36.46200
H  44.06000 10.44900 37.15300
Mg 16.73400 51.60200 26.57600
C  18.63900 50.25000 29.20900
C  14.12700 52.12100 28.94600
C  14.85400 52.89500 24.18300
C  19.02100 50.50800 24.27800
N  16.55700 51.24800 28.83300
C  17.45900 50.81500 29.71700
C  17.02000 51.00400 31.17200
C  15.43200 51.19300 30.92900
C  15.39300 51.59800 29.44000
C  14.45600 50.03900 31.20300
C  17.75700 52.24100 31.73100
C  17.47800 52.74100 33.15100
H  16.76900 51.69800 34.06300
N  14.84800 52.50000 26.59200
C  13.85200 52.51100 27.58100
C  12.69300 53.33500 27.17000
C  12.95900 53.75800 25.82000
C  14.27600 53.06000 25.47100
C  11.56200 53.71100 28.05400
C  12.28900 54.75900 24.83700
O  12.72600 55.00400 23.73200
C  11.00500 55.44300 25.14800
N  16.80500 51.44700 24.45900
C  15.98100 52.21500 23.71300
C  16.46000 52.17000 22.21900
C  17.80900 51.43900 22.25800
C  17.89100 51.11700 23.74100
C  15.48500 51.60100 21.06500
C  18.99200 52.11300 21.54000
C  19.75300 53.21700 22.26400
N  18.46400 50.43800 26.63600
C  19.34900 50.07200 25.55700
C  20.48000 49.46100 26.20400
C  20.22300 49.40800 27.60800
C  19.01800 50.12100 27.83100
C  21.59100 48.86600 25.37000
C  20.71900 48.90000 28.90000
O  21.65300 48.19000 29.18300
C  19.82300 49.55900 29.96900
C  19.29500 48.53900 30.93000
O  18.42100 47.71100 30.55600
O  19.80400 48.76100 32.17900
C  19.14800 48.05100 33.26500
H  13.30100 52.31700 29.63300
H  14.30800 53.26400 23.31300
H  19.83600 50.29600 23.58300
H  17.14700 50.14300 31.82900
H  15.09000 52.02000 31.55000
H  13.52700 50.42000 31.62800
H  14.86900 49.29600 31.88400
H  14.17400 49.40500 30.36300
H  17.37600 53.03100 31.08400
H  18.80000 52.05900 31.47100
H  16.84900 53.62800 33.07900
H  18.41500 53.05200 33.61300
H  11.62300 53.41200 29.10100
H  10.67500 53.31400 27.56100
H  11.35200 54.78000 28.09600
H  10.44900 55.66400 24.23700
H  11.03400 56.33800 25.76900
H  10.45700 54.74400 25.78000
H  16.63700 53.19700 21.89900
H  17.75700 50.46400 21.77400
H  14.67400 51.16200 21.64600
H  15.85500 50.81400 20.40800
H  14.99700 52.38700 20.48800
H  18.55800 52.41900 20.58800
H  19.61100 51.22400 21.41800
H  20.67300 52.67400 22.47800
H  19.20800 53.44000 23.18100
H  19.96200 54.11500 21.68200
H  21.86400 49.31100 24.41200
H  21.20200 47.86800 25.16800
H  22.48900 48.84000 25.98700
H  20.45400 50.26000 30.51500
H  19.25100 46.97100 33.15900
H  18.07700 48.16500 33.09300
H  19.46600 48.46900 34.22000

