158

Mg 35.47600 2.45000 29.19700
C  33.55800 3.80800 31.94700
C  38.20500 2.48200 31.15800
C  37.21500 1.77500 26.44700
C  32.56300 2.99900 27.22500
N  35.80600 3.10600 31.32900
C  34.85400 3.38900 32.27900
C  35.56700 3.41500 33.67200
C  37.09500 3.15200 33.38500
C  37.05400 2.91400 31.82000
C  38.14200 4.19700 33.77000
C  34.88800 2.59700 34.87200
C  35.66500 1.63400 35.78500
H  36.65300 2.19300 36.76300
N  37.48400 1.97500 28.91100
C  38.45300 2.03100 29.81300
C  39.67100 1.52100 29.24600
C  39.46000 1.32500 27.83600
C  38.00600 1.71300 27.65900
C  40.85500 1.25500 30.06200
C  40.27000 1.01000 26.66300
O  39.95100 0.99700 25.50100
C  41.66500 0.67900 26.96400
N  34.95900 2.43000 27.16000
C  35.81000 1.99700 26.24500
C  35.19100 1.90300 24.89100
C  33.68600 2.00000 25.16400
C  33.72300 2.48400 26.61700
C  35.76300 2.87900 23.86700
C  32.93900 0.62100 25.12700
C  32.99100 -0.36700 23.90800
N  33.41100 3.16000 29.50700
C  32.44800 3.42300 28.57600
C  31.25100 3.97700 29.27900
C  31.71000 4.13800 30.67000
C  32.99600 3.61900 30.73100
C  29.83700 4.33600 28.74100
C  31.26500 4.43100 31.96000
O  30.17000 4.77700 32.28800
C  32.42800 4.17300 32.88900
C  32.66000 5.39300 33.73000
O  33.44900 6.26200 33.53600
O  31.71500 5.39900 34.75100
C  31.58400 6.70400 35.40200
H  39.09000 2.32100 31.77800
H  37.66000 1.49000 25.49200
H  31.71700 3.04900 26.53600
H  35.57800 4.44700 34.02500
H  37.52900 2.28700 33.88500
H  38.51900 4.80400 32.94700
H  39.04200 3.66000 34.07100
H  37.76900 4.79400 34.60200
H  34.17800 1.97400 34.32700
H  34.21300 3.16700 35.51000
H  36.09300 0.84000 35.17300
H  34.94400 1.06400 36.37200
H  41.00600 0.17800 30.13200
H  40.76900 1.58200 31.09800
H  41.74800 1.71400 29.63600
H  41.79800 -0.10200 27.71300
H  42.21100 1.59600 27.18500
H  42.05200 0.24100 26.04400
H  35.40400 0.90700 24.50300
H  33.18200 2.81300 24.64000
H  36.74800 3.25200 24.14800
H  35.22600 3.82300 23.76500
H  35.99100 2.40900 22.91000
H  31.96000 1.06700 24.95300
H  33.10100 0.09900 26.07000
H  31.98900 -0.76500 23.74400
H  33.66700 -1.18600 24.15400
H  33.45400 0.15400 23.07100
H  29.28400 3.44500 28.44400
H  30.02200 4.94500 27.85700
H  29.21900 4.79000 29.51600
H  32.23400 3.27300 33.47300
H  31.12400 7.30100 34.61500
H  32.45500 7.10200 35.92300
H  30.86800 6.67500 36.22300
Mg -12.76100 16.11800 41.87700
C  -9.72300 14.41100 41.49500
C  -11.19500 18.93200 40.65300
C  -15.74000 17.42700 41.48300
C  -14.22700 13.00100 42.68500
N  -10.76000 16.54900 41.02700
C  -9.68800 15.70300 41.03200
C  -8.39600 16.45000 40.57500
C  -8.81000 18.00800 40.71600
C  -10.35800 17.85900 40.82600
C  -8.16100 18.70200 41.92600
C  -7.85200 16.20400 39.08200
C  -6.33500 16.18200 39.00900
H  -5.77100 16.92200 37.80400
N  -13.45600 17.98100 41.06600
C  -12.64100 19.06100 40.77000
C  -13.43300 20.24900 40.53100
C  -14.79700 19.80200 40.67900
C  -14.75400 18.33500 41.12500
C  -12.88200 21.63800 40.05900
C  -16.06300 20.71100 40.62000
O  -16.07100 21.92000 40.25100
C  -17.42200 20.10000 40.88000
N  -14.64100 15.28600 42.04500
C  -15.68300 16.10300 41.95500
C  -16.97800 15.45100 42.29900
C  -16.50500 13.99300 42.61900
C  -15.05500 14.03300 42.41300
C  -17.70900 16.08300 43.46000
C  -17.21800 12.83600 41.70500
C  -17.95300 11.83700 42.57900
N  -12.12900 14.12600 42.14800
C  -12.83000 12.95000 42.47700
C  -11.90700 11.87800 42.68400
C  -10.65700 12.41600 42.35600
C  -10.85600 13.72000 41.95400
C  -12.12700 10.51900 43.22000
C  -9.24100 12.15200 42.28000
O  -8.56500 11.15300 42.50700
C  -8.56700 13.44200 41.66000
C  -7.44300 13.89300 42.56200
O  -7.59500 14.45400 43.65600
O  -6.27200 13.88000 41.82900
C  -5.12600 14.53500 42.45900
H  -10.72400 19.85400 40.30400
H  -16.76900 17.79100 41.44400
H  -14.75700 12.09100 42.97200
H  -7.60900 16.11700 41.25200
H  -8.60000 18.67400 39.87900
H  -8.66900 18.62900 42.88800
H  -8.04100 19.74700 41.64200
H  -7.18000 18.23300 41.99700
H  -8.30400 16.90700 38.38200
H  -8.20500 15.21400 38.79400
H  -6.07000 15.12500 39.03200
H  -5.83500 16.52300 39.91500
H  -13.42400 21.86700 39.14200
H  -11.80600 21.66800 39.88700
H  -13.18300 22.43200 40.74200
H  -18.15400 20.88800 40.70300
H  -17.38100 19.85100 41.94000
H  -17.72200 19.31000 40.19200
H  -17.71700 15.47000 41.49900
H  -16.62000 13.67800 43.65600
H  -17.27700 15.87200 44.43900
H  -18.78500 15.92800 43.39000
H  -17.47100 17.13800 43.59600
H  -16.40000 12.26400 41.26700
H  -17.79000 13.27200 40.88700
H  -18.90100 11.62600 42.08400
H  -18.24600 12.25700 43.54000
H  -17.42600 10.88900 42.69300
H  -12.29700 10.50100 44.29600
H  -11.24700 9.89100 43.07900
H  -13.00200 10.03900 42.78100
H  -8.14800 13.17800 40.68900
H  -5.17100 15.61600 42.32900
H  -4.20700 14.15800 42.00900
H  -4.91500 14.28200 43.49800

