158

Mg 8.25000 2.88400 27.88100
C  9.66400 1.48400 30.73700
C  6.39000 4.94400 29.96300
C  6.71400 4.04900 25.18800
C  9.88400 0.40900 25.93700
N  7.93800 3.09600 30.18600
C  8.77100 2.52300 31.08000
C  8.49600 3.14200 32.49000
C  7.43600 4.24700 32.25100
C  7.23900 4.14500 30.70600
C  6.05900 4.21200 33.00800
C  9.71800 3.80000 33.16800
C  10.03600 3.29700 34.62600
H  10.56900 4.25100 35.67800
N  6.66300 4.20500 27.62400
C  6.08200 4.97900 28.61100
C  5.16000 5.81200 27.94800
C  5.16500 5.57600 26.54800
C  6.14800 4.56300 26.40200
C  4.39300 6.91400 28.68200
C  4.52600 6.39800 25.45300
O  4.78100 6.31600 24.27200
C  3.28300 7.26500 25.69300
N  8.22200 2.26600 25.85700
C  7.70800 3.08500 24.91700
C  8.15800 2.80500 23.51700
C  9.09100 1.58000 23.71100
C  8.99700 1.28800 25.25900
C  6.98500 2.67600 22.57100
C  10.51100 1.83300 23.23900
C  11.61300 2.32800 24.17100
N  9.41700 1.25100 28.22600
C  10.02200 0.34100 27.31800
C  10.71100 -0.64600 28.05700
C  10.63600 -0.24200 29.39700
C  9.93900 0.98000 29.42000
C  11.32800 -1.84000 27.47800
C  11.20500 -0.47800 30.74800
O  11.96500 -1.39800 31.10600
C  10.61700 0.73600 31.66000
C  9.97300 0.19500 32.90500
O  8.84800 -0.27600 32.93100
O  10.76600 0.27800 34.01500
C  10.21200 -0.40800 35.24700
H  5.90800 5.72700 30.55200
H  6.37700 4.54200 24.27400
H  10.35600 -0.22700 25.18500
H  7.95800 2.39100 33.07000
H  7.92300 5.22000 32.31600
H  5.17800 4.04400 32.38900
H  5.91900 5.17900 33.49100
H  6.08600 3.56300 33.88300
H  9.71400 4.88500 33.06400
H  10.58200 3.46600 32.59400
H  10.77600 2.50000 34.54200
H  9.08500 2.87800 34.95300
H  4.88500 7.84200 28.38900
H  4.41800 6.79600 29.76500
H  3.38300 6.77100 28.30000
H  2.67100 7.14600 24.79900
H  3.57100 8.31600 25.65900
H  2.60600 7.05400 26.52100
H  8.78100 3.61500 23.13700
H  8.71000 0.71000 23.17600
H  7.08600 3.40300 21.76500
H  5.95900 2.77500 22.92600
H  6.96000 1.71200 22.06200
H  10.41600 2.55700 22.43000
H  10.92900 0.87400 22.93100
H  11.27800 2.83800 25.07400
H  12.33100 3.01700 23.72700
H  12.24500 1.50900 24.51500
H  11.77900 -1.66300 26.50200
H  10.60600 -2.65700 27.45600
H  12.10700 -2.16100 28.17000
H  11.45600 1.41400 31.81900
H  11.02500 -0.82800 35.83700
H  9.52500 -1.23500 35.06700
H  9.68100 0.21500 35.96700
Mg 34.83300 2.14100 29.30400
C  32.62900 3.13100 31.82100
C  37.35900 2.14800 31.56600
C  36.92100 1.77300 26.80900
C  32.18000 2.67100 26.93900
N  34.98200 2.81200 31.40800
C  33.94500 3.05700 32.26400
C  34.45100 3.26100 33.72700
C  36.01600 3.07700 33.59700
C  36.16500 2.60800 32.09100
C  36.84800 4.34300 33.93700
C  33.76300 2.29900 34.76200
C  33.78100 2.68500 36.26800
H  34.49100 3.98600 36.74700
N  36.82500 1.84400 29.21300
C  37.71800 1.84800 30.23100
C  39.06400 1.45900 29.81200
C  38.95200 1.21200 28.42100
C  37.55600 1.59800 28.07100
C  40.17600 1.25400 30.78700
C  39.91000 0.60300 27.47300
O  39.70600 0.55600 26.24900
C  41.17900 0.00000 27.90700
N  34.62200 2.26800 27.20900
C  35.66900 1.93800 26.39100
C  35.22900 1.79000 24.88600
C  33.71400 1.76200 24.96600
C  33.45700 2.27200 26.49500
C  35.92500 2.77600 23.89400
C  32.96300 0.43600 24.82700
C  31.51000 0.60100 24.29400
N  32.76900 2.72200 29.27900
C  31.80200 2.90800 28.28300
C  30.55900 3.21400 28.88100
C  30.82900 3.22000 30.26300
C  32.18400 2.99000 30.43700
C  29.28100 3.55500 28.21400
C  30.15700 3.48400 31.60400
O  28.96800 3.69100 31.86600
C  31.34600 3.40300 32.70700
C  31.46600 4.75600 33.26300
O  32.03000 5.73600 32.75900
O  30.78000 4.85200 34.50400
C  30.94300 6.02800 35.25900
H  38.14900 1.98200 32.30100
H  37.51700 1.57000 25.91700
H  31.35700 2.58800 26.22600
H  34.21400 4.29400 33.98200
H  36.36000 2.27900 34.25400
H  37.80300 4.21600 34.44700
H  36.20800 5.13400 34.32800
H  37.17400 4.77300 32.99100
H  34.29300 1.34700 34.71900
H  32.72300 2.08600 34.51400
H  34.06100 1.83800 36.89400
H  32.74400 2.75700 36.59600
H  41.12200 1.44900 30.28200
H  40.09100 0.30800 31.32100
H  40.09000 1.94300 31.62700
H  41.93700 0.76000 28.09500
H  41.44900 -0.69300 27.11100
H  40.97500 -0.38800 28.90500
H  35.50800 0.78500 24.57100
H  33.36100 2.58100 24.33900
H  36.54700 2.15500 23.24900
H  36.55800 3.42300 24.50000
H  35.20000 3.24000 23.22500
H  32.89700 0.00100 25.82400
H  33.64100 -0.13400 24.19100
H  31.22400 -0.10700 23.51600
H  31.42200 1.60100 23.86900
H  30.88300 0.50600 25.18100
H  29.24100 2.84200 27.39100
H  29.25300 4.51800 27.70500
H  28.37600 3.41800 28.80500
H  31.03500 2.62900 33.40900
H  31.90300 6.52100 35.10400
H  30.71400 5.78800 36.29700
H  30.16800 6.66400 34.83100

