158

Mg 54.26500 24.54700 45.18500
C  52.06800 26.96600 44.01000
C  52.45200 22.07100 43.61400
C  56.78600 22.42900 45.76700
C  56.23900 27.21000 46.37400
N  52.69200 24.59600 43.64300
C  51.89000 25.73800 43.40200
C  50.73600 25.20100 42.54200
C  50.53000 23.69000 43.02100
C  51.96700 23.40300 43.47300
C  49.32500 23.62000 44.11100
C  50.95300 25.31600 40.94300
C  52.12000 26.20600 40.47400
H  53.45500 25.45600 40.09900
N  54.59200 22.51000 44.71300
C  53.65300 21.69000 44.19200
C  54.19300 20.41100 44.29300
C  55.49400 20.43900 44.81000
C  55.62700 21.80000 45.17600
C  53.36900 19.25600 43.65100
C  56.40700 19.29000 45.03400
O  56.08400 18.17700 44.58400
C  57.70400 19.37000 45.80200
N  56.25700 24.81200 45.70000
C  57.09800 23.76000 46.02100
C  58.44800 24.26000 46.16600
C  58.18200 25.66900 46.75800
C  56.83700 25.99500 46.11500
C  59.48100 23.45900 47.08300
C  59.25700 26.66200 46.31100
C  60.11700 27.20300 47.48000
N  54.09700 26.59600 45.41900
C  54.91200 27.49800 46.03000
C  54.18900 28.74000 46.24800
C  53.09400 28.65300 45.37800
C  53.09500 27.26900 44.93200
C  54.81200 30.00600 46.97000
C  51.91700 29.28500 44.74200
O  51.44800 30.42900 44.76600
C  51.17300 28.19900 43.82400
C  51.17900 28.76400 42.44600
O  52.12900 29.40900 41.95400
O  49.95800 28.60400 41.85800
C  49.74800 29.10600 40.47400
H  51.86200 21.21400 43.28500
H  57.61900 21.80100 46.09000
H  56.75200 28.12900 46.66400
H  49.92800 25.92800 42.62300
H  50.29100 23.03900 42.18100
H  49.75400 23.12700 44.98300
H  48.51000 22.97400 43.78500
H  49.06800 24.63800 44.40700
H  50.06500 25.65600 40.41000
H  51.20500 24.34300 40.52000
H  52.48500 27.01800 41.10300
H  51.69500 26.61400 39.55700
H  53.32900 19.68200 42.64800
H  52.44300 19.16700 44.21900
H  53.84100 18.27600 43.58600
H  58.08400 18.36500 45.98400
H  57.46900 19.77500 46.78600
H  58.47900 19.89000 45.24000
H  59.00600 24.38300 45.23900
H  58.07300 25.68600 47.84300
H  59.69300 24.04000 47.98000
H  60.45700 23.44100 46.59900
H  59.11600 22.47900 47.39000
H  58.77500 27.53600 45.87300
H  59.87600 26.41500 45.44900
H  59.99800 28.23300 47.81800
H  61.11400 27.16300 47.04100
H  60.19700 26.48800 48.29800
H  55.83600 29.98000 47.34100
H  54.08000 30.41900 47.66500
H  54.82800 30.77700 46.20000
H  50.14200 27.97500 44.09700
H  49.58400 30.15700 40.71000
H  48.93500 28.61500 39.94000
H  50.67700 29.02500 39.91000
Mg 27.07700 50.12300 26.74500
C  24.99800 51.06700 29.51200
C  29.34700 49.07100 29.15100
C  29.05400 49.49600 24.20800
C  24.74200 51.57500 24.65700
N  27.15800 50.12300 29.12200
C  26.19900 50.60800 30.00500
C  26.65900 50.41900 31.42600
C  28.11200 49.85800 31.33700
C  28.20400 49.62000 29.81500
C  29.28600 50.80500 31.83500
C  25.74200 49.54100 32.39100
C  25.54400 50.18100 33.87700
H  25.44100 49.14600 34.99200
N  28.91400 49.39400 26.69900
C  29.69700 49.03000 27.74400
C  30.84700 48.39800 27.19100
C  30.89700 48.57900 25.79600
C  29.56300 49.12900 25.53900
C  32.04900 47.82700 28.00800
C  32.00500 48.45100 24.81700
O  31.89200 48.63200 23.65100
C  33.34700 48.05300 25.11500
N  27.02700 50.63600 24.76000
C  27.90300 50.17400 23.88500
C  27.58900 50.47200 22.50400
C  26.09400 50.96000 22.56200
C  25.93000 51.09500 24.06600
C  28.53500 51.50800 21.86900
C  25.06100 49.92500 21.93100
C  23.83200 50.38900 21.11700
N  25.23000 51.13300 26.99800
C  24.43300 51.69500 25.99100
C  23.30100 52.34200 26.64500
C  23.47300 52.09300 28.00000
C  24.60200 51.31100 28.18800
C  22.26900 53.12300 25.86700
C  22.84200 52.32400 29.25800
O  21.75700 52.81700 29.45200
C  23.84700 51.67900 30.34100
C  24.20300 52.70200 31.33200
O  25.20400 53.31600 31.36600
O  23.21000 52.72000 32.33000
C  23.52900 53.55300 33.45400
H  30.10400 48.72800 29.85800
H  29.65300 49.15700 23.36000
H  23.88500 51.74700 24.00300
H  26.69300 51.42300 31.84900
H  28.22100 48.96000 31.94600
H  29.94500 51.08800 31.01500
H  29.90400 50.32300 32.59200
H  28.98900 51.72300 32.34100
H  26.21500 48.57300 32.56100
H  24.82100 49.31000 31.85600
H  24.57500 50.67300 33.79100
H  26.12400 51.05100 34.18600
H  31.97000 47.92600 29.09100
H  32.93400 48.45200 27.89000
H  32.14700 46.76200 27.79800
H  33.27700 47.04300 25.52000
H  33.63500 48.76600 25.88700
H  33.97000 47.97400 24.22400
H  27.59700 49.59200 21.86000
H  26.00800 51.85600 21.94700
H  29.50400 51.45700 22.36400
H  28.11500 52.51400 21.88600
H  28.79700 51.13400 20.88000
H  24.67800 49.21300 22.66200
H  25.66200 49.41800 21.17400
H  23.78500 50.02000 20.09200
H  23.72400 51.47300 21.07600
H  22.92000 50.01400 21.58100
H  22.83600 53.71300 25.14700
H  21.75300 53.77800 26.56800
H  21.46500 52.52700 25.43400
H  23.30500 50.86400 30.82000
H  23.63400 54.60100 33.17400
H  24.43100 53.18200 33.94100
H  22.68000 53.60700 34.13600

