158

Mg 28.35600 57.85300 41.43600
C  25.58600 55.83100 40.48900
C  30.44800 55.60100 39.92900
C  30.89300 60.07700 41.64900
C  25.98100 60.34600 42.39800
N  27.96900 55.86200 40.41900
C  26.80800 55.23100 40.05700
C  27.10100 53.90700 39.30400
C  28.68200 53.94700 39.06400
C  29.07400 55.18900 39.92500
C  29.37000 52.59900 39.54500
C  26.28200 53.82700 37.91500
C  26.52800 55.02000 36.92700
H  26.91200 54.66900 35.47600
N  30.41500 57.76100 40.99200
C  31.08300 56.78800 40.40400
C  32.56000 57.09900 40.35800
C  32.72100 58.36700 40.94700
C  31.31800 58.79300 41.19600
C  33.48300 56.13100 39.95900
C  34.05200 59.03400 41.19500
O  35.08800 58.53000 40.76300
C  34.19900 60.27800 42.02900
N  28.43200 60.02200 41.91400
C  29.61800 60.68300 42.00100
C  29.37500 62.12800 42.34500
C  27.90200 62.12900 42.83300
C  27.40000 60.77900 42.35000
C  30.40500 62.92200 43.25500
C  27.05200 63.36900 42.54500
C  26.37000 64.14400 43.68000
N  26.18200 58.07000 41.60400
C  25.41100 59.12900 42.02700
C  23.98600 58.74700 42.06400
C  24.03100 57.39000 41.54900
C  25.33500 57.07000 41.13800
C  22.89700 59.54900 42.73000
C  23.16400 56.29000 41.20200
O  21.98000 56.07100 41.46900
C  24.07000 55.26100 40.43000
C  23.90900 53.91900 40.97900
O  23.46300 52.97300 40.37700
O  24.30100 53.91500 42.25800
C  24.36000 52.61900 42.90800
H  31.02500 54.88600 39.33900
H  31.71800 60.78700 41.73800
H  25.19600 60.96900 42.83100
H  26.75100 53.00900 39.81400
H  29.05200 54.16700 38.06300
H  29.76400 52.04100 38.69600
H  28.75200 51.93500 40.14900
H  30.21200 52.87300 40.18000
H  25.20200 53.91900 38.03200
H  26.43900 52.88600 37.38700
H  27.30300 55.65600 37.35500
H  25.59400 55.56300 36.77800
H  34.36900 56.04400 40.58700
H  33.80500 56.43800 38.96400
H  33.04700 55.14800 39.77900
H  33.67700 60.11500 42.97200
H  33.79800 61.16600 41.54000
H  35.25100 60.41100 42.28200
H  29.50800 62.68200 41.41500
H  27.87700 61.93700 43.90500
H  31.19400 62.20200 43.47200
H  30.04100 63.29400 44.21300
H  30.83700 63.75000 42.69300
H  26.25800 63.15100 41.83000
H  27.67300 64.12800 42.07000
H  26.45300 63.65200 44.64900
H  25.31600 64.19600 43.40600
H  26.79400 65.13400 43.84800
H  23.17400 59.64400 43.78000
H  21.97800 59.02500 42.46600
H  22.72800 60.55000 42.33100
H  23.67300 55.27400 39.41500
H  24.68900 51.88900 42.16800
H  23.37500 52.36700 43.30100
H  25.01000 52.66600 43.78200
Mg 26.82000 50.48200 26.43200
C  24.76800 51.87200 28.87000
C  28.83800 49.37400 28.99700
C  28.72100 49.22600 24.08900
C  24.77300 52.17100 24.00000
N  26.84700 50.72600 28.67400
C  25.83500 51.24300 29.45300
C  26.01900 50.87400 30.96200
C  27.52300 50.26200 30.97800
C  27.74800 50.05900 29.44500
C  28.74500 50.95700 31.63500
C  24.95400 49.81200 31.53300
C  24.12900 50.26400 32.73900
H  23.99100 49.24000 33.87300
N  28.59700 49.50900 26.55000
C  29.26000 49.11500 27.65600
C  30.44900 48.40500 27.30100
C  30.50200 48.43800 25.89100
C  29.25200 49.09800 25.43500
C  31.43700 47.83800 28.38100
C  31.63200 48.01600 25.02100
O  31.69500 48.11200 23.79200
C  32.81500 47.20300 25.68300
N  26.71800 50.65200 24.33400
C  27.59700 49.96400 23.57500
C  27.34400 50.09100 22.06800
C  25.97800 50.92500 22.08300
C  25.83400 51.25300 23.54000
C  28.52500 50.70100 21.38500
C  24.77300 50.18200 21.40500
C  24.17000 48.86700 22.12500
N  25.08300 51.69200 26.42000
C  24.49600 52.32000 25.38300
C  23.30000 53.05600 25.88600
C  23.39200 52.82800 27.22900
C  24.52600 52.14100 27.53400
C  22.23000 53.75800 25.07000
C  22.62900 53.09200 28.44300
O  21.64700 53.80200 28.71100
C  23.42800 52.41800 29.56500
C  23.64900 53.30500 30.73400
O  24.45000 54.20800 30.79000
O  22.76000 53.05600 31.70600
C  22.75100 53.79800 32.95300
H  29.36900 48.86300 29.80300
H  29.31000 48.73700 23.31000
H  24.22400 52.57400 23.14600
H  25.86600 51.74500 31.59800
H  27.39000 49.24800 31.35700
H  29.47300 51.09400 30.83500
H  29.03400 50.26800 32.42800
H  28.54300 51.90000 32.14300
H  25.38700 48.82600 31.70000
H  24.16400 49.76300 30.78400
H  23.09200 50.54600 32.55500
H  24.54200 51.21500 33.07600
H  31.57100 46.76100 28.28000
H  31.16500 47.94800 29.43100
H  32.42500 48.28000 28.25500
H  33.42100 47.65800 26.46700
H  33.54400 46.89400 24.93300
H  32.48100 46.25700 26.10900
H  27.21600 49.09600 21.64100
H  26.11300 51.84200 21.50800
H  29.29300 50.97600 22.10700
H  28.34600 51.53300 20.70400
H  28.93600 49.94000 20.72100
H  25.12800 49.96700 20.39800
H  23.90900 50.79000 21.13700
H  23.13700 49.15600 22.32000
H  24.65300 48.67400 23.08300
H  24.11600 47.92200 21.58500
H  22.25700 53.36500 24.05400
H  22.33200 54.84400 25.07100
H  21.24400 53.55100 25.48400
H  22.89200 51.52700 29.89300
H  21.87100 53.52800 33.53800
H  22.67700 54.88400 32.89400
H  23.62500 53.63400 33.58400

