158

Mg 43.98500 4.16100 47.69500
C  41.93300 6.86200 46.99900
C  41.21500 2.07400 47.31800
C  46.09700 1.50500 47.55500
C  46.87200 6.20400 47.32600
N  41.77200 4.40500 47.08400
C  41.12500 5.64700 47.02600
C  39.58300 5.49400 46.81700
C  39.44800 3.96900 47.18300
C  40.88800 3.44700 47.23000
C  38.80400 3.77500 48.57500
C  39.06900 5.70100 45.31600
C  38.34300 6.94600 45.08200
H  38.79700 7.80600 43.95300
N  43.69100 2.08700 47.48700
C  42.47200 1.42800 47.36700
C  42.67700 -0.00800 47.28600
C  44.11300 -0.17000 47.27200
C  44.74400 1.19000 47.42300
C  41.56700 -1.04600 47.27300
C  44.78300 -1.57300 47.03400
O  44.20400 -2.64700 46.92600
C  46.23300 -1.72200 46.94700
N  46.23600 3.93500 47.68300
C  46.80700 2.68900 47.72000
C  48.33700 2.81100 47.61600
C  48.59100 4.37700 47.53000
C  47.17000 4.88800 47.53800
C  49.04000 2.12800 48.90400
C  49.52300 4.86400 46.38700
C  51.11200 4.89700 46.47200
N  44.36200 6.12500 47.22300
C  45.56600 6.82800 47.16500
C  45.31500 8.25000 47.06800
C  43.94300 8.28200 47.02600
C  43.35100 6.97500 47.08400
C  46.32800 9.39300 47.04700
C  42.84400 9.18700 46.84000
O  42.90600 10.41500 46.81300
C  41.51000 8.27800 46.83800
C  40.58400 8.74400 47.97900
O  40.68300 8.33300 49.13400
O  39.68400 9.66100 47.54600
C  38.52000 10.03500 48.39200
H  40.27500 1.52800 47.21200
H  46.72200 0.65500 47.27300
H  47.80600 6.77000 47.31000
H  39.13500 6.21100 47.50500
H  38.95100 3.40300 46.39600
H  38.51500 4.63900 49.17500
H  39.57800 3.34000 49.20700
H  37.90800 3.19500 48.35200
H  38.48800 4.83500 44.99600
H  40.00500 5.66000 44.75900
H  38.30500 7.58300 45.96600
H  37.32400 6.62700 44.86400
H  41.72400 -1.74000 48.09900
H  41.52600 -1.59900 46.33400
H  40.57200 -0.60000 47.29900
H  46.58900 -1.01700 46.19500
H  46.47800 -2.76700 46.75700
H  46.73800 -1.53100 47.89400
H  48.54700 2.18600 46.74800
H  49.10200 4.78600 48.40100
H  49.93500 2.71700 49.10400
H  49.44500 1.18400 48.53800
H  48.35600 2.03700 49.74800
H  49.29100 5.90800 46.17700
H  49.31500 4.43500 45.40600
H  51.41300 4.53700 47.45600
H  51.48800 5.89100 46.23000
H  51.47100 4.18000 45.73300
H  46.04900 10.15400 46.31900
H  47.30800 9.03700 46.72900
H  46.26900 9.84300 48.03800
H  40.98000 8.42400 45.89700
H  38.94100 10.25500 49.37300
H  37.86100 9.19700 48.62200
H  37.97000 10.89600 48.01200
Mg 9.69600 48.65300 25.59600
C  8.01400 48.79400 28.50400
C  12.55000 50.03600 27.15900
C  11.37300 48.50000 22.73800
C  6.75000 47.99600 23.89000
N  10.08700 49.47100 27.54000
C  9.32400 49.21200 28.66900
C  10.01900 49.62000 29.93700
C  11.22300 50.50400 29.34000
C  11.32800 49.98000 27.88100
C  11.13100 52.05000 29.38400
C  10.44500 48.48600 30.85700
C  9.85600 48.43700 32.28500
H  10.77700 48.98100 33.34900
N  11.71000 49.19400 25.01500
C  12.70900 49.56400 25.88200
C  13.94800 49.61300 25.18800
C  13.69400 49.21800 23.80300
C  12.22900 48.88200 23.76500
C  15.40500 49.97200 25.84300
C  14.59900 49.02300 22.65100
O  14.27100 48.55900 21.56100
C  15.95600 49.48300 22.86800
N  9.04700 48.39300 23.48800
C  10.01400 48.23800 22.56500
C  9.35200 48.07800 21.12900
C  7.80400 47.98500 21.50200
C  7.85600 48.14100 23.01600
C  9.60500 49.25400 20.14800
C  7.22400 46.65700 21.09900
C  6.21100 46.77700 19.90800
N  7.76100 48.34500 26.08000
C  6.65300 48.13800 25.28600
C  5.51300 47.90300 26.11800
C  6.00300 48.13200 27.43700
C  7.36500 48.42500 27.34800
C  4.16200 47.67600 25.57400
C  5.69600 48.10300 28.83000
O  4.67000 47.86000 29.39900
C  6.93200 48.56400 29.61100
C  7.18800 47.43800 30.48900
O  7.86000 46.46900 30.23200
O  6.52600 47.68300 31.63400
C  6.50800 46.62600 32.64900
H  13.41800 50.42800 27.69200
H  11.86500 48.32700 21.77800
H  5.79700 47.86500 23.37300
H  9.42900 50.27900 30.57300
H  12.20900 50.28800 29.75200
H  11.84800 52.44900 30.10200
H  10.18100 52.53700 29.60600
H  11.47600 52.44300 28.42800
H  11.51900 48.64200 30.95100
H  10.33000 47.56200 30.29000
H  9.64000 47.39700 32.53000
H  8.94000 49.01700 32.40200
H  15.38100 50.27400 26.89000
H  15.86100 50.79400 25.29200
H  16.08000 49.11800 25.77900
H  16.42600 49.03700 23.74400
H  15.88000 50.55300 23.05600
H  16.52300 49.22800 21.97200
H  9.78300 47.17000 20.70800
H  7.23200 48.80800 21.07400
H  9.03300 49.18500 19.22200
H  10.65900 49.43000 19.93600
H  9.31800 50.15900 20.68200
H  6.83100 46.00200 21.87700
H  7.96700 46.08900 20.53900
H  6.54500 46.13600 19.09300
H  6.18100 47.76500 19.44800
H  5.18600 46.57600 20.22000
H  3.85900 48.64000 25.16600
H  3.38400 47.48500 26.31300
H  4.21000 46.82500 24.89400
H  6.79700 49.51200 30.13200
H  6.90500 45.69200 32.25000
H  5.48100 46.59400 33.01200
H  7.18200 46.98000 33.42800

