158

Mg 24.12000 -4.42400 45.46700
C  26.64700 -2.41900 43.86400
C  21.81000 -3.22300 43.18900
C  21.97800 -7.00800 46.16400
C  26.56200 -5.90400 47.30000
N  24.21600 -2.97900 43.75600
C  25.33600 -2.27500 43.28000
C  24.89900 -1.31000 42.09900
C  23.29200 -1.35800 42.18900
C  23.09600 -2.58200 43.15900
C  22.78900 -0.06200 42.80700
C  25.38500 -1.85700 40.67600
C  25.90100 -0.73000 39.75500
H  25.40600 -0.76200 38.33300
N  22.11200 -4.92300 44.89700
C  21.36200 -4.29400 43.94300
C  20.03700 -4.94400 43.90400
C  20.00400 -6.04600 44.76300
C  21.36300 -6.00000 45.34700
C  18.92600 -4.38300 42.92500
C  18.85600 -7.01200 45.09200
O  17.78700 -6.81500 44.53400
C  18.92300 -8.00500 46.13500
N  24.22100 -6.24400 46.52500
C  23.19000 -7.08500 46.77300
C  23.65800 -8.28300 47.58800
C  25.03000 -7.72500 48.23100
C  25.31300 -6.49700 47.30500
C  22.54700 -8.52400 48.63100
C  26.16600 -8.85900 48.37200
C  26.82200 -9.00500 49.83000
N  26.15100 -4.23700 45.64300
C  27.03000 -4.89000 46.52100
C  28.34800 -4.27000 46.42800
C  28.21600 -3.34100 45.37200
C  26.86800 -3.33300 44.96600
C  29.50700 -4.51200 47.33200
C  28.89700 -2.30700 44.68700
O  30.08300 -2.10500 44.78700
C  27.97400 -1.71400 43.57600
C  27.87300 -0.19100 43.77900
O  27.11800 0.35300 44.64600
O  28.66100 0.48800 42.91500
C  28.90600 1.93200 43.27700
H  21.08600 -2.79100 42.49500
H  21.34600 -7.87400 46.37300
H  27.33400 -6.50500 47.78600
H  25.42600 -0.37900 42.30600
H  22.79200 -1.58200 41.24600
H  21.94900 0.27200 42.19700
H  23.54500 0.71700 42.71100
H  22.43700 -0.16900 43.83300
H  24.54100 -2.29600 40.14300
H  26.18600 -2.58100 40.82200
H  26.93600 -0.98600 39.52700
H  25.79700 0.23000 40.26000
H  19.02200 -5.18800 42.19600
H  19.13600 -3.34000 42.68500
H  17.90200 -4.47600 43.28500
H  19.35500 -7.59800 47.04900
H  19.57700 -8.78200 45.73900
H  17.89800 -8.34800 46.28000
H  23.93200 -9.16000 47.00200
H  24.75700 -7.31100 49.20100
H  22.03400 -9.44600 48.35400
H  21.85300 -7.68800 48.70700
H  22.99000 -8.68500 49.61300
H  26.98900 -8.77600 47.66100
H  25.65900 -9.78300 48.09400
H  27.88400 -9.23600 49.91000
H  26.29100 -9.88400 50.19700
H  26.48500 -8.08200 50.30200
H  29.20000 -5.24700 48.07500
H  29.77500 -3.52700 47.71600
H  30.46200 -4.74300 46.86000
H  28.35800 -1.98100 42.59200
H  28.53500 2.58000 42.48300
H  29.97600 2.14200 43.29600
H  28.49200 2.28600 44.22000
Mg 30.15100 57.63200 40.67800
C  27.57900 55.59800 39.47600
C  32.45900 55.49100 39.26200
C  32.61600 60.00800 41.12700
C  27.85400 60.07100 41.47100
N  30.00800 55.81400 39.61200
C  28.88700 55.07400 39.29800
C  29.24600 53.63800 38.66100
C  30.84300 53.64700 38.89000
C  31.15200 55.09100 39.32400
C  31.43400 52.54800 39.89000
C  28.75400 53.48800 37.19600
C  29.06500 54.42200 36.12600
H  27.95200 55.23800 35.33200
N  32.21800 57.76200 40.28300
C  33.01900 56.74200 39.71500
C  34.42900 57.09100 39.92200
C  34.53000 58.37000 40.52800
C  33.07700 58.78100 40.66100
C  35.45700 55.95800 39.73200
C  35.77600 58.95900 41.11600
O  36.87900 58.51500 40.83100
C  35.69300 60.12800 42.05200
N  30.20800 59.87500 41.00800
C  31.35500 60.54100 41.32100
C  31.04800 61.99200 41.71300
C  29.57500 61.85100 42.18800
C  29.16900 60.53700 41.46600
C  31.94600 62.64900 42.82900
C  28.74200 63.06600 41.66400
C  27.53600 63.64600 42.46300
N  28.13200 57.80100 40.56900
C  27.32000 58.87000 40.91600
C  25.90200 58.47900 40.79600
C  26.03300 57.16000 40.25400
C  27.37900 56.83200 40.03600
C  24.72000 59.21800 41.10200
C  25.24300 56.02600 39.87100
O  24.04000 55.79300 39.95200
C  26.22700 55.01600 39.24400
C  25.89400 53.76000 39.83600
O  26.29100 53.33800 40.93900
O  25.03800 53.05200 39.05700
C  24.48600 51.80900 39.59200
H  33.11400 54.70200 38.88700
H  33.33800 60.82200 41.21700
H  27.11900 60.75700 41.89700
H  28.73100 52.96200 39.34400
H  31.29500 53.52100 37.90600
H  31.15000 51.53600 39.60000
H  31.00200 52.73200 40.87400
H  32.52100 52.57700 39.81400
H  27.67000 53.38000 37.15700
H  29.18100 52.52200 36.92500
H  29.66600 53.89300 35.38700
H  29.56600 55.29900 36.53700
H  36.46700 56.29300 39.49600
H  35.26700 55.22700 38.94700
H  35.53100 55.37000 40.64700
H  35.25000 60.97600 41.53000
H  36.73400 60.21600 42.36400
H  35.03300 59.97000 42.90500
H  31.10000 62.49600 40.74800
H  29.54800 61.87800 43.27700
H  32.73400 62.02900 43.25700
H  31.25500 62.96100 43.61200
H  32.34700 63.53200 42.33200
H  28.29300 62.67300 40.75200
H  29.42200 63.89400 41.46500
H  26.59400 63.50200 41.93400
H  27.65900 64.72200 42.58900
H  27.55200 63.17100 43.44400
H  23.96300 58.46700 41.32600
H  24.37400 59.56700 40.12900
H  24.83400 60.02300 41.82800
H  25.99400 55.04300 38.18000
H  25.25900 51.08200 39.84200
H  23.88100 51.22500 38.89900
H  23.89000 52.10800 40.45500

