158

Mg 48.98800 34.94600 26.70400
C  47.01400 33.50100 29.23000
C  49.16400 37.88700 28.53900
C  50.18900 36.57400 23.96200
C  47.73700 32.27300 24.55500
N  48.08100 35.64500 28.67300
C  47.51100 34.80200 29.56800
C  47.69900 35.41800 30.98700
C  47.86800 36.88700 30.59300
C  48.40400 36.81300 29.18800
C  46.62000 37.75800 30.84000
C  48.95300 34.76200 31.69700
C  48.81200 34.21500 33.14900
H  47.82500 34.87700 34.19500
N  49.78300 36.84000 26.40500
C  49.79100 37.90300 27.30400
C  50.47700 38.98900 26.68700
C  50.85200 38.63600 25.36100
C  50.33900 37.30100 25.16000
C  50.59600 40.40600 27.29600
C  51.45400 39.48000 24.26400
O  51.63000 39.01100 23.21700
C  51.95200 40.85800 24.57200
N  48.74900 34.64200 24.57100
C  49.42000 35.43900 23.68300
C  49.18800 34.82800 22.26700
C  48.75400 33.39800 22.53200
C  48.34200 33.41000 23.96500
C  48.17500 35.75200 21.46300
C  49.92500 32.36200 22.38000
C  50.12800 31.94600 20.88200
N  47.76400 33.12300 26.85600
C  47.40500 32.13100 25.90900
C  46.63200 31.17900 26.57700
C  46.39500 31.62100 27.87600
C  47.04500 32.84700 27.97600
C  46.15400 29.93300 25.97600
C  45.79600 31.40700 29.16300
O  45.10800 30.51100 29.61200
C  46.12900 32.63100 30.07900
C  46.79800 31.99400 31.26500
O  47.87000 31.40800 31.33100
O  45.94600 32.02400 32.34100
C  46.17700 31.17500 33.51500
H  49.20200 38.71800 29.24700
H  50.78700 36.90700 23.11100
H  47.50100 31.43300 23.89800
H  46.79400 35.42100 31.59500
H  48.54100 37.38100 31.29400
H  47.03200 38.68500 31.23900
H  45.87300 37.23000 31.43200
H  46.17700 38.11200 29.90900
H  49.68000 35.56700 31.59100
H  49.18000 33.86700 31.11800
H  49.81000 34.30300 33.57900
H  48.50100 33.17400 33.22900
H  51.61000 40.80200 27.23400
H  50.23500 40.52100 28.31800
H  49.84700 40.97100 26.74100
H  52.83800 40.74200 25.19600
H  51.19800 41.57000 24.90900
H  52.41000 41.25900 23.66800
H  50.12800 34.92200 21.72300
H  48.00200 33.19600 21.77000
H  48.09000 36.70400 21.98800
H  47.20000 35.28800 21.31600
H  48.45100 35.84700 20.41300
H  49.66800 31.48400 22.97100
H  50.82600 32.82800 22.77900
H  49.38100 32.33600 20.19100
H  50.05000 30.85900 20.90300
H  51.17800 32.18900 20.71800
H  45.20300 29.53300 26.33000
H  46.87600 29.15100 26.21200
H  46.14700 30.07600 24.89600
H  45.17000 33.05600 30.37300
H  45.57200 31.44700 34.38000
H  47.22300 31.21200 33.81800
H  45.92300 30.15200 33.23900
Mg 9.69600 48.65300 25.59600
C  8.01400 48.79400 28.50400
C  12.55000 50.03600 27.15900
C  11.37300 48.50000 22.73800
C  6.75000 47.99600 23.89000
N  10.08700 49.47100 27.54000
C  9.32400 49.21200 28.66900
C  10.01900 49.62000 29.93700
C  11.22300 50.50400 29.34000
C  11.32800 49.98000 27.88100
C  11.13100 52.05000 29.38400
C  10.44500 48.48600 30.85700
C  9.85600 48.43700 32.28500
H  10.77700 48.98100 33.34900
N  11.71000 49.19400 25.01500
C  12.70900 49.56400 25.88200
C  13.94800 49.61300 25.18800
C  13.69400 49.21800 23.80300
C  12.22900 48.88200 23.76500
C  15.40500 49.97200 25.84300
C  14.59900 49.02300 22.65100
O  14.27100 48.55900 21.56100
C  15.95600 49.48300 22.86800
N  9.04700 48.39300 23.48800
C  10.01400 48.23800 22.56500
C  9.35200 48.07800 21.12900
C  7.80400 47.98500 21.50200
C  7.85600 48.14100 23.01600
C  9.60500 49.25400 20.14800
C  7.22400 46.65700 21.09900
C  6.21100 46.77700 19.90800
N  7.76100 48.34500 26.08000
C  6.65300 48.13800 25.28600
C  5.51300 47.90300 26.11800
C  6.00300 48.13200 27.43700
C  7.36500 48.42500 27.34800
C  4.16200 47.67600 25.57400
C  5.69600 48.10300 28.83000
O  4.67000 47.86000 29.39900
C  6.93200 48.56400 29.61100
C  7.18800 47.43800 30.48900
O  7.86000 46.46900 30.23200
O  6.52600 47.68300 31.63400
C  6.50800 46.62600 32.64900
H  13.41800 50.42800 27.69200
H  11.86500 48.32700 21.77800
H  5.79700 47.86500 23.37300
H  9.42900 50.27900 30.57300
H  12.20900 50.28800 29.75200
H  11.84800 52.44900 30.10200
H  10.18100 52.53700 29.60600
H  11.47600 52.44300 28.42800
H  11.51900 48.64200 30.95100
H  10.33000 47.56200 30.29000
H  9.64000 47.39700 32.53000
H  8.94000 49.01700 32.40200
H  15.38100 50.27400 26.89000
H  15.86100 50.79400 25.29200
H  16.08000 49.11800 25.77900
H  16.42600 49.03700 23.74400
H  15.88000 50.55300 23.05600
H  16.52300 49.22800 21.97200
H  9.78300 47.17000 20.70800
H  7.23200 48.80800 21.07400
H  9.03300 49.18500 19.22200
H  10.65900 49.43000 19.93600
H  9.31800 50.15900 20.68200
H  6.83100 46.00200 21.87700
H  7.96700 46.08900 20.53900
H  6.54500 46.13600 19.09300
H  6.18100 47.76500 19.44800
H  5.18600 46.57600 20.22000
H  3.85900 48.64000 25.16600
H  3.38400 47.48500 26.31300
H  4.21000 46.82500 24.89400
H  6.79700 49.51200 30.13200
H  6.90500 45.69200 32.25000
H  5.48100 46.59400 33.01200
H  7.18200 46.98000 33.42800

