158

Mg 54.08600 24.39200 44.89700
C  51.44600 26.68300 44.16900
C  51.85100 21.86000 44.03100
C  56.75300 22.46400 44.84700
C  56.12400 27.18600 45.47400
N  51.89200 24.24600 44.27100
C  51.09300 25.33700 43.92700
C  49.73200 24.78300 43.29700
C  49.72500 23.32500 43.97300
C  51.20800 23.09100 44.21000
C  48.86500 23.27400 45.26400
C  49.66400 24.80500 41.71000
C  48.23700 25.10900 41.21500
H  48.13700 25.28300 39.77100
N  54.34300 22.45700 44.38000
C  53.28500 21.58800 44.03700
C  53.89000 20.33600 43.83200
C  55.29400 20.39000 44.12400
C  55.56800 21.79400 44.41800
C  53.00100 19.13200 43.48000
C  56.31900 19.25000 43.92700
O  55.87800 18.15700 43.62200
C  57.76200 19.40600 44.13900
N  56.21000 24.86000 44.89600
C  56.99200 23.85000 45.09300
C  58.40900 24.36700 45.35400
C  58.23400 25.92100 45.54900
C  56.76200 26.03700 45.28300
C  59.21100 23.57500 46.41900
C  58.96100 26.75000 44.50700
C  59.26200 28.27800 44.98500
N  53.81600 26.48400 44.96100
C  54.76000 27.43300 45.34600
C  54.03900 28.68400 45.52500
C  52.74100 28.42200 44.97400
C  52.69600 27.10600 44.63000
C  54.50500 29.96200 46.06200
C  51.48300 28.94200 44.75700
O  51.19000 30.06700 44.98200
C  50.52600 27.88900 44.22200
C  50.14200 28.30800 42.88300
O  50.96000 28.55200 41.98100
O  48.76000 28.53200 42.83300
C  48.42400 29.22600 41.57200
H  51.12700 21.04800 43.93400
H  57.63200 21.81700 44.88200
H  56.69500 28.08200 45.72700
H  48.93700 25.43400 43.66200
H  49.39600 22.64900 43.18300
H  48.29800 22.37200 45.03400
H  48.27100 24.18400 45.34800
H  49.56900 23.00600 46.05200
H  49.98600 23.82300 41.36200
H  50.40300 25.46000 41.24900
H  47.80600 25.95800 41.74500
H  47.60400 24.24400 41.41400
H  53.52800 18.19000 43.32600
H  52.41900 19.45400 42.61700
H  52.33400 18.91900 44.31600
H  58.00700 20.22600 43.46400
H  58.15800 18.49900 43.68100
H  58.01400 19.43100 45.19900
H  58.79200 24.12900 44.36200
H  58.44800 26.15000 46.59200
H  59.41500 24.16300 47.31300
H  60.09500 23.12300 45.97000
H  58.52200 22.78900 46.72900
H  58.26900 26.72600 43.66500
H  59.93000 26.38700 44.16300
H  60.33000 28.26000 45.20400
H  58.76100 28.48400 45.93100
H  58.94700 28.94600 44.18400
H  55.47500 30.18600 45.61700
H  54.57300 29.79800 47.13700
H  53.73500 30.72200 45.93200
H  49.68500 27.75800 44.90300
H  49.07700 30.08500 41.41700
H  47.44000 29.69100 41.62200
H  48.48500 28.44300 40.81500
Mg -10.24000 38.80300 42.20300
C  -8.51900 35.73000 41.61600
C  -7.85100 40.34300 40.43900
C  -12.51100 41.32300 41.88100
C  -12.84400 36.76300 43.50100
N  -8.49000 38.04100 40.95900
C  -7.95000 36.79500 40.87100
C  -6.66900 36.75800 40.04400
C  -6.38800 38.25200 39.98000
C  -7.61600 38.95100 40.52900
C  -5.10200 38.83900 40.69500
C  -6.80400 36.03700 38.63300
C  -5.67300 35.07900 38.27400
H  -4.70600 35.42700 37.16600
N  -10.14600 40.71600 41.32400
C  -9.06200 41.20200 40.68100
C  -9.29300 42.58800 40.44400
C  -10.63300 42.92900 40.82500
C  -11.18700 41.66800 41.43600
C  -8.31900 43.40500 39.58900
C  -11.31100 44.28200 40.66900
O  -10.73400 45.21700 40.10900
C  -12.64200 44.57200 41.32000
N  -12.25700 39.05600 42.67000
C  -12.99100 40.16800 42.45900
C  -14.46900 40.08100 42.91200
C  -14.57300 38.53000 43.34300
C  -13.12500 38.04800 43.13200
C  -14.69600 41.08800 44.04000
C  -15.55800 37.54900 42.52900
C  -16.46700 36.73500 43.49600
N  -10.57700 36.73000 42.64600
C  -11.63600 36.07600 43.29500
C  -11.24600 34.68600 43.50100
C  -9.99800 34.47100 42.84500
C  -9.69100 35.77100 42.34800
C  -12.00600 33.67300 44.25600
C  -9.00500 33.53400 42.52800
O  -8.91600 32.38100 42.73800
C  -7.94900 34.32900 41.69900
C  -6.59500 34.18100 42.36200
O  -5.90300 33.17100 42.42800
O  -6.19100 35.40900 42.78800
C  -4.96300 35.46700 43.60400
H  -7.05600 40.86300 39.90100
H  -13.29000 42.07300 41.72300
H  -13.73100 36.24400 43.87000
H  -5.85700 36.30500 40.61400
H  -6.34800 38.49600 38.91800
H  -5.38900 39.74200 41.23300
H  -4.37000 39.10600 39.93300
H  -4.59100 38.18000 41.39800
H  -6.70100 36.80900 37.87100
H  -7.72900 35.46000 38.61900
H  -6.09300 34.11700 37.97900
H  -5.02100 34.76400 39.08800
H  -8.91100 44.07700 38.96700
H  -7.73600 42.86000 38.84600
H  -7.75100 44.12800 40.17400
H  -12.81900 44.18100 42.32200
H  -13.19800 44.02400 40.55900
H  -12.90500 45.62200 41.19300
H  -15.13500 40.30300 42.07800
H  -14.77200 38.39600 44.40600
H  -14.84000 42.13100 43.75900
H  -13.88200 40.91800 44.74400
H  -15.65000 40.85700 44.51400
H  -15.04500 36.87600 41.84100
H  -16.14800 38.38600 42.15700
H  -16.52400 35.69500 43.17400
H  -17.45600 37.16300 43.66000
H  -16.00000 36.77900 44.48000
H  -11.50300 32.71000 44.33900
H  -12.99200 33.70200 43.79300
H  -12.11000 34.01200 45.28700
H  -8.00900 33.85100 40.72100
H  -4.58600 34.49900 43.93600
H  -5.14900 35.95400 44.56100
H  -4.15600 36.01700 43.12000

