158

Mg 36.05800 49.41300 24.61200
C  36.47100 47.14500 27.37000
C  34.79500 51.66100 26.64800
C  35.27600 51.02800 21.84100
C  36.83600 46.44700 22.45100
N  35.65100 49.36400 26.70400
C  36.03200 48.43000 27.69300
C  35.75600 48.90100 29.11900
C  35.00000 50.24500 28.85000
C  35.08000 50.43600 27.32200
C  33.47300 50.37800 29.42100
C  37.05800 49.04900 29.94000
C  37.01900 48.33100 31.32600
H  35.65900 48.56100 32.14800
N  35.27000 51.10400 24.29500
C  34.87400 51.97400 25.29100
C  34.60100 53.19400 24.63100
C  34.77900 53.11200 23.23000
C  35.13000 51.68100 23.06200
C  34.10000 54.37900 25.42600
C  34.68700 54.18000 22.10800
O  34.85700 53.82600 20.96900
C  34.44300 55.56200 22.43200
N  36.22200 48.81900 22.40800
C  35.72300 49.72500 21.54400
C  35.79400 49.16400 20.10500
C  36.72100 47.90000 20.28600
C  36.49600 47.65700 21.78000
C  34.41700 48.85700 19.53400
C  38.19200 48.12100 19.92400
C  38.92100 47.07900 19.16200
N  36.56500 47.25400 24.83200
C  36.79400 46.22400 23.82400
C  37.20200 45.03500 24.56300
C  37.00800 45.31200 25.90900
C  36.68000 46.69100 26.04300
C  37.70700 43.80600 23.91500
C  37.20700 44.80300 27.30700
O  37.58200 43.72100 27.67600
C  36.83600 45.99000 28.33100
C  35.66500 45.48600 29.18800
O  34.48100 45.55500 28.87500
O  36.17600 45.08800 30.34600
C  35.18000 44.69300 31.32400
H  34.45300 52.48600 27.27600
H  34.89000 51.53000 20.95100
H  37.01500 45.58000 21.81200
H  35.00900 48.27200 29.60500
H  35.31100 51.14800 29.37500
H  33.03400 49.46900 29.83300
H  32.81200 50.72700 28.62700
H  33.44500 51.18500 30.15300
H  37.21800 50.09800 30.18700
H  37.86900 48.71600 29.29200
H  37.84300 48.77400 31.88400
H  37.19400 47.29400 31.04000
H  33.66700 55.17500 24.82000
H  34.95500 54.75500 25.98800
H  33.41100 54.00700 26.18400
H  33.41000 55.60100 22.77800
H  34.54300 56.21500 21.56500
H  35.11300 55.98700 23.18000
H  36.22700 49.96200 19.50200
H  36.38500 46.96900 19.82800
H  34.02200 49.82600 19.23100
H  33.70400 48.39700 20.21800
H  34.57900 48.36600 18.57500
H  38.70900 48.37500 20.85000
H  38.26300 49.07700 19.40600
H  38.21500 46.54200 18.52900
H  39.33500 46.39700 19.90400
H  39.72000 47.52500 18.57000
H  36.87200 43.17200 23.61800
H  38.37400 43.25900 24.58200
H  38.17200 44.11600 22.97900
H  37.68800 46.09900 29.00200
H  35.53300 44.85500 32.34300
H  34.87800 43.66500 31.12600
H  34.28800 45.30300 31.18400
Mg -12.58200 37.30800 42.29900
C  -10.11400 34.86000 41.49700
C  -10.66500 39.58700 40.60000
C  -15.26100 39.29000 42.24500
C  -14.55800 34.65200 43.55500
N  -10.60900 37.21400 41.17100
C  -9.84700 36.09700 40.92300
C  -8.48500 36.53200 40.35100
C  -8.52800 38.11400 40.29200
C  -10.04100 38.28100 40.64000
C  -7.57200 38.92200 41.25200
C  -8.28600 35.81600 39.03900
C  -6.96000 35.01500 38.84400
H  -6.04700 35.57100 37.79400
N  -12.96500 39.22900 41.62400
C  -12.00400 40.00100 40.89700
C  -12.59700 41.26800 40.61100
C  -13.93800 41.10100 40.97500
C  -14.13600 39.84600 41.68400
C  -11.87700 42.34200 39.88900
C  -14.91100 42.08900 40.60800
O  -14.62700 43.08600 39.95100
C  -16.36600 41.97100 40.85300
N  -14.63200 37.00600 42.76300
C  -15.50700 37.99900 42.79700
C  -16.92700 37.47800 43.25800
C  -16.59200 36.05600 43.83100
C  -15.15400 35.85800 43.36200
C  -17.68000 38.35700 44.26700
C  -17.53300 34.84500 43.46100
C  -17.79900 33.85400 44.60700
N  -12.38200 35.22100 42.56300
C  -13.22900 34.29900 43.19500
C  -12.62700 32.99400 43.30700
C  -11.38000 33.18800 42.62200
C  -11.30900 34.51200 42.18400
C  -13.22900 31.71200 43.87000
C  -10.26300 32.49000 42.16900
O  -10.00100 31.26000 42.32000
C  -9.32400 33.54600 41.46600
C  -7.98200 33.51800 42.12300
O  -7.08900 32.83900 41.73100
O  -8.03200 34.33300 43.29500
C  -6.75700 34.66100 43.86200
H  -10.02300 40.28500 40.05700
H  -16.12400 39.95900 42.27700
H  -15.07200 33.85900 44.10100
H  -7.80500 36.19500 41.13400
H  -8.46300 38.50200 39.27600
H  -8.17500 39.39100 42.03000
H  -7.07800 39.63100 40.58900
H  -6.86100 38.26900 41.75700
H  -8.29800 36.55300 38.23600
H  -9.04300 35.07700 38.77800
H  -7.09200 33.95100 38.64700
H  -6.43400 34.98900 39.79800
H  -12.03700 43.35600 40.25500
H  -12.12600 42.29400 38.82800
H  -10.79000 42.26400 39.89500
H  -16.71600 40.98100 40.56000
H  -16.95000 42.77200 40.39800
H  -16.53200 41.93700 41.92900
H  -17.57200 37.34200 42.38900
H  -16.33100 36.07000 44.88900
H  -18.59900 38.78400 43.86500
H  -16.92200 39.13000 44.39300
H  -18.01400 37.75400 45.11100
H  -17.08400 34.31500 42.62100
H  -18.44500 35.31800 43.09800
H  -17.16900 34.04200 45.47700
H  -17.63600 32.86600 44.17800
H  -18.85200 33.93500 44.87900
H  -12.72700 30.92100 43.31300
H  -14.28100 31.84200 43.61800
H  -13.03200 31.55700 44.93100
H  -9.05300 33.25100 40.45200
H  -6.53300 35.72600 43.80600
H  -5.90400 34.23900 43.33000
H  -6.77500 34.22900 44.86300

