158

Mg 46.33000 24.89600 28.41500
C  46.85900 26.91900 31.30800
C  44.71200 22.78400 30.58900
C  46.12300 22.71700 25.91400
C  48.07100 27.20200 26.49700
N  45.79400 24.83800 30.74800
C  46.18300 25.70400 31.77100
C  45.67100 25.30500 33.14500
C  45.12800 23.88300 32.77800
C  45.22600 23.82100 31.24400
C  45.98600 22.78000 33.51000
C  44.59600 26.27600 33.69300
C  44.83600 26.77700 35.10900
H  43.69000 26.85400 36.09500
N  45.48400 23.08400 28.28500
C  44.81800 22.37000 29.28200
C  44.42100 21.10400 28.73300
C  44.90900 21.06900 27.37500
C  45.47300 22.39100 27.11100
C  43.63500 20.11200 29.54600
C  44.85600 19.86300 26.44700
O  45.20000 19.89900 25.27200
C  44.40200 18.40700 27.00600
N  46.89900 24.97300 26.46800
C  46.83400 23.89100 25.63600
C  47.69400 24.18000 24.38300
C  48.27600 25.58600 24.58300
C  47.70100 25.99800 25.94400
C  48.78800 23.14800 24.15300
C  47.99200 26.55700 23.44000
C  46.86400 27.54000 23.54700
N  47.21100 26.63800 28.78600
C  47.89700 27.49800 27.95800
C  48.27200 28.73400 28.60400
C  47.82600 28.51800 29.91400
C  47.25600 27.21000 30.00000
C  48.88500 29.97500 28.00400
C  47.84100 29.14900 31.23900
O  48.22400 30.20400 31.65900
C  47.26700 28.14300 32.22100
C  48.25500 27.65600 33.22200
O  49.45600 27.53000 32.91900
O  47.73700 27.57000 34.50300
C  48.56400 27.22700 35.71700
H  44.14400 22.14800 31.27100
H  46.09700 22.01300 25.07900
H  48.57300 27.96100 25.89300
H  46.51100 25.14000 33.82000
H  44.10700 23.72100 33.12200
H  46.69500 22.18300 32.93600
H  45.27700 22.07000 33.93500
H  46.62000 23.19000 34.29600
H  43.61700 25.79800 33.73000
H  44.49300 27.17500 33.08600
H  45.33700 27.74000 35.00900
H  45.67000 26.17300 35.46600
H  42.87400 19.65700 28.91100
H  43.22300 20.57200 30.44400
H  44.29700 19.25200 29.64500
H  44.94400 17.95400 27.83700
H  44.68700 17.73000 26.20100
H  43.33000 18.22800 27.09100
H  47.08400 24.11000 23.48300
H  49.36300 25.60300 24.66200
H  48.43800 22.57200 23.29600
H  48.93200 22.54700 25.05100
H  49.72800 23.60100 23.83900
H  48.01800 26.06700 22.46700
H  48.87900 27.18800 23.49400
H  47.37100 28.47300 23.79500
H  46.19900 27.34600 24.38900
H  46.28300 27.68000 22.63500
H  48.09400 30.46400 27.43500
H  49.64200 29.67300 27.28000
H  49.22200 30.55400 28.86400
H  46.43600 28.60900 32.75100
H  48.11500 26.39200 36.25600
H  48.90200 28.08600 36.29500
H  49.49400 26.89400 35.25600
Mg -10.13800 17.43200 43.04800
C  -6.64000 17.08100 43.00800
C  -9.65100 20.66000 42.04900
C  -13.36000 17.56900 42.23500
C  -10.28800 13.88900 43.01000
N  -8.28700 18.73500 42.62200
C  -6.99600 18.35400 42.61700
C  -6.04800 19.55700 42.43900
C  -7.07900 20.79600 42.39700
C  -8.39800 20.03800 42.26700
C  -6.89100 21.64700 43.63300
C  -5.10900 19.39600 41.12900
C  -5.62700 18.41100 40.02800
H  -5.16000 18.69600 38.59700
N  -11.40400 18.97300 42.49700
C  -11.01700 20.25200 42.12800
C  -12.15900 21.10500 41.99000
C  -13.28200 20.21500 41.93100
C  -12.73000 18.85300 42.18600
C  -12.15100 22.66700 41.75000
C  -14.73800 20.65900 41.61500
O  -14.94500 21.85700 41.30100
C  -15.79300 19.60400 41.50000
N  -11.57700 15.96600 42.44800
C  -12.89000 16.27800 42.33500
C  -13.77600 14.99300 42.30200
C  -12.75100 13.89600 42.64400
C  -11.49600 14.62200 42.78800
C  -15.11200 15.02800 43.07900
C  -12.58600 12.80300 41.58500
C  -12.48700 11.36400 42.24900
N  -8.82500 15.75900 43.14400
C  -9.01400 14.38700 43.07600
C  -7.71700 13.72000 43.27900
C  -6.76400 14.70000 43.27900
C  -7.50900 15.92200 43.15400
C  -7.61400 12.29800 43.34500
C  -5.36900 14.96100 43.34100
O  -4.43300 14.20500 43.57400
C  -5.18600 16.51000 43.17000
C  -4.66300 17.04600 44.42400
O  -3.63100 17.71100 44.50000
O  -5.41900 16.67200 45.53900
C  -4.76400 17.25400 46.78200
H  -9.58300 21.72500 41.81700
H  -14.40500 17.53400 41.92100
H  -10.39700 12.81200 43.15500
H  -5.26100 19.59100 43.19300
H  -6.91500 21.39400 41.50100
H  -5.86000 21.71900 43.97800
H  -7.62200 21.53600 44.43500
H  -6.97400 22.70700 43.39200
H  -4.17700 19.14900 41.63800
H  -4.93600 20.39700 40.73100
H  -6.71600 18.37600 40.04300
H  -5.30500 17.42100 40.35100
H  -12.26200 22.90800 40.69300
H  -11.25500 23.18900 42.08600
H  -12.99400 23.10700 42.28200
H  -15.87100 19.00400 42.40700
H  -15.43200 18.95800 40.70000
H  -16.77300 20.03300 41.29300
H  -14.16600 14.91100 41.28800
H  -13.00700 13.44700 43.60300
H  -16.01400 14.84200 42.49700
H  -15.37500 15.96200 43.57600
H  -15.12300 14.30500 43.89400
H  -11.75900 13.05100 40.91900
H  -13.49700 12.80700 40.98600
H  -13.38400 10.78900 42.01900
H  -12.41800 11.43700 43.33400
H  -11.67600 10.79400 41.79300
H  -7.85900 11.73600 42.44400
H  -8.37400 11.95200 44.04600
H  -6.69700 11.91800 43.79500
H  -4.41200 16.85800 42.48600
H  -3.83900 16.70000 46.93800
H  -5.35700 17.02900 47.66800
H  -4.60200 18.33000 46.84600

