158

Mg 47.74300 15.25700 27.45700
C  45.58600 14.98000 30.26100
C  49.63000 17.39900 29.32100
C  49.68800 15.36100 24.87100
C  45.40400 13.32400 25.67300
N  47.65100 16.02900 29.57900
C  46.73400 15.74600 30.60800
C  47.05500 16.42200 31.94000
C  48.13400 17.47000 31.43200
C  48.57600 16.87000 30.03300
C  47.54500 18.90200 31.32500
C  47.60500 15.38400 32.98300
C  47.07400 15.58500 34.42900
H  48.12600 15.43800 35.58000
N  49.44000 16.22300 27.15900
C  50.08600 17.02800 28.04200
C  51.34700 17.36900 27.45700
C  51.38200 16.84600 26.10500
C  50.11600 16.13900 25.98100
C  52.45500 18.04000 28.22800
C  52.46600 16.86600 25.02800
O  52.28300 16.37500 23.88100
C  53.76200 17.54800 25.22100
N  47.54000 14.44700 25.55600
C  48.56300 14.61700 24.61900
C  48.28800 13.87500 23.35200
C  46.90800 13.13900 23.62500
C  46.61500 13.67100 25.07700
C  48.18100 14.78500 22.11300
C  47.02200 11.62400 23.65200
C  47.61100 10.85300 22.48000
N  45.85300 14.40300 27.87600
C  45.03900 13.68200 27.03400
C  43.82300 13.35300 27.74600
C  43.97000 13.80200 29.09000
C  45.25300 14.48200 29.05500
C  42.58300 12.54200 27.12700
C  43.40100 13.87100 30.37800
O  42.27800 13.55400 30.74300
C  44.50100 14.59000 31.28300
C  43.80900 15.71400 31.95500
O  43.72600 16.87200 31.56900
O  43.48200 15.32400 33.27300
C  42.97300 16.40400 34.18300
H  50.24600 18.05100 29.94300
H  50.46300 15.08100 24.15500
H  44.63600 12.75300 25.14900
H  46.23400 16.97400 32.39800
H  49.06500 17.47800 32.00100
H  48.29400 19.64700 31.59200
H  46.65900 18.93600 31.95900
H  47.33900 19.27700 30.32200
H  48.68900 15.48800 32.94200
H  47.28700 14.37800 32.70800
H  46.40800 14.76700 34.70200
H  46.60400 16.54400 34.64900
H  51.94000 18.42200 29.10900
H  52.86600 18.81500 27.58000
H  53.11900 17.27400 28.63000
H  53.64800 18.62600 25.33100
H  54.33500 17.28700 24.33100
H  54.12500 17.16900 26.17700
H  49.11100 13.20100 23.11500
H  46.12200 13.42800 22.92800
H  49.19700 14.73500 21.72300
H  47.94600 15.83600 22.28300
H  47.57800 14.21800 21.40400
H  46.00400 11.29300 23.86000
H  47.64000 11.35700 24.50900
H  46.92400 10.08600 22.12200
H  48.58100 10.47700 22.80600
H  47.88000 11.43300 21.59700
H  42.21400 11.63700 27.61100
H  42.76900 12.24100 26.09600
H  41.65600 13.11600 27.15500
H  44.72500 13.91600 32.11000
H  42.80000 15.92000 35.14500
H  42.02700 16.88300 33.93400
H  43.70600 17.19700 34.33400
Mg 8.78100 47.85800 25.22000
C  6.99400 48.02100 28.14500
C  11.27300 49.65400 26.84900
C  10.44600 48.01900 22.20700
C  5.90100 46.80300 23.42800
N  9.01100 48.80300 27.17700
C  8.26400 48.63400 28.28500
C  8.83800 49.27000 29.59800
C  9.90200 50.18600 28.95800
C  10.07000 49.55200 27.54200
C  9.44300 51.67200 28.88700
C  9.35700 48.35500 30.64400
C  9.11100 48.87900 32.06900
H  8.65600 47.77700 33.16700
N  10.71400 48.54100 24.74000
C  11.55200 49.20400 25.56800
C  12.76700 49.37000 24.82100
C  12.50100 49.08100 23.47100
C  11.15300 48.49900 23.42600
C  14.13500 49.89300 25.32500
C  13.43300 49.13600 22.25800
O  13.09900 48.79600 21.12800
C  14.88000 49.56600 22.46600
N  8.28800 47.36400 23.13600
C  9.09400 47.52300 22.12400
C  8.43000 47.00200 20.82100
C  7.08000 46.43100 21.23600
C  7.07800 46.81300 22.72700
C  8.44200 48.02700 19.60000
C  6.73500 44.92900 21.03400
C  5.36200 44.63900 20.54200
N  6.87200 47.36600 25.63400
C  5.81100 47.03800 24.81800
C  4.60800 47.13300 25.59900
C  5.05900 47.29900 26.91200
C  6.42400 47.48700 26.91100
C  3.21900 46.96700 25.19400
C  4.65800 47.45500 28.27500
O  3.46700 47.38800 28.65500
C  5.91300 47.74400 29.11500
C  6.15900 46.57500 29.95500
O  7.20300 45.99000 30.01800
O  4.98700 46.34600 30.66200
C  5.01800 45.11900 31.51600
H  11.94300 50.43600 27.21200
H  11.02800 48.04900 21.28300
H  4.94500 46.42800 23.05600
H  8.08800 49.84200 30.14300
H  10.87700 50.15000 29.44400
H  8.36300 51.81100 28.94100
H  9.72300 52.20600 27.97900
H  9.88100 52.24600 29.70300
H  10.43000 48.19000 30.55000
H  8.85500 47.38800 30.61800
H  8.50100 49.78000 32.13700
H  10.11400 49.20300 32.34700
H  15.00900 49.27400 25.12300
H  14.13200 50.04900 26.40400
H  14.32900 50.86700 24.87400
H  15.03500 50.51000 22.98700
H  15.31200 49.69800 21.47400
H  15.41800 48.80900 23.03600
H  8.80100 46.07500 20.38400
H  6.34000 47.10100 20.79800
H  9.14300 48.84500 19.77000
H  7.43100 48.43200 19.56100
H  8.78500 47.48500 18.71800
H  6.91200 44.24500 21.86400
H  7.36500 44.58300 20.21500
H  4.82000 44.02800 21.26400
H  5.36100 44.10500 19.59100
H  4.79800 45.56400 20.42200
H  2.74800 47.80400 24.67900
H  2.77900 46.83100 26.18200
H  3.00800 46.04800 24.64700
H  5.67200 48.59100 29.75800
H  5.77000 44.33800 31.39800
H  4.03400 44.67700 31.35900
H  5.10200 45.49400 32.53600

