158

Mg 2.05700 -0.64600 44.58300
C  5.45200 0.14400 44.05900
C  1.21500 2.27800 42.89600
C  -1.08600 -1.86100 44.27100
C  3.06300 -3.45500 46.23800
N  3.23400 0.89800 43.47800
C  4.58900 1.09300 43.46800
C  4.97200 2.22800 42.55800
C  3.63600 3.09100 42.59400
C  2.62800 1.97900 42.99700
C  3.63700 4.19700 43.64400
C  5.37900 1.70900 41.14500
C  6.68500 2.46700 40.57000
H  6.94200 2.31700 39.03000
N  0.26600 0.00700 43.67700
C  0.15100 1.28500 43.08100
C  -1.22000 1.39400 42.56600
C  -1.91100 0.17000 42.88200
C  -0.97700 -0.63300 43.64100
C  -1.66100 2.50400 41.67400
C  -3.36600 -0.14500 42.41700
O  -4.06900 0.79500 42.02100
C  -3.93500 -1.47000 42.58300
N  1.15300 -2.55500 44.98100
C  -0.15600 -2.66300 44.96700
C  -0.56700 -3.96900 45.64900
C  0.63600 -4.34400 46.47200
C  1.71400 -3.45500 45.87400
C  -1.94600 -3.90300 46.42000
C  1.09400 -5.87100 46.24800
C  1.66500 -6.67700 47.51500
N  3.87800 -1.55400 45.10400
C  4.16800 -2.68700 45.83700
C  5.54500 -2.94700 45.87700
C  6.17400 -1.81800 45.25000
C  5.05500 -1.06800 44.71500
C  6.15600 -4.06500 46.63300
C  7.48300 -1.10800 44.98100
O  8.57700 -1.31000 45.43000
C  6.96900 0.16800 44.13800
C  7.48000 1.34300 44.75400
O  7.45300 1.58500 45.95100
O  8.06400 2.15200 43.72200
C  8.46300 3.46400 44.15900
H  0.86400 3.28800 42.67500
H  -2.06400 -2.34700 44.25100
H  3.37100 -4.32600 46.82000
H  5.76300 2.82500 43.01100
H  3.37800 3.51800 41.62500
H  4.45100 4.29500 44.36200
H  2.69800 4.32000 44.18200
H  3.71300 5.08600 43.01800
H  4.59400 1.64600 40.39200
H  5.68000 0.66800 41.26400
H  7.55800 1.98000 41.00500
H  6.47800 3.51000 40.81100
H  -1.31300 2.24300 40.67500
H  -1.33700 3.53200 41.83700
H  -2.74900 2.53200 41.61400
H  -4.80600 -1.60000 41.94000
H  -4.04300 -1.80300 43.61500
H  -3.25800 -2.19900 42.13900
H  -0.67600 -4.67800 44.82800
H  0.49400 -4.07700 47.51900
H  -2.02700 -4.64200 47.21700
H  -2.77200 -4.21800 45.78200
H  -2.14400 -2.89200 46.77600
H  1.88700 -5.98700 45.51000
H  0.22800 -6.35700 45.79900
H  1.31300 -6.25300 48.45600
H  2.73900 -6.49300 47.48100
H  1.58500 -7.75300 47.36700
H  7.24600 -4.08100 46.60800
H  5.77200 -4.87800 46.01700
H  5.83600 -4.19400 47.66700
H  7.50100 0.09600 43.18900
H  9.08100 3.97300 43.42000
H  9.09100 3.45600 45.05100
H  7.65700 4.18500 44.29500
Mg 41.46900 9.32600 29.83500
C  43.39200 10.55300 32.47500
C  39.34600 7.94600 32.18600
C  39.58100 8.24700 27.25200
C  43.90700 10.28100 27.59700
N  41.48400 9.09200 32.14100
C  42.27200 9.86500 32.94100
C  41.82400 9.81900 34.36200
C  40.65000 8.77400 34.28000
C  40.43200 8.57900 32.81300
C  41.04600 7.40100 34.86500
C  41.50500 11.21200 34.92400
C  40.39100 11.36800 36.03000
H  40.92000 11.89000 37.34300
N  39.73800 8.18100 29.74600
C  39.00700 7.74600 30.85100
C  37.83000 6.98100 30.34700
C  37.90100 7.11800 28.91900
C  39.11600 7.82100 28.60200
C  36.84600 6.27400 31.29500
C  36.83200 6.72500 27.89800
O  36.90100 6.90200 26.65000
C  35.66000 6.08900 28.49100
N  41.65000 9.25600 27.75900
C  40.66500 9.04000 26.92600
C  41.15300 9.11700 25.44900
C  42.40600 10.01400 25.52500
C  42.71700 9.78800 27.02900
C  41.50300 7.77200 24.85200
C  42.14100 11.45800 25.10900
C  41.19600 12.34400 25.89200
N  43.34000 10.10600 29.93800
C  44.21600 10.52400 28.96200
C  45.40200 11.04900 29.51600
C  45.09200 11.12300 30.89400
C  43.80100 10.58000 31.08800
C  46.51800 11.73400 28.83400
C  45.53000 11.59100 32.15200
O  46.55200 12.15100 32.54600
C  44.46900 11.21900 33.21200
C  45.16700 10.31200 34.19100
O  45.40000 9.10800 34.05700
O  45.58500 11.11600 35.26600
C  46.32300 10.41100 36.27300
H  38.62900 7.62300 32.94500
H  39.05600 7.79900 26.40600
H  44.71600 10.65900 26.96900
H  42.63600 9.47700 35.00300
H  39.64000 9.10500 34.52100
H  40.20300 6.80000 35.20600
H  41.77900 7.52500 35.66200
H  41.45900 6.79500 34.05800
H  41.16000 11.85900 34.11800
H  42.45200 11.63200 35.26600
H  39.91000 10.42200 36.27800
H  39.63200 12.07800 35.70300
H  35.83800 6.68900 31.26000
H  37.18800 6.37900 32.32400
H  36.86500 5.24400 30.94100
H  35.97500 5.17800 29.00100
H  34.91600 5.85800 27.72800
H  35.11600 6.76700 29.14900
H  40.43200 9.62300 24.80700
H  43.26800 9.60800 24.99600
H  42.47600 7.81100 24.36100
H  40.77700 7.52700 24.07700
H  41.54700 6.96100 25.57900
H  41.74500 11.31800 24.10300
H  43.08200 11.99500 24.99200
H  40.75100 11.85700 26.75900
H  40.38900 12.64500 25.22400
H  41.59500 13.31000 26.20100
H  46.89800 12.50300 29.50700
H  46.52600 12.04900 27.79100
H  47.21800 10.89900 28.82400
H  44.13700 12.11300 33.74000
H  47.31600 10.11200 35.93600
H  45.79800 9.54100 36.66900
H  46.52200 11.06600 37.12100

