158

Mg 0.89300 8.45700 25.69800
C  1.75000 10.40900 28.46200
C  1.12400 5.70800 27.63900
C  0.50000 6.57000 22.87000
C  1.23200 11.27700 23.71500
N  1.35000 8.05400 27.79300
C  1.56800 9.04500 28.78100
C  1.34700 8.40700 30.16500
C  1.47600 6.87900 29.89100
C  1.28600 6.85700 28.35400
C  2.83800 6.24600 30.20400
C  -0.03800 8.74500 30.85000
C  -0.15200 8.62500 32.40100
H  1.08000 8.25300 33.26400
N  0.78300 6.40600 25.28100
C  0.93400 5.42400 26.28400
C  0.75800 4.11900 25.60800
C  0.52100 4.29800 24.25400
C  0.59700 5.79000 24.03200
C  0.84100 2.84200 26.43900
C  0.34300 3.35500 23.10100
O  0.31100 3.74100 21.95300
C  0.25300 1.87600 23.40900
N  1.04200 8.82300 23.57100
C  0.68900 7.89200 22.66900
C  0.72500 8.42000 21.28900
C  0.83600 9.98700 21.48600
C  1.12500 10.07000 23.00800
C  1.75600 7.82000 20.32000
C  -0.39200 10.86000 21.03000
C  -1.52200 10.96400 21.98400
N  1.39300 10.38500 25.98100
C  1.36100 11.45200 25.09300
C  1.58200 12.72900 25.77100
C  1.73200 12.32000 27.10400
C  1.62100 10.93100 27.15700
C  1.74300 14.06100 25.19100
C  1.97600 12.86300 28.50300
O  2.25000 13.95300 28.90800
C  1.83300 11.54400 29.34500
C  3.01400 11.36700 30.23700
O  4.08000 11.02200 29.87200
O  2.63900 11.61600 31.54000
C  3.77300 11.50600 32.46500
H  1.03800 4.85600 28.31700
H  0.31600 6.06100 21.92100
H  1.13000 12.22000 23.17400
H  2.06900 8.68500 30.93300
H  0.62100 6.37200 30.33900
H  2.54500 5.61700 31.04500
H  3.50500 7.02600 30.57300
H  3.24800 5.53400 29.48800
H  -0.74000 7.96400 30.55900
H  -0.34400 9.70200 30.42700
H  -0.93900 7.92100 32.67100
H  -0.49500 9.60200 32.74000
H  -0.16300 2.45100 26.60400
H  1.38800 2.97700 27.37200
H  1.47800 2.13400 25.91000
H  -0.08900 1.26200 22.57600
H  -0.58300 1.82900 24.10800
H  1.16500 1.44400 23.82000
H  -0.28400 8.11100 21.01800
H  1.73600 10.49300 21.13600
H  2.44100 7.07900 20.73300
H  2.37400 8.69700 20.13000
H  1.28000 7.47500 19.40200
H  -0.60400 10.35100 20.09000
H  -0.04500 11.85800 20.76400
H  -1.53100 10.18500 22.74600
H  -2.40600 10.76700 21.37600
H  -1.59200 11.90700 22.52600
H  2.47200 14.03700 24.38100
H  1.98600 14.75000 26.00000
H  0.76000 14.39000 24.85400
H  1.03300 11.71400 30.06500
H  4.53600 12.27800 32.36200
H  4.11300 10.47300 32.39300
H  3.35400 11.62400 33.46400
Mg 24.25800 -6.52100 46.87600
C  26.68600 -4.09000 45.66000
C  22.03000 -5.25600 44.48300
C  22.35200 -9.23900 47.24400
C  26.98300 -8.12600 48.40100
N  24.34300 -4.80100 45.34300
C  25.47400 -4.06400 44.95800
C  25.16000 -3.16900 43.78100
C  23.63900 -3.47200 43.47900
C  23.30000 -4.63400 44.44500
C  22.79700 -2.23200 43.46300
C  26.07900 -3.33700 42.58000
C  26.92700 -2.18100 42.15700
H  27.02100 -1.83600 40.64400
N  22.29800 -7.01600 46.15600
C  21.59200 -6.34400 45.27900
C  20.32900 -7.01600 45.12800
C  20.38000 -8.18800 45.87400
C  21.65400 -8.13900 46.54300
C  19.16200 -6.44800 44.27600
C  19.20600 -9.17200 45.94500
O  18.32100 -9.14800 45.10700
C  19.09100 -10.11700 47.10000
N  24.68700 -8.44900 47.72400
C  23.64600 -9.37700 47.81500
C  24.23300 -10.68400 48.53100
C  25.71700 -10.22600 48.90100
C  25.82500 -8.85600 48.33200
C  23.35500 -11.18800 49.69400
C  26.87400 -11.13500 48.42800
C  27.87300 -11.66400 49.52800
N  26.37400 -6.14000 47.12700
C  27.24600 -6.88300 47.80300
C  28.54400 -6.21600 47.84100
C  28.31800 -5.10100 47.04200
C  27.02600 -5.12400 46.56200
C  29.82700 -6.65100 48.49100
C  28.97200 -3.91600 46.43600
O  30.14400 -3.56200 46.49900
C  27.87600 -3.20400 45.54300
C  27.58800 -1.78700 45.96500
O  26.55000 -1.36900 46.42200
O  28.74400 -1.02100 45.79900
C  28.45500 0.37400 46.00000
H  21.32500 -4.87600 43.74100
H  21.81400 -10.18700 47.30600
H  27.82400 -8.57700 48.93300
H  25.16000 -2.11200 44.04600
H  23.54200 -3.89200 42.47800
H  23.35400 -1.29800 43.53200
H  22.14300 -2.34100 44.32900
H  22.22100 -2.34800 42.54500
H  25.50900 -3.58800 41.68600
H  26.73700 -4.19400 42.72200
H  27.94200 -2.46600 42.43400
H  26.70100 -1.20400 42.58600
H  18.43500 -6.13600 45.02600
H  18.76800 -7.20200 43.59500
H  19.52200 -5.70900 43.56100
H  18.18200 -10.71700 47.12500
H  19.49000 -9.78200 48.05700
H  19.84500 -10.82300 46.75000
H  24.28700 -11.47200 47.77900
H  25.68900 -10.04700 49.97600
H  23.93800 -11.29500 50.60800
H  22.88200 -12.10600 49.34600
H  22.59400 -10.43100 49.88800
H  27.46200 -10.66900 47.63700
H  26.41700 -11.96000 47.88100
H  27.67900 -12.72300 49.69700
H  27.54100 -11.35700 50.52000
H  28.93000 -11.44100 49.38300
H  30.40800 -5.84900 48.94600
H  30.43900 -6.96300 47.64400
H  29.74100 -7.39400 49.28500
H  28.31900 -3.21000 44.54700
H  28.79300 1.10100 45.26100
H  28.98700 0.67800 46.90200
H  27.43100 0.70000 46.18000

