158

Mg 16.84900 51.46700 26.01400
C  18.85700 50.14100 28.62600
C  14.82200 52.70400 28.45000
C  15.14200 52.94800 23.49300
C  19.30900 50.27700 23.78600
N  16.74600 51.15700 28.28700
C  17.70900 50.70100 29.14600
C  17.30100 51.03600 30.64200
C  15.80000 51.43900 30.41400
C  15.78600 51.77900 28.98900
C  14.69800 50.53200 30.85900
C  18.34300 51.99100 31.28300
C  18.47000 51.87000 32.84500
H  17.47300 51.13100 33.69500
N  15.14000 52.62900 25.99700
C  14.44000 53.00900 27.12200
C  13.28600 53.75900 26.70300
C  13.33800 53.87200 25.28400
C  14.57000 53.12900 24.83800
C  12.27800 54.30100 27.68300
C  12.44300 54.66500 24.38700
O  12.56500 54.65200 23.16500
C  11.48200 55.58700 24.90100
N  17.10500 51.50700 23.91900
C  16.36300 52.27300 23.10300
C  17.03000 52.25400 21.71800
C  18.18400 51.28700 21.75900
C  18.23600 51.03900 23.24300
C  16.02200 52.10800 20.53800
C  19.41300 51.76100 20.99700
C  20.39400 50.74600 20.28700
N  18.66900 50.37900 26.08700
C  19.53400 49.95000 25.08600
C  20.64500 49.22700 25.67500
C  20.38000 49.33900 27.07900
C  19.20000 49.99200 27.27200
C  21.86000 48.66700 24.94800
C  20.95300 48.91100 28.28200
O  21.90000 48.15800 28.46300
C  20.05300 49.58800 29.37200
C  19.70500 48.63700 30.45600
O  18.90000 47.71600 30.28400
O  20.48000 48.85900 31.50600
C  20.25900 47.93100 32.65500
H  14.27100 53.22200 29.23700
H  14.65900 53.50200 22.68500
H  20.11900 49.98200 23.11600
H  17.41800 50.13400 31.24300
H  15.57300 52.28200 31.06600
H  14.48000 49.76600 30.11500
H  13.74500 50.99800 31.11100
H  14.93700 50.21300 31.87400
H  17.95600 52.96200 30.97100
H  19.36500 51.90800 30.91500
H  18.67200 52.88200 33.19600
H  19.36400 51.27800 33.04400
H  11.23700 54.37100 27.36800
H  12.68600 55.26200 27.99400
H  12.35600 53.82100 28.65800
H  11.91200 56.32100 25.58400
H  10.70300 55.11900 25.50300
H  11.06100 56.22100 24.12200
H  17.47200 53.23700 21.55400
H  17.94000 50.31900 21.32200
H  15.01400 52.00000 20.93800
H  16.14700 51.31600 19.79900
H  16.13900 53.02700 19.96400
H  20.05400 52.30900 21.68800
H  19.07300 52.44800 20.22300
H  20.46400 51.05200 19.24300
H  20.01700 49.72300 20.28700
H  21.37400 50.67100 20.75900
H  21.81400 47.58200 24.84800
H  22.83500 48.82300 25.41000
H  21.78800 49.11400 23.95600
H  20.59400 50.43600 29.79100
H  20.20000 46.91600 32.26000
H  19.45300 48.17500 33.34700
H  21.10600 47.95000 33.34100
Mg -12.69500 36.92200 42.86800
C  -9.92400 34.95100 42.04700
C  -10.94600 39.70400 41.47500
C  -15.43000 38.75400 43.23500
C  -14.42300 34.04800 43.99700
N  -10.70500 37.24500 41.74200
C  -9.81700 36.19800 41.47000
C  -8.59200 36.81000 40.69600
C  -8.84200 38.34800 40.65300
C  -10.23500 38.48000 41.37600
C  -7.77700 39.41600 41.11900
C  -8.37700 36.09600 39.31700
C  -6.98600 35.48400 38.99100
H  -6.13000 36.34500 37.99900
N  -13.07700 38.88200 42.53800
C  -12.27400 39.83700 41.99300
C  -13.04000 41.09800 41.83800
C  -14.37200 40.78900 42.10000
C  -14.34600 39.41000 42.58400
C  -12.43500 42.42600 41.36400
C  -15.52200 41.72000 41.98200
O  -15.37400 42.86100 41.62500
C  -16.93400 41.37500 42.25400
N  -14.81400 36.37400 43.24800
C  -15.64200 37.44300 43.63500
C  -16.92500 36.92900 44.17100
C  -16.58900 35.35200 44.38500
C  -15.18100 35.25900 43.84100
C  -17.45000 37.68500 45.47500
C  -17.54200 34.54000 43.56200
C  -18.88300 34.19100 44.17400
N  -12.33700 34.94600 43.03500
C  -13.06500 33.93100 43.66000
C  -12.19700 32.75900 43.74200
C  -10.99400 33.09300 43.09900
C  -11.12700 34.43500 42.76700
C  -12.52700 31.36000 44.37800
C  -9.65400 32.66600 42.66000
O  -9.14500 31.55100 42.70200
C  -8.90800 33.90800 42.11400
C  -7.84200 34.09100 43.22000
O  -6.65500 33.91000 43.02500
O  -8.31700 34.57400 44.37300
C  -7.45800 34.48700 45.57500
H  -10.38500 40.55800 41.08800
H  -16.18800 39.44900 43.60500
H  -14.99700 33.19300 44.36100
H  -7.70600 36.68200 41.31800
H  -9.18800 38.67600 39.67200
H  -6.92500 38.79200 41.38800
H  -8.19900 39.94400 41.97400
H  -7.43400 40.19100 40.43400
H  -8.57000 36.79700 38.50500
H  -9.01000 35.24300 39.07300
H  -7.12300 34.50700 38.52800
H  -6.26600 35.45600 39.80800
H  -12.73500 43.24300 42.02100
H  -12.87200 42.77700 40.42900
H  -11.36000 42.36400 41.19600
H  -17.57300 42.01700 41.64800
H  -17.14000 41.53000 43.31300
H  -17.12300 40.35400 41.92000
H  -17.72700 37.00600 43.43600
H  -16.60200 35.06600 45.43600
H  -18.28400 38.34500 45.23700
H  -16.69600 38.37300 45.85800
H  -17.70300 36.94200 46.23100
H  -17.09600 33.58000 43.29900
H  -17.74200 34.99200 42.59000
H  -18.94900 33.16700 44.54200
H  -19.69900 34.38200 43.47700
H  -19.04700 34.88200 45.00200
H  -13.29300 30.84600 43.79700
H  -12.89700 31.38700 45.40300
H  -11.63300 30.74500 44.27400
H  -8.48600 33.68800 41.13300
H  -6.44700 34.67500 45.21400
H  -7.51000 33.56000 46.14600
H  -7.71400 35.37200 46.15800

