158

Mg 45.69200 5.26600 47.33500
C  43.43300 7.88700 46.47700
C  42.95800 3.05900 46.91200
C  47.73100 2.64900 47.21200
C  48.28300 7.55300 47.45400
N  43.45900 5.45300 46.40900
C  42.82300 6.67500 46.23600
C  41.35100 6.46400 45.88500
C  41.17500 4.91400 46.26800
C  42.57700 4.41600 46.59200
C  40.27800 4.62700 47.41800
C  40.99400 6.78300 44.32800
C  39.97800 7.86000 44.02600
H  40.39000 8.83300 42.90900
N  45.43400 3.14900 47.09200
C  44.19800 2.45900 47.03900
C  44.49100 1.07200 46.92700
C  45.86600 0.81200 46.90600
C  46.43900 2.23900 47.00800
C  43.33700 0.06700 46.89600
C  46.51100 -0.60600 46.71900
O  45.80500 -1.58500 46.54200
C  48.01300 -0.69100 46.64200
N  47.72900 5.17100 47.22200
C  48.30000 3.95900 47.37200
C  49.87200 4.09700 47.52200
C  50.05400 5.65900 47.77300
C  48.59900 6.17100 47.49300
C  50.51200 3.24600 48.67700
C  51.08400 6.33700 46.83400
C  51.93700 7.62100 47.30800
N  45.86500 7.30000 47.14200
C  47.00900 8.12200 47.14400
C  46.56500 9.50200 47.00800
C  45.20300 9.43900 46.82200
C  44.78500 8.08400 46.80900
C  47.52500 10.59900 46.98500
C  44.03800 10.25900 46.62000
O  43.94500 11.47600 46.58000
C  42.86000 9.33400 46.28200
C  41.72500 9.55900 47.24000
O  41.48900 8.97300 48.29500
O  40.88000 10.44800 46.69400
C  39.56000 10.67100 47.45100
H  42.09800 2.39200 46.99300
H  48.45500 1.83300 47.26300
H  49.10900 8.21000 47.73100
H  40.81100 7.10800 46.57900
H  40.83300 4.32100 45.41900
H  40.49300 3.65800 47.87000
H  39.22400 4.78400 47.19000
H  40.42800 5.31100 48.25400
H  40.49500 5.91000 43.90700
H  41.92200 6.99500 43.79800
H  39.99800 8.47000 44.92900
H  39.04200 7.36400 43.77000
H  43.53400 -0.79700 47.53000
H  43.27700 -0.35700 45.89400
H  42.30500 0.38200 47.05300
H  48.54200 -0.39200 47.54700
H  48.32400 0.00100 45.85900
H  48.21900 -1.73900 46.42400
H  50.37700 3.95600 46.56700
H  50.32300 5.87700 48.80700
H  51.34600 2.64100 48.32200
H  49.72100 2.67700 49.16700
H  50.92300 3.71800 49.57000
H  50.60300 6.63700 45.90400
H  51.78300 5.51500 46.68100
H  52.79800 7.23900 47.85600
H  51.41600 8.18500 48.08100
H  52.08500 8.33200 46.49400
H  48.01500 10.77600 47.94300
H  46.90200 11.37600 46.54300
H  48.18900 10.15600 46.24200
H  42.52000 9.46600 45.25500
H  39.68400 11.33700 48.30500
H  39.07800 9.77100 47.83500
H  38.86300 11.08600 46.72300
Mg 49.19000 36.06300 27.59500
C  47.17500 34.59000 30.02400
C  49.63700 38.68800 29.61200
C  50.38000 37.81300 24.99200
C  48.52600 33.37100 25.52000
N  48.56700 36.55200 29.62800
C  47.84500 35.77600 30.45600
C  48.00200 36.26900 31.95200
C  48.48800 37.71500 31.74200
C  48.95500 37.66900 30.28800
C  47.39600 38.80200 31.82900
C  49.08800 35.42900 32.65800
C  49.03800 35.40100 34.21300
H  48.11700 36.42000 34.91800
N  49.93900 38.02700 27.34200
C  50.05400 38.93600 28.27500
C  50.63200 40.17900 27.70700
C  50.87700 39.92700 26.34600
C  50.33800 38.55100 26.18500
C  50.88800 41.34300 28.48100
C  51.47400 40.82300 25.25500
O  51.54400 40.49700 24.09400
C  52.18600 42.10400 25.63800
N  49.16100 35.68800 25.45800
C  49.94900 36.51200 24.74200
C  50.35100 35.87600 23.40100
C  49.72300 34.41100 23.54200
C  49.12900 34.45800 24.95700
C  50.14000 36.54400 21.97900
C  50.75900 33.24600 23.22400
C  50.53400 32.42300 21.91900
N  48.10400 34.30700 27.68600
C  48.05500 33.27200 26.84600
C  47.19900 32.21500 27.38600
C  46.72700 32.72800 28.58400
C  47.42200 33.94000 28.76500
C  46.86800 30.94500 26.87800
C  45.81700 32.59100 29.66800
O  45.09900 31.63600 29.88600
C  46.02900 33.80000 30.69900
C  46.23900 33.12700 32.04700
O  47.33400 32.59900 32.35600
O  45.15600 33.45200 32.91100
C  45.20300 33.01900 34.29200
H  49.98900 39.44800 30.31300
H  50.91200 38.26600 24.15300
H  48.51900 32.52200 24.83400
H  47.03800 36.07200 32.42100
H  49.30100 38.02900 32.39700
H  47.16300 38.60400 32.87500
H  46.59400 38.61900 31.11300
H  47.83000 39.80200 31.81600
H  50.05600 35.87500 32.42800
H  49.08000 34.40500 32.28500
H  50.04200 35.59900 34.58900
H  48.66400 34.39700 34.40800
H  50.80900 42.20900 27.82400
H  51.91000 41.24600 28.84900
H  50.15700 41.50200 29.27400
H  52.91100 41.96300 26.44000
H  51.56600 42.96700 25.88100
H  52.75400 42.35500 24.74200
H  51.43700 35.86400 23.49000
H  48.85900 34.34800 22.88100
H  49.48300 37.40000 22.13200
H  49.57900 35.87200 21.32900
H  51.06600 36.81800 21.47400
H  50.94700 32.69700 24.14600
H  51.66000 33.81500 22.99300
H  50.85000 33.01600 21.06000
H  49.44900 32.33100 21.87600
H  51.00100 31.43900 21.96000
H  47.81700 30.57000 26.49700
H  46.11100 30.97500 26.09400
H  46.57100 30.40400 27.77700
H  45.05700 34.28800 30.63000
H  44.17300 32.82500 34.58900
H  45.52200 33.83500 34.94000
H  45.79400 32.11300 34.42600

