158

Mg 0.09800 7.59800 26.87400
C  1.07400 9.90300 29.38100
C  -0.09200 5.14300 29.27800
C  -0.32100 5.47200 24.33200
C  0.85100 10.17600 24.50200
N  0.53100 7.50400 29.02700
C  0.71500 8.64300 29.83800
C  0.53600 8.24700 31.28900
C  0.45000 6.68900 31.28400
C  0.22400 6.44100 29.78700
C  1.72700 5.97400 31.75300
C  -0.69000 8.89400 32.00000
C  -0.64500 9.01100 33.56900
H  0.54400 8.63600 34.39200
N  -0.12300 5.53100 26.79200
C  -0.14100 4.68700 27.93800
C  -0.29000 3.29000 27.39600
C  -0.25100 3.38400 26.02000
C  -0.18000 4.86700 25.62900
C  -0.63600 2.11900 28.31200
C  -0.27400 2.26300 25.05000
O  -0.14600 2.48000 23.84700
C  -0.28700 0.81200 25.51800
N  -0.06100 7.81800 24.71500
C  -0.27600 6.75800 23.80400
C  -0.36500 7.22500 22.40200
C  0.18800 8.68000 22.50900
C  0.32400 8.93900 24.01200
C  0.41800 6.43900 21.35700
C  -0.66800 9.66400 21.67500
C  -1.82700 10.30000 22.45800
N  0.70700 9.55900 26.89200
C  0.88500 10.52400 25.87400
C  1.38100 11.75600 26.34300
C  1.49100 11.52100 27.72100
C  0.98300 10.21700 28.05200
C  1.74700 12.96900 25.54600
C  1.80700 12.19600 29.04700
O  2.33200 13.29800 29.23300
C  1.56300 11.12000 30.10300
C  2.81700 10.81700 30.85900
O  3.71100 10.04500 30.56500
O  2.89200 11.63900 31.92900
C  4.15200 11.65500 32.75000
H  -0.17600 4.37900 30.05300
H  -0.45800 4.71900 23.55200
H  1.09000 10.96300 23.78400
H  1.47700 8.58300 31.72500
H  -0.41200 6.24200 31.78000
H  2.41300 6.71700 32.15900
H  2.20700 5.76600 30.79700
H  1.66100 5.01600 32.26900
H  -1.46700 8.16300 31.77500
H  -1.08200 9.76100 31.46800
H  -1.57400 8.55900 33.91400
H  -0.71000 10.08600 33.73700
H  -1.59500 1.69300 28.01800
H  -0.70600 2.45200 29.34700
H  0.15100 1.36500 28.30300
H  -1.22000 0.56300 26.02100
H  0.55000 0.79100 26.21600
H  -0.09500 0.12000 24.69800
H  -1.38600 7.16300 22.02600
H  1.17800 8.77000 22.06000
H  0.61000 5.41200 21.66800
H  1.36000 6.96500 21.19900
H  -0.18800 6.24600 20.47200
H  -1.08500 9.11400 20.83300
H  -0.02200 10.50700 21.43100
H  -1.92000 9.85200 23.44700
H  -2.79000 10.32400 21.94800
H  -1.60000 11.35500 22.61200
H  2.49100 13.58900 26.04800
H  0.82400 13.50100 25.31800
H  2.20600 12.65100 24.61000
H  0.82100 11.51500 30.79700
H  4.94900 10.95700 32.49400
H  3.87100 11.43600 33.78000
H  4.62000 12.63100 32.61600
Mg 10.62600 47.53800 25.90300
C  8.53900 47.34600 28.84100
C  13.19900 48.49900 27.96200
C  12.65500 47.46900 23.28300
C  7.98000 46.70300 23.95400
N  10.72400 47.97600 28.17300
C  9.82800 47.74100 29.18300
C  10.42200 48.10000 30.55200
C  11.76500 48.80400 30.13700
C  11.95800 48.27200 28.68200
C  11.70600 50.34300 30.05300
C  10.64400 46.81800 31.39200
C  10.14500 46.89200 32.82100
H  10.37600 45.67600 33.71000
N  12.66200 48.00600 25.65200
C  13.56400 48.34000 26.64300
C  14.87600 48.22400 26.09100
C  14.78800 47.91500 24.74500
C  13.32600 47.88300 24.52100
C  16.12800 48.44700 27.02400
C  15.94800 47.79300 23.76700
O  15.73200 47.81000 22.52000
C  17.35400 47.73400 24.31200
N  10.34000 47.34700 23.85300
C  11.33200 47.35600 22.94100
C  10.85500 47.11900 21.57900
C  9.36500 46.92700 21.78200
C  9.21200 46.99700 23.30600
C  11.14700 48.21600 20.58400
C  8.86200 45.66100 21.06000
C  9.24000 44.29500 21.63400
N  8.61500 47.24700 26.22800
C  7.65100 46.81200 25.32400
C  6.40400 46.61500 25.97700
C  6.72200 46.84800 27.34400
C  8.07900 47.19400 27.44700
C  5.06900 46.03900 25.43100
C  6.12700 46.75400 28.73700
O  5.01700 46.44300 29.17900
C  7.35600 47.04000 29.77300
C  7.53500 45.74800 30.46500
O  8.29800 44.82200 30.20200
O  6.71300 45.77300 31.53500
C  6.84800 44.57400 32.45700
H  13.94400 48.88600 28.66100
H  13.33300 47.16500 22.48300
H  7.19800 46.38900 23.26000
H  9.71600 48.76000 31.05400
H  12.65900 48.53400 30.70000
H  10.95500 50.77800 30.71200
H  11.31900 50.54900 29.05400
H  12.71700 50.74100 30.13400
H  11.72600 46.75900 31.50400
H  10.40000 45.91500 30.83200
H  9.10200 47.20800 32.80200
H  10.69900 47.69900 33.30100
H  15.80900 48.51400 28.06400
H  16.57800 49.43500 26.92500
H  16.77200 47.57100 26.94400
H  17.45100 46.98600 25.09900
H  17.54800 48.73800 24.68900
H  18.03300 47.46800 23.50200
H  11.28300 46.20100 21.17600
H  8.77800 47.74500 21.36400
H  11.52900 47.80700 19.64900
H  11.76400 48.94200 21.11400
H  10.22900 48.72800 20.29600
H  9.23000 45.66900 20.03400
H  7.78100 45.69600 20.92500
H  9.30000 44.30300 22.72200
H  10.21600 43.91100 21.33600
H  8.49200 43.54200 21.38700
H  4.56800 46.82100 24.86200
H  4.40500 45.56800 26.15600
H  5.38500 45.23300 24.76800
H  7.24500 47.89200 30.44400
H  7.60700 44.56000 33.24000
H  6.84100 43.67400 31.84400
H  5.91600 44.52700 33.02000

