158

Mg -1.16100 34.78100 26.35200
C  -2.89600 32.97600 28.85900
C  -0.37100 37.14400 28.73200
C  0.16100 36.68900 23.88500
C  -2.68600 32.75600 23.90600
N  -1.68800 35.06600 28.51200
C  -2.27800 34.15300 29.31700
C  -2.17200 34.63400 30.78600
C  -1.73600 36.06200 30.74500
C  -1.20000 36.13900 29.23500
C  -2.81600 37.10400 31.05500
C  -1.28900 33.67400 31.66700
C  -2.01000 33.04100 32.93900
H  -1.07000 32.90600 34.22100
N  -0.18600 36.59200 26.33600
C  0.06200 37.38600 27.42200
C  0.74200 38.59800 26.90900
C  0.96200 38.42200 25.54100
C  0.35800 37.18500 25.21500
C  1.11900 39.75200 27.76200
C  1.75200 39.28400 24.52900
O  1.93500 39.04200 23.34700
C  2.23500 40.53000 24.93500
N  -1.43500 34.85000 24.16800
C  -0.58000 35.63400 23.37700
C  -0.73500 35.30200 21.93600
C  -1.50500 33.88700 22.06200
C  -1.90800 33.84400 23.48700
C  -1.45900 36.41300 21.05300
C  -0.58700 32.68200 21.66400
C  0.54100 32.28400 22.63000
N  -2.48300 33.15300 26.28000
C  -3.01600 32.47400 25.22100
C  -3.80700 31.37400 25.81500
C  -3.83600 31.50300 27.24500
C  -2.94200 32.61300 27.49100
C  -4.45500 30.36400 24.91400
C  -4.28000 31.02100 28.45700
O  -5.02200 30.11400 28.68700
C  -3.69500 31.99300 29.59000
C  -4.81200 32.60900 30.32700
O  -5.28100 33.61400 29.96300
O  -5.22600 31.84000 31.40100
C  -6.18700 32.57000 32.20600
H  -0.15100 37.86200 29.52500
H  0.48900 37.29500 23.03800
H  -2.99500 31.95100 23.23500
H  -3.15300 34.64600 31.26100
H  -0.95100 36.24800 31.47700
H  -2.82200 37.22400 32.13900
H  -3.75800 36.85200 30.57000
H  -2.45100 38.01600 30.58400
H  -0.47000 34.20800 32.15000
H  -0.89100 32.86100 31.06000
H  -2.54200 32.09600 32.82700
H  -2.76000 33.79300 33.18600
H  0.55500 39.86600 28.68700
H  1.02200 40.65200 27.15400
H  2.15900 39.58800 28.04200
H  2.78400 40.50300 25.87600
H  1.32400 41.11300 25.07300
H  2.84800 41.03900 24.19100
H  0.21000 35.02500 21.46900
H  -2.43200 33.81600 21.49200
H  -0.70100 36.73900 20.34100
H  -1.56500 37.33900 21.61800
H  -2.43400 36.10600 20.67300
H  -0.08900 32.95900 20.73400
H  -1.10700 31.73900 21.49900
H  0.50300 31.21700 22.85100
H  0.66400 33.01100 23.43300
H  1.36400 32.49900 21.94900
H  -5.38100 30.85200 24.60800
H  -4.72800 29.39300 25.32800
H  -3.78800 30.32100 24.05300
H  -3.02300 31.37900 30.19000
H  -5.68600 33.45700 32.59300
H  -6.44900 31.90200 33.02700
H  -7.10200 32.77200 31.64900
Mg -10.94100 16.70200 42.45700
C  -7.57500 17.40700 42.88500
C  -11.33300 20.05700 41.85900
C  -14.14500 16.07300 41.40000
C  -10.25400 13.30400 42.56500
N  -9.54300 18.48600 42.20400
C  -8.27000 18.54400 42.51600
C  -7.66900 19.93200 42.44900
C  -8.95300 20.75600 42.58200
C  -10.02900 19.74100 42.15600
C  -9.23700 21.28500 43.92900
C  -6.96500 20.01400 41.05500
C  -5.46300 20.11500 41.02700
H  -4.63400 19.03500 40.24500
N  -12.50600 17.87500 41.66700
C  -12.47800 19.22300 41.55800
C  -13.77100 19.67400 41.12300
C  -14.61800 18.52800 40.87500
C  -13.78800 17.45200 41.34800
C  -14.00100 21.18100 40.95700
C  -16.11200 18.54200 40.34000
O  -16.60700 19.63800 39.98800
C  -16.88400 17.28300 40.19200
N  -12.07100 14.95500 42.09600
C  -13.37300 14.92900 41.73200
C  -13.89200 13.48000 41.55000
C  -12.59200 12.65400 41.79200
C  -11.52300 13.72900 42.15200
C  -15.22600 12.99000 42.34800
C  -12.17100 11.63300 40.73000
C  -11.98200 10.11600 41.19300
N  -9.25500 15.53600 42.73700
C  -9.14100 14.17400 42.74300
C  -7.80100 13.86700 43.04000
C  -7.12500 15.05500 43.14700
C  -8.05300 16.05700 42.87500
C  -7.22000 12.49900 43.31500
C  -5.84500 15.67500 43.31800
O  -4.72200 15.17600 43.37600
C  -6.08200 17.29700 43.25600
C  -5.73100 17.70200 44.64800
O  -6.44500 17.65200 45.64900
O  -4.42000 18.06800 44.65200
C  -4.16100 18.90700 45.86000
H  -11.37900 21.14600 41.79200
H  -15.11000 15.66900 41.08800
H  -10.18800 12.22400 42.71100
H  -6.99400 19.95700 43.30400
H  -8.93800 21.52100 41.80600
H  -8.27600 21.41700 44.42600
H  -9.71100 20.54700 44.57600
H  -9.89200 22.15600 43.91000
H  -7.28500 20.97900 40.66300
H  -7.21200 19.25000 40.31700
H  -5.03700 20.22800 42.02400
H  -5.33300 21.07100 40.52000
H  -13.74700 21.53500 39.95800
H  -13.35200 21.71200 41.65400
H  -15.05300 21.33100 41.19700
H  -17.83700 17.41500 39.68100
H  -17.09800 17.04700 41.23400
H  -16.25800 16.57300 39.65100
H  -14.18800 13.31000 40.51500
H  -12.84200 12.12400 42.71000
H  -15.29200 13.64800 43.21500
H  -15.25400 12.01500 42.83600
H  -16.01100 13.18300 41.61700
H  -11.26500 11.99200 40.24300
H  -12.87700 11.57100 39.90200
H  -12.56300 9.42200 40.58600
H  -12.25200 10.14800 42.24900
H  -10.95900 9.74000 41.20200
H  -6.15900 12.60200 43.54200
H  -7.25700 11.95200 42.37300
H  -7.81600 11.92600 44.02500
H  -5.43000 17.83600 42.56800
H  -3.93200 19.92300 45.53700
H  -3.22100 18.53900 46.27100
H  -4.85400 19.00200 46.69500

