158

Mg 26.69500 50.86400 25.92200
C  24.65000 51.94200 28.66200
C  28.92100 49.60200 28.19600
C  28.74700 50.14300 23.43300
C  24.65100 52.67200 23.77600
N  26.67800 50.75200 28.20300
C  25.80500 51.24600 29.11500
C  26.22700 50.91500 30.51300
C  27.66100 50.27800 30.28300
C  27.83200 50.27800 28.78400
C  28.76600 51.10400 31.03100
C  25.23100 50.05300 31.25100
C  24.53900 50.83700 32.48400
H  24.55100 50.12200 33.85200
N  28.54800 49.93700 25.82200
C  29.22300 49.40300 26.85500
C  30.36100 48.64000 26.37200
C  30.39700 48.89300 24.99800
C  29.21900 49.69000 24.65400
C  31.22900 47.77700 27.24700
C  31.32500 48.31200 24.01300
O  31.21100 48.56400 22.85900
C  32.41400 47.35100 24.42400
N  26.70800 51.33400 23.88800
C  27.63200 50.91000 23.05200
C  27.25000 51.20400 21.62100
C  25.78500 51.84700 21.74500
C  25.71500 51.94300 23.20600
C  28.24600 52.14200 20.81400
C  24.58800 51.07800 21.12600
C  23.99300 51.60600 19.84500
N  24.88900 51.95000 26.08400
C  24.25400 52.69900 25.16300
C  23.14100 53.46100 25.79000
C  23.23500 53.13200 27.19200
C  24.24600 52.10500 27.25600
C  22.16700 54.41200 25.05300
C  22.65500 53.43900 28.48800
O  21.70900 54.10800 28.79600
C  23.56900 52.65600 29.48900
C  24.06600 53.70800 30.47300
O  25.07800 54.29800 30.29800
O  23.30300 53.79300 31.60400
C  23.85400 54.62900 32.75000
H  29.54700 49.09600 28.93300
H  29.44500 49.95700 22.61500
H  24.00400 53.23300 23.09900
H  26.32700 51.84700 31.07000
H  27.72200 49.31300 30.78500
H  28.36600 52.07400 31.32600
H  29.61300 51.34500 30.38900
H  29.18300 50.53000 31.85900
H  25.59000 49.05700 31.51000
H  24.42400 49.87500 30.54100
H  23.50000 50.98400 32.19000
H  24.97600 51.81800 32.66900
H  31.32800 46.76500 26.85500
H  30.92000 47.57400 28.27300
H  32.24000 48.18600 27.23400
H  32.92000 47.76900 25.29500
H  33.11300 47.06700 23.63800
H  32.07800 46.36800 24.75200
H  27.13300 50.26200 21.08500
H  25.87300 52.84400 21.31300
H  29.17200 52.16200 21.38800
H  27.89100 53.17100 20.76900
H  28.40300 51.67400 19.84200
H  23.78700 51.03000 21.86400
H  24.77700 50.01500 20.98300
H  22.96700 51.90100 20.06300
H  24.08500 50.94500 18.98300
H  24.46600 52.47900 19.39500
H  22.67500 54.76900 24.15700
H  21.82600 55.14000 25.78900
H  21.31300 53.86800 24.65000
H  23.01000 52.00100 30.15800
H  22.97100 54.68300 33.38700
H  24.07600 55.64500 32.42500
H  24.62500 54.06500 33.27600
Mg -2.30900 34.95800 27.12000
C  -4.01800 33.27200 29.76400
C  -0.77600 36.88500 29.49500
C  -0.70000 36.65100 24.64700
C  -4.18700 33.20600 24.85300
N  -2.40000 35.09700 29.48800
C  -3.13600 34.22700 30.32300
C  -2.86900 34.54000 31.80900
C  -2.03100 35.93000 31.68600
C  -1.67500 35.97400 30.15700
C  -2.73600 37.23600 32.06400
C  -1.99400 33.37200 32.48400
C  -2.68300 32.79000 33.78900
H  -1.79900 32.66800 35.07700
N  -0.84300 36.47800 27.06300
C  -0.41600 37.18200 28.13600
C  0.54800 38.15400 27.68900
C  0.66000 38.06700 26.31900
C  -0.26400 37.00100 25.96800
C  1.23000 39.10500 28.65100
C  1.56500 38.80200 25.33000
O  1.73800 38.36200 24.22500
C  2.40400 39.99000 25.82400
N  -2.48100 35.00100 25.02700
C  -1.64600 35.73400 24.20100
C  -1.92900 35.49300 22.75900
C  -2.99100 34.34100 22.77900
C  -3.34000 34.15200 24.28600
C  -2.44100 36.76600 21.95000
C  -2.63200 32.98500 22.10300
C  -1.44300 32.22200 22.74500
N  -3.84400 33.63000 27.23100
C  -4.51200 32.94700 26.18100
C  -5.29500 31.88600 26.67300
C  -5.04500 32.02500 28.07300
C  -4.24100 33.08300 28.36600
C  -6.16800 30.87800 25.98900
C  -5.45700 31.35600 29.29600
O  -6.27200 30.45900 29.43600
C  -4.88000 32.17600 30.45600
C  -5.97200 32.49700 31.42700
O  -6.84100 33.28900 31.14700
O  -5.96400 31.67400 32.52500
C  -7.02300 31.71200 33.50200
H  -0.13600 37.40100 30.21300
H  -0.23900 37.19600 23.82100
H  -4.67600 32.52600 24.15400
H  -3.84900 34.73300 32.24500
H  -1.14200 35.85300 32.31200
H  -3.16700 37.75500 31.20700
H  -2.07100 37.90300 32.61300
H  -3.54200 36.99900 32.75900
H  -1.02800 33.68700 32.87900
H  -1.90600 32.56000 31.76200
H  -2.97000 31.76400 33.56000
H  -3.61300 33.34200 33.92600
H  0.83000 40.07500 28.35600
H  2.31500 39.06800 28.54700
H  0.95200 38.90800 29.68600
H  1.80000 40.66200 26.43300
H  2.86500 40.49200 24.97300
H  3.23300 39.52800 26.36000
H  -1.09100 35.12400 22.16800
H  -3.86100 34.74400 22.26100
H  -3.45500 36.58500 21.59400
H  -1.71000 37.03200 21.18700
H  -2.35200 37.63700 22.59900
H  -2.41900 33.22800 21.06200
H  -3.56100 32.41600 22.12500
H  -0.75800 32.00300 21.92700
H  -1.90800 31.28400 23.05100
H  -0.92400 32.65900 23.59900
H  -7.08100 30.60900 26.52000
H  -5.63800 30.02800 25.55700
H  -6.55200 31.45200 25.14700
H  -4.08000 31.60000 30.92200
H  -6.75500 32.42700 34.28000
H  -7.26500 30.75700 33.96800
H  -7.89400 32.18700 33.05000

