158

Mg -0.28400 7.85600 26.78000
C  0.60500 10.03100 29.26200
C  -0.75600 5.32500 28.92900
C  -0.63900 5.80300 24.09400
C  0.55600 10.40900 24.48000
N  0.06100 7.56300 28.82600
C  0.21700 8.70500 29.65600
C  -0.01800 8.33900 31.14000
C  -0.34100 6.75500 31.04700
C  -0.42900 6.50100 29.54900
C  0.55000 5.77100 31.79900
C  -1.28400 9.08700 31.73900
C  -1.75000 8.68300 33.16900
H  -0.75300 8.12500 34.13100
N  -0.70900 5.87800 26.51500
C  -0.85700 5.00000 27.58000
C  -1.28900 3.72800 27.02100
C  -1.19100 3.82300 25.62200
C  -0.85200 5.17800 25.35500
C  -1.67800 2.51200 27.87600
C  -1.51300 2.70900 24.52100
O  -1.26600 2.95700 23.31100
C  -2.11800 1.37100 24.90300
N  -0.15700 8.13900 24.49100
C  -0.38500 7.10900 23.68300
C  -0.11400 7.52500 22.20700
C  -0.18700 9.06100 22.32900
C  0.12900 9.23100 23.85500
C  1.25400 6.95200 21.67200
C  -1.58600 9.63600 22.02400
C  -1.63300 10.65100 20.86800
N  0.54500 9.85300 26.78500
C  0.75900 10.79400 25.81600
C  1.12300 12.03100 26.37500
C  1.18700 11.84900 27.74100
C  0.71400 10.53300 27.93000
C  1.42900 13.28500 25.55700
C  1.39900 12.38500 29.04900
O  1.77200 13.49000 29.32000
C  0.92500 11.24500 30.07300
C  2.15800 11.02100 30.89300
O  3.19600 10.59700 30.42600
O  2.01900 11.66500 32.12100
C  3.07800 11.62000 33.10100
H  -0.97900 4.48400 29.58900
H  -0.62700 5.09300 23.26500
H  0.59300 11.23300 23.76500
H  0.93600 8.54100 31.62700
H  -1.38300 6.65700 31.35300
H  0.73000 4.93900 31.11800
H  -0.04100 5.38200 32.62800
H  1.50400 6.15600 32.15900
H  -2.10000 9.08000 31.01700
H  -1.06700 10.15100 31.84100
H  -2.63800 8.05200 33.13800
H  -2.05000 9.61500 33.64800
H  -1.98600 2.81500 28.87700
H  -0.85800 1.79600 27.92700
H  -2.50100 1.96700 27.41300
H  -2.11800 0.69300 24.05000
H  -3.17300 1.61500 25.02800
H  -1.71600 0.85800 25.77600
H  -0.81100 7.17100 21.44700
H  0.60400 9.53200 21.74400
H  1.63100 6.25500 22.42000
H  1.90000 7.77400 21.36200
H  1.06700 6.26700 20.84500
H  -1.89400 10.19200 22.90900
H  -2.30800 8.87000 21.74200
H  -0.80800 10.42100 20.19400
H  -1.56700 11.66200 21.27000
H  -2.51200 10.43300 20.26200
H  0.73500 13.39000 24.72400
H  2.43700 13.15200 25.16200
H  1.28200 14.19700 26.13500
H  0.15400 11.55600 30.77700
H  2.63500 11.79100 34.08200
H  3.89600 12.29300 32.84500
H  3.37400 10.58000 33.23300
Mg 25.09300 0.87000 29.97000
C  27.18200 0.60400 32.77700
C  22.43800 1.36600 32.20900
C  22.88900 0.52800 27.35500
C  27.66000 -0.33500 27.94800
N  24.85600 1.05100 32.19200
C  25.86200 0.89600 33.10300
C  25.40700 1.23500 34.55200
C  23.83800 1.36200 34.33100
C  23.68900 1.27900 32.80800
C  22.98100 0.28400 35.10600
C  26.10200 2.53400 35.09300
C  26.58300 2.33300 36.54000
H  26.02800 3.20100 37.67800
N  22.98100 0.94600 29.81800
C  22.10300 1.23300 30.87400
C  20.76500 1.31300 30.36800
C  20.90200 0.92400 28.97900
C  22.29100 0.75600 28.65700
C  19.55100 1.59800 31.13700
C  19.74500 0.70700 28.00800
O  19.94000 0.19800 26.90000
C  18.38100 0.94900 28.39300
N  25.24900 0.16900 27.98000
C  24.19200 0.23300 27.06400
C  24.71100 0.04400 25.60100
C  26.24200 0.00200 25.76400
C  26.43900 -0.01900 27.31800
C  24.05100 -1.20900 24.88300
C  27.03100 1.20500 25.13000
C  27.45600 2.46700 25.95800
N  27.08200 0.39500 30.18200
C  27.96300 -0.09200 29.33000
C  29.24800 -0.33200 30.01000
C  28.97800 -0.11600 31.33400
C  27.65300 0.28000 31.43600
C  30.58300 -0.71700 29.29900
C  29.52100 -0.19000 32.63600
O  30.61900 -0.49700 33.05100
C  28.46500 0.40100 33.60700
C  28.26500 -0.55200 34.72800
O  27.61600 -1.58700 34.73900
O  28.97600 -0.12400 35.78000
C  28.67000 -0.80400 37.02800
H  21.60800 1.63100 32.86700
H  22.23600 0.64300 26.48700
H  28.44100 -0.59200 27.22900
H  25.58900 0.42500 35.25900
H  23.42800 2.33800 34.59400
H  22.94400 -0.71000 34.66000
H  21.95200 0.64400 35.11500
H  23.30200 0.04500 36.12000
H  25.39600 3.34800 34.92300
H  27.02300 2.71200 34.53800
H  27.67200 2.29200 36.57600
H  26.27100 1.33100 36.83300
H  19.67100 1.81400 32.19900
H  19.06000 0.62500 31.16700
H  18.94000 2.39700 30.71800
H  17.73500 0.62600 27.57700
H  18.24500 1.98900 28.68800
H  18.15000 0.28100 29.22300
H  24.44800 0.89300 24.97000
H  26.65000 -0.93000 25.37400
H  23.09700 -1.07200 24.37400
H  23.81600 -1.94800 25.64900
H  24.79700 -1.59000 24.18600
H  26.42200 1.67700 24.35900
H  27.91100 0.84700 24.59700
H  28.53500 2.61000 26.02300
H  27.16300 2.30100 26.99500
H  26.87300 3.30400 25.57600
H  30.78300 -0.12900 28.40400
H  30.30500 -1.73600 29.03100
H  31.49300 -0.70300 29.90000
H  28.86900 1.33000 34.00900
H  27.63100 -0.55700 37.24500
H  29.35200 -0.44100 37.79700
H  28.78800 -1.88400 36.93500

