158

Mg 36.01200 0.76600 29.56200
C  33.76700 1.57900 32.17900
C  38.57300 0.74600 32.02300
C  38.20800 0.65600 27.09200
C  33.44800 1.25500 27.33400
N  36.18100 1.35700 31.90300
C  35.05500 1.46000 32.70200
C  35.53700 1.21400 34.20500
C  37.06100 1.18100 34.10400
C  37.30700 1.02900 32.65900
C  37.82500 2.44900 34.71300
C  34.99400 0.03200 35.07500
C  35.28300 0.02100 36.61600
H  35.80600 1.32800 37.26300
N  38.05000 0.50500 29.56200
C  38.95700 0.55700 30.66000
C  40.27300 0.17700 30.14400
C  40.15700 0.17800 28.74300
C  38.75000 0.52400 28.37200
C  41.48100 0.00800 30.99900
C  41.27000 -0.12600 27.69100
O  41.04700 -0.21000 26.49300
C  42.62900 -0.52900 28.07600
N  35.89500 1.01000 27.62600
C  36.87600 0.88800 26.75800
C  36.52500 0.83900 25.22800
C  34.97200 0.90500 25.30100
C  34.73400 1.06000 26.85700
C  37.17400 1.91000 24.37200
C  34.18700 -0.32200 24.70300
C  34.03500 -1.67300 25.41200
N  33.99700 1.23900 29.68000
C  33.06400 1.49800 28.69800
C  31.78500 1.74500 29.26500
C  32.01300 1.76200 30.60900
C  33.41200 1.52300 30.86900
C  30.52400 1.86900 28.54300
C  31.31200 1.73800 31.89300
O  30.13500 1.75700 32.14100
C  32.46900 1.60300 33.03100
C  32.38000 2.88900 33.78500
O  32.52700 4.05100 33.39500
O  32.17900 2.52100 35.11700
C  32.39600 3.66000 36.03800
H  39.43900 0.50600 32.64400
H  38.80300 0.56500 26.18100
H  32.69100 1.22700 26.54800
H  35.27200 2.14000 34.71500
H  37.43600 0.24400 34.51800
H  37.22200 3.35000 34.59600
H  38.78300 2.50300 34.19600
H  38.18000 2.33800 35.73800
H  35.36700 -0.87000 34.59100
H  33.92500 0.15500 34.89900
H  36.05100 -0.75300 36.61400
H  34.38000 -0.27900 37.14700
H  42.27300 -0.66200 30.66500
H  41.16000 -0.29400 31.99600
H  42.00800 0.93900 31.21000
H  43.03300 0.00600 28.93600
H  43.28500 -0.27300 27.24500
H  42.61700 -1.55700 28.43800
H  36.83300 -0.15900 24.91700
H  34.63900 1.81500 24.80100
H  37.82300 2.48700 25.03100
H  36.47000 2.64000 23.97100
H  37.82200 1.41800 23.64700
H  34.65300 -0.58400 23.75400
H  33.17700 -0.01400 24.43000
H  34.54900 -2.26200 24.65200
H  33.01100 -2.00400 25.58300
H  34.66200 -1.76800 26.29800
H  30.75300 1.54500 27.52800
H  30.00200 2.82500 28.57600
H  29.78600 1.10700 28.79600
H  32.21400 0.72400 33.62300
H  32.32300 3.28700 37.06000
H  31.60200 4.39600 35.91200
H  33.36000 4.16600 35.98000
Mg -5.50400 25.41800 27.36400
C  -3.50900 27.23500 29.62900
C  -6.12300 23.14000 30.00100
C  -6.73500 23.17300 25.16800
C  -4.32500 27.50700 24.89700
N  -4.77100 25.18200 29.53700
C  -4.11300 26.15800 30.22400
C  -4.24000 26.03400 31.74700
C  -4.96700 24.60500 31.91800
C  -5.33200 24.24800 30.41500
C  -3.91600 23.50200 32.48500
C  -5.16800 27.19500 32.35600
C  -4.69800 27.95800 33.61300
H  -5.67200 28.09400 34.83500
N  -6.35900 23.45300 27.56000
C  -6.44300 22.65800 28.72600
C  -7.04800 21.38400 28.28500
C  -7.24100 21.37800 26.93600
C  -6.77700 22.67300 26.47000
C  -7.30800 20.29200 29.31000
C  -7.75300 20.24600 25.95400
O  -7.94500 20.50800 24.77100
C  -8.17800 18.89500 26.49300
N  -5.63800 25.40200 25.37600
C  -6.19900 24.42100 24.68700
C  -6.08200 24.62200 23.17500
C  -5.68000 26.16000 23.13100
C  -5.23500 26.44900 24.58500
C  -5.06400 23.78600 22.41100
C  -6.88000 27.06100 22.77500
C  -6.83400 27.60100 21.35200
N  -4.10700 27.00900 27.14200
C  -3.81000 27.72000 26.11200
C  -2.84200 28.72600 26.50700
C  -2.74300 28.65300 27.89600
C  -3.57000 27.55500 28.24700
C  -2.09200 29.73300 25.65600
C  -2.07100 29.15600 29.06900
O  -1.26800 30.09100 29.22000
C  -2.58200 28.28400 30.28200
C  -1.41700 27.61200 30.98800
O  -0.59800 26.87000 30.40200
O  -1.43400 27.97200 32.34000
C  -0.23600 27.70800 33.10500
H  -6.46400 22.48200 30.80300
H  -7.07200 22.54200 24.34300
H  -4.11300 28.09700 24.00300
H  -3.26300 26.11800 32.22300
H  -5.75900 24.53800 32.66300
H  -3.73300 22.74700 31.72100
H  -4.24200 22.98500 33.38700
H  -2.98800 24.05900 32.61500
H  -6.22900 26.98500 32.49100
H  -5.15000 28.01800 31.64100
H  -4.40900 29.00200 33.49100
H  -3.76500 27.52700 33.97700
H  -8.27900 19.79600 29.29500
H  -7.04100 20.63200 30.31000
H  -6.54900 19.51300 29.24300
H  -7.60500 18.42700 27.29300
H  -8.18400 18.03000 25.82900
H  -9.24000 19.08500 26.65300
H  -6.98800 24.47800 22.58700
H  -4.84600 26.35400 22.45500
H  -4.26100 24.41400 22.02400
H  -5.56300 23.36400 21.53900
H  -4.64200 23.03900 23.08300
H  -6.82900 27.93000 23.43100
H  -7.89600 26.67500 22.86100
H  -5.87600 27.22500 20.99400
H  -6.87000 28.66800 21.12900
H  -7.54200 27.13800 20.66500
H  -1.88800 30.60900 26.27100
H  -2.65600 30.02200 24.77000
H  -1.14700 29.29600 25.33200
H  -3.19100 28.78400 31.03600
H  0.66600 28.20300 32.74400
H  0.04100 26.67100 33.29700
H  -0.52300 28.16100 34.05400

