158

Mg 48.11800 34.96600 27.86000
C  46.08400 33.25500 30.28700
C  48.43800 37.42100 30.07200
C  49.37200 36.70300 25.42900
C  47.42400 32.18800 25.67700
N  47.44000 35.23800 29.90800
C  46.73600 34.35600 30.76000
C  46.73100 34.87000 32.19400
C  47.10300 36.34500 31.96100
C  47.73800 36.33500 30.58600
C  45.87900 37.40000 32.04600
C  47.71300 34.10300 33.21300
C  47.69600 34.45100 34.66400
H  47.01500 35.64600 35.16200
N  48.88400 36.86400 27.81300
C  49.04600 37.74100 28.83600
C  49.58700 38.89400 28.31400
C  49.78200 38.78000 26.95100
C  49.30400 37.40900 26.62600
C  49.76100 40.17100 29.23000
C  50.32900 39.80200 25.94300
O  50.45800 39.55300 24.73500
C  50.99900 41.07800 26.38900
N  48.28900 34.53000 25.85800
C  48.97200 35.44500 25.07200
C  49.11400 34.93700 23.60400
C  48.52000 33.42800 23.66100
C  48.09300 33.33600 25.16900
C  48.46600 35.83700 22.50600
C  49.54600 32.24000 23.39300
C  49.06300 31.02000 22.60400
N  47.01500 33.04800 27.86200
C  46.81700 32.03900 26.91900
C  46.03500 30.95100 27.51000
C  45.69800 31.43600 28.79600
C  46.37400 32.71600 29.00000
C  45.68700 29.57500 26.92300
C  44.89400 31.08200 29.95000
O  44.31600 30.04100 30.24100
C  44.99400 32.37600 30.86000
C  45.22200 31.84000 32.16600
O  46.20300 31.20900 32.50700
O  44.18500 32.12400 32.99800
C  44.42900 31.83600 34.40100
H  48.56900 38.24300 30.77800
H  49.77200 37.21600 24.55200
H  47.29500 31.29200 25.06600
H  45.72200 34.79300 32.59900
H  47.85100 36.63700 32.69800
H  45.91300 38.12700 31.23500
H  45.92500 38.01300 32.94700
H  44.90900 36.90600 32.09900
H  48.73900 34.25300 32.87700
H  47.40100 33.07500 33.03100
H  48.73200 34.61900 34.95700
H  47.30700 33.66300 35.30800
H  50.78400 40.53300 29.33300
H  49.37800 39.99700 30.23600
H  49.09800 40.88800 28.74400
H  51.19600 41.25000 27.44800
H  50.46500 41.86400 25.85500
H  52.00900 41.00100 25.98600
H  50.16500 34.93200 23.31400
H  47.63000 33.35200 23.03600
H  48.02000 36.73000 22.94500
H  47.77500 35.32200 21.83800
H  49.25600 36.24100 21.87300
H  49.84700 31.97100 24.40600
H  50.34600 32.78600 22.89300
H  49.70900 30.91700 21.73200
H  48.03300 31.24800 22.32700
H  49.05000 30.05800 23.11600
H  45.56600 28.95100 27.80900
H  46.56700 29.27200 26.35500
H  44.83600 29.60200 26.24300
H  44.01800 32.85800 30.91900
H  44.42400 30.76600 34.60600
H  43.62800 32.24700 35.01600
H  45.33400 32.33900 34.74100
Mg -11.41400 15.98600 43.74800
C  -7.91400 16.60300 43.60100
C  -12.05400 19.18600 42.85200
C  -14.61600 15.08200 43.90800
C  -10.52900 12.49300 44.09300
N  -10.12100 17.62800 43.24100
C  -8.73300 17.71100 43.18400
C  -8.21900 19.14700 42.74500
C  -9.52800 19.99300 42.85100
C  -10.68200 18.85600 42.94400
C  -9.46300 20.87600 44.12400
C  -7.49600 19.01600 41.37000
C  -6.02700 19.49400 41.26300
H  -5.06400 18.76800 40.35000
N  -13.07200 16.94800 43.36500
C  -13.15000 18.30700 42.92000
C  -14.50700 18.59700 42.70000
C  -15.33800 17.40100 42.94300
C  -14.32400 16.37800 43.37600
C  -14.97700 19.94400 42.26600
C  -16.81600 17.27200 42.74400
O  -17.36300 18.32900 42.34300
C  -17.59000 16.04000 43.03300
N  -12.51100 14.00700 43.91900
C  -13.87500 14.02900 44.21400
C  -14.27600 12.63600 44.68600
C  -13.04200 11.68300 44.49800
C  -11.97900 12.73900 44.17900
C  -14.98200 12.60700 46.06600
C  -13.19400 10.50300 43.46000
C  -12.41700 9.25500 43.96200
N  -9.69500 14.74500 43.99300
C  -9.50200 13.38300 44.06800
C  -8.05800 13.10600 44.28000
C  -7.43000 14.33700 44.06300
C  -8.45800 15.32000 43.89600
C  -7.45900 11.77900 44.59400
C  -6.12500 15.02300 43.90600
O  -4.97100 14.56800 43.94400
C  -6.39500 16.51400 43.74800
C  -6.02100 17.27500 45.01300
O  -6.38400 17.08700 46.15800
O  -5.06500 18.19500 44.56500
C  -4.64500 19.23300 45.61300
H  -12.22200 20.25500 42.70700
H  -15.65000 14.96800 44.24200
H  -10.20800 11.44900 44.06800
H  -7.48000 19.40600 43.50300
H  -9.66000 20.64000 41.98300
H  -9.93200 20.38800 44.97900
H  -10.01400 21.80900 44.01000
H  -8.42900 21.07800 44.40200
H  -8.13200 19.60500 40.71000
H  -7.41900 17.96400 41.09400
H  -5.65100 19.74000 42.25700
H  -6.12600 20.48900 40.83100
H  -15.49200 19.92000 41.30500
H  -14.14900 20.64000 42.13000
H  -15.66300 20.28100 43.04300
H  -18.60400 16.20000 42.66800
H  -17.69900 15.85100 44.10100
H  -17.07200 15.21500 42.54300
H  -14.99200 12.35000 43.91500
H  -12.72000 11.28300 45.46000
H  -15.11000 13.63700 46.39900
H  -14.45500 12.04700 46.83900
H  -15.91900 12.06600 45.93100
H  -13.01800 10.79400 42.42400
H  -14.23400 10.17700 43.44600
H  -13.15900 8.67200 44.50800
H  -11.46100 9.44200 44.45100
H  -12.17100 8.71200 43.04900
H  -6.40800 11.80000 44.87800
H  -7.66500 10.95100 43.91500
H  -8.00500 11.40200 45.45900
H  -5.90600 16.89700 42.85300
H  -5.50400 19.43100 46.25400
H  -4.17800 20.08600 45.12200
H  -3.83400 18.83300 46.22100

