158

Mg 17.65100 51.06900 26.54400
C  19.42400 50.29400 29.38500
C  15.07700 52.10100 28.40400
C  16.22100 52.10200 23.65300
C  20.17600 49.43900 24.69700
N  17.34700 51.13300 28.70100
C  18.23000 50.85600 29.69800
C  17.61300 51.13800 31.08900
C  16.11900 51.28800 30.62200
C  16.10500 51.50000 29.13200
C  15.10200 50.18500 31.15200
C  18.18700 52.43200 31.80200
C  18.38700 52.37300 33.39300
H  17.56500 51.44500 34.26100
N  16.01100 52.06200 26.12800
C  15.00000 52.41200 27.01200
C  14.03200 53.25300 26.28000
C  14.39800 53.33200 24.92900
C  15.66800 52.50500 24.87100
C  12.91400 53.95200 26.98900
C  13.78500 54.15500 23.85200
O  14.24400 54.29800 22.73900
C  12.53400 54.94600 24.10500
N  18.20200 50.79300 24.47100
C  17.35400 51.28300 23.46700
C  18.00500 51.06100 22.07800
C  19.13600 50.04500 22.51100
C  19.14400 50.06800 23.95100
C  17.06500 50.44100 21.04100
C  20.54900 50.30200 21.85300
C  21.35100 51.57400 22.41300
N  19.42400 50.07700 26.91800
C  20.35300 49.50500 26.05500
C  21.45000 48.90300 26.76100
C  21.12800 49.20500 28.10000
C  19.91300 49.94500 28.14300
C  22.66500 48.15700 26.34600
C  21.59200 49.10500 29.52100
O  22.61300 48.65000 30.03700
C  20.44000 49.75100 30.35100
C  19.84700 48.65100 31.12900
O  18.83500 48.04000 30.77500
O  20.62000 48.41600 32.27600
C  20.07100 47.32600 33.14300
H  14.22800 52.49800 28.96500
H  15.66300 52.36200 22.75100
H  20.97200 48.95200 24.12900
H  17.69800 50.26800 31.74000
H  15.60400 52.18300 30.97000
H  14.24900 50.61800 31.67500
H  15.64000 49.65600 31.93800
H  14.74500 49.44900 30.43200
H  17.45700 53.23100 31.66700
H  19.15100 52.63000 31.33200
H  18.26500 53.34900 33.86200
H  19.44700 52.14600 33.50800
H  11.92100 53.84800 26.55300
H  13.19000 55.00600 27.03600
H  12.84300 53.61300 28.02300
H  11.85200 54.25400 24.59900
H  11.98500 55.21600 23.20200
H  12.77400 55.76400 24.78400
H  18.62400 51.86700 21.68400
H  18.70400 49.06100 22.33200
H  16.88800 51.25100 20.33300
H  16.05900 50.23300 21.40600
H  17.48800 49.55600 20.56600
H  20.45700 50.58300 20.80400
H  20.98500 49.30400 21.81400
H  21.77700 52.10100 21.55900
H  22.05200 51.14500 23.12900
H  20.57700 52.03600 23.02500
H  23.46600 48.89300 26.27300
H  22.39300 47.81200 25.34800
H  22.95300 47.24200 26.86400
H  20.82300 50.45100 31.09400
H  19.17700 47.74400 33.60600
H  20.83700 47.12800 33.89300
H  19.75600 46.42700 32.61300
Mg -5.73900 24.91100 25.37500
C  -4.07300 26.13200 28.17600
C  -7.28900 22.57400 27.40900
C  -7.14300 23.43800 22.62700
C  -3.67900 26.90800 23.32200
N  -5.42800 24.31700 27.57600
C  -4.94100 25.09700 28.49600
C  -5.64300 24.80500 29.85600
C  -6.33500 23.44700 29.59300
C  -6.33600 23.45100 28.03600
C  -5.58900 22.17600 30.10300
C  -6.49100 25.95300 30.34500
C  -6.31000 26.36400 31.83500
H  -5.70400 25.40700 32.88400
N  -7.08300 23.21500 25.10200
C  -7.65300 22.50400 26.06200
C  -8.63100 21.61000 25.46700
C  -8.64400 21.86000 24.02200
C  -7.61400 22.89500 23.82500
C  -9.42000 20.64100 26.28900
C  -9.60100 21.32800 22.97600
O  -9.60500 21.72800 21.79400
C  -10.70800 20.33100 23.41700
N  -5.47600 25.15200 23.31200
C  -6.15600 24.39700 22.40800
C  -5.81200 24.83500 20.94600
C  -4.76000 26.02300 21.08800
C  -4.66000 26.08600 22.67200
C  -5.32700 23.65100 19.96800
C  -5.11100 27.37000 20.50600
C  -4.39300 27.78000 19.21700
N  -4.12700 26.18800 25.62300
C  -3.53200 27.01800 24.74500
C  -2.66800 27.93600 25.43900
C  -2.93000 27.70800 26.78200
C  -3.73700 26.58300 26.84600
C  -1.80400 28.95900 24.80800
C  -2.57000 28.07700 28.09900
O  -1.78100 29.00700 28.46700
C  -3.34200 27.13900 29.14100
C  -2.27900 26.60800 30.15000
O  -1.17700 26.15700 29.93400
O  -2.79600 26.95200 31.34600
C  -1.94000 26.90700 32.46100
H  -7.88300 21.90800 28.03700
H  -7.57400 22.94500 21.75300
H  -3.11600 27.59300 22.68400
H  -4.91400 24.60700 30.64200
H  -7.35900 23.43700 29.96500
H  -6.19400 21.32600 30.41800
H  -4.91300 22.41500 30.92500
H  -4.85800 21.79700 29.39000
H  -7.56700 25.78300 30.30500
H  -6.28000 26.77000 29.65500
H  -7.28400 26.69900 32.19200
H  -5.71400 27.27600 31.81100
H  -9.07200 20.41100 27.29600
H  -9.50600 19.64100 25.86300
H  -10.48500 20.83600 26.41600
H  -11.28400 20.82000 24.20200
H  -10.25100 19.43800 23.84200
H  -11.25900 20.01800 22.52900
H  -6.70600 25.23500 20.46800
H  -3.82400 25.57900 20.74800
H  -5.72600 23.88800 18.98300
H  -5.52800 22.62900 20.29200
H  -4.23900 23.63900 20.04100
H  -5.07300 28.14800 21.26800
H  -6.12100 27.33500 20.09900
H  -3.34200 27.49200 19.19700
H  -4.49700 28.86200 19.12800
H  -4.96400 27.31000 18.41700
H  -2.47800 29.59300 24.23300
H  -1.06700 28.51900 24.13600
H  -1.35400 29.55500 25.60300
H  -4.06100 27.89800 29.44700
H  -1.68900 25.91300 32.83200
H  -2.33000 27.42800 33.33500
H  -0.91500 27.26900 32.37600

