158

Mg -2.43900 17.61100 26.78700
C  -3.09100 15.29700 29.56700
C  -2.87300 20.07200 28.98900
C  -2.48700 19.52200 24.15400
C  -2.56000 14.73900 24.69100
N  -3.00800 17.62700 29.03500
C  -3.02300 16.60900 29.96500
C  -3.00600 17.15000 31.38700
C  -3.11500 18.74300 31.11700
C  -3.02900 18.79500 29.62100
C  -4.23900 19.59200 31.65200
C  -1.66300 16.72100 32.21200
C  -1.17500 17.63000 33.27100
H  -0.70500 16.99000 34.67400
N  -2.64300 19.56100 26.56600
C  -2.79100 20.39800 27.62000
C  -2.86600 21.76100 27.10800
C  -2.75700 21.62300 25.69400
C  -2.69800 20.20900 25.36500
C  -2.93300 23.07300 27.98400
C  -2.89400 22.71700 24.63200
O  -2.95200 22.36300 23.45200
C  -2.85000 24.18700 25.02400
N  -2.54000 17.16500 24.73400
C  -2.43300 18.17200 23.84000
C  -2.27500 17.63200 22.34700
C  -2.02300 16.09200 22.64100
C  -2.29400 16.02300 24.10400
C  -3.53200 18.00300 21.45000
C  -0.61200 15.57500 22.16300
C  0.66000 16.14200 22.85200
N  -2.79200 15.44400 26.95300
C  -2.81500 14.45100 26.06700
C  -2.95400 13.19100 26.72700
C  -3.04800 13.44800 28.08500
C  -2.97300 14.87400 28.18100
C  -2.96500 11.82900 26.06000
C  -3.14700 12.85900 29.34500
O  -3.25400 11.66700 29.65100
C  -3.21700 14.01100 30.42500
C  -2.09700 13.68500 31.35700
O  -0.93500 13.86700 31.17200
O  -2.74800 13.05300 32.33500
C  -1.89600 12.70600 33.46800
H  -2.68000 20.79300 29.78700
H  -2.26000 20.03800 23.21800
H  -2.45200 13.88700 24.01700
H  -3.89000 16.83500 31.94200
H  -2.23600 19.26400 31.49700
H  -3.85400 20.39700 32.27800
H  -4.87000 18.96800 32.28500
H  -4.84200 20.03100 30.85800
H  -0.81900 16.52400 31.55100
H  -1.90700 15.79900 32.74100
H  -1.86800 18.44900 33.46300
H  -0.34100 18.16400 32.81500
H  -2.79800 22.75000 29.01600
H  -3.84500 23.65300 27.83800
H  -2.10500 23.67600 27.61300
H  -3.45100 24.50100 25.87700
H  -3.23800 24.87300 24.27100
H  -1.84300 24.55300 25.22500
H  -1.30200 17.97900 22.00100
H  -2.72700 15.45100 22.11000
H  -3.08400 18.49600 20.58700
H  -4.05500 18.71900 22.08400
H  -4.18600 17.14200 21.31100
H  -0.46300 15.75100 21.09800
H  -0.60100 14.48700 22.22000
H  0.39700 17.00600 23.46200
H  1.33100 16.54100 22.09200
H  1.06400 15.30600 23.42300
H  -3.19200 12.06000 25.01900
H  -3.71100 11.24100 26.59500
H  -2.02600 11.28000 26.12200
H  -4.21100 13.91900 30.86500
H  -1.56000 11.66900 33.45400
H  -2.47800 12.90900 34.36700
H  -1.05200 13.36400 33.67800
Mg 8.65300 3.51000 27.97500
C  10.11500 2.03300 30.82800
C  6.93600 5.66500 30.11800
C  6.95700 4.89400 25.23400
C  9.99200 1.15500 25.90300
N  8.54800 3.82700 30.18500
C  9.29600 3.12000 31.14400
C  9.09900 3.66500 32.55000
C  7.94600 4.78200 32.33200
C  7.80100 4.76200 30.78000
C  6.63200 4.62100 33.05700
C  10.40800 4.33900 33.13000
C  10.98400 3.77500 34.43700
H  10.88100 4.79400 35.67900
N  7.14800 5.10300 27.69600
C  6.59600 5.88300 28.67600
C  5.65700 6.84300 28.14500
C  5.63900 6.57900 26.71300
C  6.60900 5.47600 26.48300
C  4.85300 7.72700 28.95800
C  4.77400 7.19700 25.64100
O  4.63300 6.78100 24.48500
C  3.97400 8.45200 25.97600
N  8.66400 3.18000 25.91300
C  7.94000 3.83000 25.00800
C  8.23700 3.30300 23.58600
C  9.31400 2.26300 23.76900
C  9.30400 2.16600 25.30500
C  6.95700 2.90200 22.78700
C  10.70800 2.65600 23.15200
C  11.54600 1.48100 22.54800
N  9.78200 1.88300 28.23700
C  10.21400 1.01900 27.27700
C  11.14400 0.13300 27.93100
C  11.18700 0.48500 29.30300
C  10.29400 1.55300 29.45300
C  11.74400 -1.07900 27.21000
C  11.66500 0.14000 30.59400
O  12.40700 -0.79700 30.94400
C  11.17000 1.30500 31.60000
C  10.52600 0.64800 32.76200
O  9.34900 0.22200 32.77600
O  11.42100 0.51900 33.76000
C  11.12200 0.09500 35.09400
H  6.40500 6.38900 30.73900
H  6.46800 5.30500 24.34800
H  10.58100 0.40300 25.37300
H  8.70000 2.88400 33.19800
H  8.30200 5.75100 32.68300
H  6.36200 5.45600 33.70300
H  6.60600 3.63900 33.52900
H  5.91200 4.55700 32.24000
H  10.16000 5.36300 33.41100
H  11.18200 4.32500 32.36200
H  12.00600 3.42000 34.29800
H  10.39600 2.88800 34.67100
H  4.59300 7.31800 29.93400
H  3.89900 7.83900 28.44400
H  5.26100 8.73700 28.98000
H  3.89800 9.13700 25.13200
H  4.60000 9.01700 26.66700
H  3.05400 8.17900 26.49400
H  8.56300 4.16800 23.00800
H  9.15200 1.28600 23.31400
H  6.01900 2.92900 23.34100
H  7.04300 1.87800 22.42500
H  6.66300 3.67600 22.07700
H  11.33500 3.10600 23.92200
H  10.63800 3.34200 22.30800
H  11.84000 1.58200 21.50300
H  11.04900 0.51500 22.63200
H  12.44100 1.35800 23.15900
H  12.56100 -0.72400 26.58200
H  11.02700 -1.56400 26.54900
H  12.08400 -1.85500 27.89600
H  11.95300 1.97900 31.94800
H  10.36500 0.74700 35.52900
H  11.95000 0.06500 35.80200
H  10.62900 -0.87400 35.00900

