158

Mg 6.06200 54.43700 41.10900
C  5.22700 51.11500 40.77700
C  9.10400 53.88800 39.47200
C  6.45800 57.79600 40.46700
C  2.77800 55.14400 42.00800
N  6.96700 52.73500 40.01200
C  6.48600 51.44400 40.13600
C  7.58300 50.40200 39.57200
C  8.80500 51.34100 39.54400
C  8.29800 52.75100 39.62600
C  9.87200 51.21300 40.63200
C  7.26400 49.82500 38.09000
C  6.57400 50.80500 37.07000
H  7.14100 50.89600 35.67100
N  7.73400 55.68300 40.24300
C  8.85100 55.25300 39.63600
C  9.66800 56.34200 39.27700
C  8.98300 57.58400 39.62800
C  7.67500 57.08400 40.15200
C  11.13200 56.11000 38.81200
C  9.44600 59.00700 39.54400
O  10.55200 59.32800 39.01200
C  8.64800 60.16000 40.06700
N  4.79600 56.20900 41.13600
C  5.17700 57.46100 40.88400
C  4.04400 58.44800 40.93500
C  2.86600 57.60300 41.40000
C  3.48700 56.24800 41.52300
C  4.31500 59.79900 41.57800
C  1.61800 57.60900 40.49200
C  0.34200 58.09900 41.16500
N  4.42700 53.38700 41.62100
C  3.15400 53.77300 42.00600
C  2.34600 52.57100 42.30400
C  3.17600 51.52800 41.83300
C  4.37600 52.04300 41.38700
C  0.92300 52.45100 42.83400
C  3.15900 50.10700 41.64000
O  2.31700 49.22200 41.88000
C  4.64100 49.76600 41.16800
C  4.53800 48.88600 40.02100
O  4.03000 49.16400 38.94100
O  5.09400 47.66500 40.34000
C  4.93500 46.68100 39.26600
H  10.14600 53.69900 39.20500
H  6.46800 58.86300 40.23200
H  1.80100 55.42300 42.40700
H  7.75600 49.53700 40.21300
H  9.32100 51.22700 38.59100
H  9.76500 50.31400 41.23900
H  9.76900 52.04200 41.33200
H  10.86300 51.28300 40.18200
H  6.62700 48.94000 38.08800
H  8.17200 49.49800 37.58400
H  6.62800 51.78900 37.53800
H  5.53400 50.58400 36.83200
H  11.78900 56.97800 38.86900
H  11.20600 55.77000 37.77900
H  11.57800 55.34400 39.44600
H  7.84400 60.50800 39.41800
H  9.34200 60.96900 40.29300
H  8.31400 59.78200 41.03300
H  3.92900 58.51000 39.85300
H  2.51100 57.81400 42.40900
H  3.72700 60.50700 40.99400
H  5.33500 60.18000 41.62700
H  4.03700 59.79100 42.63200
H  1.49600 56.61500 40.06000
H  1.78200 58.31700 39.67900
H  -0.50000 57.51400 40.79500
H  0.24600 59.15700 40.92200
H  0.31100 57.96700 42.24700
H  0.99400 51.91600 43.78100
H  0.35000 51.90200 42.08700
H  0.36700 53.38600 42.90000
H  5.23500 49.21400 41.89600
H  5.53600 45.78800 39.43600
H  5.09400 47.07700 38.26300
H  3.89000 46.37800 39.19200
Mg 0.08000 43.63700 25.60800
C  2.00900 43.92600 28.33500
C  -2.78500 43.43000 27.54000
C  -1.66200 42.78000 22.83400
C  3.03100 43.98100 23.65600
N  -0.38700 43.79800 27.68800
C  0.58800 43.88300 28.65800
C  0.01800 43.94700 30.07800
C  -1.48800 43.62000 29.79700
C  -1.59200 43.66400 28.23700
C  -2.12000 42.39200 30.44200
C  0.28400 45.34500 30.76300
C  0.84000 45.31400 32.20300
H  0.44000 44.15600 33.17600
N  -1.94400 43.18600 25.21100
C  -2.99900 43.14100 26.16400
C  -4.23100 42.64900 25.52100
C  -3.88600 42.48900 24.14100
C  -2.44100 42.70300 24.01600
C  -5.49100 42.46600 26.35100
C  -4.83300 42.02500 22.96100
O  -4.43600 41.88700 21.76400
C  -6.21000 41.84200 23.15700
N  0.62100 43.43300 23.52800
C  -0.29900 43.18200 22.58500
C  0.41500 43.11000 21.20000
C  1.68900 44.00200 21.40300
C  1.80500 43.83000 22.92600
C  0.56500 41.67900 20.71600
C  1.60400 45.47600 20.80300
C  1.47000 46.77700 21.69700
N  2.11300 43.93800 25.88000
C  3.15300 44.01000 25.01800
C  4.43300 44.12600 25.77300
C  4.03600 44.08500 27.13200
C  2.63800 44.03500 27.07800
C  5.87700 44.18200 25.28400
C  4.46900 44.04000 28.51800
O  5.55600 43.99300 29.07200
C  3.11100 43.93600 29.40700
C  3.11000 42.65300 30.29300
O  3.12900 41.45100 29.96500
O  3.50500 43.11400 31.52400
C  3.83800 42.12800 32.50600
H  -3.70200 43.37700 28.13100
H  -2.16500 42.52900 21.89800
H  3.95300 44.16100 23.09800
H  0.42100 43.09300 30.62400
H  -2.02600 44.48700 30.18100
H  -2.19900 41.67700 29.62300
H  -3.10500 42.76300 30.72400
H  -1.56700 41.90500 31.24400
H  -0.59000 45.98700 30.66000
H  0.90500 45.96600 30.11800
H  0.60200 46.26500 32.68000
H  1.90900 45.17400 32.04300
H  -5.36200 41.54500 26.92100
H  -6.39000 42.41800 25.73600
H  -5.70300 43.14800 27.17400
H  -6.68300 41.56900 22.21300
H  -6.65800 42.78600 23.46700
H  -6.29800 41.00300 23.84700
H  -0.20100 43.56700 20.42500
H  2.55200 43.48100 20.98800
H  0.26700 40.93500 21.45500
H  1.54700 41.41300 20.32500
H  -0.19700 41.47400 19.96400
H  0.80200 45.49600 20.06600
H  2.54300 45.55500 20.25500
H  1.80900 46.55700 22.70900
H  0.42500 47.08300 21.74600
H  2.16300 47.49000 21.25200
H  6.06500 43.27300 24.71300
H  6.60300 44.34200 26.08100
H  6.11000 45.01400 24.61900
H  3.04100 44.82300 30.03600
H  3.44000 41.12400 32.35600
H  3.54100 42.57000 33.45700
H  4.92400 42.17400 32.57600

