158

Mg -2.25000 17.61700 26.67800
C  -2.90400 15.86800 29.61500
C  -3.02500 20.47900 28.60500
C  -2.19600 19.52500 23.88700
C  -2.46400 14.83200 24.79100
N  -3.03100 18.10000 28.90000
C  -3.00900 17.23400 29.92700
C  -3.34800 17.88800 31.26700
C  -3.90500 19.29600 30.83600
C  -3.29600 19.37200 29.32800
C  -5.37100 19.63800 30.97800
C  -2.11600 17.93000 32.23800
C  -2.39100 17.47900 33.65300
H  -1.20500 17.41200 34.53200
N  -2.30700 19.72200 26.32100
C  -2.57900 20.67800 27.24600
C  -2.46900 22.01000 26.59900
C  -2.16500 21.82500 25.21900
C  -2.14700 20.30300 25.03900
C  -2.80600 23.34100 27.19000
C  -1.90000 22.81100 24.08000
O  -1.69500 22.44000 22.95300
C  -2.05900 24.30400 24.39600
N  -2.56400 17.32800 24.57400
C  -2.37500 18.18800 23.58200
C  -2.01200 17.56700 22.25300
C  -2.20700 16.06300 22.58300
C  -2.38100 16.02500 24.12300
C  -2.93000 18.15000 21.12200
C  -1.08700 15.17400 21.95200
C  0.37400 15.43000 22.40800
N  -2.53200 15.72300 27.03000
C  -2.60000 14.66000 26.20100
C  -2.67500 13.43000 27.00400
C  -2.77600 13.85400 28.32400
C  -2.73700 15.25800 28.33000
C  -2.53200 12.08000 26.38100
C  -2.88300 13.45800 29.71400
O  -3.02300 12.28900 30.12800
C  -2.86200 14.66900 30.56300
C  -1.65100 14.63800 31.46100
O  -0.55800 15.15200 31.23700
O  -1.97500 13.82900 32.56200
C  -0.94900 13.53500 33.55000
H  -3.19500 21.36400 29.22200
H  -2.16700 20.12300 22.97400
H  -2.31100 13.93400 24.18900
H  -4.17200 17.33300 31.71600
H  -3.53000 20.14700 31.40400
H  -5.44800 20.43800 31.71500
H  -5.99900 18.85300 31.40100
H  -5.73900 20.04800 30.03800
H  -1.90700 18.99800 32.30700
H  -1.23400 17.51200 31.75400
H  -2.82600 16.48000 33.66300
H  -3.13100 18.12300 34.12900
H  -3.05200 23.26300 28.24900
H  -3.55600 23.88900 26.61900
H  -1.85000 23.85500 27.09000
H  -1.93600 24.76500 23.41600
H  -1.38100 24.68100 25.16200
H  -3.05100 24.47700 24.81400
H  -0.95700 17.76000 22.05800
H  -3.13300 15.69100 22.14300
H  -3.61800 18.90900 21.49300
H  -3.62800 17.40200 20.74800
H  -2.21700 18.44400 20.35100
H  -1.21300 15.37800 20.88900
H  -1.19000 14.09800 22.09300
H  0.35700 15.87700 23.40200
H  0.94800 15.97400 21.65800
H  0.80000 14.43700 22.54800
H  -1.85900 11.41000 26.91700
H  -1.96700 12.23800 25.46200
H  -3.46000 11.51700 26.28300
H  -3.77300 14.85200 31.13200
H  -1.07900 13.97100 34.54000
H  0.01300 13.90400 33.19500
H  -0.93300 12.44500 33.54900
Mg 9.28400 48.34700 26.11900
C  7.18200 48.82600 28.86500
C  11.99500 49.18600 28.26400
C  11.50000 48.11300 23.55800
C  6.57300 48.07400 24.02200
N  9.58100 48.90200 28.26400
C  8.55000 48.84500 29.16800
C  9.14100 48.88000 30.63800
C  10.58000 49.37500 30.37800
C  10.73900 49.19400 28.85100
C  10.86500 50.81700 30.85400
C  9.12600 47.50100 31.38200
C  9.70200 47.52200 32.79700
H  8.80500 46.98800 33.99100
N  11.45500 48.76600 25.86800
C  12.34200 48.99800 26.89900
C  13.71300 48.75000 26.33200
C  13.56500 48.42800 24.97700
C  12.12800 48.51700 24.69700
C  14.93500 48.82300 27.21200
C  14.61900 48.00000 24.01300
O  14.46600 47.90400 22.76600
C  16.04100 47.66600 24.49900
N  9.02200 48.18300 24.10400
C  10.09900 47.84000 23.28600
C  9.63000 47.44500 21.81300
C  8.05000 47.61300 21.94700
C  7.85600 47.88900 23.48100
C  10.31200 48.06700 20.56100
C  7.24400 46.39700 21.43700
C  5.91900 46.46800 20.65500
N  7.28100 48.49000 26.36300
C  6.30300 48.28600 25.38600
C  4.95000 48.48300 26.04400
C  5.29400 48.65500 27.36700
C  6.66700 48.67000 27.51900
C  3.55300 48.35900 25.43000
C  4.72600 48.80900 28.70200
O  3.51900 48.84900 28.98500
C  5.88900 49.04200 29.67800
C  5.77600 48.05300 30.79300
O  5.74200 46.89300 30.69500
O  5.59300 48.75600 31.97700
C  5.40900 48.04100 33.24200
H  12.79200 49.25100 29.00900
H  12.13000 47.61100 22.82100
H  5.81600 48.02800 23.23600
H  8.50400 49.55400 31.21000
H  11.37800 48.79500 30.84100
H  11.51000 50.79100 31.73200
H  9.94500 51.31600 31.16000
H  11.35200 51.40400 30.07500
H  9.56400 46.70000 30.78500
H  8.13500 47.04700 31.38500
H  10.10400 48.52500 32.94300
H  10.50600 46.78700 32.76600
H  15.58000 47.95500 27.07700
H  14.78900 48.98100 28.28100
H  15.59100 49.63900 26.90800
H  16.42000 48.59900 24.91600
H  16.66200 47.42200 23.63700
H  15.99600 46.79900 25.15700
H  9.81100 46.37100 21.77100
H  7.71500 48.40900 21.28200
H  9.66700 48.88400 20.23700
H  10.48100 47.34100 19.76600
H  11.31100 48.47600 20.70900
H  6.89500 45.77500 22.26100
H  7.90900 45.79600 20.81600
H  5.14300 45.96900 21.23500
H  6.10100 46.20200 19.61300
H  5.67100 47.52900 20.67700
H  3.30800 47.31300 25.24700
H  3.37300 48.97400 24.54800
H  2.72700 48.53600 26.11900
H  6.07000 50.06500 30.00800
H  4.34900 48.05200 33.49700
H  5.95900 48.49600 34.06600
H  5.66900 46.98500 33.17400

