158

Mg 35.42400 2.49000 29.84600
C  33.35500 3.41000 32.50400
C  38.19200 2.75300 32.01500
C  37.43700 1.73200 27.36100
C  32.67000 2.74700 27.72600
N  35.69800 2.98800 31.96300
C  34.69300 3.15800 32.91100
C  35.24700 3.21000 34.32700
C  36.79100 3.23900 34.14400
C  36.91300 2.90000 32.65000
C  37.46100 4.54100 34.67300
C  34.67300 1.99800 35.14300
C  34.17700 2.24100 36.63700
H  34.80500 3.49100 37.26000
N  37.60900 2.24300 29.63800
C  38.55200 2.41900 30.65900
C  39.86300 2.09900 30.12200
C  39.67300 1.79500 28.77100
C  38.19200 1.95200 28.49900
C  41.18900 2.29500 30.88200
C  40.70100 1.51000 27.66500
O  40.35600 1.08600 26.56600
C  42.24000 1.46700 27.90000
N  35.15000 2.36900 27.90200
C  36.13800 1.99300 26.98100
C  35.60900 1.89500 25.53300
C  34.04900 1.80900 25.77600
C  33.91700 2.39800 27.26800
C  35.98700 3.02000 24.61900
C  33.38500 0.45000 25.52700
C  32.57900 0.29100 24.29500
N  33.37600 3.01200 30.03000
C  32.40800 3.16400 29.05500
C  31.20600 3.69300 29.70500
C  31.45300 3.73200 31.06300
C  32.81900 3.33600 31.17400
C  29.97100 4.01100 28.83500
C  30.88200 4.04700 32.35400
O  29.78600 4.49600 32.58100
C  32.14800 3.71100 33.38100
C  32.15700 4.77400 34.40900
O  32.94800 5.75100 34.31100
O  31.17400 4.57700 35.34800
C  31.07100 5.72200 36.33500
H  39.06000 2.86100 32.66900
H  38.07900 1.71900 26.47800
H  31.78300 2.83600 27.09600
H  34.92600 4.10400 34.86200
H  37.33500 2.47700 34.70000
H  38.50800 4.41000 34.94600
H  36.86900 4.95800 35.48900
H  37.49900 5.35800 33.95300
H  35.48200 1.26800 35.18800
H  33.89800 1.57000 34.50700
H  34.31100 1.34600 37.24400
H  33.09700 2.37900 36.69100
H  41.87100 1.45500 30.74400
H  41.09300 2.22700 31.96500
H  41.74100 3.20500 30.64500
H  42.40900 0.69300 28.64800
H  42.46700 2.48000 28.23200
H  42.63900 1.21600 26.91800
H  35.94900 1.01500 24.98800
H  33.48000 2.50400 25.15900
H  36.33600 2.67700 23.64500
H  36.77700 3.65600 25.01600
H  35.13200 3.68500 24.49200
H  32.83000 0.27200 26.44800
H  34.19200 -0.28300 25.54000
H  32.79400 1.05000 23.54200
H  31.52000 0.27600 24.55300
H  32.74600 -0.67800 23.82700
H  30.13700 4.24100 27.78200
H  29.32900 4.75500 29.30700
H  29.31500 3.14200 28.79700
H  31.88300 2.79500 33.90900
H  30.69900 6.53600 35.71300
H  32.04500 5.96500 36.75900
H  30.28400 5.44800 37.03800
Mg 47.68800 35.21400 28.16400
C  45.82000 33.37800 30.41200
C  47.70400 37.84100 30.47700
C  49.09300 37.22000 25.77000
C  47.72200 32.45700 25.97200
N  47.00000 35.52300 30.30600
C  46.25900 34.56200 31.00700
C  46.26800 34.88000 32.47100
C  46.48000 36.43100 32.36200
C  47.07100 36.69000 30.93300
C  45.12200 37.08200 32.52400
C  47.61900 34.29400 33.04500
C  48.09500 34.71700 34.41400
H  47.21000 35.44400 35.40000
N  48.38200 37.21100 28.14800
C  48.29900 38.09600 29.17200
C  48.86000 39.33400 28.71400
C  49.34100 39.19900 27.39100
C  48.92000 37.83800 27.06000
C  48.85600 40.60700 29.59600
C  50.21800 40.10000 26.52600
O  50.48200 39.87800 25.32300
C  50.77400 41.35200 27.12500
N  48.28000 34.85000 26.20200
C  48.85500 35.84100 25.40200
C  49.36300 35.28400 24.13800
C  48.94300 33.77200 24.23300
C  48.30900 33.63200 25.61100
C  48.68500 36.05100 22.95400
C  49.95900 32.78200 23.75600
C  50.02000 32.55100 22.19900
N  46.80800 33.36900 28.03000
C  46.88700 32.33700 27.11600
C  46.21200 31.15600 27.52300
C  45.65300 31.57700 28.77900
C  46.14400 32.90000 29.07900
C  45.98000 29.86800 26.76800
C  44.80000 31.21600 29.88600
O  44.18000 30.16800 30.08600
C  44.80600 32.38700 30.96500
C  44.99700 31.72900 32.27800
O  45.89000 30.94900 32.52200
O  44.07000 32.18900 33.16900
C  44.14500 31.63700 34.54000
H  47.87900 38.61900 31.22300
H  49.60300 37.80000 24.99800
H  48.07000 31.56500 25.44900
H  45.35500 34.57200 32.98100
H  47.16100 36.88100 33.08500
H  44.81000 37.64700 31.64600
H  44.99600 37.72800 33.39300
H  44.34200 36.32300 32.45600
H  48.33100 34.67300 32.31100
H  47.55000 33.20700 33.09700
H  48.97300 35.33700 34.22800
H  48.51900 33.84600 34.91400
H  49.74100 40.73100 30.22200
H  47.96600 40.71900 30.21400
H  48.78500 41.49400 28.96700
H  50.88300 41.30300 28.20900
H  50.15600 42.17000 26.75500
H  51.78100 41.50700 26.73900
H  50.44300 35.40000 24.05400
H  48.00600 33.65000 23.69000
H  48.03700 35.41400 22.35200
H  49.60600 36.25300 22.40700
H  48.09700 36.91700 23.25700
H  49.93200 31.79000 24.20900
H  50.96400 33.14500 23.97400
H  50.84200 33.10900 21.74900
H  49.11700 32.73300 21.61600
H  50.15000 31.47200 22.11900
H  46.96000 29.52100 26.44000
H  45.29300 30.14000 25.96600
H  45.50200 29.13700 27.42000
H  43.85900 32.92600 30.95200
H  44.01800 32.49500 35.20000
H  45.17100 31.31500 34.71600
H  43.37800 30.88300 34.71700

