158

Mg 25.38700 1.28400 29.86500
C  27.26200 1.40500 32.79200
C  22.56000 1.87200 31.91200
C  23.50900 1.17000 27.09700
C  28.19100 0.52200 27.86500
N  24.96000 1.46700 32.19600
C  25.92700 1.61900 33.13100
C  25.40500 1.88900 34.51000
C  23.78900 1.84600 34.20900
C  23.71100 1.75900 32.63900
C  22.93800 0.70500 34.73000
C  25.90500 3.20100 35.21900
C  26.84900 3.09000 36.45000
H  26.65800 4.06100 37.56900
N  23.34700 1.48600 29.55600
C  22.39000 1.67700 30.54500
C  21.13300 1.60400 29.89800
C  21.35000 1.45300 28.48000
C  22.78300 1.37400 28.27900
C  19.80200 1.53200 30.65800
C  20.36300 1.25800 27.40600
O  20.64800 0.99400 26.24300
C  18.92900 1.37500 27.70500
N  25.80300 0.66300 27.67700
C  24.80500 0.81800 26.76800
C  25.32500 0.83600 25.33500
C  26.90500 0.65200 25.58300
C  27.01900 0.50200 27.12200
C  24.73800 -0.22000 24.38200
C  27.82400 1.66000 24.86700
C  28.71500 1.11300 23.75000
N  27.32000 0.96600 30.23000
C  28.40800 0.68800 29.28800
C  29.68100 0.67000 30.03500
C  29.25900 0.94200 31.37500
C  27.81300 1.06300 31.50100
C  31.09000 0.45100 29.55500
C  29.76500 1.05800 32.69200
O  30.88600 0.91800 33.08000
C  28.49900 1.37500 33.65600
C  28.40300 0.33600 34.61300
O  27.68800 -0.67600 34.62400
O  29.08300 0.64200 35.76100
C  28.77800 -0.23000 37.01100
H  21.66900 2.05300 32.51800
H  22.92800 1.05900 26.17900
H  28.98800 0.60900 27.12400
H  25.66200 0.99200 35.07200
H  23.29300 2.74000 34.58800
H  22.23700 0.29400 34.00300
H  22.45000 1.12500 35.61000
H  23.57200 -0.14100 34.99400
H  25.03500 3.79000 35.50900
H  26.48400 3.74600 34.47300
H  27.88100 3.21500 36.12400
H  26.84100 2.07700 36.85400
H  19.43000 0.52700 30.46200
H  19.09900 2.31100 30.36200
H  19.90900 1.55800 31.74200
H  18.65200 0.48700 28.27300
H  18.38000 1.45400 26.76600
H  18.64600 2.22100 28.33100
H  25.04100 1.81500 24.94700
H  27.28100 -0.28000 25.16100
H  25.48100 -0.88600 23.94400
H  24.05700 0.02800 23.56800
H  24.02600 -0.70900 25.04700
H  28.42900 2.10900 25.65500
H  27.28800 2.51100 24.44600
H  29.76300 1.16000 24.04600
H  28.62900 1.79300 22.90200
H  28.48000 0.11700 23.37400
H  31.26000 0.90800 28.58000
H  31.36100 -0.60400 29.54100
H  31.65300 1.00500 30.30600
H  28.74100 2.36100 34.05300
H  28.91400 -1.29100 36.80200
H  27.74600 -0.01500 37.28800
H  29.43600 0.06100 37.83000
Mg -5.68600 25.17000 26.04700
C  -4.23400 26.65200 28.84800
C  -7.35600 23.07200 28.08300
C  -6.67600 23.44000 23.27900
C  -3.40300 26.99500 24.03700
N  -5.55400 24.74300 28.21000
C  -5.09800 25.57200 29.20400
C  -5.66300 25.22600 30.62100
C  -6.18200 23.78600 30.26900
C  -6.37000 23.80000 28.74400
C  -5.22700 22.58700 30.68200
C  -6.71800 26.25200 31.26700
C  -6.88400 26.16600 32.80800
H  -6.11200 25.08500 33.56500
N  -7.00600 23.58700 25.71800
C  -7.65600 22.90200 26.69200
C  -8.63400 21.97700 26.12100
C  -8.47400 22.11900 24.67200
C  -7.37600 23.16200 24.47600
C  -9.53300 21.12800 26.99300
C  -9.26200 21.43900 23.52900
O  -8.95700 21.63100 22.31000
C  -10.45800 20.62200 23.76400
N  -5.28100 25.44900 23.84500
C  -5.71100 24.51400 22.98200
C  -4.90900 24.54400 21.58000
C  -3.95200 25.79900 21.84000
C  -4.28500 26.16400 23.28300
C  -4.19600 23.09900 21.28700
C  -4.19900 26.99500 20.85000
C  -5.17800 28.07200 21.28500
N  -4.30300 26.67800 26.31300
C  -3.42400 27.33200 25.43800
C  -2.56400 28.24800 26.20700
C  -2.92900 28.10900 27.52000
C  -3.82100 27.00500 27.57700
C  -1.63800 29.22500 25.68100
C  -2.62100 28.53000 28.82200
O  -1.90200 29.37400 29.25100
C  -3.48700 27.57400 29.75000
C  -2.67800 26.88700 30.73100
O  -2.13100 25.82700 30.45100
O  -2.64600 27.51500 31.93400
C  -2.14300 26.71800 33.10200
H  -7.92300 22.34600 28.66900
H  -6.84000 22.80000 22.41000
H  -2.61600 27.38100 23.38500
H  -4.86300 25.18300 31.36000
H  -7.12300 23.48300 30.72800
H  -5.83100 21.84500 31.20500
H  -4.38300 22.96200 31.26100
H  -4.69600 22.19000 29.81700
H  -7.61000 26.09400 30.66000
H  -6.51200 27.27800 30.96100
H  -7.93900 26.07800 33.06900
H  -6.58000 27.12900 33.21800
H  -10.39600 21.62100 27.43900
H  -8.91400 20.61900 27.73300
H  -9.83300 20.25900 26.40700
H  -10.13300 19.59500 23.92900
H  -10.93400 20.62400 22.78300
H  -11.10200 21.06400 24.52400
H  -5.61300 24.77000 20.77900
H  -2.93900 25.41200 21.95800
H  -3.17900 23.22600 20.91700
H  -4.77000 22.64800 20.47700
H  -4.23900 22.34800 22.07500
H  -4.45200 26.58900 19.87100
H  -3.19500 27.39400 20.70400
H  -5.66000 28.29600 20.33400
H  -4.65800 28.89900 21.76900
H  -6.02100 27.68500 21.85800
H  -1.21500 28.82800 24.75800
H  -0.74100 29.30400 26.29500
H  -2.03300 30.22600 25.50900
H  -4.21700 28.23000 30.22300
H  -1.28700 26.10000 32.83100
H  -2.91500 26.03500 33.45800
H  -1.85400 27.34100 33.94800

