158

Mg -2.25000 17.61700 26.67800
C  -2.90400 15.86800 29.61500
C  -3.02500 20.47900 28.60500
C  -2.19600 19.52500 23.88700
C  -2.46400 14.83200 24.79100
N  -3.03100 18.10000 28.90000
C  -3.00900 17.23400 29.92700
C  -3.34800 17.88800 31.26700
C  -3.90500 19.29600 30.83600
C  -3.29600 19.37200 29.32800
C  -5.37100 19.63800 30.97800
C  -2.11600 17.93000 32.23800
C  -2.39100 17.47900 33.65300
H  -1.20500 17.41200 34.53200
N  -2.30700 19.72200 26.32100
C  -2.57900 20.67800 27.24600
C  -2.46900 22.01000 26.59900
C  -2.16500 21.82500 25.21900
C  -2.14700 20.30300 25.03900
C  -2.80600 23.34100 27.19000
C  -1.90000 22.81100 24.08000
O  -1.69500 22.44000 22.95300
C  -2.05900 24.30400 24.39600
N  -2.56400 17.32800 24.57400
C  -2.37500 18.18800 23.58200
C  -2.01200 17.56700 22.25300
C  -2.20700 16.06300 22.58300
C  -2.38100 16.02500 24.12300
C  -2.93000 18.15000 21.12200
C  -1.08700 15.17400 21.95200
C  0.37400 15.43000 22.40800
N  -2.53200 15.72300 27.03000
C  -2.60000 14.66000 26.20100
C  -2.67500 13.43000 27.00400
C  -2.77600 13.85400 28.32400
C  -2.73700 15.25800 28.33000
C  -2.53200 12.08000 26.38100
C  -2.88300 13.45800 29.71400
O  -3.02300 12.28900 30.12800
C  -2.86200 14.66900 30.56300
C  -1.65100 14.63800 31.46100
O  -0.55800 15.15200 31.23700
O  -1.97500 13.82900 32.56200
C  -0.94900 13.53500 33.55000
H  -3.19500 21.36400 29.22200
H  -2.16700 20.12300 22.97400
H  -2.31100 13.93400 24.18900
H  -4.17200 17.33300 31.71600
H  -3.53000 20.14700 31.40400
H  -5.44800 20.43800 31.71500
H  -5.99900 18.85300 31.40100
H  -5.73900 20.04800 30.03800
H  -1.90700 18.99800 32.30700
H  -1.23400 17.51200 31.75400
H  -2.82600 16.48000 33.66300
H  -3.13100 18.12300 34.12900
H  -3.05200 23.26300 28.24900
H  -3.55600 23.88900 26.61900
H  -1.85000 23.85500 27.09000
H  -1.93600 24.76500 23.41600
H  -1.38100 24.68100 25.16200
H  -3.05100 24.47700 24.81400
H  -0.95700 17.76000 22.05800
H  -3.13300 15.69100 22.14300
H  -3.61800 18.90900 21.49300
H  -3.62800 17.40200 20.74800
H  -2.21700 18.44400 20.35100
H  -1.21300 15.37800 20.88900
H  -1.19000 14.09800 22.09300
H  0.35700 15.87700 23.40200
H  0.94800 15.97400 21.65800
H  0.80000 14.43700 22.54800
H  -1.85900 11.41000 26.91700
H  -1.96700 12.23800 25.46200
H  -3.46000 11.51700 26.28300
H  -3.77300 14.85200 31.13200
H  -1.07900 13.97100 34.54000
H  0.01300 13.90400 33.19500
H  -0.93300 12.44500 33.54900
Mg -10.01100 39.54200 39.73100
C  -9.12200 36.22900 39.02500
C  -6.95100 40.48700 38.77800
C  -11.27800 42.62300 39.69300
C  -13.30200 38.30800 40.47600
N  -8.24000 38.43200 39.01500
C  -8.07000 37.13400 38.72500
C  -6.61600 36.82000 38.30600
C  -5.86500 38.14500 38.62200
C  -7.09400 39.10700 38.89400
C  -4.93000 37.98300 39.89300
C  -6.59900 36.34000 36.81100
C  -6.73500 37.46600 35.77600
H  -7.85600 37.36100 34.72800
N  -9.20500 41.25300 39.25800
C  -7.94300 41.44400 38.83500
C  -7.69800 42.87000 38.63700
C  -8.92500 43.55200 38.94000
C  -9.89700 42.50200 39.41000
C  -6.38700 43.49700 38.19500
C  -9.11300 45.05700 38.75200
O  -8.20900 45.72100 38.24500
C  -10.36800 45.78200 39.24500
N  -12.14300 40.31100 39.99300
C  -12.26200 41.65700 39.95500
C  -13.74500 42.06600 40.10100
C  -14.42300 40.64400 40.30600
C  -13.24700 39.65800 40.20300
C  -14.03600 43.15200 41.19500
C  -15.61700 40.36700 39.30400
C  -16.71400 39.32300 39.71900
N  -11.06000 37.70900 39.75600
C  -12.31400 37.35300 40.27800
C  -12.49100 35.91300 40.41800
C  -11.26900 35.44800 39.95300
C  -10.44600 36.58400 39.48000
C  -13.68100 35.25800 40.84900
C  -10.53800 34.21800 39.45500
O  -10.87900 33.06900 39.41600
C  -9.04900 34.69600 39.04100
C  -8.26000 34.23200 40.20000
O  -8.61200 34.25800 41.41000
O  -6.95400 33.89000 39.78000
C  -6.12500 33.31300 40.77900
H  -5.96700 40.82100 38.44500
H  -11.64300 43.65000 39.74100
H  -14.22900 37.91000 40.89400
H  -6.26600 35.98300 38.91000
H  -5.22200 38.56300 37.84700
H  -5.46900 38.23900 40.80500
H  -4.14600 38.73100 39.77000
H  -4.42200 37.02000 39.84800
H  -7.46200 35.67400 36.79000
H  -5.64700 35.86800 36.56800
H  -5.72700 37.63600 35.39600
H  -7.04700 38.37000 36.29900
H  -6.53600 44.08000 37.28600
H  -5.82100 42.61400 37.90000
H  -5.89700 44.03800 39.00500
H  -10.55600 45.52500 40.28800
H  -11.18800 45.61400 38.54800
H  -10.27300 46.86200 39.13600
H  -13.91000 42.40100 39.07700
H  -14.80000 40.58100 41.32600
H  -14.71100 43.95700 40.90700
H  -13.12400 43.68900 41.45600
H  -14.26000 42.62800 42.12400
H  -15.23800 40.11200 38.31400
H  -16.06300 41.35700 39.20400
H  -17.20700 38.80400 38.89700
H  -17.50300 39.82200 40.28100
H  -16.24400 38.63100 40.41800
H  -14.48500 35.64800 40.22500
H  -13.89100 35.47500 41.89600
H  -13.56600 34.19700 40.62900
H  -8.83900 34.27500 38.05800
H  -6.67400 32.82400 41.58400
H  -5.70400 34.24600 41.15200
H  -5.34700 32.67700 40.35700

