158

Mg 30.12000 58.38000 40.80200
C  27.41800 56.55700 39.64700
C  32.27100 56.02500 39.32500
C  32.73800 60.51400 41.36800
C  27.84100 61.06400 41.51800
N  29.89000 56.52600 39.71000
C  28.67300 55.99700 39.29000
C  28.88700 54.80900 38.43900
C  30.39700 54.46700 38.51000
C  30.91800 55.73600 39.28700
C  30.87200 53.18000 39.16600
C  28.41000 55.14900 37.01400
C  27.35500 54.17800 36.36400
H  26.51300 54.84200 35.30000
N  32.26900 58.29200 40.40900
C  32.97100 57.18000 39.87300
C  34.36500 57.47400 39.88500
C  34.47500 58.79900 40.50500
C  33.18400 59.25700 40.80700
C  35.42300 56.67200 39.28300
C  35.80700 59.47400 41.00000
O  36.83400 58.90200 40.70000
C  35.89500 60.75100 41.86300
N  30.27100 60.46900 41.25100
C  31.50900 61.07400 41.53500
C  31.35500 62.58600 41.76100
C  29.75900 62.74500 41.82600
C  29.22600 61.32400 41.62900
C  32.19600 63.09300 42.98800
C  29.16300 63.84500 40.88700
C  27.92800 64.57900 41.41800
N  28.00500 58.72200 40.87900
C  27.24800 59.87600 41.09100
C  25.88800 59.54700 40.87300
C  25.91500 58.24000 40.36600
C  27.22900 57.77600 40.28300
C  24.63700 60.30400 41.07300
C  25.01200 57.13600 39.94600
O  23.82000 56.98500 39.95200
C  26.01000 56.05700 39.32300
C  25.69400 54.74200 39.98400
O  26.18500 54.44600 41.05500
O  24.78700 54.10200 39.28900
C  24.35300 52.80800 39.89500
H  32.85500 55.18700 38.93800
H  33.44700 61.33400 41.50400
H  27.22100 61.92000 41.79200
H  28.31000 53.96100 38.80900
H  30.76700 54.41900 37.48600
H  31.44800 53.29200 40.08400
H  31.46700 52.69300 38.39300
H  30.14000 52.41500 39.42200
H  29.19900 55.03600 36.27000
H  27.97200 56.14200 36.91900
H  26.82200 53.42000 36.93900
H  27.88200 53.48900 35.70400
H  36.15000 56.35000 40.02900
H  35.92200 57.27900 38.52900
H  35.02000 55.82200 38.73200
H  35.26200 60.56000 42.72900
H  35.56300 61.65400 41.35000
H  36.93600 60.81700 42.18100
H  31.67900 63.09200 40.85200
H  29.45500 62.95600 42.85100
H  32.39400 62.20300 43.58500
H  31.67600 63.86300 43.55700
H  33.13700 63.59600 42.76500
H  28.88200 63.39900 39.93300
H  29.91300 64.60900 40.68200
H  28.14400 65.64600 41.47000
H  27.63400 64.23700 42.41000
H  27.02800 64.49100 40.81000
H  24.67100 61.29100 41.53500
H  23.87600 59.74200 41.61400
H  24.14100 60.41400 40.10900
H  25.72000 56.00400 38.27400
H  25.25500 52.20300 39.98300
H  23.67400 52.33600 39.18600
H  23.93400 52.86500 40.89900
Mg 36.30900 49.37200 24.83600
C  36.26600 47.81700 27.98500
C  34.94600 52.13100 26.30600
C  36.23900 50.78500 21.72000
C  37.35800 46.35500 23.44400
N  35.75700 49.92800 26.93200
C  35.90200 49.18100 28.07200
C  35.71800 49.97900 29.35400
C  35.14900 51.36800 28.78500
C  35.27300 51.14900 27.20400
C  33.70300 51.80800 29.08100
C  36.90900 49.98200 30.34100
C  36.75800 49.61000 31.90100
H  35.47100 49.52500 32.69400
N  35.63200 51.17900 24.09700
C  35.13900 52.15900 24.85200
C  34.85100 53.34200 24.01100
C  35.25400 53.03700 22.73800
C  35.79300 51.58800 22.78900
C  34.21400 54.47100 24.62500
C  35.22000 53.79300 21.33300
O  35.65900 53.39700 20.29200
C  34.68000 55.29900 21.32400
N  36.35700 48.62100 22.84200
C  36.53200 49.41300 21.73100
C  37.06000 48.71400 20.47100
C  37.63600 47.41000 21.12300
C  37.09800 47.46200 22.61700
C  35.91300 48.40400 19.44800
C  39.16700 47.24400 21.04400
C  39.75800 45.96800 20.47900
N  36.62500 47.34700 25.47300
C  37.15300 46.25900 24.80100
C  37.42100 45.23200 25.80900
C  36.98500 45.75400 27.04700
C  36.55800 47.06900 26.77900
C  38.05300 43.89200 25.57400
C  36.90500 45.53600 28.47800
O  37.29000 44.57900 29.14000
C  36.37400 46.84700 29.17800
C  35.18100 46.62200 30.01000
O  33.97400 46.88500 29.69600
O  35.63900 45.92200 31.16200
C  34.38000 45.46100 31.86100
H  34.56700 53.02200 26.81000
H  36.38600 51.25000 20.74300
H  37.77100 45.40100 23.11100
H  34.91600 49.53200 29.94200
H  35.81600 52.13000 29.18700
H  33.28300 51.31600 29.95900
H  32.97400 51.60500 28.29700
H  33.61800 52.86900 29.31200
H  37.40900 50.93600 30.17500
H  37.62900 49.31400 29.86700
H  37.30100 50.38500 32.44300
H  37.32000 48.69100 32.06500
H  34.08400 55.32600 23.96300
H  34.78600 54.81400 25.48700
H  33.23300 54.13500 24.96100
H  33.60500 55.12500 21.35700
H  34.96400 55.76800 20.38200
H  34.95300 56.01000 22.10400
H  37.88300 49.22900 19.97400
H  37.10100 46.53100 20.76400
H  35.08500 49.08700 19.63900
H  35.63200 47.36300 19.60400
H  36.23200 48.54000 18.41400
H  39.63800 47.39600 22.01600
H  39.60900 48.00800 20.40400
H  40.04200 46.21100 19.45500
H  39.04000 45.15800 20.35000
H  40.51400 45.50300 21.11200
H  38.78400 43.83900 26.38100
H  38.40900 43.80700 24.54700
H  37.25900 43.15500 25.69000
H  37.17600 47.11400 29.86600
H  34.01400 44.71500 31.15500
H  33.57200 46.17200 32.03600
H  34.73200 44.93200 32.74700

