158

Mg 36.92600 49.36100 25.64700
C  36.77100 47.62400 28.77100
C  35.33000 51.92600 27.20500
C  36.53200 50.79000 22.60000
C  38.00500 46.47000 24.12600
N  36.03700 49.67200 27.70300
C  36.24400 48.91100 28.86400
C  35.98500 49.70200 30.14900
C  35.23700 50.94900 29.57800
C  35.67100 50.91200 28.11300
C  33.71000 50.95800 29.84800
C  37.31700 49.96000 30.99800
C  37.34500 49.40200 32.40200
H  36.05900 49.19500 33.15000
N  36.04500 51.11500 24.99900
C  35.45800 51.99800 25.78600
C  34.92500 53.05500 24.96900
C  35.26700 52.78100 23.59700
C  36.03300 51.52800 23.68600
C  34.21100 54.22500 25.50200
C  34.95400 53.60400 22.37800
O  35.37900 53.32200 21.26300
C  34.22000 54.90000 22.44600
N  37.52600 48.91500 23.71500
C  37.18500 49.61700 22.62200
C  37.31200 48.73500 21.28900
C  38.21400 47.62100 21.81600
C  37.83600 47.64100 23.29100
C  36.00200 48.29100 20.56100
C  39.70100 47.73000 21.45900
C  40.42000 48.97700 21.96900
N  37.37200 47.46100 26.26900
C  37.82100 46.39700 25.49100
C  38.02800 45.28400 26.38700
C  37.74600 45.72300 27.63200
C  37.27400 47.05400 27.56200
C  38.54200 43.92100 26.00300
C  37.68100 45.32700 28.97600
O  37.95500 44.26200 29.49100
C  37.25900 46.55600 29.74900
C  36.04700 46.14800 30.62900
O  34.89400 46.49400 30.39000
O  36.37300 45.33700 31.68500
C  35.30800 44.85400 32.52800
H  34.96100 52.82200 27.70700
H  36.20900 51.16500 21.62700
H  38.23800 45.46700 23.76300
H  35.27600 49.04000 30.64600
H  35.61700 51.79900 30.14400
H  33.53100 51.93600 30.29600
H  33.38200 50.10300 30.43900
H  33.11500 50.87000 28.93900
H  37.69100 50.96400 30.79800
H  38.04200 49.41700 30.39200
H  38.05800 50.02300 32.94500
H  37.84800 48.43500 32.38600
H  34.90900 55.06100 25.51600
H  33.85400 54.04500 26.51600
H  33.27400 54.42500 24.98300
H  34.17700 55.39800 21.47700
H  34.70800 55.56200 23.16100
H  33.18800 54.81000 22.78800
H  37.91000 49.31800 20.58900
H  37.84100 46.63100 21.55400
H  35.72400 47.27100 20.29500
H  35.96000 48.76800 19.58200
H  35.17100 48.77200 21.07600
H  39.85200 47.57900 20.39000
H  40.21100 46.88000 21.91100
H  39.68800 49.78500 22.00900
H  41.18300 49.18400 21.21900
H  40.85300 48.69100 22.92800
H  39.35900 43.70500 26.69100
H  38.97500 43.96500 25.00300
H  37.69200 43.23900 25.98700
H  38.07100 46.72100 30.45700
H  34.47900 45.55400 32.42300
H  35.72100 45.17800 33.48300
H  34.91200 43.84200 32.43600
Mg 9.45000 47.84400 26.16400
C  7.74700 47.97800 29.20600
C  12.13200 49.37100 27.83400
C  11.25300 47.54400 23.37900
C  6.55300 46.96300 24.58500
N  9.84100 48.68700 28.27800
C  9.07100 48.38700 29.36100
C  9.70400 48.84800 30.67100
C  11.00600 49.62600 30.19100
C  10.95500 49.27900 28.68600
C  11.04100 51.13200 30.55200
C  10.00500 47.50000 31.51100
C  9.88900 47.77300 33.15300
H  9.89000 46.52600 34.08700
N  11.41000 48.37100 25.68900
C  12.35800 48.83200 26.48600
C  13.68100 48.78500 25.87000
C  13.47100 48.32000 24.56100
C  11.99400 48.02000 24.48600
C  14.92000 49.21400 26.68800
C  14.46800 48.29900 23.40500
O  14.11700 48.02200 22.30800
C  15.86400 48.76900 23.66800
N  8.96100 47.35600 24.28800
C  9.86300 47.30500 23.22800
C  9.28800 46.64900 21.98200
C  7.87400 46.13800 22.53600
C  7.73100 46.90100 23.87300
C  9.42600 47.41500 20.66100
C  7.72000 44.62600 22.75900
C  8.80900 43.89900 23.55000
N  7.48500 47.65700 26.73400
C  6.42200 47.28800 26.00000
C  5.26600 47.19300 26.81800
C  5.70400 47.42800 28.15200
C  7.09100 47.72400 28.00700
C  3.87100 46.68300 26.34800
C  5.42000 47.41500 29.57500
O  4.38400 47.20600 30.15100
C  6.79200 47.72200 30.29900
C  6.99400 46.38100 31.00000
O  7.04800 45.24600 30.48500
O  7.14300 46.59300 32.37700
C  6.92500 45.50700 33.42100
H  12.93200 49.97300 28.27000
H  11.92900 47.35700 22.54200
H  5.66000 46.48000 24.18400
H  9.07100 49.51400 31.25700
H  11.92800 49.19800 30.58600
H  10.13900 51.49700 31.04200
H  11.14500 51.65800 29.60300
H  11.92900 51.52300 31.04800
H  11.07900 47.33800 31.42400
H  9.51300 46.61500 31.10800
H  8.94600 48.27100 33.37700
H  10.60000 48.56100 33.40000
H  14.84100 48.97100 27.74800
H  15.04900 50.27700 26.48500
H  15.87000 48.74700 26.42700
H  16.39400 49.08500 22.77000
H  16.42800 48.04600 24.25800
H  15.91700 49.70100 24.23000
H  9.84600 45.73800 21.76400
H  7.08900 46.51300 21.88000
H  8.42400 47.83600 20.58100
H  9.67400 46.77100 19.81700
H  10.23400 48.12500 20.83800
H  7.35800 44.09500 21.87900
H  6.89000 44.58100 23.46300
H  8.54000 43.71800 24.59000
H  9.77400 44.40500 23.52100
H  9.05900 42.93700 23.10200
H  3.41900 46.11500 27.16100
H  4.11200 45.99900 25.53500
H  3.30300 47.54200 25.98900
H  6.67700 48.53800 31.01300
H  7.25200 46.01700 34.32700
H  7.49900 44.59300 33.26500
H  5.88200 45.19300 33.44100

