158

Mg 0.93200 -2.50700 43.57500
C  4.13400 -1.74900 42.93000
C  -0.04700 0.47000 42.16400
C  -2.29200 -3.55900 43.40200
C  1.86600 -5.82000 44.52000
N  1.95000 -0.94000 42.41600
C  3.28300 -0.78700 42.41700
C  3.65000 0.47600 41.66100
C  2.38200 1.40800 41.82400
C  1.30500 0.26900 42.14500
C  2.58300 2.42500 42.99500
C  3.89500 0.04300 40.12400
C  5.28900 0.30800 39.49600
H  5.99000 -0.79000 38.75200
N  -0.90200 -1.63400 43.08200
C  -1.02200 -0.39700 42.53300
C  -2.45600 -0.07600 42.32800
C  -3.14700 -1.22800 42.62900
C  -2.12800 -2.22400 43.05500
C  -2.83400 1.20900 41.68000
C  -4.57200 -1.43500 42.43300
O  -5.26200 -0.60100 41.94500
C  -5.31900 -2.61200 42.86500
N  -0.08400 -4.32700 44.01000
C  -1.37100 -4.55000 43.76700
C  -1.84200 -5.92000 44.39000
C  -0.50600 -6.58900 44.71600
C  0.50200 -5.50000 44.37600
C  -2.77900 -5.62200 45.56200
C  -0.26100 -7.94900 44.07800
C  -1.12400 -9.10400 44.60600
N  2.62300 -3.62700 43.68600
C  2.93600 -4.92200 44.16100
C  4.36100 -5.09800 44.21200
C  4.88800 -3.89600 43.69600
C  3.77300 -2.97400 43.43800
C  5.04700 -6.35100 44.75800
C  6.13900 -3.14800 43.48200
O  7.26900 -3.36400 43.74600
C  5.64500 -1.87300 42.76600
C  6.46500 -0.61700 43.23700
O  7.18000 0.10200 42.60200
O  5.89000 -0.19700 44.43500
C  6.57200 1.03700 44.97600
H  -0.26000 1.52000 41.95100
H  -3.27900 -4.01300 43.30000
H  2.24100 -6.79800 44.82800
H  4.49700 0.99600 42.10700
H  2.21200 1.92300 40.87900
H  3.61500 2.24400 43.29600
H  2.04500 2.12200 43.89300
H  2.36900 3.46400 42.74300
H  3.27200 0.65900 39.47600
H  3.64300 -1.01600 40.07400
H  5.98500 0.84300 40.14300
H  5.16900 1.08800 38.74400
H  -3.87400 1.53400 41.73000
H  -2.46300 1.27600 40.65700
H  -2.28100 2.04500 42.10800
H  -6.35000 -2.48500 42.53400
H  -5.19500 -2.79100 43.93300
H  -4.90800 -3.44900 42.30000
H  -2.29800 -6.60300 43.67400
H  -0.40400 -6.86400 45.76600
H  -2.45800 -5.98000 46.54100
H  -3.77400 -5.97500 45.28800
H  -3.03600 -4.57800 45.74100
H  0.76500 -8.30800 44.00300
H  -0.51600 -7.76900 43.03300
H  -1.69200 -8.88000 45.50900
H  -0.53200 -9.99600 44.80900
H  -1.91400 -9.40400 43.91700
H  5.99900 -6.08500 45.21900
H  5.20800 -7.09800 43.98100
H  4.50200 -6.74600 45.61600
H  5.96200 -1.94700 41.72600
H  7.65000 0.89900 45.06300
H  6.13900 1.35300 45.92500
H  6.43700 1.88700 44.30800
Mg -11.02200 38.27400 42.58000
C  -8.73900 35.56800 41.68400
C  -8.77000 40.32300 40.93200
C  -13.29200 40.68200 42.68800
C  -13.26600 35.82800 43.43900
N  -8.95500 37.98700 41.58200
C  -8.27600 36.81700 41.25200
C  -7.11600 37.05500 40.40300
C  -6.89300 38.60900 40.48700
C  -8.27000 39.06700 41.08300
C  -5.64800 39.09900 41.23100
C  -7.13600 36.40600 39.02900
C  -6.02900 35.36900 38.68100
H  -5.03900 35.71100 37.58200
N  -11.01300 40.20600 41.97200
C  -9.98300 40.89200 41.40000
C  -10.39700 42.25000 41.17300
C  -11.70300 42.42100 41.64100
C  -12.04200 41.13100 42.20600
C  -9.47500 43.34800 40.66000
C  -12.56400 43.64800 41.42300
O  -12.07500 44.67700 40.97300
C  -13.99700 43.70400 41.74300
N  -13.12100 38.21600 42.78600
C  -13.74300 39.34300 42.98500
C  -15.11100 39.09700 43.58100
C  -15.23800 37.50300 43.64400
C  -13.82500 37.14200 43.33100
C  -15.35000 39.79400 44.96500
C  -16.39800 36.78200 42.79200
C  -17.29300 35.81900 43.43800
N  -11.00700 36.15100 42.73800
C  -11.94300 35.34000 43.26700
C  -11.42900 33.98700 43.32100
C  -10.15900 34.05000 42.64000
C  -9.96000 35.35600 42.29200
C  -12.06600 32.72000 43.80000
C  -9.04300 33.26800 42.17200
O  -8.82200 32.08000 42.34700
C  -8.15300 34.17600 41.46200
C  -6.79400 34.06700 42.09800
O  -5.82000 33.55000 41.64400
O  -6.79500 34.64800 43.30400
C  -5.46000 34.75800 43.96400
H  -8.00700 40.98300 40.51400
H  -14.06300 41.41600 42.93300
H  -14.08000 35.13400 43.65600
H  -6.38800 36.53800 41.02700
H  -6.74400 38.89600 39.44600
H  -5.14900 38.30700 41.78800
H  -5.91000 39.92900 41.88700
H  -4.89100 39.46400 40.53600
H  -7.07700 37.07000 38.16600
H  -8.05600 35.82400 38.97600
H  -6.44300 34.39600 38.41700
H  -5.40600 35.19500 39.55800
H  -9.24200 43.93400 41.54900
H  -9.93600 43.98700 39.90700
H  -8.61000 42.90600 40.16500
H  -14.01700 43.49300 42.81200
H  -14.41400 42.84000 41.22500
H  -14.41800 44.64800 41.39700
H  -15.82800 39.41100 42.82200
H  -15.51300 37.13700 44.63300
H  -14.57100 40.54800 45.08400
H  -15.19600 38.97800 45.67200
H  -16.30600 40.29500 45.11400
H  -15.86700 36.16000 42.07100
H  -17.16000 37.43600 42.36700
H  -17.41300 36.22300 44.44300
H  -16.87500 34.81200 43.41600
H  -18.21300 35.80200 42.85400
H  -11.25900 32.03000 44.04400
H  -12.75400 32.27600 43.08200
H  -12.67000 32.90900 44.68800
H  -8.09200 33.96800 40.39400
H  -4.68700 35.27100 43.39100
H  -4.97700 33.81100 44.20500
H  -5.64500 35.15800 44.96100

