158

Mg 25.06400 2.20700 30.44000
C  27.17300 2.18400 33.12500
C  22.41600 2.46200 32.50100
C  22.96400 1.99600 27.80500
C  27.74400 1.72200 28.31600
N  24.85800 2.19100 32.61900
C  25.83700 2.32000 33.50700
C  25.23700 2.76800 34.83100
C  23.71600 2.66000 34.60400
C  23.65500 2.43500 33.09300
C  23.06500 1.58600 35.55500
C  25.82900 4.10300 35.48200
C  26.12600 3.89000 37.01400
H  25.41500 4.84900 37.97800
N  23.01300 2.14200 30.17600
C  22.04900 2.24600 31.17600
C  20.75900 2.16900 30.61900
C  20.92100 2.06800 29.22600
C  22.34300 2.12200 28.99600
C  19.49500 2.30100 31.46500
C  19.88900 2.05200 28.13000
O  20.14300 1.75900 26.96700
C  18.43700 1.96300 28.54400
N  25.24700 1.64600 28.39700
C  24.28300 1.83300 27.49600
C  24.89100 1.86200 26.07100
C  26.41200 1.91900 26.22300
C  26.49600 1.76000 27.73100
C  24.33500 0.82100 25.01300
C  27.06300 3.24100 25.58000
C  26.72100 4.59600 26.24800
N  27.12300 1.83200 30.66900
C  28.10100 1.63000 29.72800
C  29.35500 1.45100 30.42900
C  29.06100 1.70800 31.75800
C  27.69800 1.97400 31.80600
C  30.66900 1.12900 29.74900
C  29.62100 1.76900 33.01900
O  30.77500 1.63700 33.38800
C  28.44200 2.21800 33.95600
C  28.32900 1.30100 35.12300
O  27.70500 0.23000 35.07900
O  28.93800 1.79800 36.25800
C  28.86800 1.14800 37.48400
H  21.51200 2.58300 33.10100
H  22.28400 1.97700 26.95100
H  28.56400 1.72900 27.59500
H  25.53500 1.92100 35.44900
H  23.29100 3.63800 34.83100
H  23.77800 1.27900 36.32000
H  22.74500 0.72100 34.97400
H  22.10900 1.97900 35.90000
H  25.24300 5.01200 35.35000
H  26.71400 4.25700 34.86300
H  27.19300 4.08100 37.12800
H  25.90600 2.89400 37.39800
H  18.88200 3.15300 31.17200
H  19.54600 2.29100 32.55400
H  19.04500 1.31400 31.35900
H  18.20300 2.77100 29.23700
H  18.28400 1.05600 29.12800
H  17.74000 2.03600 27.70900
H  24.63700 2.85200 25.69100
H  26.71000 1.03200 25.66500
H  23.68900 0.07400 25.47300
H  25.15400 0.28400 24.53500
H  23.78000 1.36000 24.24500
H  26.70900 3.29500 24.55100
H  28.15000 3.15600 25.58800
H  26.57700 4.45100 27.31900
H  25.93900 5.09000 25.67200
H  27.59100 5.22800 26.06700
H  31.46000 1.59200 30.33900
H  30.72200 1.58100 28.75800
H  30.84500 0.07300 29.54500
H  28.51300 3.22400 34.37000
H  27.82100 1.34200 37.71700
H  29.56000 1.55900 38.21900
H  29.06900 0.08200 37.37200
Mg 29.84700 57.67400 40.25400
C  27.11300 55.65300 39.15800
C  32.01600 55.34700 39.48100
C  32.32400 60.04900 40.59300
C  27.49500 60.04800 41.27800
N  29.59900 55.86400 39.28600
C  28.40900 55.13500 39.08800
C  28.70000 53.65700 38.65300
C  30.27000 53.64200 38.72400
C  30.67100 55.06800 39.22500
C  30.81300 52.49500 39.71100
C  28.01100 53.13100 37.42800
C  27.61100 54.07700 36.24100
H  28.38300 54.02100 34.97500
N  31.96400 57.66300 40.00300
C  32.66500 56.55500 39.77700
C  34.09300 56.78300 39.74100
C  34.25200 58.11000 40.18800
C  32.83000 58.72400 40.27400
C  35.08600 55.72100 39.44500
C  35.60400 58.79600 40.46900
O  36.64300 58.09700 40.41400
C  35.66000 60.15000 40.79600
N  29.80900 59.76700 40.80600
C  31.01400 60.50100 40.86200
C  30.69100 61.91600 41.30900
C  29.16100 61.86000 41.54900
C  28.75200 60.41900 41.28700
C  31.43200 62.38200 42.59500
C  28.44000 62.91200 40.71500
C  27.28800 63.73700 41.42500
N  27.66700 57.87700 40.18700
C  26.88700 58.92700 40.64800
C  25.56300 58.66300 40.39100
C  25.55300 57.34400 39.84100
C  26.87400 56.93000 39.74300
C  24.38200 59.51700 40.72700
C  24.71300 56.22600 39.34600
O  23.48900 56.20700 39.28000
C  25.66600 55.10800 38.87700
C  25.25400 53.78600 39.63500
O  25.70800 53.39500 40.70000
O  24.22400 53.18900 38.93500
C  23.82200 51.92500 39.52400
H  32.69500 54.50600 39.32900
H  33.11900 60.76700 40.80400
H  26.79500 60.74000 41.75200
H  28.33600 52.97800 39.42400
H  30.84500 53.34500 37.84700
H  30.94200 52.79400 40.75100
H  31.78100 52.22400 39.29000
H  30.15700 51.63100 39.81600
H  27.15100 52.54900 37.76000
H  28.73100 52.43200 37.00400
H  27.76100 55.09700 36.59300
H  26.54100 54.06500 36.03500
H  36.10400 56.09700 39.33700
H  34.97900 55.12500 38.53900
H  35.02300 54.97200 40.23400
H  36.74000 60.29200 40.76700
H  35.11500 60.30400 41.72800
H  35.21500 60.83400 40.07300
H  30.97600 62.56800 40.48300
H  28.91200 62.06200 42.59100
H  32.25900 61.69700 42.78300
H  30.76300 62.43700 43.45400
H  31.88700 63.36100 42.44300
H  27.85100 62.35700 39.98400
H  29.15900 63.58000 40.24100
H  27.42900 63.55900 42.49100
H  26.24900 63.48500 41.21400
H  27.46800 64.78600 41.19300
H  23.60400 58.80500 40.99900
H  24.04100 60.14000 39.90000
H  24.60000 59.98700 41.68600
H  25.58700 55.00900 37.79400
H  24.70700 51.28900 39.50600
H  23.08600 51.39000 38.92500
H  23.56200 52.09500 40.56900

