158

Mg 1.85700 -2.75500 44.64600
C  5.05100 -1.52000 43.80300
C  0.44500 -0.71700 42.27700
C  -1.07300 -4.41100 45.09600
C  3.46100 -5.42500 46.44000
N  2.71900 -1.37800 43.14400
C  4.00600 -0.88000 43.08300
C  4.07100 0.35600 42.13100
C  2.55500 0.49100 41.63100
C  1.78500 -0.59200 42.49500
C  1.98400 1.89900 41.80100
C  5.09300 0.28500 40.96200
C  5.90300 1.56600 40.69700
H  5.44300 2.27500 39.47000
N  -0.13400 -2.43200 43.87800
C  -0.47900 -1.52900 42.94200
C  -1.93800 -1.54800 42.77700
C  -2.40900 -2.59900 43.67000
C  -1.18500 -3.25100 44.25400
C  -2.73100 -0.61400 41.86200
C  -3.86800 -2.93000 44.02600
O  -4.74000 -2.34400 43.41700
C  -4.18500 -3.95100 45.01400
N  1.29600 -4.60600 45.69300
C  0.01900 -4.94800 45.75400
C  -0.22400 -6.22200 46.59700
C  1.27900 -6.50300 47.09000
C  2.08900 -5.45200 46.36800
C  -1.41500 -6.28600 47.69100
C  1.78500 -7.96700 47.16200
C  2.14400 -8.48000 48.61400
N  3.83000 -3.36700 45.09300
C  4.33000 -4.42600 45.89100
C  5.69600 -4.21900 46.00300
C  6.01000 -3.05600 45.28200
C  4.85900 -2.62800 44.64400
C  6.65200 -5.05700 46.77900
C  7.15000 -2.25500 44.85600
O  8.35900 -2.33300 45.08500
C  6.48900 -1.08200 44.03400
C  6.61100 0.15500 44.81300
O  5.93700 0.52900 45.75500
O  7.79000 0.79800 44.53300
C  7.93800 2.11200 45.25000
H  0.04500 0.02100 41.57800
H  -2.00600 -4.88700 45.40400
H  3.90000 -6.16600 47.11100
H  4.25500 1.16700 42.83500
H  2.48100 0.21700 40.57800
H  1.04400 1.98400 42.34500
H  1.83200 2.37400 40.83200
H  2.66900 2.56800 42.32200
H  4.64100 -0.07100 40.03600
H  5.84300 -0.44300 41.27300
H  6.95300 1.30400 40.56900
H  5.87500 2.25800 41.53900
H  -2.06200 -0.15300 41.13500
H  -3.24700 0.07600 42.52900
H  -3.60600 -1.09000 41.41900
H  -3.85500 -4.90400 44.59800
H  -5.24200 -3.97600 45.27700
H  -3.67400 -3.62800 45.92000
H  -0.49600 -6.96100 45.84300
H  1.20500 -6.19700 48.13400
H  -2.12600 -7.05200 47.38300
H  -1.77600 -5.27100 47.52300
H  -1.15600 -6.34800 48.74800
H  2.66700 -8.05000 46.52600
H  0.97900 -8.62800 46.84400
H  3.09600 -8.99900 48.50200
H  1.44400 -9.21100 49.01900
H  2.39500 -7.60500 49.21400
H  6.46100 -5.10300 47.85200
H  7.64700 -4.61900 46.70200
H  6.76600 -6.08700 46.44100
H  7.00600 -1.02600 43.07600
H  9.02600 2.13200 45.30900
H  7.52300 2.14900 46.25700
H  7.66800 3.01800 44.70800
Mg 40.62900 9.57000 30.10000
C  42.53000 10.59400 32.87100
C  38.31700 8.26600 32.31500
C  38.96200 8.50900 27.43600
C  43.41700 10.12500 28.05100
N  40.48800 9.50400 32.39800
C  41.32400 10.02800 33.27400
C  40.58500 10.11400 34.64700
C  39.30600 9.24000 34.46200
C  39.32700 8.94700 33.00900
C  39.07300 7.96100 35.28300
C  40.21100 11.62300 34.95600
C  39.81000 11.93500 36.39100
H  40.77300 12.66400 37.31000
N  38.88600 8.42100 29.89200
C  38.10900 7.96800 30.88600
C  36.94700 7.33200 30.26100
C  37.11500 7.46100 28.85500
C  38.36400 8.14600 28.67500
C  35.83300 6.80200 30.99800
C  36.20700 7.03400 27.75300
O  36.43000 7.05700 26.55600
C  34.91600 6.50400 28.15400
N  41.15100 9.28200 28.01200
C  40.25000 8.86900 27.11400
C  40.77700 8.98200 25.67300
C  42.25200 9.54900 25.84000
C  42.30900 9.58900 27.39900
C  40.48200 7.72900 24.75200
C  42.53200 10.87600 25.05700
C  42.12200 12.21000 25.67600
N  42.59100 10.21200 30.34700
C  43.60200 10.37900 29.40400
C  44.76900 10.87000 30.04700
C  44.46900 10.96800 31.36300
C  43.09600 10.56400 31.53000
C  46.08500 11.19300 29.33700
C  44.90100 11.35200 32.66900
O  45.99500 11.81700 32.94000
C  43.70500 11.16500 33.67700
C  44.24200 10.14000 34.70100
O  44.56100 8.98700 34.40300
O  44.36800 10.73300 35.92400
C  44.66600 9.79000 37.00200
H  37.49100 7.97600 32.96900
H  38.61400 8.16900 26.45900
H  44.30000 10.42200 27.48100
H  41.10700 9.83100 35.56100
H  38.46200 9.92100 34.58000
H  39.95000 7.65500 35.85400
H  38.75300 7.09900 34.69900
H  38.31600 8.23600 36.01800
H  39.38000 11.97600 34.34600
H  41.02000 12.29900 34.67900
H  39.40100 11.00800 36.79300
H  38.92800 12.57500 36.35500
H  34.83500 7.05000 30.63600
H  35.79800 7.29800 31.96700
H  35.89200 5.72200 31.13100
H  34.45400 6.09000 27.25800
H  34.27300 7.28700 28.55500
H  35.16400 5.72400 28.87400
H  40.25500 9.81900 25.20800
H  42.99700 8.79900 25.57300
H  41.46600 7.42700 24.39300
H  39.88600 7.91300 23.85800
H  40.10100 6.87100 25.30600
H  42.04800 10.85600 24.08100
H  43.60900 10.94400 24.90200
H  42.01200 12.25400 26.75900
H  41.07100 12.41500 25.47000
H  42.72300 13.08100 25.41700
H  46.32900 10.49200 28.53800
H  46.83200 11.29200 30.12500
H  45.88900 12.06500 28.71200
H  43.41100 12.07000 34.20800
H  44.79600 8.74400 36.72500
H  43.74000 9.89300 37.56700
H  45.57300 9.99500 37.57000

