158

Mg 25.56300 1.65000 29.83300
C  27.65800 1.44200 32.52600
C  22.78100 1.99800 32.06500
C  23.47100 1.34400 27.32000
C  28.31200 0.73500 27.68700
N  25.28700 1.62700 32.00400
C  26.28700 1.69000 32.89400
C  25.85500 2.14800 34.33600
C  24.29900 1.84500 34.17700
C  24.06400 1.87400 32.71500
C  23.92700 0.39300 34.74100
C  26.15900 3.65200 34.63100
C  27.31700 3.80800 35.66200
H  27.09300 4.44600 37.01900
N  23.44600 1.78400 29.70800
C  22.50700 1.93200 30.69900
C  21.22100 1.96100 30.08800
C  21.36200 1.62300 28.73000
C  22.78000 1.56300 28.54100
C  19.92600 2.20900 30.80900
C  20.33500 1.50100 27.67900
O  20.53500 1.50700 26.47700
C  18.90700 1.35800 28.05700
N  25.85900 1.13300 27.84000
C  24.82100 1.19500 26.92800
C  25.24000 0.88700 25.48400
C  26.81300 0.84600 25.63200
C  27.01500 0.98700 27.12600
C  24.68400 -0.41900 24.89400
C  27.45800 2.00400 24.87100
C  27.36200 3.42800 25.46200
N  27.52300 1.18100 30.02800
C  28.49200 0.83300 29.06100
C  29.69400 0.44100 29.69100
C  29.48500 0.79900 31.04700
C  28.12400 1.14500 31.18100
C  30.99800 -0.09000 29.04400
C  30.10300 0.83700 32.40500
O  31.22600 0.53500 32.79600
C  28.94800 1.37800 33.35400
C  28.85300 0.63400 34.62700
O  28.06000 -0.24700 34.87400
O  29.76700 1.13400 35.54500
C  29.80000 0.54900 36.88600
H  21.94100 2.13700 32.74800
H  22.86200 1.14600 26.43500
H  29.17600 0.39900 27.11000
H  26.25500 1.45900 35.08000
H  23.76200 2.65900 34.66300
H  23.52900 -0.28700 33.98800
H  23.21200 0.58300 35.54100
H  24.77100 -0.16400 35.14700
H  25.25800 4.21300 34.88000
H  26.53800 4.20700 33.77300
H  28.08700 4.37000 35.13400
H  27.74000 2.86000 35.99500
H  19.38600 3.01500 30.31300
H  20.18600 2.51000 31.82400
H  19.39700 1.25900 30.87900
H  18.74200 0.61500 28.83800
H  18.38000 1.01900 27.16500
H  18.48700 2.26100 28.50000
H  24.90800 1.69300 24.83000
H  27.43700 -0.01100 25.38100
H  24.09300 -0.84200 25.70700
H  25.52000 -1.03300 24.55900
H  23.98700 -0.16400 24.09600
H  26.97600 2.09400 23.89700
H  28.52100 1.77600 24.80400
H  26.98200 4.09700 24.69000
H  28.34300 3.75700 25.80400
H  26.65300 3.37700 26.28900
H  31.21800 0.11000 27.99500
H  31.09700 -1.16400 29.20000
H  31.78200 0.42300 29.60100
H  29.25900 2.37800 33.65600
H  29.50400 -0.49700 36.80500
H  29.08900 1.02400 37.56200
H  30.82500 0.72400 37.21300
Mg 40.40600 9.34200 29.97800
C  42.11300 10.50600 32.84500
C  37.94300 8.29200 31.90200
C  39.32300 7.53300 27.26300
C  43.29100 10.30400 28.08500
N  40.21900 9.17700 32.18500
C  40.99900 9.80700 33.08400
C  40.32200 9.82700 34.44700
C  39.12900 8.88300 34.24300
C  39.07200 8.79800 32.68400
C  39.29700 7.48800 34.75400
C  39.73800 11.32000 34.72600
C  39.67600 11.65000 36.28500
H  40.78800 12.49300 36.98100
N  38.81000 8.08800 29.63200
C  37.84600 7.91300 30.52800
C  36.78800 7.19500 29.87200
C  37.17300 6.93400 28.52600
C  38.53300 7.48400 28.44500
C  35.50400 6.74700 30.58800
C  36.37300 6.37100 27.32700
O  36.79600 6.34600 26.16700
C  34.96900 5.96600 27.63900
N  41.14200 9.00400 27.93800
C  40.54200 8.20200 27.05500
C  41.21700 8.30600 25.62300
C  42.57700 8.92200 25.94500
C  42.34400 9.51500 27.37500
C  41.35900 6.86900 24.92800
C  43.02200 10.01100 24.87800
C  42.38600 11.44500 25.09500
N  42.30900 10.26200 30.31100
C  43.28600 10.57000 29.42400
C  44.37800 11.25700 30.18200
C  43.89100 11.22000 31.50000
C  42.65900 10.64100 31.53500
C  45.57900 11.94100 29.64300
C  44.17100 11.72700 32.80700
O  45.12700 12.44000 33.19300
C  43.07500 11.27400 33.78400
C  43.77300 10.33600 34.77400
O  44.19200 9.19900 34.43100
O  43.80400 10.87600 36.05300
C  44.50300 9.94500 36.96500
H  37.05700 8.14500 32.52200
H  39.05500 6.99900 26.34900
H  44.11400 10.72000 27.49900
H  41.01500 9.59300 35.25500
H  38.17000 9.26500 34.59400
H  38.91000 6.81400 33.98900
H  38.68000 7.47300 35.65300
H  40.31700 7.17500 34.97500
H  38.84100 11.54600 34.15000
H  40.48500 12.06600 34.45300
H  39.66000 10.76400 36.91900
H  38.79400 12.26900 36.45300
H  35.57900 6.85500 31.67000
H  35.26600 5.69900 30.40700
H  34.59500 7.26500 30.28100
H  35.04900 5.29700 28.49600
H  34.51700 5.43300 26.80300
H  34.55500 6.92800 27.94000
H  40.49000 8.87200 25.04100
H  43.35100 8.15800 26.01900
H  40.42100 6.59600 24.44300
H  41.46100 6.04700 25.63600
H  42.15400 6.81200 24.18500
H  42.88000 9.54700 23.90200
H  44.09000 10.07100 25.08700
H  42.22500 12.09700 24.23700
H  43.03400 11.92000 25.83200
H  41.44600 11.47100 25.64500
H  45.78500 12.77800 30.31000
H  45.36600 12.42000 28.68800
H  46.42700 11.27900 29.46800
H  42.63400 12.08500 34.36500
H  45.02700 10.50500 37.74000
H  45.25900 9.25600 36.58900
H  43.78000 9.50100 37.64900

