158

Mg 47.02700 25.08100 28.32000
C  47.98700 27.38000 30.81000
C  46.53500 22.73300 30.64100
C  46.57200 22.87800 25.75000
C  48.35600 27.35400 25.88000
N  47.37000 25.03500 30.55400
C  47.46700 26.20000 31.26700
C  47.16500 25.80000 32.72400
C  46.80600 24.22800 32.68300
C  46.95000 23.97400 31.19700
C  47.69700 23.25800 33.50200
C  45.98700 26.74400 33.36300
C  45.20100 26.40300 34.58000
H  45.37300 27.32600 35.82900
N  46.52200 23.04900 28.27000
C  46.33700 22.26000 29.34700
C  45.97300 20.96100 28.94900
C  45.96900 21.04100 27.51600
C  46.35100 22.35100 27.06700
C  45.64600 19.86100 29.90100
C  45.68000 19.98700 26.49100
O  45.79700 20.12300 25.27600
C  45.31900 18.68400 27.06000
N  47.53600 25.13300 26.16200
C  47.09300 24.11400 25.37300
C  47.03900 24.54000 23.86500
C  47.28300 26.12500 23.88200
C  47.76700 26.23000 25.39500
C  48.16900 23.79000 23.12800
C  45.95600 26.99300 23.63200
C  46.19600 28.32200 22.78800
N  48.02600 26.93200 28.31500
C  48.51500 27.67500 27.23600
C  49.06400 28.88900 27.81300
C  48.85900 28.84200 29.16800
C  48.14800 27.63800 29.43000
C  49.61900 30.02500 27.14400
C  49.07200 29.59200 30.35900
O  49.67400 30.63000 30.58700
C  48.43500 28.65000 31.54100
C  49.40500 28.51100 32.63300
O  50.25200 27.66600 32.82400
O  49.00500 29.41600 33.55400
C  49.47100 29.29600 34.87500
H  46.32900 22.05300 31.46900
H  46.24500 22.21900 24.94200
H  48.73400 28.09900 25.17700
H  48.12300 25.91000 33.23200
H  45.76600 24.05600 32.95900
H  48.52300 22.88800 32.89400
H  47.05600 22.45500 33.86500
H  48.18100 23.90200 34.23700
H  45.23500 26.87600 32.58500
H  46.62400 27.58700 33.62800
H  45.63100 25.42800 34.81100
H  44.13700 26.26800 34.38800
H  46.52300 19.21500 29.87100
H  44.68600 19.45400 29.58200
H  45.38400 20.12100 30.92700
H  45.04600 17.89500 26.36000
H  44.42800 18.92300 27.64100
H  46.09300 18.25400 27.69600
H  46.04300 24.32200 23.48000
H  48.06500 26.49500 23.21900
H  47.77200 22.78000 23.02200
H  49.06800 23.91300 23.73100
H  48.24800 24.26300 22.14900
H  45.58300 27.32700 24.60000
H  45.17000 26.33600 23.26100
H  45.94000 28.07600 21.75700
H  47.23100 28.65200 22.69800
H  45.61700 29.13000 23.23600
H  49.52900 30.02600 26.05800
H  50.70100 29.91400 27.21800
H  49.26700 30.95300 27.59500
H  47.49100 29.06900 31.89000
H  48.80000 28.75500 35.54300
H  49.49600 30.31000 35.27400
H  50.39700 28.74400 35.03800
Mg 6.36900 54.65600 40.65600
C  6.06000 50.95800 40.32200
C  9.61000 54.35400 39.77800
C  6.40300 57.89300 40.50300
C  2.85900 54.57400 41.73900
N  7.51500 52.86600 39.97500
C  7.29900 51.46400 40.02000
C  8.61100 50.70800 39.87200
C  9.65400 51.83700 40.00300
C  8.87900 53.12000 39.89700
C  10.50800 51.71900 41.30400
C  8.80100 49.93200 38.50600
C  8.49000 50.69400 37.27100
H  7.62800 50.08500 36.12700
N  7.71400 55.97900 40.13000
C  9.04900 55.67300 39.77800
C  9.71400 56.84700 39.39800
C  8.75300 57.96400 39.49500
C  7.57500 57.32900 40.07800
C  11.24000 56.98200 38.95500
C  9.02900 59.32800 39.06800
O  10.07300 59.64400 38.55200
C  7.98500 60.32800 39.11400
N  4.74200 56.04300 41.01600
C  5.13300 57.39200 40.95900
C  3.94400 58.35700 41.31300
C  2.90100 57.26000 41.85800
C  3.54600 55.85100 41.53700
C  4.31800 59.42700 42.38900
C  1.49900 57.42300 41.31800
C  0.48100 57.23400 42.41700
N  4.77900 53.14800 40.98900
C  3.45200 53.26600 41.38800
C  2.74800 52.03700 41.37900
C  3.77700 51.12800 41.02800
C  4.95000 51.83500 40.79100
C  1.36900 51.63500 41.71700
C  4.11700 49.74600 40.93500
O  3.35700 48.82400 41.27400
C  5.62800 49.57900 40.47300
C  5.49300 48.81100 39.22600
O  5.19200 49.21700 38.13300
O  5.98700 47.52800 39.40600
C  5.90300 46.63700 38.27100
H  10.68300 54.33200 39.57900
H  6.44200 58.97400 40.64800
H  1.78700 54.59200 41.95000
H  8.76800 49.95600 40.64500
H  10.32800 51.77800 39.14800
H  11.55700 51.91500 41.07900
H  10.50700 50.73300 41.76800
H  10.09300 52.36200 42.08000
H  8.27700 48.97600 38.49600
H  9.84900 49.65700 38.39300
H  9.43600 50.77100 36.73400
H  8.03100 51.66400 37.46000
H  11.72400 56.21200 39.55600
H  11.66200 57.91200 39.33600
H  11.24200 56.84400 37.87400
H  7.01600 60.15500 38.64600
H  8.41400 61.20800 38.63500
H  7.98000 60.64900 40.15600
H  3.60400 58.80000 40.37700
H  2.89200 57.15600 42.94300
H  3.48100 59.43500 43.08700
H  4.47300 60.36700 41.86000
H  5.26500 59.19600 42.87600
H  1.35600 56.61900 40.59600
H  1.25500 58.35600 40.81100
H  -0.22000 56.50300 42.01500
H  -0.10800 58.14900 42.46900
H  0.84200 56.88300 43.38300
H  0.89300 51.26900 40.80700
H  0.87600 52.55100 42.04200
H  1.29400 50.79300 42.40400
H  6.26900 49.14800 41.24200
H  4.86000 46.35400 38.13200
H  6.43300 45.71200 38.49600
H  6.24500 47.08800 37.33900

