158

Mg 49.32700 46.58700 43.42700
C  45.96900 47.22600 42.35600
C  49.14800 43.51200 42.24000
C  52.66400 46.42600 43.74900
C  49.41900 50.00300 44.42500
N  47.71600 45.51400 42.40100
C  46.38900 45.91600 42.05200
C  45.64900 44.73300 41.54300
C  46.65100 43.47400 41.58400
C  47.93300 44.19800 42.11600
C  46.32500 42.20000 42.27800
C  44.96000 45.00700 40.17700
C  45.79400 45.65000 39.00000
H  45.92400 44.89800 37.62700
N  50.79400 45.11700 43.05300
C  50.45500 43.86400 42.59200
C  51.63700 43.07600 42.68800
C  52.68100 43.86500 43.16800
C  52.08900 45.21900 43.33200
C  51.69000 41.61000 42.21100
C  54.10400 43.39200 43.41000
O  54.42800 42.27500 43.18800
C  55.14000 44.24600 44.07000
N  50.83200 48.03300 43.91200
C  52.13100 47.71900 44.07900
C  52.97400 48.95000 44.31900
C  51.90900 50.08500 44.54300
C  50.68200 49.34100 44.34500
C  53.87600 48.65500 45.51300
C  52.01700 51.22400 43.48600
C  51.74300 52.67200 44.00900
N  48.03500 48.26500 43.39300
C  48.15000 49.60000 43.87800
C  46.90300 50.34700 43.86800
C  46.07100 49.41800 43.19300
C  46.75600 48.21100 42.96000
C  46.72900 51.77900 44.26500
C  44.75100 49.32900 42.63000
O  43.83600 50.16400 42.48400
C  44.57500 47.84700 42.21000
C  43.54000 47.10600 43.08800
O  43.53900 46.95700 44.30000
O  42.44500 46.58200 42.38400
C  41.71300 45.43500 43.01000
H  49.06900 42.43800 42.06400
H  53.74900 46.34100 43.83800
H  49.28500 51.02900 44.77500
H  44.87100 44.62300 42.29800
H  46.94200 43.19600 40.57100
H  46.31700 41.42300 41.51400
H  45.37000 42.35700 42.77900
H  47.07800 41.88900 43.00300
H  44.05200 45.58400 40.35200
H  44.54700 44.12400 39.69000
H  46.81800 45.73300 39.36500
H  45.31700 46.59700 38.74900
H  52.25500 41.50800 41.28500
H  50.73200 41.26900 41.81800
H  52.01900 40.91500 42.98300
H  54.66700 44.67200 44.95500
H  55.52600 45.00600 43.39100
H  55.97400 43.58600 44.30700
H  53.64500 49.10400 43.47400
H  51.96900 50.48900 45.55400
H  54.87000 49.04600 45.29400
H  54.18000 47.63300 45.73900
H  53.51200 49.17100 46.40100
H  51.25300 51.04500 42.72900
H  52.96300 51.05900 42.97000
H  51.09200 53.14000 43.27100
H  52.62500 53.31000 43.95100
H  51.42400 52.74300 45.04900
H  45.68600 52.09200 44.21100
H  47.30000 52.33000 43.51700
H  46.83400 52.07400 45.30900
H  44.13200 47.77700 41.21700
H  42.22700 45.01600 43.87500
H  41.47300 44.71100 42.23200
H  40.72800 45.73200 43.37100
Mg 1.12700 41.92800 24.61300
C  3.02600 41.91000 27.70100
C  -1.56800 41.02500 26.33100
C  -0.28600 41.64500 21.70700
C  4.33200 42.17100 22.99900
N  0.84600 41.43900 26.78000
C  1.63500 41.66800 27.83200
C  0.83600 41.48200 29.13700
C  -0.59600 40.94600 28.68700
C  -0.47400 41.16200 27.15900
C  -0.96100 39.48600 29.10200
C  0.78600 42.84400 29.95400
C  1.29000 42.78100 31.46800
H  0.23800 42.39100 32.59900
N  -0.70600 41.55500 24.06900
C  -1.72100 41.25400 24.96000
C  -2.96900 41.10800 24.10500
C  -2.58700 41.22500 22.76000
C  -1.12800 41.42600 22.80400
C  -4.35100 40.91400 24.70700
C  -3.47300 41.22500 21.50100
O  -2.98200 41.37900 20.42300
C  -5.02800 40.94600 21.62100
N  1.95400 41.83100 22.69800
C  1.07400 41.94700 21.68000
C  1.81400 42.12300 20.31800
C  3.18100 42.53100 20.78300
C  3.14300 42.20500 22.25700
C  1.95300 40.85100 19.36400
C  3.66500 43.96100 20.47400
C  5.14200 44.26000 19.93600
N  3.25500 41.97100 25.20300
C  4.37000 42.05000 24.40300
C  5.55900 42.25100 25.23400
C  5.11500 42.23600 26.53100
C  3.68500 42.02500 26.44800
C  6.96800 42.40200 24.75200
C  5.37200 42.27400 28.04000
O  6.45800 42.45100 28.63000
C  4.04000 42.02000 28.77000
C  4.24300 40.77800 29.60600
O  4.02100 39.61900 29.28300
O  4.78000 41.21200 30.73800
C  5.02700 40.06500 31.63800
H  -2.53100 40.95200 26.84100
H  -0.83800 41.98400 20.82800
H  5.25400 42.54400 22.54600
H  1.35000 40.74700 29.75600
H  -1.42900 41.52700 29.08300
H  -0.23500 39.20900 29.86600
H  -0.72200 38.95100 28.18300
H  -1.98800 39.33400 29.43500
H  -0.28200 43.06200 29.96600
H  1.32600 43.68600 29.52000
H  1.59300 43.78500 31.76500
H  2.14300 42.10500 31.51700
H  -4.14100 40.97800 25.77500
H  -4.70000 39.89100 24.56400
H  -5.04400 41.64500 24.29000
H  -5.32500 40.14900 22.30300
H  -5.31000 40.79900 20.57800
H  -5.39400 41.92300 21.93600
H  1.35800 42.92400 19.73600
H  3.93000 41.93800 20.25900
H  1.21700 40.11000 19.67800
H  2.93500 40.38000 19.41700
H  1.67700 41.28200 18.40200
H  3.69500 44.49400 21.42400
H  2.90000 44.50700 19.92200
H  5.68400 44.42800 20.86700
H  5.24000 45.09600 19.24300
H  5.46900 43.31700 19.50000
H  7.13400 42.00300 23.75200
H  7.55800 41.86100 25.49200
H  7.34500 43.42300 24.82600
H  3.96500 42.96300 29.31100
H  5.56800 40.49200 32.48300
H  5.76400 39.37000 31.23500
H  4.14200 39.49200 31.91300

