158

Mg 35.95800 49.08500 25.32100
C  36.13500 47.37100 28.41400
C  34.70300 51.77700 26.94300
C  35.27100 50.48800 22.40000
C  37.23900 46.29300 23.77600
N  35.41400 49.45500 27.50700
C  35.70400 48.72700 28.59800
C  35.50800 49.58400 29.88900
C  34.77700 50.88000 29.33800
C  34.99300 50.70300 27.82900
C  33.22400 50.99900 29.68700
C  36.74400 49.83100 30.74300
C  36.69500 49.18600 32.20200
H  35.44600 49.22000 33.05400
N  35.15700 50.99100 24.75600
C  34.61800 51.95500 25.54600
C  34.27600 53.08500 24.70700
C  34.42700 52.62900 23.34600
C  34.98800 51.34100 23.42900
C  33.82800 54.45700 25.14600
C  34.17300 53.36900 21.99700
O  34.57800 53.10500 20.91800
C  33.47100 54.70200 22.08400
N  36.28300 48.56200 23.46700
C  35.98600 49.32700 22.33400
C  36.42600 48.62400 21.01000
C  37.39000 47.56900 21.65500
C  36.94200 47.36300 23.06700
C  35.22300 47.98100 20.27500
C  38.89900 47.77900 21.58000
C  39.70800 47.05900 20.43200
N  36.39800 47.15800 25.89800
C  36.84500 46.07700 25.14900
C  37.19300 44.91200 26.01600
C  36.94000 45.43700 27.31000
C  36.39200 46.72200 27.17400
C  37.72600 43.55200 25.61600
C  36.97000 45.01700 28.72500
O  37.18900 43.90400 29.25200
C  36.39800 46.28400 29.53000
C  35.29500 45.82400 30.40000
O  34.11400 45.90100 30.16400
O  35.80500 45.31400 31.53800
C  34.85700 45.04000 32.60300
H  34.23900 52.63300 27.43700
H  34.91300 50.77000 21.40800
H  37.74200 45.57300 23.12800
H  34.87200 48.95800 30.51400
H  35.35100 51.63400 29.87700
H  32.87600 50.39600 30.52600
H  32.61600 50.68200 28.83900
H  32.96300 52.02200 29.95600
H  36.90700 50.89200 30.93100
H  37.54800 49.35900 30.17800
H  37.52100 49.66600 32.72800
H  36.96200 48.15100 31.98800
H  32.87700 54.80100 24.73800
H  34.69200 55.10700 25.00800
H  33.68800 54.38400 26.22400
H  32.48100 54.44400 22.46200
H  33.31300 55.11500 21.08800
H  33.94400 55.55900 22.56500
H  36.96700 49.20600 20.26300
H  37.22300 46.61700 21.15100
H  34.26600 48.28400 20.69900
H  35.27100 46.89500 20.19800
H  35.32300 48.39000 19.26900
H  39.30000 47.71600 22.59200
H  39.00500 48.81500 21.26000
H  40.41400 47.76900 20.00100
H  38.99200 46.73300 19.67800
H  40.17400 46.22000 20.94900
H  38.31200 43.77300 24.72400
H  36.93900 42.86400 25.30700
H  38.28200 43.15600 26.46600
H  37.22200 46.69900 30.11100
H  34.43100 44.04400 32.47500
H  34.09300 45.80600 32.73400
H  35.42300 45.12600 33.53100
Mg -10.82700 16.90900 42.27500
C  -7.24600 16.73600 42.31300
C  -10.52000 20.24600 42.26200
C  -14.07300 17.00900 41.53900
C  -10.88100 13.42500 42.22700
N  -9.06600 18.29200 42.26000
C  -7.71600 18.05000 42.29200
C  -6.95500 19.39400 42.32200
C  -8.03500 20.34200 42.75800
C  -9.32300 19.60000 42.38400
C  -7.98700 20.81400 44.19100
C  -6.31800 19.67500 40.95900
C  -4.76000 19.60600 40.88100
H  -4.24100 18.70600 39.84300
N  -12.03500 18.42400 41.87700
C  -11.75500 19.70500 41.87100
C  -12.87000 20.52100 41.58900
C  -13.96900 19.62300 41.34600
C  -13.36800 18.26900 41.51800
C  -12.82800 22.06700 41.51500
C  -15.31000 20.00500 40.71500
O  -15.58200 21.19400 40.77500
C  -16.26700 19.02500 40.17700
N  -12.19200 15.38900 41.95300
C  -13.53500 15.69700 41.70000
C  -14.41600 14.45900 41.80100
C  -13.36600 13.30700 41.89500
C  -12.06100 14.09700 42.05900
C  -15.36500 14.50200 43.05800
C  -13.47000 12.26900 40.76200
C  -13.69500 10.84900 41.22800
N  -9.43000 15.36200 42.21700
C  -9.62100 13.98100 42.34000
C  -8.29600 13.30600 42.35800
C  -7.37700 14.37100 42.37200
C  -8.09300 15.59100 42.31400
C  -8.05700 11.89900 42.59400
C  -5.92900 14.65400 42.52100
O  -5.01100 13.86000 42.61900
C  -5.78900 16.20900 42.36000
C  -5.06600 16.68400 43.61200
O  -5.49200 16.61300 44.72600
O  -3.80700 17.07900 43.34300
C  -2.90600 17.44500 44.45900
H  -10.54100 21.32400 42.43500
H  -15.15500 17.05000 41.39700
H  -10.94000 12.34300 42.36000
H  -6.14600 19.39200 43.05200
H  -8.07200 21.21300 42.10300
H  -6.95800 20.92100 44.53500
H  -8.56400 20.12300 44.80600
H  -8.42100 21.80400 44.33200
H  -6.74200 20.60600 40.58200
H  -6.66700 19.00500 40.17300
H  -4.43500 19.24300 41.85600
H  -4.41000 20.63700 40.83400
H  -12.14700 22.48600 42.25600
H  -13.77500 22.42400 41.92000
H  -12.51000 22.48700 40.56100
H  -17.14600 19.50700 39.75000
H  -16.58000 18.47500 41.06500
H  -15.75400 18.35900 39.48400
H  -14.98500 14.37000 40.87600
H  -13.46000 12.81600 42.86300
H  -14.96600 13.87600 43.85500
H  -16.28700 14.01100 42.74700
H  -15.49900 15.52900 43.40000
H  -12.52800 12.16700 40.22300
H  -14.23200 12.61600 40.06400
H  -14.70200 10.69700 40.83900
H  -13.59800 10.71200 42.30500
H  -12.96900 10.24300 40.68600
H  -7.43800 11.80900 43.48600
H  -7.47200 11.42500 41.80600
H  -8.93500 11.29100 42.81400
H  -5.24900 16.32500 41.42000
H  -2.31600 16.56700 44.72200
H  -3.44500 17.78700 45.34300
H  -2.23000 18.26600 44.22100

