158

Mg -1.92500 17.13500 25.59600
C  -2.03900 15.08000 28.45600
C  -2.79200 19.73000 27.53500
C  -1.91700 18.97600 22.81400
C  -1.50500 14.22100 23.65400
N  -2.23200 17.26500 27.75100
C  -2.23700 16.37000 28.73100
C  -2.53300 17.01200 30.19700
C  -2.93300 18.46100 29.74300
C  -2.58700 18.54400 28.23400
C  -4.41700 18.86100 29.97000
C  -1.30400 16.89900 31.12700
C  -1.52000 16.15600 32.45100
H  -2.22500 16.87300 33.58000
N  -2.20400 19.11900 25.26600
C  -2.54600 20.05300 26.23200
C  -2.49000 21.35500 25.55600
C  -2.20800 21.18100 24.17700
C  -1.99700 19.70100 24.06000
C  -2.63800 22.72200 26.32500
C  -1.99600 22.22000 23.06500
O  -2.09200 21.97400 21.87400
C  -1.76200 23.70700 23.45700
N  -1.75700 16.66000 23.54900
C  -1.86000 17.60600 22.55900
C  -1.80700 16.99000 21.12100
C  -1.33900 15.59100 21.41800
C  -1.58800 15.45000 22.94600
C  -3.02300 17.17600 20.25500
C  0.09500 15.39900 20.88900
C  1.16100 16.04400 21.80600
N  -1.78600 15.02000 25.98500
C  -1.62300 13.95100 25.07700
C  -1.53400 12.71300 25.73500
C  -1.76700 13.05300 27.08200
C  -1.86800 14.43300 27.17900
C  -1.38500 11.29800 25.20500
C  -1.92100 12.53700 28.45700
O  -1.94100 11.37000 28.82100
C  -1.97500 13.77600 29.35300
C  -0.65600 13.70700 30.10200
O  0.40800 14.20500 29.72200
O  -0.87600 12.91900 31.22100
C  0.24800 12.65900 32.19100
H  -3.14800 20.55100 28.16100
H  -1.90800 19.50800 21.86100
H  -1.23900 13.37400 23.01700
H  -3.36900 16.54800 30.72100
H  -2.27500 19.19300 30.21100
H  -4.41300 19.87400 30.37400
H  -4.91900 18.23900 30.71100
H  -4.92600 18.87000 29.00600
H  -1.05200 17.89800 31.48300
H  -0.46800 16.43200 30.60700
H  -0.55100 15.80000 32.80100
H  -2.14500 15.28700 32.24500
H  -2.72200 22.53100 27.39500
H  -3.40700 23.37900 25.92000
H  -1.66400 23.18100 26.15700
H  -1.83200 24.23200 22.50400
H  -0.77300 23.91600 23.86600
H  -2.64400 24.09700 23.96400
H  -0.96300 17.53300 20.69500
H  -1.94600 14.80100 20.97700
H  -2.64200 17.56500 19.31000
H  -3.67700 17.90100 20.74000
H  -3.51300 16.21500 20.10000
H  0.29800 15.69300 19.85900
H  0.38900 14.34900 20.86200
H  0.68300 16.85200 22.35900
H  2.04300 16.44700 21.30900
H  1.47800 15.30200 22.53900
H  -0.87500 10.65900 25.92600
H  -0.71000 11.31300 24.34900
H  -2.40300 10.92800 25.08800
H  -2.79100 13.61200 30.05600
H  0.00300 11.71700 32.68100
H  0.22900 13.46800 32.92000
H  1.25500 12.61300 31.77600
Mg 36.21800 49.85300 25.77600
C  36.26800 47.81200 28.59200
C  35.66200 52.53500 27.75500
C  35.92900 51.66100 22.96000
C  36.61600 46.98300 23.86600
N  36.08400 50.11300 27.98200
C  35.99800 49.18100 28.96100
C  35.84700 49.78400 30.37800
C  35.24900 51.25400 29.99600
C  35.71400 51.30000 28.48800
C  33.73100 51.51700 30.17000
C  37.33300 49.82200 31.02000
C  37.40300 49.52700 32.48400
H  36.11400 49.72300 33.31800
N  36.02700 51.83900 25.42400
C  35.81400 52.76400 26.35900
C  35.69200 54.07800 25.67800
C  35.62200 53.85800 24.28400
C  35.83900 52.40100 24.21400
C  35.86100 55.37200 26.44400
C  35.54900 54.73500 23.14100
O  35.53700 54.41600 21.97500
C  35.47600 56.25300 23.45800
N  36.11700 49.35500 23.64900
C  36.15300 50.29500 22.73500
C  36.13600 49.75200 21.32400
C  36.45100 48.21000 21.54300
C  36.46200 48.16200 23.10500
C  34.75700 50.06900 20.58100
C  37.78400 47.70000 20.80000
C  37.50800 46.66600 19.77400
N  36.33400 47.84400 26.06600
C  36.63900 46.77800 25.22400
C  36.91300 45.51100 25.96600
C  36.82800 45.91600 27.33100
C  36.43100 47.27700 27.30600
C  37.09200 44.13500 25.36200
C  36.82400 45.43900 28.68900
O  37.08800 44.33600 29.04400
C  36.43600 46.65800 29.64100
C  35.11600 46.52000 30.33400
O  34.05000 46.57800 29.79100
O  35.34600 46.34800 31.71600
C  34.14600 46.44200 32.49700
H  35.37400 53.39700 28.36100
H  35.84600 52.25100 22.04500
H  36.82100 46.06100 23.31900
H  35.08100 49.26400 30.95300
H  35.82700 51.99100 30.55400
H  33.28500 51.70500 29.19400
H  33.55900 52.36200 30.83700
H  33.16600 50.63300 30.46700
H  37.85600 50.76200 30.84500
H  37.84500 49.00500 30.51200
H  38.02400 50.28500 32.96200
H  37.85300 48.56600 32.73500
H  34.86100 55.80500 26.43100
H  36.51500 56.16300 26.07600
H  36.08400 55.27800 27.50600
H  35.14700 56.80900 22.58100
H  36.45000 56.61500 23.78800
H  34.74600 56.40100 24.25400
H  36.88600 50.24500 20.70600
H  35.61200 47.67800 21.09500
H  33.98600 50.32700 21.30700
H  34.28700 49.17300 20.17500
H  34.84700 50.77100 19.75200
H  38.38200 47.15500 21.53200
H  38.41700 48.43600 20.30600
H  37.56700 47.03800 18.75100
H  36.53600 46.17900 19.84700
H  38.16100 45.83600 20.04400
H  36.26900 43.73200 24.77300
H  37.46300 43.35800 26.03000
H  37.78600 44.24200 24.52700
H  37.24400 46.79600 30.36000
H  33.31500 45.79500 32.21500
H  33.70400 47.43500 32.42200
H  34.52000 46.19400 33.49000

