158

Mg 50.68100 45.29200 42.34700
C  47.79900 47.03000 41.03900
C  49.54600 42.39100 40.98000
C  53.74600 44.03200 42.58000
C  51.94400 48.55600 42.98000
N  48.95900 44.83700 41.11300
C  47.82200 45.65500 40.81300
C  46.67400 44.82400 40.15300
C  47.08800 43.31600 40.36000
C  48.65600 43.52100 40.84800
C  46.31200 42.49800 41.45700
C  46.44000 45.08600 38.65500
C  44.99700 45.02800 38.16200
H  44.63700 43.86500 37.27100
N  51.53400 43.40200 41.90000
C  50.83200 42.34700 41.42500
C  51.76700 41.25900 41.38400
C  53.01700 41.72600 41.77500
C  52.83400 43.12500 42.03600
C  51.41400 39.94800 40.83600
C  54.26100 40.93600 41.81100
O  54.23000 39.70300 41.68100
C  55.63200 41.48300 41.93800
N  52.49800 46.14700 42.81800
C  53.66900 45.38100 42.93700
C  54.89400 46.18400 43.36500
C  54.28300 47.59500 43.67000
C  52.85300 47.44400 43.08900
C  55.59400 45.51500 44.52300
C  55.01300 48.81500 42.97300
C  55.13700 50.06300 43.78600
N  49.96800 47.37600 42.23800
C  50.62600 48.56000 42.52100
C  49.82900 49.68800 42.23900
C  48.62500 49.12100 41.76200
C  48.80400 47.76300 41.74100
C  50.28900 51.18100 42.33600
C  47.44100 49.45800 41.05700
O  47.05400 50.61100 40.80200
C  46.82800 48.11500 40.55400
C  45.52100 48.11600 41.22000
O  45.28600 48.38800 42.41800
O  44.53700 47.99000 40.26400
C  43.17300 48.12000 40.67500
H  49.06700 41.43300 40.77000
H  54.79400 43.72700 42.60300
H  52.37100 49.50900 43.29800
H  45.83500 45.03200 40.81700
H  47.11900 42.68800 39.47000
H  45.34900 42.94200 41.70700
H  46.82400 42.43000 42.41700
H  46.01300 41.53400 41.04300
H  46.99000 44.33300 38.09000
H  46.86300 46.00900 38.25800
H  44.83300 45.95300 37.60900
H  44.32400 44.92900 39.01400
H  52.00700 39.63000 39.97900
H  50.37900 39.90100 40.49900
H  51.36100 39.09000 41.50600
H  55.61900 41.98500 42.90500
H  55.74900 42.24300 41.16600
H  56.48700 40.81300 41.84600
H  55.58300 46.21700 42.52100
H  54.06500 47.65500 44.73600
H  55.84100 46.28800 45.25200
H  56.51700 45.02400 44.21900
H  54.94800 44.78600 45.01300
H  54.43100 49.10100 42.09700
H  56.04400 48.52300 42.77200
H  56.11200 50.11900 44.27100
H  54.30100 49.98300 44.48000
H  54.91000 50.90600 43.13300
H  50.47600 51.49300 43.36400
H  49.55300 51.80500 41.83000
H  51.24900 51.19700 41.82000
H  46.77800 48.10500 39.46600
H  42.87400 47.16100 41.09700
H  42.52100 48.30800 39.82200
H  43.00600 48.97900 41.32500
Mg 47.34600 34.47400 26.89000
C  45.32400 33.06800 29.42300
C  47.58000 37.22700 28.66800
C  48.97700 35.80100 24.25500
C  46.72900 31.58400 24.92300
N  46.59300 34.99300 28.82000
C  45.85200 34.27300 29.74100
C  46.12700 34.88000 31.16700
C  46.44500 36.43100 30.84400
C  46.86600 36.24700 29.34000
C  45.38000 37.39900 31.19900
C  47.31200 34.20200 31.80500
C  47.67200 34.48100 33.25800
H  46.70100 35.21700 34.21400
N  48.15800 36.23500 26.46900
C  48.16900 37.27900 27.37600
C  48.91000 38.37200 26.83600
C  49.18200 38.00200 25.50800
C  48.75000 36.65500 25.37600
C  49.26500 39.63300 27.57900
C  49.72100 38.83400 24.29600
O  49.73800 38.34000 23.15600
C  50.07100 40.30100 24.39000
N  47.67200 33.83200 24.79000
C  48.37700 34.63700 23.93200
C  48.59900 34.02500 22.58200
C  48.10800 32.52900 22.88500
C  47.47400 32.60700 24.26600
C  47.95300 34.79000 21.41700
C  49.20000 31.44300 22.79800
C  48.82100 30.35200 21.75300
N  46.21800 32.71000 27.05200
C  46.14400 31.56500 26.19700
C  45.42300 30.48800 26.90400
C  44.99800 31.05400 28.09400
C  45.52400 32.42500 28.14500
C  45.15900 29.05000 26.42000
C  44.29700 30.83500 29.32800
O  43.72700 29.80200 29.70000
C  44.30000 32.16800 30.08800
C  44.53900 31.80200 31.53800
O  45.45800 31.12100 31.99500
O  43.59000 32.40600 32.29200
C  43.61800 32.13600 33.68200
H  47.62700 38.16300 29.22800
H  49.67600 36.10000 23.47100
H  46.60700 30.66100 24.35300
H  45.24300 34.75500 31.79200
H  47.28800 36.73700 31.46400
H  45.30500 38.12600 30.39000
H  45.61400 37.79200 32.18800
H  44.41900 36.88600 31.24400
H  48.17000 34.32100 31.14400
H  47.07900 33.13900 31.87300
H  48.46700 35.18600 33.01600
H  48.08600 33.57100 33.69300
H  50.32700 39.87800 27.57900
H  49.03000 39.59700 28.64200
H  48.72000 40.53600 27.30300
H  49.62500 40.75700 25.27400
H  49.43900 40.61600 23.55900
H  51.11800 40.50000 24.16100
H  49.66700 34.02400 22.36100
H  47.33100 32.27800 22.16200
H  48.67200 35.43200 20.90900
H  47.00500 35.31000 21.55700
H  47.82600 34.04100 20.63500
H  49.28200 30.91100 23.74600
H  50.12500 31.89700 22.44200
H  47.86100 30.47900 21.25400
H  48.72100 29.50300 22.42900
H  49.63000 30.12100 21.06000
H  45.82100 28.87100 25.57300
H  44.09400 28.94700 26.20900
H  45.30900 28.47500 27.33300
H  43.27900 32.54700 30.13300
H  42.68900 32.53800 34.08600
H  44.43500 32.70600 34.12500
H  43.81400 31.10100 33.96400

