158

Mg 35.29900 48.32400 25.82200
C  35.83400 46.45600 28.70600
C  34.06900 50.81000 27.76000
C  34.67800 49.99300 23.00800
C  36.25100 45.39800 23.90800
N  34.87400 48.50900 27.99200
C  35.38000 47.74800 29.01200
C  35.15400 48.38800 30.42000
C  34.29900 49.59000 30.05800
C  34.45300 49.65100 28.48400
C  32.85800 49.54100 30.62200
C  36.47800 48.63100 31.10200
C  36.41100 48.46700 32.69400
H  35.06200 48.59100 33.37000
N  34.62100 50.24500 25.44500
C  34.15100 51.13000 26.32400
C  33.94700 52.37000 25.68900
C  34.07300 52.13900 24.28200
C  34.38100 50.70800 24.19400
C  33.72100 53.62200 26.45000
C  33.90200 53.14900 23.09400
O  33.97000 52.82700 21.90400
C  33.59600 54.57000 23.40400
N  35.39200 47.75100 23.85700
C  35.16400 48.68300 22.82700
C  35.16000 48.01500 21.44600
C  35.99200 46.71900 21.77600
C  35.81300 46.57000 23.26500
C  33.75800 47.70700 20.84500
C  37.52000 46.89300 21.42700
C  38.08700 45.72400 20.62400
N  35.88200 46.33000 26.20900
C  36.30300 45.30400 25.33300
C  36.79200 44.23400 26.13800
C  36.62300 44.56300 27.47200
C  36.02300 45.87600 27.47200
C  37.40300 42.93800 25.69700
C  36.84100 44.14000 28.83500
O  37.20100 43.05800 29.28800
C  36.28500 45.30300 29.72200
C  35.26600 44.75700 30.60000
O  34.06800 44.75300 30.31100
O  35.72200 44.57100 31.84400
C  34.80200 44.42500 32.95500
H  33.67700 51.62200 28.37700
H  34.35100 50.49400 22.09400
H  36.80000 44.60600 23.39500
H  34.59800 47.67800 31.03100
H  34.67500 50.53100 30.46000
H  32.04800 49.45600 29.89800
H  32.57500 50.43500 31.17800
H  32.74800 48.73300 31.34600
H  36.89200 49.53500 30.65400
H  37.13200 47.84600 30.72400
H  36.96400 49.29000 33.14700
H  36.84600 47.51400 32.99200
H  34.48600 54.31400 26.09800
H  33.81300 53.42700 27.51800
H  32.76200 54.05600 26.17000
H  33.62900 55.21400 22.52600
H  34.32500 54.88200 24.15200
H  32.57900 54.45000 23.78000
H  35.64400 48.68000 20.73000
H  35.53700 45.81800 21.36500
H  33.72000 46.61900 20.80500
H  33.53400 48.15600 19.87700
H  32.93600 48.02000 21.48800
H  38.09100 46.85900 22.35500
H  37.64600 47.90100 21.03200
H  37.59100 45.71800 19.65300
H  37.81800 44.75800 21.05000
H  39.14400 45.97400 20.52800
H  36.71100 42.09600 25.69300
H  38.30500 42.67600 26.25000
H  37.73800 43.03800 24.66500
H  37.13300 45.55000 30.36100
H  35.24800 45.08000 33.70400
H  34.91700 43.39000 33.27500
H  33.73800 44.63200 32.83900
Mg 26.71900 49.22000 26.40900
C  24.79900 50.52700 29.17300
C  29.01600 48.16000 28.88400
C  28.73800 48.23400 24.01500
C  24.50200 50.76900 24.27100
N  26.79700 49.24800 28.81300
C  25.85100 49.80800 29.63500
C  26.23500 49.55000 31.13000
C  27.63500 48.93100 31.01400
C  27.85900 48.70500 29.48900
C  28.86600 49.58800 31.83000
C  25.18000 48.80600 31.95200
C  24.53900 49.41300 33.19700
H  24.02100 48.54400 34.26700
N  28.62100 48.30900 26.38600
C  29.42000 47.89400 27.52500
C  30.60700 47.17000 27.01900
C  30.52500 47.19400 25.62700
C  29.30600 47.98400 25.26700
C  31.74400 46.61100 27.92100
C  31.52000 46.67300 24.55200
O  31.42900 46.94400 23.34900
C  32.69900 45.80000 25.02900
N  26.55000 49.35800 24.44500
C  27.53500 48.88000 23.64500
C  27.25800 49.32400 22.18500
C  25.84800 49.89700 22.24700
C  25.57400 50.02500 23.71500
C  28.20800 50.33000 21.67500
C  24.75500 48.93900 21.62500
C  23.63700 49.68400 20.90200
N  25.01900 50.47400 26.66200
C  24.23500 50.95800 25.64500
C  23.14900 51.77400 26.26700
C  23.32900 51.62900 27.62200
C  24.44100 50.75100 27.79900
C  22.00100 52.38900 25.47000
C  22.83700 51.95500 28.90600
O  21.88900 52.71800 29.18400
C  23.66400 51.18500 29.98700
C  24.16300 52.23900 30.87100
O  25.17200 52.96500 30.79100
O  23.23900 52.37300 31.86100
C  23.43100 53.46800 32.76600
H  29.83400 47.77900 29.50000
H  29.41300 48.04300 23.17800
H  23.75200 51.23600 23.63000
H  26.32300 50.53700 31.58500
H  27.70600 47.91400 31.40000
H  29.26700 48.85600 32.53200
H  28.53300 50.47800 32.36400
H  29.67900 49.91100 31.17900
H  25.54200 47.80500 32.18600
H  24.35200 48.68300 31.25400
H  23.65600 49.99300 32.92900
H  25.26400 50.10800 33.62100
H  32.70800 46.83500 27.46400
H  31.72400 45.52200 27.86700
H  31.79100 47.14500 28.87000
H  32.31400 44.99900 25.66100
H  33.32900 46.44800 25.63900
H  33.34000 45.48000 24.20900
H  27.27000 48.48600 21.48900
H  25.71700 50.88500 21.80600
H  28.81100 50.83100 22.43200
H  27.76400 51.09100 21.03300
H  28.84000 49.84900 20.92800
H  24.32000 48.35500 22.43600
H  25.07100 48.16400 20.92700
H  23.56700 49.42100 19.84600
H  23.80400 50.75900 20.83700
H  22.63500 49.57400 21.31700
H  21.10000 52.39500 26.08200
H  21.67300 51.83100 24.59200
H  22.33800 53.39900 25.23600
H  22.98000 50.49600 30.48300
H  23.43800 54.40500 32.20900
H  24.34400 53.39000 33.35500
H  22.60400 53.55000 33.47100

