158

Mg 41.12400 8.44600 29.89100
C  42.23200 9.92700 32.82000
C  38.44600 7.13200 31.75100
C  40.20100 6.77000 27.25900
C  44.00600 9.72000 28.25700
N  40.45300 8.46000 32.10800
C  41.01500 9.24400 33.00900
C  40.16000 9.40800 34.27700
C  39.04400 8.29000 34.04400
C  39.30600 7.89400 32.53600
C  39.21600 7.07300 35.11100
C  39.64500 10.84800 34.58100
C  39.36900 11.08100 36.07000
H  40.34800 11.87300 36.84600
N  39.48900 7.18800 29.53800
C  38.52500 6.78000 30.36700
C  37.63600 5.83300 29.64300
C  38.09200 5.80900 28.28600
C  39.29800 6.56700 28.28200
C  36.42700 5.19100 30.34700
C  37.55600 5.02700 27.10400
O  38.05400 5.11200 26.01500
C  36.32100 4.17000 27.27200
N  42.04300 8.18800 28.06100
C  41.43200 7.44100 27.08600
C  42.39900 7.32900 25.87600
C  43.50400 8.37800 26.17000
C  43.11800 8.88900 27.54700
C  42.88500 5.85000 25.66300
C  43.62700 9.40100 25.08200
C  42.63500 10.54200 25.05600
N  42.77700 9.54200 30.39800
C  43.81500 10.03800 29.59300
C  44.67600 10.97900 30.37900
C  44.12100 10.85900 31.64300
C  42.94100 10.03500 31.63100
C  45.88300 11.78500 29.90600
C  44.29600 11.29800 33.05500
O  45.11400 12.01800 33.52700
C  43.07700 10.70300 33.85300
C  43.60400 9.85900 34.93100
O  43.83900 8.66400 34.72600
O  43.63800 10.44400 36.16100
C  43.76800 9.44200 37.23200
H  37.51100 6.78500 32.19300
H  39.97400 6.18400 26.36600
H  44.74000 10.29300 27.68700
H  40.80300 9.06100 35.08600
H  38.02700 8.67900 34.02000
H  38.24200 6.76700 35.49400
H  39.87500 7.19800 35.97000
H  39.49700 6.13700 34.62700
H  38.67800 10.97300 34.09400
H  40.24800 11.55800 34.01500
H  39.21600 10.10700 36.53500
H  38.39200 11.54600 36.20500
H  36.76400 4.99400 31.36500
H  36.09100 4.24500 29.92300
H  35.52400 5.78800 30.46700
H  36.01900 3.93600 26.25100
H  35.57000 4.70300 27.85500
H  36.65000 3.23800 27.73100
H  41.87500 7.64200 24.97300
H  44.49800 7.95800 26.32300
H  42.50100 5.26600 26.50000
H  43.95900 5.72700 25.53100
H  42.38100 5.48200 24.76900
H  43.69300 8.83600 24.15200
H  44.59300 9.90300 25.12600
H  42.22200 10.71700 26.04900
H  41.83300 10.50500 24.31900
H  43.06600 11.50400 24.77800
H  45.63600 12.49200 29.11400
H  46.66900 11.17400 29.46200
H  46.35400 12.23700 30.77900
H  42.46400 11.49300 34.28500
H  42.96000 8.71700 37.33000
H  43.80500 10.04500 38.14000
H  44.76700 9.02000 37.12500
Mg -8.92700 18.46300 43.18600
C  -5.39900 18.24800 43.29900
C  -8.48900 21.95100 42.65900
C  -12.01500 18.71600 42.62900
C  -9.04400 14.92200 43.31100
N  -7.09100 19.92400 42.90800
C  -5.80900 19.51800 42.98700
C  -4.85100 20.74800 42.78900
C  -5.87200 21.98100 42.91300
C  -7.27100 21.27600 42.80900
C  -5.63200 22.93400 44.15600
C  -4.00900 20.66600 41.52600
C  -4.46500 19.69600 40.41900
H  -4.93700 20.45900 39.15000
N  -10.10900 20.12300 42.70900
C  -9.80400 21.46500 42.59700
C  -10.99500 22.18200 42.21600
C  -12.05200 21.22100 42.13600
C  -11.38900 19.97100 42.43600
C  -10.93900 23.55400 41.81900
C  -13.38100 21.47300 41.68900
O  -13.87900 22.59300 41.65300
C  -14.14700 20.35100 41.00200
N  -10.32100 16.99000 42.61100
C  -11.57900 17.34800 42.84300
C  -12.53100 16.09200 43.01500
C  -11.55800 14.92200 43.21700
C  -10.22700 15.65800 42.99000
C  -13.76900 16.17900 43.95000
C  -11.84000 13.68000 42.31700
C  -12.76900 12.72200 43.02200
N  -7.50600 16.85800 43.27900
C  -7.75300 15.49700 43.35100
C  -6.47300 14.81200 43.40300
C  -5.56400 15.85500 43.42800
C  -6.26000 17.09700 43.34600
C  -6.32700 13.36300 43.41200
C  -4.14600 16.14700 43.52000
O  -3.16200 15.45600 43.64100
C  -4.00200 17.70200 43.31400
C  -3.28300 18.20500 44.52700
O  -2.10800 18.58300 44.52600
O  -4.01600 18.13700 45.71400
C  -3.39000 18.70800 46.96400
H  -8.31900 23.02500 42.56500
H  -13.10700 18.71400 42.64400
H  -9.17400 13.94200 43.77600
H  -4.26500 20.71900 43.70800
H  -5.79200 22.48800 41.95100
H  -5.44000 23.95800 43.83700
H  -4.78600 22.67100 44.79200
H  -6.50200 22.97200 44.81200
H  -3.00400 20.42600 41.87200
H  -3.97200 21.63100 41.02200
H  -5.25100 19.02800 40.77100
H  -3.73300 18.95300 40.10300
H  -11.38000 24.22500 42.55700
H  -11.57700 23.59600 40.93600
H  -9.90800 23.86900 41.65900
H  -14.96600 19.85400 41.52200
H  -13.50900 19.63700 40.48100
H  -14.79700 20.85000 40.28200
H  -13.10200 15.86800 42.11400
H  -11.44300 14.63100 44.26100
H  -13.58900 15.56700 44.83400
H  -14.67600 15.81900 43.46600
H  -13.99800 17.20800 44.22600
H  -10.99900 13.06800 41.99300
H  -12.33600 14.07100 41.42800
H  -12.52400 11.66000 42.98900
H  -13.69000 12.75200 42.44000
H  -12.84100 13.03200 44.06400
H  -6.39000 12.90500 44.39900
H  -5.36700 12.95700 43.09300
H  -7.03900 12.89000 42.73600
H  -3.44000 17.94400 42.41200
H  -4.21100 18.74900 47.68000
H  -2.93000 19.69300 46.87600
H  -2.72000 17.97700 47.41700

