158

Mg 8.00300 3.07100 27.77000
C  9.34500 1.50000 30.62600
C  5.71100 4.80100 29.71300
C  6.61700 4.23300 24.95000
C  9.64300 0.56300 25.86800
N  7.45500 2.95900 29.91500
C  8.42100 2.56100 30.90400
C  8.02900 3.09600 32.30800
C  6.87300 3.98000 31.93300
C  6.66100 3.98100 30.40800
C  5.46500 3.80600 32.67300
C  9.26200 3.59900 33.10700
C  8.95000 4.66300 34.25900
H  9.53700 4.56700 35.63900
N  6.31800 4.33000 27.38300
C  5.64500 5.01400 28.29700
C  4.78200 5.91800 27.60900
C  5.08900 5.88500 26.24200
C  6.02800 4.80400 26.12900
C  3.89100 6.89000 28.27400
C  4.55200 6.74300 24.98900
O  5.02600 6.61000 23.84200
C  3.54800 7.74200 25.17500
N  8.29700 2.53400 25.70500
C  7.56900 3.20100 24.77900
C  7.69500 2.60600 23.37100
C  8.88400 1.62700 23.67100
C  8.98400 1.55500 25.19900
C  6.39400 1.96000 22.93000
C  10.23800 1.94900 23.02600
C  10.52500 1.50500 21.60800
N  9.40100 1.49100 28.18100
C  9.91700 0.55900 27.26300
C  10.73000 -0.36900 28.04800
C  10.62200 -0.00400 29.34000
C  9.69300 1.08000 29.41200
C  11.37500 -1.58400 27.44700
C  10.94000 -0.33500 30.67600
O  11.68300 -1.14800 31.17600
C  10.27600 0.72000 31.57100
C  9.64500 0.06300 32.71100
O  8.61100 -0.62100 32.73400
O  10.30500 0.42600 33.86400
C  9.69300 -0.22700 35.03900
H  5.17700 5.53300 30.32300
H  6.22300 4.62800 24.01100
H  10.11900 -0.14500 25.18600
H  7.55900 2.25400 32.81600
H  7.24700 4.98000 32.15400
H  4.71500 3.72300 31.88700
H  5.26200 4.60800 33.38300
H  5.51300 2.90500 33.28400
H  10.01100 4.10100 32.49600
H  9.73400 2.74700 33.59700
H  7.87800 4.53700 34.41200
H  9.17900 5.64100 33.83800
H  2.82900 6.67500 28.15700
H  4.07100 7.86900 27.82900
H  4.18100 6.95400 29.32300
H  3.15900 8.21700 24.27400
H  3.89600 8.56100 25.80300
H  2.73100 7.20300 25.65500
H  7.94900 3.35500 22.62100
H  8.57700 0.62800 23.35900
H  5.73500 1.91000 23.79700
H  6.46600 0.90600 22.66300
H  5.99400 2.57300 22.12200
H  11.09400 1.59600 23.60100
H  10.18300 3.03700 23.06100
H  9.80300 0.72100 21.37900
H  11.44700 0.92500 21.65200
H  10.50400 2.35200 20.92300
H  10.56000 -2.19900 27.06700
H  11.87800 -2.17400 28.21300
H  12.10300 -1.32200 26.67900
H  11.10600 1.36000 31.87300
H  10.44700 -0.23600 35.82600
H  9.58200 -1.30200 34.89800
H  8.71400 0.13900 35.34800
Mg 41.23400 9.36800 29.82200
C  43.04600 10.55400 32.48700
C  38.93500 7.95600 31.94900
C  39.86400 7.83400 27.10700
C  43.85500 10.35800 27.71100
N  40.97300 9.30400 32.02900
C  41.90800 9.76000 32.90300
C  41.39700 9.60700 34.32300
C  40.07300 8.75100 34.13300
C  39.96500 8.61900 32.60200
C  39.97600 7.34200 34.82800
C  41.32800 10.86900 35.23800
C  40.50600 10.89400 36.53000
H  41.34300 11.14800 37.87400
N  39.56400 8.18800 29.57800
C  38.74000 7.67100 30.59300
C  37.61500 6.99700 29.97500
C  37.86400 7.05300 28.52000
C  39.16100 7.68800 28.36100
C  36.52900 6.20500 30.74900
C  37.05800 6.49000 27.41700
O  37.34300 6.61000 26.21500
C  35.74300 5.98400 27.72000
N  41.80100 9.15100 27.65300
C  40.98400 8.57400 26.76300
C  41.61800 8.61900 25.32400
C  42.72400 9.61300 25.47200
C  42.83600 9.71500 27.02700
C  41.98900 7.19100 24.82100
C  42.51400 10.99800 24.73500
C  41.93200 12.16000 25.55600
N  43.12000 10.22300 29.98000
C  44.02800 10.58500 29.09800
C  45.13300 11.24100 29.73400
C  44.83300 11.25600 31.11200
C  43.54400 10.67600 31.19000
C  46.49800 11.46600 29.08300
C  45.33700 11.53400 32.43600
O  46.44300 11.95700 32.81600
C  44.14000 11.09700 33.38300
C  44.66600 10.21300 34.38500
O  44.55900 8.99000 34.38100
O  45.19300 10.96800 35.38800
C  45.51200 10.17600 36.59200
H  38.10100 7.55800 32.53000
H  39.38400 7.43600 26.21100
H  44.70800 10.71500 27.13000
H  42.07800 8.92400 34.83300
H  39.20100 9.23300 34.57400
H  38.90800 7.17100 34.96200
H  40.56500 7.29800 35.74500
H  40.36000 6.57400 34.15800
H  41.17000 11.72900 34.58700
H  42.29900 11.13900 35.65200
H  39.99700 9.93100 36.55700
H  39.59600 11.48600 36.44000
H  36.64600 5.16300 30.44900
H  35.53000 6.64000 30.73100
H  36.60600 6.25500 31.83500
H  35.09600 5.84700 26.85400
H  35.28300 6.66700 28.43400
H  35.97000 4.98400 28.09000
H  40.79200 9.09000 24.79100
H  43.61000 9.09400 25.10600
H  41.83100 6.51300 25.65900
H  43.02700 7.06700 24.51100
H  41.27700 6.87100 24.06000
H  41.93300 10.88300 23.82000
H  43.48400 11.39400 24.43600
H  41.44400 11.86100 26.48300
H  41.23100 12.72500 24.94200
H  42.72600 12.87100 25.78400
H  46.70000 10.82300 28.22600
H  47.26800 11.36100 29.84800
H  46.49300 12.51500 28.78700
H  43.86500 12.06100 33.81100
H  45.70300 10.88900 37.39400
H  46.46900 9.70400 36.37200
H  44.77100 9.44900 36.92300

