158

Mg 44.21900 2.93600 46.56700
C  43.36900 6.32300 45.74600
C  40.90300 2.13800 45.62900
C  45.00700 -0.25400 46.82700
C  47.45900 3.96900 46.96800
N  42.29100 4.09200 45.86700
C  42.23800 5.49600 45.58900
C  40.89900 5.87200 45.15400
C  40.01900 4.58400 45.37800
C  41.10700 3.51900 45.62100
C  38.90900 4.69900 46.40500
C  40.76500 6.49600 43.76200
C  40.10500 7.86600 43.55500
H  39.19500 7.84700 42.38800
N  43.13300 1.09100 46.16400
C  41.78800 0.99700 45.85000
C  41.42600 -0.41200 45.79500
C  42.63700 -1.12300 46.20800
C  43.67000 -0.10200 46.47000
C  40.05700 -0.90500 45.34500
C  42.76200 -2.62700 46.17600
O  41.85800 -3.30900 45.76100
C  44.05700 -3.36700 46.60000
N  45.97600 1.96300 46.72000
C  46.05600 0.65600 47.07100
C  47.42500 0.22700 47.55700
C  48.15500 1.61600 47.68300
C  47.15700 2.57900 47.04800
C  47.35500 -0.65800 48.82200
C  49.46000 1.68500 46.92700
C  50.56100 2.43600 47.58300
N  45.26500 4.80000 46.50300
C  46.64700 5.05600 46.60700
C  46.88400 6.46600 46.47500
C  45.62000 7.04400 46.14100
C  44.67600 5.97300 46.09000
C  48.23300 7.15500 46.83900
C  44.95900 8.24000 45.83700
O  45.34500 9.40100 45.83600
C  43.43100 7.87500 45.64000
C  42.67500 8.48900 46.70300
O  42.87800 8.36800 47.88100
O  41.64100 9.16800 46.19400
C  40.57700 9.51500 47.11700
H  39.89000 1.86000 45.33000
H  45.33100 -1.29200 46.93400
H  48.51000 4.24300 47.08100
H  40.51000 6.59300 45.87400
H  39.49300 4.32300 44.45900
H  38.94400 5.63300 46.96500
H  38.96000 3.90700 47.15100
H  37.94800 4.61800 45.89600
H  40.53200 5.68400 43.07500
H  41.81200 6.65400 43.50500
H  40.92200 8.55000 43.32700
H  39.49200 8.15400 44.40900
H  39.85900 -1.74400 46.01200
H  40.10300 -1.17700 44.29000
H  39.18300 -0.26100 45.44300
H  44.38400 -3.02100 47.58000
H  44.77100 -3.10700 45.81900
H  44.05700 -4.45100 46.48200
H  47.79200 -0.28900 46.67100
H  48.27800 1.83000 48.74500
H  47.33600 -1.65900 48.39000
H  46.39000 -0.53400 49.31200
H  48.19100 -0.35600 49.45400
H  49.22800 2.19200 45.99000
H  49.86500 0.69200 46.73200
H  51.44500 1.80200 47.64400
H  50.28800 2.84100 48.55700
H  50.90700 3.25100 46.94700
H  48.94500 6.51600 47.36000
H  48.04300 8.05500 47.42400
H  48.57000 7.54500 45.87800
H  43.01400 8.18000 44.68000
H  40.84900 10.39200 47.70600
H  40.24200 8.71600 47.77900
H  39.67100 9.72600 46.54900
Mg -2.75200 33.99600 26.61100
C  -3.92400 32.16500 29.44200
C  -1.17700 36.07000 28.57400
C  -2.12400 35.71000 23.83700
C  -4.76800 31.77600 24.74400
N  -2.60300 34.09100 28.80000
C  -2.98300 33.20900 29.74600
C  -2.54200 33.57100 31.13800
C  -1.63500 34.83700 30.80700
C  -1.84700 35.07700 29.29900
C  -1.96400 36.15900 31.63400
C  -1.91800 32.32500 31.94400
C  -2.52300 32.10500 33.29600
H  -1.52700 31.96200 34.43300
N  -1.70800 35.60200 26.23500
C  -1.05500 36.37700 27.21000
C  -0.30900 37.43500 26.59200
C  -0.61000 37.40200 25.17500
C  -1.52800 36.23200 25.01500
C  0.60900 38.35700 27.32800
C  -0.28500 38.32800 24.04800
O  -0.79100 38.41900 22.92000
C  0.80400 39.37600 24.34200
N  -3.46200 33.79500 24.61100
C  -2.96200 34.61700 23.59400
C  -3.28000 34.04200 22.15700
C  -3.97300 32.68200 22.54200
C  -4.08300 32.76000 24.06600
C  -4.14700 34.98900 21.26100
C  -3.17900 31.50400 22.04100
C  -1.76500 31.39700 22.71400
N  -4.16300 32.34800 26.95100
C  -4.85400 31.52800 26.13000
C  -5.64000 30.57900 26.86800
C  -5.30800 30.85400 28.15500
C  -4.34400 31.85500 28.16100
C  -6.53000 29.56400 26.28700
C  -5.59600 30.39300 29.46900
O  -6.33400 29.53600 29.95000
C  -4.64700 31.22600 30.35700
C  -5.46700 31.90000 31.38200
O  -6.06600 32.97700 31.24200
O  -5.69700 31.11800 32.48000
C  -6.57800 31.71900 33.47900
H  -0.56100 36.64100 29.27200
H  -1.92600 36.17300 22.86800
H  -5.39500 31.04900 24.22400
H  -3.38400 34.01200 31.67200
H  -0.59200 34.68000 31.08000
H  -2.59100 36.77900 30.99400
H  -1.05700 36.66500 31.96500
H  -2.48300 36.04700 32.58600
H  -0.85400 32.53400 32.04900
H  -1.91200 31.46000 31.28100
H  -3.07600 31.16700 33.24100
H  -3.20300 32.86300 33.68400
H  0.42900 38.44100 28.40000
H  0.43500 39.37700 26.98600
H  1.64500 38.09600 27.11200
H  1.67500 38.86200 24.74700
H  0.54800 40.17600 25.03800
H  1.02100 39.82900 23.37500
H  -2.32200 33.88300 21.66000
H  -5.01100 32.58800 22.22300
H  -3.89300 36.02200 21.49800
H  -5.17700 34.77200 21.54400
H  -3.91500 34.87900 20.20200
H  -2.94700 31.53500 20.97700
H  -3.70700 30.61000 22.37300
H  -1.62900 32.25000 23.37900
H  -1.06700 31.35500 21.87900
H  -1.82500 30.49100 23.31700
H  -6.37600 29.42200 25.21700
H  -7.50100 29.98600 26.54900
H  -6.47300 28.54100 26.66000
H  -3.97100 30.58800 30.92600
H  -7.49500 32.04900 32.99200
H  -6.22900 32.55200 34.08900
H  -6.72500 30.83000 34.09300

