158

Mg 17.20500 -2.00300 27.66100
C  16.33600 -0.17300 30.68900
C  19.00400 -4.16100 29.61800
C  17.96800 -3.53000 24.95100
C  15.67400 0.66500 25.85500
N  17.58200 -2.12000 29.96100
C  17.10000 -1.31100 30.98200
C  17.64600 -1.76800 32.35800
C  18.35500 -3.11300 31.93200
C  18.26400 -3.17400 30.40400
C  19.82700 -3.27600 32.53500
C  16.58900 -1.89400 33.55000
C  16.92900 -1.25800 34.93000
H  18.33600 -0.67600 35.27000
N  18.42700 -3.65700 27.33200
C  18.99600 -4.51800 28.23600
C  19.68200 -5.54100 27.57200
C  19.39400 -5.34900 26.13700
C  18.57900 -4.12600 26.03400
C  20.48700 -6.54800 28.21100
C  19.81800 -6.21700 24.97800
O  19.54300 -5.95900 23.81200
C  20.65800 -7.47800 25.12700
N  16.87800 -1.46000 25.71900
C  17.34000 -2.26800 24.74100
C  17.14100 -1.65400 23.28800
C  16.31400 -0.36700 23.55600
C  16.22200 -0.39500 25.11900
C  18.55300 -1.31900 22.71400
C  15.00100 -0.40400 22.70600
C  13.75200 -1.01400 23.44900
N  16.11400 -0.15100 28.10300
C  15.63500 0.80600 27.29600
C  14.98000 1.78600 28.04000
C  15.15100 1.39400 29.38100
C  15.91400 0.26300 29.38000
C  14.12600 2.87200 27.45800
C  14.95200 1.84400 30.73100
O  14.45400 2.93500 31.06500
C  15.75000 0.84100 31.63900
C  16.78800 1.54200 32.52500
O  17.94000 1.82100 32.12800
O  16.22400 2.09800 33.67300
C  17.05200 3.05600 34.34900
H  19.52300 -4.89400 30.23800
H  18.13700 -4.16400 24.07800
H  15.18300 1.36700 25.17800
H  18.40100 -1.00200 32.53200
H  17.79700 -3.99400 32.25100
H  20.05700 -4.33800 32.62800
H  19.97900 -2.72500 33.46400
H  20.62400 -2.90500 31.89100
H  16.47600 -2.96900 33.69300
H  15.63800 -1.48200 33.21200
H  16.75600 -2.05300 35.65500
H  16.10000 -0.61500 35.22300
H  20.50300 -6.45700 29.29700
H  21.48600 -6.33500 27.83200
H  20.14700 -7.56500 28.01500
H  21.52000 -7.30700 25.77000
H  20.95400 -7.66300 24.09400
H  20.01500 -8.23000 25.58500
H  16.75500 -2.44600 22.64600
H  16.84300 0.53300 23.24200
H  18.90200 -0.33900 23.03800
H  18.48200 -1.32100 21.62600
H  19.21700 -2.12400 23.02900
H  15.19800 -0.97400 21.79800
H  14.66100 0.61200 22.50300
H  13.26700 -0.21500 24.01100
H  14.10600 -1.71200 24.20700
H  13.02000 -1.47700 22.78700
H  13.14700 2.40900 27.32900
H  14.38500 3.25700 26.47200
H  14.14700 3.58800 28.27900
H  14.98600 0.40700 32.28500
H  16.69000 4.02100 33.99600
H  18.13100 2.94400 34.23900
H  16.74000 2.87100 35.37700
Mg 47.80200 33.83100 27.02900
C  46.05300 32.69200 29.81800
C  48.33000 36.93700 28.75700
C  49.28600 35.00000 24.27800
C  47.28500 30.74500 25.43200
N  47.11800 34.79200 29.04500
C  46.54400 34.05700 30.02700
C  46.71100 34.79300 31.40900
C  47.20400 36.22600 30.95100
C  47.56800 35.98300 29.49700
C  46.04300 37.35900 31.00200
C  47.71100 33.96400 32.21000
C  47.66800 34.18400 33.72100
H  46.88000 35.46300 34.14600
N  48.70800 35.65800 26.61800
C  48.83900 36.76300 27.44100
C  49.55200 37.76000 26.76300
C  49.69200 37.28000 25.43500
C  49.18200 35.92100 25.39400
C  50.00600 39.07600 27.34200
C  50.51100 37.93900 24.31600
O  50.89300 37.37400 23.28000
C  50.84400 39.35400 24.38900
N  48.13500 33.01600 25.13900
C  48.74400 33.70700 24.20100
C  48.80600 32.95000 22.93500
C  48.54400 31.50900 23.40100
C  47.88500 31.73200 24.69200
C  47.83100 33.48800 21.88300
C  49.75200 30.55300 23.61800
C  51.22500 31.09900 23.64300
N  46.82000 32.06500 27.44700
C  46.65400 30.94600 26.70200
C  45.88500 30.03800 27.47500
C  45.62500 30.62000 28.71700
C  46.25300 31.90500 28.64400
C  45.59500 28.60700 27.05400
C  45.09500 30.36800 30.01200
O  44.55000 29.38700 30.51800
C  45.03300 31.85900 30.63000
C  45.05200 31.80200 32.14500
O  45.95200 31.35400 32.80100
O  43.92900 32.38300 32.65700
C  43.85300 32.41200 34.17800
H  48.49700 37.87600 29.29000
H  49.76600 35.38300 23.37500
H  47.19100 29.77100 24.94800
H  45.77700 34.88900 31.96200
H  48.07700 36.45100 31.56500
H  46.60200 38.24800 31.29300
H  45.27300 37.08900 31.72400
H  45.53000 37.76700 30.13100
H  48.71600 34.21700 31.87400
H  47.58700 32.88900 32.07900
H  48.70200 34.27900 34.05100
H  47.16700 33.37000 34.24600
H  50.95700 39.38400 26.90800
H  50.15500 39.00700 28.42000
H  49.26700 39.84900 27.13600
H  50.03300 39.89400 24.87800
H  51.06200 39.69100 23.37600
H  51.77200 39.45400 24.95200
H  49.80400 32.96700 22.49600
H  47.80800 30.95300 22.81900
H  48.22000 33.51000 20.86500
H  47.53700 34.53000 22.01000
H  46.94600 32.85400 21.94000
H  49.82500 29.72800 22.90900
H  49.54500 29.95300 24.50400
H  51.46500 31.20300 22.58500
H  51.81000 30.33000 24.14600
H  51.20700 32.04300 24.18700
H  46.44400 28.28900 26.45000
H  44.63200 28.54700 26.54700
H  45.52200 28.00500 27.96000
H  43.98200 32.09500 30.46100
H  44.54200 31.72400 34.66700
H  42.85100 32.05100 34.41000
H  43.84000 33.48100 34.39000

