158

Mg 42.23300 40.79700 26.80900
C  41.30500 43.11400 29.34000
C  42.96500 38.60900 29.38800
C  43.54600 38.80600 24.50900
C  41.69600 43.28600 24.38200
N  42.09000 40.84300 29.17400
C  41.67900 41.89100 29.96000
C  41.77200 41.53900 31.40700
C  42.35200 40.07800 31.42100
C  42.41900 39.81700 29.89400
C  43.63100 39.81300 32.14100
C  40.50600 41.79600 32.34300
C  40.52700 41.05900 33.73400
H  40.46100 41.95200 35.04800
N  43.09900 38.95300 26.93800
C  43.27300 38.14500 28.05900
C  43.70300 36.82500 27.61000
C  43.92200 36.87800 26.22700
C  43.52700 38.23500 25.85200
C  43.88500 35.69800 28.69600
C  44.31300 35.82800 25.23900
O  44.50100 35.94800 24.01100
C  44.32200 34.44200 25.71300
N  42.52700 40.96400 24.76800
C  43.20200 40.07200 24.01400
C  43.22600 40.51300 22.53600
C  42.69100 41.95300 22.57400
C  42.17900 42.06400 23.98400
C  44.66000 40.39400 21.88500
C  41.63900 42.31500 21.55300
C  40.15800 42.00500 21.84800
N  41.52200 42.78000 26.80700
C  41.32200 43.66200 25.72000
C  40.85500 44.93500 26.17400
C  40.82200 44.77100 27.56500
C  41.26200 43.45500 27.92000
C  40.44700 46.07900 25.33900
C  40.41800 45.44500 28.83400
O  39.96200 46.57100 28.99800
C  40.81300 44.41200 30.02700
C  42.07100 44.96300 30.68700
O  43.11000 45.20000 30.12700
O  41.80000 45.39400 31.95600
C  42.80900 46.18800 32.64600
H  43.15300 37.90400 30.20000
H  44.06800 38.18400 23.77800
H  41.42300 44.03400 23.63400
H  42.53500 42.21100 31.79900
H  41.57600 39.38600 31.74900
H  43.74600 40.60300 32.88300
H  44.42600 39.81000 31.39500
H  43.41000 38.86500 32.63000
H  39.61400 41.55900 31.76400
H  40.50300 42.87500 32.50000
H  41.46600 40.51300 33.82400
H  39.72800 40.31700 33.72100
H  43.81400 34.64400 28.43000
H  43.23000 35.77600 29.56400
H  44.89500 35.95300 29.01500
H  45.21400 34.35400 26.33200
H  44.27600 33.67300 24.94100
H  43.37500 34.30500 26.23500
H  42.50500 39.85700 22.04900
H  43.46200 42.72300 22.57000
H  45.36900 39.98000 22.60100
H  45.02000 41.37500 21.57500
H  44.73600 39.66600 21.07800
H  41.95500 41.81200 20.63900
H  41.78800 43.34700 21.23700
H  40.19400 41.50700 22.81700
H  39.74900 41.27200 21.15400
H  39.53100 42.89700 21.87300
H  41.39400 46.54500 25.06600
H  39.83800 46.71200 25.98400
H  39.93900 45.66000 24.47100
H  40.02000 44.34300 30.77100
H  42.56100 46.19600 33.70800
H  42.62500 47.18300 32.24200
H  43.83500 45.84100 32.52300
Mg 26.41900 49.75000 25.99200
C  24.22300 51.03500 28.43400
C  28.40500 48.66400 28.66300
C  28.69700 48.78100 23.67200
C  24.48000 51.14800 23.58100
N  26.23800 49.76900 28.29700
C  25.28800 50.38300 29.07800
C  25.44900 49.96200 30.57800
C  26.90100 49.41900 30.65500
C  27.20000 49.22900 29.08800
C  27.96700 50.36800 31.32600
C  24.26300 49.11200 31.11100
C  23.75100 49.46900 32.53000
H  23.85900 48.28300 33.56500
N  28.32400 48.88900 26.17100
C  29.00000 48.54400 27.32800
C  30.31600 48.00000 27.03500
C  30.47500 48.12100 25.58500
C  29.14800 48.64900 25.08600
C  31.21100 47.46900 28.05900
C  31.68400 47.84100 24.76300
O  31.82600 48.14600 23.57700
C  32.85200 47.17200 25.35900
N  26.57100 49.89000 23.91500
C  27.42900 49.23500 23.16600
C  27.06800 49.31400 21.63600
C  25.86300 50.31100 21.60800
C  25.58400 50.46000 23.09300
C  28.29800 49.77200 20.76300
C  24.62700 49.72500 20.93500
C  23.86100 48.62800 21.73300
N  24.67600 50.85900 25.96600
C  23.96300 51.34400 24.90600
C  22.76800 52.04300 25.35200
C  22.85100 51.98300 26.71700
C  24.08000 51.27800 27.03700
C  21.63100 52.54100 24.44700
C  22.14400 52.31100 27.98000
O  21.12900 52.97100 28.14000
C  22.98100 51.63700 29.10200
C  23.43900 52.70900 30.03800
O  24.28800 53.56400 29.93200
O  22.69200 52.48200 31.22300
C  22.89700 53.29800 32.36500
H  28.90200 48.32400 29.57400
H  29.44100 48.29900 23.03300
H  23.92400 51.60300 22.75800
H  25.45900 50.87400 31.17600
H  26.87500 48.45600 31.16400
H  28.53800 49.92000 32.13900
H  27.46400 51.15100 31.89200
H  28.66100 50.83800 30.62800
H  24.58000 48.07000 31.07400
H  23.43900 49.09300 30.39700
H  22.75600 49.91400 32.51600
H  24.44700 50.21500 32.91400
H  30.75700 47.57400 29.04400
H  32.20100 47.91600 28.15400
H  31.30700 46.42600 27.75800
H  32.53800 46.26700 25.87800
H  33.23200 47.90700 26.06900
H  33.60300 46.97600 24.59400
H  26.76700 48.32400 21.29300
H  26.05800 51.27800 21.14400
H  28.42000 49.02200 19.98100
H  29.24100 49.82700 21.30600
H  28.16600 50.76500 20.33500
H  24.91900 49.25300 19.99700
H  23.95000 50.50300 20.58200
H  22.86800 49.00300 21.97900
H  24.29500 48.38300 22.70300
H  23.77500 47.69000 21.18400
H  21.07400 51.65300 24.15000
H  21.91800 53.10800 23.56100
H  21.02000 53.16000 25.10400
H  22.33200 50.90100 29.57500
H  23.28000 52.61600 33.12400
H  21.93100 53.64200 32.73500
H  23.53700 54.18100 32.34400

