158

Mg 45.05500 4.10700 46.18700
C  43.15300 7.02800 46.12800
C  42.11900 2.27200 45.65600
C  46.95400 1.38600 45.71900
C  47.86800 6.11100 46.25900
N  42.86600 4.57500 46.04200
C  42.37400 5.81600 46.03100
C  40.81300 5.75500 45.76500
C  40.58400 4.22700 45.70100
C  41.95100 3.60600 45.77900
C  39.47300 3.74100 46.65000
C  40.22100 6.52700 44.56400
C  41.17800 6.90700 43.45700
H  40.57200 7.13400 42.10000
N  44.57500 2.10000 45.76100
C  43.31600 1.56600 45.59500
C  43.50900 0.23700 45.16300
C  44.87700 -0.11100 45.09700
C  45.56300 1.10200 45.52600
C  42.34100 -0.58400 44.66300
C  45.46400 -1.50800 44.74700
O  44.74700 -2.49600 44.47900
C  46.90000 -1.73800 44.79500
N  47.10800 3.78800 45.70800
C  47.64100 2.52700 45.84700
C  49.20700 2.58600 45.79900
C  49.47200 4.10200 46.03000
C  48.02700 4.73200 45.90800
C  50.02700 1.76700 46.78400
C  50.62200 4.87200 45.14300
C  52.01800 5.22600 45.88700
N  45.45100 6.18600 46.27600
C  46.66500 6.82800 46.35700
C  46.53200 8.26800 46.50400
C  45.11200 8.43900 46.47000
C  44.54800 7.11000 46.34600
C  47.61200 9.29400 46.70500
C  44.00500 9.33200 46.55700
O  43.94600 10.52600 46.69600
C  42.75000 8.44600 46.32500
C  41.84800 8.62500 47.50800
O  41.81300 7.78600 48.41400
O  40.97300 9.69700 47.39500
C  39.76400 9.71200 48.28800
H  41.18600 1.71500 45.55000
H  47.66900 0.56500 45.63000
H  48.73400 6.72400 46.51500
H  40.30900 6.12000 46.66000
H  40.28600 4.01700 44.67400
H  38.84700 4.58600 46.93500
H  39.87300 3.30600 47.56600
H  38.91700 2.98900 46.08900
H  39.80400 7.49700 44.83800
H  39.37000 5.97800 44.16100
H  42.06700 6.29100 43.32300
H  41.63000 7.85200 43.75900
H  41.57100 -0.70100 45.42600
H  42.63100 -1.61800 44.47600
H  41.89500 -0.23500 43.73100
H  47.18800 -2.72900 44.44500
H  47.08200 -1.59900 45.86100
H  47.50500 -0.96900 44.31300
H  49.60100 2.39500 44.80100
H  49.76700 4.29200 47.06200
H  50.90100 2.32200 47.12600
H  50.23900 0.76300 46.41500
H  49.38200 1.45100 47.60400
H  50.04700 5.75100 44.85400
H  50.64800 4.26700 44.23700
H  52.04700 4.69000 46.83600
H  52.27900 6.27100 46.05300
H  52.90000 4.85700 45.36300
H  47.91800 9.74500 45.76200
H  48.47500 8.85100 47.20200
H  47.24400 10.08600 47.35700
H  42.19600 8.81800 45.46300
H  39.82600 9.74200 49.37600
H  39.10000 8.89800 47.99700
H  39.20300 10.62300 48.08400
Mg -11.43000 38.80400 41.35000
C  -9.51000 35.91100 40.41600
C  -9.21700 40.67100 39.59600
C  -13.57800 41.30700 41.44700
C  -13.92100 36.43500 42.47500
N  -9.62200 38.24300 40.01300
C  -8.96600 37.07300 39.91500
C  -7.69500 37.26400 39.11800
C  -7.64200 38.79200 38.88300
C  -8.87300 39.32700 39.61300
C  -6.30900 39.57500 39.19000
C  -7.62500 36.38200 37.80900
C  -6.26700 35.74900 37.44500
H  -5.70300 36.01500 35.98700
N  -11.35800 40.78800 40.71800
C  -10.34500 41.32700 39.99100
C  -10.64700 42.78200 39.71200
C  -11.90400 42.98400 40.32600
C  -12.33900 41.70800 40.97300
C  -9.70100 43.64700 38.87300
C  -12.60800 44.33200 40.19300
O  -12.14700 45.31200 39.63700
C  -13.91600 44.58300 40.91100
N  -13.52300 38.80900 41.66400
C  -14.15400 39.98200 41.66200
C  -15.57000 39.73000 42.12300
C  -15.75300 38.21300 42.34100
C  -14.28300 37.77200 42.20700
C  -16.00400 40.63600 43.23500
C  -16.70500 37.45700 41.35500
C  -17.85100 36.58400 42.06000
N  -11.71100 36.57000 41.48500
C  -12.65200 35.78900 42.11800
C  -12.18300 34.39800 42.26900
C  -10.92300 34.39900 41.58300
C  -10.74500 35.72700 41.12800
C  -12.86700 33.34900 43.08300
C  -9.77200 33.64600 41.18500
O  -9.52800 32.47200 41.41700
C  -8.83100 34.57900 40.19800
C  -7.39100 34.45600 40.71100
O  -6.56200 33.62500 40.33500
O  -7.20900 35.29000 41.75500
C  -5.91000 35.36900 42.34000
H  -8.45100 41.22700 39.05100
H  -14.25600 42.16200 41.42800
H  -14.69300 35.88500 43.01600
H  -6.86300 37.18400 39.81600
H  -7.76500 39.08600 37.84000
H  -6.12600 40.13700 38.27400
H  -5.42400 38.93900 39.20800
H  -6.52900 40.18400 40.06700
H  -7.71500 37.15600 37.04600
H  -8.42100 35.64200 37.72400
H  -6.35400 34.66400 37.51000
H  -5.40400 35.77800 38.11000
H  -10.22000 44.12300 38.04100
H  -8.88900 43.06500 38.43800
H  -9.31900 44.40700 39.55500
H  -14.07800 45.65900 40.98500
H  -13.80800 44.13800 41.90000
H  -14.82900 44.17200 40.48100
H  -16.06500 40.06500 41.21200
H  -16.05900 37.89200 43.33700
H  -16.90100 40.17200 43.64400
H  -16.14300 41.61400 42.77400
H  -15.31900 40.73400 44.07700
H  -16.11100 36.77600 40.74500
H  -17.15400 38.09500 40.59400
H  -17.88000 35.65500 41.49100
H  -18.79800 37.12300 42.09900
H  -17.52100 36.21000 43.02900
H  -12.07500 32.67300 43.40800
H  -13.57300 32.71700 42.54500
H  -13.36400 33.77100 43.95600
H  -8.88600 34.25100 39.15900
H  -5.17000 35.76700 41.64500
H  -5.66300 34.35200 42.64400
H  -5.90800 36.00900 43.22200

