158

Mg 8.97300 2.86800 27.65500
C  9.88100 1.12100 30.60600
C  7.51500 5.22800 29.69200
C  7.57500 4.12500 24.90500
C  10.16900 0.17000 25.85800
N  8.89100 3.19800 29.89200
C  9.32500 2.34800 30.90100
C  9.16400 3.09200 32.25700
C  8.32300 4.36800 31.97800
C  8.24100 4.25200 30.42600
C  7.00900 4.59900 32.69900
C  10.42600 3.20300 33.10900
C  10.39600 4.29300 34.28500
H  11.21400 3.92800 35.50200
N  7.65700 4.45300 27.31400
C  7.24000 5.36400 28.28600
C  6.52300 6.37000 27.59600
C  6.42900 6.08200 26.20300
C  7.19500 4.81300 26.07200
C  6.01600 7.49800 28.39700
C  5.80000 6.86700 25.10100
O  5.87900 6.60700 23.90500
C  4.84700 7.96600 25.47400
N  8.61000 2.05700 25.68700
C  8.29400 2.87800 24.72200
C  8.51500 2.32700 23.28400
C  9.55100 1.24400 23.63600
C  9.43700 1.13400 25.18200
C  7.21300 1.81500 22.66100
C  11.02300 1.57200 23.20500
C  11.79900 0.46000 22.44100
N  9.90000 1.07300 28.07300
C  10.38800 0.10900 27.24800
C  11.05400 -0.93300 28.05800
C  10.91800 -0.55300 29.38600
C  10.12800 0.65700 29.35400
C  11.76100 -2.05200 27.60100
C  11.26900 -0.82600 30.72900
O  12.04800 -1.67200 31.18400
C  10.66200 0.22600 31.57800
C  9.88900 -0.26200 32.72300
O  8.70900 -0.42400 32.68300
O  10.77000 -0.51300 33.74800
C  10.11400 -1.00600 34.94500
H  7.17900 6.05100 30.32500
H  7.23500 4.64900 24.01000
H  10.68100 -0.51600 25.18000
H  8.64200 2.32100 32.82400
H  8.96100 5.24200 32.10700
H  7.16600 4.30100 33.73500
H  6.26100 4.04000 32.13600
H  6.73900 5.65100 32.78600
H  11.15100 3.67000 32.44200
H  10.63000 2.18900 33.45400
H  9.37100 4.54900 34.55100
H  10.92900 5.13600 33.84700
H  6.13600 8.47300 27.92400
H  6.43100 7.64000 29.39500
H  4.93700 7.38400 28.50900
H  5.40200 8.81500 25.87200
H  4.24600 7.60500 26.30900
H  4.10000 8.19000 24.71300
H  8.95500 3.16200 22.73900
H  9.32100 0.27000 23.20400
H  7.27700 0.72700 22.64700
H  7.17800 2.16000 21.62700
H  6.30700 2.19500 23.13200
H  11.59300 2.08600 23.97900
H  10.99600 2.37200 22.46500
H  11.53600 0.69500 21.41000
H  11.42800 -0.54100 22.66000
H  12.85200 0.61400 22.67600
H  12.61100 -1.58700 27.10300
H  11.27000 -2.77500 26.95000
H  11.90400 -2.63200 28.51300
H  11.54900 0.78900 31.87000
H  10.55900 -1.95200 35.25300
H  9.02700 -1.04700 35.00600
H  10.42100 -0.23600 35.65300
Mg 16.65300 51.89500 25.27300
C  18.15400 50.57300 28.10200
C  14.10900 53.12300 27.28100
C  14.83900 52.34400 22.37600
C  18.98400 50.20900 23.34200
N  16.21200 51.78600 27.40600
C  17.02000 51.28700 28.38000
C  16.50800 51.62400 29.79000
C  15.08700 52.22100 29.47500
C  15.12500 52.40500 27.92700
C  13.87900 51.26200 29.77800
C  17.50900 52.55900 30.63300
C  17.94900 52.30000 32.07400
H  16.93200 51.52500 32.96600
N  14.75100 52.69900 24.82400
C  13.89300 53.25000 25.83800
C  12.78200 53.85900 25.11600
C  12.95600 53.61000 23.71000
C  14.20700 52.87600 23.53900
C  11.72800 54.59300 25.80900
C  11.98800 53.77500 22.50000
O  12.23800 53.45300 21.29600
C  10.58000 54.34900 22.69800
N  16.75200 51.25500 23.10300
C  15.98600 51.61700 22.14000
C  16.64500 51.47100 20.77800
C  17.82900 50.59600 21.07400
C  17.86200 50.64300 22.61600
C  15.70700 50.91400 19.66600
C  19.19200 51.02600 20.39600
C  19.56100 50.11900 19.21000
N  18.22600 50.57500 25.59600
C  19.13500 50.09600 24.69300
C  20.16500 49.39500 25.43500
C  19.84400 49.52400 26.76100
C  18.64000 50.26200 26.81800
C  21.09300 48.53500 24.69200
C  20.15300 49.24800 28.10400
O  21.07700 48.61300 28.60900
C  19.05500 49.85700 29.08700
C  18.43200 48.79000 29.88600
O  17.34900 48.29600 29.66900
O  19.09600 48.53900 31.07500
C  18.63600 47.55500 32.00100
H  13.43200 53.70900 27.90600
H  14.48700 52.82100 21.45900
H  19.79600 49.78000 22.75100
H  16.51200 50.67800 30.33100
H  14.80800 53.17600 29.92000
H  13.24700 51.15200 28.89600
H  13.17600 51.74900 30.45300
H  14.21000 50.28600 30.13400
H  16.95800 53.49700 30.69400
H  18.33600 52.75600 29.95000
H  18.06600 53.21800 32.65100
H  18.95900 51.89000 32.05800
H  10.73500 54.61500 25.35900
H  12.05700 55.62000 25.96600
H  11.69800 54.20000 26.82500
H  10.02700 54.34300 21.75800
H  10.70700 55.35800 23.08800
H  9.97700 53.83800 23.44800
H  16.97400 52.45400 20.44100
H  17.55000 49.56300 20.86700
H  14.81100 50.57600 20.18800
H  16.11500 50.09500 19.07300
H  15.50600 51.75000 18.99600
H  20.08400 50.97200 21.02100
H  18.90500 51.91200 19.83000
H  19.49900 50.66500 18.26900
H  18.87100 49.27500 19.21800
H  20.56300 49.70500 19.33000
H  21.65000 49.10400 23.94800
H  20.51800 47.78400 24.15100
H  21.92800 48.13100 25.26500
H  19.50300 50.54600 29.80200
H  19.55200 47.02600 32.26400
H  18.01300 46.82200 31.48900
H  18.15300 47.97500 32.88300

