158

Mg 42.87300 3.91500 47.18700
C  40.55700 6.35100 47.40200
C  40.48100 1.58900 47.41800
C  45.28200 1.44700 46.84000
C  45.34900 6.24300 46.15900
N  40.79100 3.98500 47.26400
C  40.01700 5.07400 47.47300
C  38.55500 4.65800 47.49100
C  38.65900 3.18500 47.83600
C  40.07800 2.88200 47.52300
C  38.40600 2.83200 49.37200
C  37.74800 5.02100 46.17300
C  38.23700 4.62800 44.85100
H  38.39800 5.76200 43.77400
N  42.85800 1.81100 46.98000
C  41.75700 1.06600 47.11500
C  42.10400 -0.35900 47.10800
C  43.47000 -0.47900 46.85000
C  43.96700 0.97800 46.83700
C  41.04400 -1.47300 47.17300
C  44.29400 -1.83200 46.71000
O  43.81900 -2.92400 46.82700
C  45.71900 -1.72700 46.40300
N  44.98400 3.83700 46.43400
C  45.80000 2.73100 46.68100
C  47.27300 3.07800 46.65800
C  47.25800 4.53900 46.02400
C  45.76200 4.93500 46.18800
C  48.03600 2.98900 48.11200
C  47.82000 4.62800 44.54800
C  49.14400 5.30500 44.32700
N  43.02500 5.89800 46.95500
C  44.07300 6.79900 46.53000
C  43.60900 8.18300 46.59900
C  42.29700 8.04800 47.04600
C  41.96400 6.66000 47.14400
C  44.48500 9.43000 46.35900
C  41.07700 8.83000 47.34500
O  40.84700 10.04500 47.33800
C  39.91800 7.73300 47.56300
C  39.20000 7.91800 48.79000
O  39.53600 7.37600 49.83200
O  38.14600 8.73000 48.63700
C  37.11800 8.94300 49.69000
H  39.68500 0.84800 47.51800
H  46.07200 0.69900 46.93400
H  46.20100 6.81500 45.78600
H  38.04000 5.21100 48.27600
H  37.99500 2.58600 47.21300
H  38.12100 3.77100 49.84700
H  39.34500 2.55400 49.85200
H  37.67600 2.02600 49.44000
H  37.73300 6.11100 46.20500
H  36.76000 4.59800 46.35800
H  37.43700 4.04200 44.40000
H  39.13400 4.01100 44.91200
H  40.30300 -1.64200 46.39200
H  40.49100 -1.31400 48.09900
H  41.48900 -2.45900 47.30900
H  46.28000 -1.55800 47.32200
H  45.85200 -1.03100 45.57500
H  46.11800 -2.63700 45.95700
H  47.72900 2.34300 45.99500
H  47.86600 5.19900 46.64200
H  47.41900 2.35600 48.75000
H  48.26900 3.92900 48.61200
H  49.03100 2.54600 48.05000
H  47.06300 5.05900 43.89400
H  47.97200 3.61300 44.18200
H  49.77300 4.68700 43.68600
H  49.66000 5.44900 45.27600
H  49.01500 6.22900 43.76300
H  45.53800 9.15700 46.42000
H  44.23500 10.28200 46.99100
H  44.33200 9.74000 45.32500
H  39.19200 7.92600 46.77300
H  37.53900 8.93000 50.69500
H  36.42400 8.10300 49.66900
H  36.56100 9.86700 49.53400
Mg 15.97000 51.30400 25.41200
C  17.99500 50.69200 28.20100
C  13.48900 51.97900 27.31800
C  14.10000 51.39800 22.59400
C  18.72200 50.42000 23.41900
N  15.72400 51.33200 27.56000
C  16.73100 51.30700 28.45500
C  16.25600 51.65000 29.83400
C  14.73900 51.81000 29.57000
C  14.68900 51.77800 28.01200
C  13.80700 50.79000 30.30700
C  16.99900 52.92800 30.45500
C  17.30800 52.88800 31.99700
H  16.55800 51.77100 32.84000
N  13.96400 51.73000 25.01300
C  13.09100 51.93300 25.98200
C  11.76600 52.01200 25.43100
C  11.94900 51.79500 24.02300
C  13.33700 51.56200 23.77500
C  10.41800 52.16100 26.27400
C  10.83900 51.73200 22.97400
O  11.14300 51.56900 21.76100
C  9.38600 52.06400 23.30800
N  16.42800 51.27900 23.32200
C  15.45200 51.23800 22.39900
C  16.05500 50.89700 20.94800
C  17.54600 51.24800 21.22200
C  17.54300 50.94100 22.74900
C  15.81200 49.42700 20.38900
C  18.05200 52.67700 20.91000
C  18.83400 52.81000 19.58000
N  17.98800 50.70900 25.65100
C  18.92200 50.28500 24.77500
C  20.08200 49.74200 25.49200
C  19.74900 49.89200 26.87800
C  18.50000 50.48100 26.92200
C  21.36500 49.22700 24.93000
C  20.23200 49.72700 28.22000
O  21.33300 49.41400 28.65500
C  19.07000 50.23300 29.19700
C  18.72200 48.99700 29.97700
O  18.56300 47.84200 29.55500
O  18.70400 49.30400 31.28100
C  18.18600 48.31000 32.16500
H  12.64200 52.10600 27.99500
H  13.56200 51.42300 21.64400
H  19.61200 50.31500 22.79400
H  16.51400 50.78400 30.44300
H  14.38400 52.79800 29.86300
H  13.48400 50.08400 29.54100
H  12.94700 51.36000 30.65700
H  14.31300 50.30000 31.13900
H  16.42200 53.83200 30.26400
H  17.92400 53.03700 29.88900
H  16.92600 53.78200 32.49100
H  18.38900 52.81900 32.11600
H  9.64200 51.49900 25.89000
H  10.07600 53.16900 26.03700
H  10.40000 51.92000 27.33700
H  9.23900 53.03400 23.78200
H  8.84200 51.22700 23.74500
H  8.80400 52.06500 22.38600
H  15.45100 51.59200 20.36600
H  18.13700 50.53900 20.64100
H  15.31400 48.91400 21.21200
H  16.76400 48.94200 20.17200
H  15.35500 49.30800 19.40600
H  18.76900 52.90000 21.70000
H  17.21300 53.35200 21.07700
H  18.45800 52.14600 18.80300
H  19.91000 52.75400 19.74300
H  18.65300 53.79500 19.15100
H  21.69600 49.67400 23.99200
H  21.32000 48.15000 24.76700
H  22.19000 49.35600 25.63000
H  19.40400 51.00100 29.89500
H  18.53800 47.33800 31.82000
H  17.09700 48.35300 32.12900
H  18.63400 48.24900 33.15700

