158

Mg 23.55400 -4.87400 46.15600
C  25.35100 -2.22500 44.73500
C  20.84000 -3.82700 44.32900
C  22.03500 -7.74700 47.18400
C  26.42800 -5.84000 47.94800
N  23.20900 -3.29700 44.61800
C  24.08900 -2.32600 44.17200
C  23.50600 -1.40300 43.07100
C  21.97700 -1.74500 43.30500
C  21.99600 -3.04400 44.11400
C  21.19800 -0.63400 44.01800
C  24.16700 -1.72100 41.69900
C  24.82600 -0.59900 40.91000
H  24.77100 -0.69200 39.43500
N  21.77100 -5.72900 45.68800
C  20.78500 -5.13200 44.96500
C  19.63800 -6.02000 44.89500
C  19.89700 -7.14500 45.76100
C  21.33700 -6.91500 46.23800
C  18.36400 -5.55100 44.18600
C  18.85300 -8.11500 46.18200
O  17.73400 -7.92500 45.78000
C  19.13300 -9.41600 46.96900
N  24.22800 -6.50400 47.34400
C  23.35000 -7.52400 47.72000
C  24.01300 -8.68000 48.46200
C  25.43700 -8.21000 48.60800
C  25.36900 -6.75500 48.02400
C  23.28600 -8.90000 49.82600
C  26.51900 -9.08500 47.90200
C  27.70700 -9.31700 48.82200
N  25.48400 -4.07300 46.49300
C  26.53100 -4.57200 47.28200
C  27.61200 -3.69100 47.16500
C  27.17300 -2.76400 46.22000
C  25.88500 -3.02300 45.77500
C  28.99100 -3.72400 47.78900
C  27.64300 -1.62600 45.51600
O  28.74400 -1.08700 45.51500
C  26.50600 -1.24800 44.39800
C  26.25100 0.19300 44.58500
O  25.72800 0.65000 45.60700
O  26.60000 0.94700 43.42500
C  26.19600 2.35000 43.53100
H  20.00400 -3.38100 43.78600
H  21.63600 -8.67000 47.61000
H  27.31900 -5.98700 48.56100
H  23.75700 -0.37600 43.33500
H  21.54500 -1.89700 42.31600
H  21.86300 0.20000 44.24000
H  21.02900 -1.02400 45.02100
H  20.20800 -0.34400 43.66600
H  23.34600 -2.20600 41.17000
H  24.85000 -2.55700 41.84700
H  25.86200 -0.72900 41.22300
H  24.51700 0.38300 41.26800
H  18.56000 -4.98000 43.27800
H  17.82500 -4.94900 44.91800
H  17.71400 -6.35400 43.84100
H  18.23600 -10.02600 47.07400
H  19.19600 -9.17300 48.02900
H  19.99700 -9.98800 46.63100
H  23.83000 -9.53700 47.81500
H  25.68100 -8.28800 49.66700
H  23.82300 -8.73300 50.76000
H  22.92900 -9.92400 49.92500
H  22.43100 -8.23600 49.95400
H  26.84500 -8.56000 47.00400
H  26.24700 -10.09500 47.59500
H  28.56600 -9.43000 48.16100
H  27.68500 -10.26800 49.35500
H  28.01500 -8.61300 49.59500
H  29.69000 -4.22400 47.11900
H  28.91700 -4.28500 48.72100
H  29.48000 -2.76500 47.95900
H  26.90900 -1.39100 43.39600
H  26.66300 2.98200 42.77500
H  26.25900 2.83100 44.50700
H  25.14100 2.35100 43.25400
Mg 24.87800 1.32600 30.17500
C  27.07400 0.95900 32.89100
C  22.30500 1.72600 32.32500
C  22.82800 1.43500 27.54700
C  27.57800 0.30700 28.07700
N  24.69400 1.26800 32.36200
C  25.76400 1.30400 33.27500
C  25.19100 1.59000 34.66000
C  23.65100 1.65600 34.45200
C  23.50400 1.47900 32.96400
C  22.71700 0.63400 35.18300
C  25.83900 2.78800 35.45000
C  26.40600 2.50600 36.78800
H  26.20400 3.71300 37.78300
N  22.80400 1.53500 29.97800
C  21.91200 1.64900 30.95500
C  20.54800 1.71700 30.40600
C  20.73000 1.69300 29.03700
C  22.18400 1.58700 28.79100
C  19.29800 1.90800 31.20600
C  19.71500 1.70400 27.89700
O  19.97500 1.82200 26.71500
C  18.32600 1.62600 28.24600
N  25.15100 0.88000 28.11500
C  24.15000 1.08300 27.19900
C  24.74200 0.96800 25.73000
C  26.15900 0.57100 25.97700
C  26.30800 0.48900 27.47700
C  23.87200 0.07300 24.66200
C  27.22500 1.56800 25.43600
C  27.25200 3.07500 25.86200
N  26.95800 0.78600 30.38000
C  27.89100 0.33700 29.44500
C  29.15200 0.09200 30.11400
C  28.91600 0.44000 31.44500
C  27.56500 0.75700 31.56000
C  30.44700 -0.32100 29.49200
C  29.43500 0.50300 32.75100
O  30.54200 0.17600 33.11900
C  28.29300 0.83400 33.73100
C  28.10900 -0.24300 34.71300
O  27.49000 -1.27400 34.63100
O  28.76500 0.19900 35.78500
C  28.47000 -0.26300 37.12400
H  21.45400 1.90900 32.98400
H  22.13800 1.26700 26.71800
H  28.34900 -0.02500 27.37800
H  25.40900 0.67200 35.20600
H  23.17600 2.60600 34.69600
H  22.25900 -0.00900 34.43200
H  21.93000 1.27600 35.57700
H  23.20600 0.03000 35.94800
H  25.17500 3.65300 35.43400
H  26.61800 3.09600 34.75300
H  27.46700 2.33600 36.60200
H  25.94400 1.58600 37.14600
H  18.92700 2.76400 30.64300
H  19.41500 2.17800 32.25600
H  18.62500 1.05100 31.15800
H  17.93100 2.45800 28.83000
H  18.30400 0.79300 28.94900
H  17.68300 1.41300 27.39200
H  24.83000 1.98800 25.35700
H  26.28700 -0.41000 25.51800
H  23.09300 -0.40800 25.25400
H  24.46400 -0.67500 24.13400
H  23.31400 0.62700 23.90700
H  27.15800 1.64400 24.35100
H  28.20900 1.13800 25.62400
H  26.52200 3.30000 26.64000
H  27.02900 3.75800 25.04200
H  28.22200 3.30800 26.29900
H  30.82500 0.34200 28.71400
H  30.31500 -1.28000 28.99100
H  31.22100 -0.21500 30.25200
H  28.40300 1.82500 34.17200
H  28.59600 -1.34100 37.22400
H  27.39400 -0.10700 37.20500
H  29.01600 0.22400 37.93200

