158

Mg 52.83400 23.97000 45.01300
C  50.18500 25.96400 43.85000
C  50.89300 21.28100 43.86500
C  55.62500 22.12400 45.03000
C  54.48900 26.72200 45.92400
N  50.88100 23.72600 43.68300
C  49.95800 24.69000 43.35600
C  48.77000 24.09200 42.67300
C  48.95200 22.58900 42.84500
C  50.33600 22.48500 43.44400
C  47.81000 21.80700 43.56500
C  48.76600 24.46200 41.13600
C  50.10200 24.69000 40.34100
H  50.17600 25.31400 38.90600
N  53.19300 21.90800 44.64100
C  52.24100 20.96000 44.27600
C  52.88900 19.66300 44.22800
C  54.28000 19.84900 44.58000
C  54.45500 21.34800 44.79700
C  52.21500 18.34100 43.96800
C  55.29700 18.76600 44.73000
O  54.89200 17.58000 44.54900
C  56.71700 19.08400 45.08700
N  54.81600 24.40700 45.25300
C  55.75900 23.48700 45.31100
C  57.16500 24.08200 45.48900
C  56.83700 25.58400 45.91800
C  55.32300 25.62800 45.66900
C  58.04200 23.44700 46.61600
C  57.61000 26.71500 45.18600
C  58.90000 27.25600 45.80100
N  52.45100 26.04300 44.88500
C  53.16300 26.99000 45.51100
C  52.40500 28.24600 45.57800
C  51.18200 27.85100 44.90500
C  51.26900 26.52700 44.54000
C  52.69900 29.38600 46.34300
C  49.80000 28.26900 44.51200
O  49.18200 29.31500 44.56200
C  49.12000 27.00900 43.79700
C  48.90400 27.51100 42.38800
O  49.80600 27.77300 41.65600
O  47.58100 27.69800 42.07500
C  47.42900 28.50300 40.88200
H  50.27500 20.39200 43.72300
H  56.56300 21.58900 45.18900
H  55.11800 27.51500 46.33300
H  47.88800 24.42400 43.22000
H  48.99000 22.06500 41.89000
H  48.33000 21.29500 44.37400
H  47.32600 21.05400 42.94200
H  47.04400 22.43100 44.02600
H  48.12000 25.33700 41.06700
H  48.18800 23.72600 40.57700
H  50.51500 23.68200 40.29200
H  50.83200 25.26900 40.90700
H  52.59500 17.89100 43.05100
H  51.14400 18.41300 43.78100
H  52.37200 17.69200 44.83000
H  57.27000 18.14900 45.17700
H  56.81100 19.60800 46.03700
H  57.06500 19.64100 44.21700
H  57.74500 23.98500 44.57100
H  56.92600 25.68000 47.00000
H  57.45300 22.93000 47.37400
H  58.55100 24.17800 47.24500
H  58.79700 22.79700 46.17300
H  57.08800 27.65600 45.01000
H  57.84500 26.27700 44.21600
H  59.76100 26.93300 45.21600
H  59.16100 26.94500 46.81300
H  58.83800 28.33000 45.97500
H  53.42800 29.18200 47.12700
H  51.72700 29.55100 46.80800
H  52.96900 30.24000 45.72100
H  48.14600 26.73900 44.20500
H  46.35400 28.54100 40.70800
H  47.72500 27.97100 39.97800
H  47.78100 29.53200 40.95900
Mg 46.91600 16.74900 28.07000
C  44.82400 16.18700 30.91200
C  49.00500 18.47900 30.32700
C  48.82200 17.85500 25.42000
C  44.75300 15.27100 26.00600
N  46.79700 17.36500 30.38000
C  45.88700 17.02500 31.33800
C  46.28400 17.43500 32.79500
C  47.52100 18.34500 32.41600
C  47.83500 18.07200 30.93700
C  47.28300 19.87400 32.78400
C  46.72200 16.21000 33.58900
C  46.54000 16.17200 35.15300
H  45.98400 17.44900 35.90500
N  48.67900 17.91300 27.89800
C  49.39000 18.45100 28.95600
C  50.60900 18.99100 28.46600
C  50.59300 18.95500 27.02600
C  49.33800 18.18000 26.71600
C  51.73200 19.56300 29.28300
C  51.67600 19.49800 26.03400
O  51.46300 19.48000 24.86000
C  52.96200 20.07700 26.48900
N  46.71600 16.76300 25.90900
C  47.65800 17.22500 25.06000
C  47.16900 16.95100 23.59200
C  45.95400 16.03700 23.82500
C  45.81000 15.95300 25.34200
C  46.85700 18.20800 22.73800
C  46.04900 14.60600 23.20100
C  44.83200 14.05200 22.42100
N  45.18400 15.86000 28.30500
C  44.37500 15.27400 27.39300
C  43.17500 14.74200 28.03200
C  43.33700 14.98500 29.44600
C  44.49000 15.79900 29.57400
C  42.00400 14.12300 27.36100
C  42.77400 14.85100 30.73100
O  41.77500 14.33600 31.09900
C  43.71100 15.64400 31.74600
C  42.85300 16.66500 32.37900
O  42.60400 17.80100 31.94600
O  42.40300 16.19200 33.60500
C  41.61600 17.07000 34.39500
H  49.81400 18.97300 30.87000
H  49.46500 18.26100 24.63700
H  44.08200 14.70000 25.36000
H  45.43700 17.96000 33.23500
H  48.37300 18.04600 33.02800
H  46.30200 20.12200 33.19000
H  47.63800 20.53600 31.99400
H  47.90900 20.14600 33.63400
H  47.78400 16.01200 33.44200
H  46.12200 15.36000 33.26400
H  47.48000 15.99900 35.67700
H  45.94400 15.31600 35.46900
H  51.98800 20.57700 28.97600
H  52.72800 19.17900 29.06200
H  51.51100 19.49500 30.34900
H  52.78900 21.03800 26.97300
H  53.47400 20.18800 25.53300
H  53.51500 19.34200 27.07400
H  47.93100 16.31500 23.14000
H  44.98600 16.39200 23.47200
H  47.19400 19.12300 23.22500
H  45.77500 18.19900 22.60700
H  47.31400 18.06700 21.75800
H  46.24800 13.94100 24.04200
H  46.87000 14.60500 22.48400
H  44.88500 12.96600 22.50100
H  45.02200 14.44700 21.42300
H  43.84300 14.42500 22.68700
H  41.93200 13.03800 27.43600
H  41.95100 14.48200 26.33300
H  41.13400 14.57900 27.83400
H  44.02600 14.94800 32.52300
H  42.01700 18.08300 34.42300
H  41.70700 16.72600 35.42600
H  40.58600 17.04800 34.03900

