158

Mg 48.07600 25.50000 28.69400
C  48.63400 27.82900 31.18900
C  47.12900 23.20600 31.03300
C  47.27600 23.31300 26.15700
C  49.60600 27.57400 26.42500
N  47.86000 25.54200 30.86000
C  48.12500 26.58900 31.68600
C  47.72100 26.32500 33.11900
C  47.30000 24.76600 33.11600
C  47.46500 24.47300 31.62100
C  48.08600 23.83400 34.01500
C  46.60300 27.30700 33.72800
C  45.74200 26.89300 34.94900
H  45.64400 27.83700 36.16400
N  47.35400 23.48800 28.60800
C  47.06400 22.69200 29.66100
C  46.65200 21.36700 29.28100
C  46.58700 21.49100 27.88600
C  47.05300 22.83200 27.45900
C  46.33300 20.17700 30.21600
C  46.21300 20.45100 26.85800
O  46.12200 20.68200 25.68200
C  46.04500 19.00800 27.33200
N  48.57300 25.40100 26.59400
C  48.01400 24.45700 25.82000
C  48.31100 24.79700 24.34100
C  48.97300 26.18600 24.38500
C  49.09300 26.38300 25.90200
C  49.15600 23.83800 23.57600
C  48.02300 27.32000 23.78000
C  48.12500 27.56000 22.24000
N  48.97200 27.35600 28.73700
C  49.57800 28.03400 27.72600
C  50.01300 29.26700 28.22500
C  49.69400 29.30200 29.59700
C  49.06200 28.07700 29.85100
C  50.66200 30.34200 27.44700
C  49.79600 30.07200 30.78800
O  50.11900 31.19500 31.04600
C  49.09700 29.17100 31.91100
C  50.06500 28.97100 33.01700
O  51.17400 28.35900 32.91100
O  49.63800 29.47300 34.17200
C  50.40300 29.23000 35.42000
H  46.86700 22.46900 31.79600
H  46.87400 22.73400 25.32300
H  50.03200 28.34700 25.78200
H  48.66900 26.34800 33.65700
H  46.22100 24.76800 33.27500
H  47.44000 23.18900 34.61100
H  48.87000 24.30000 34.61200
H  48.73600 23.17600 33.43800
H  45.97400 27.61600 32.89300
H  47.05600 28.24300 34.05500
H  46.30800 26.04000 35.32300
H  44.74000 26.62100 34.61500
H  45.91400 20.42800 31.19000
H  47.23900 19.61300 30.44000
H  45.54000 19.65400 29.68200
H  45.05900 18.88400 27.78000
H  46.82600 18.62100 27.98700
H  46.08300 18.32600 26.48300
H  47.34600 24.78700 23.83600
H  49.97700 26.24300 23.96500
H  48.69000 23.56100 22.63100
H  49.23400 22.87600 24.08200
H  50.13400 24.25100 23.33000
H  48.12200 28.31100 24.22200
H  47.01300 27.01800 24.05700
H  49.04700 27.07200 21.92300
H  48.14600 28.61800 21.98100
H  47.31000 27.11700 21.66700
H  50.07000 30.52300 26.55000
H  51.63400 29.94700 27.15300
H  50.75800 31.25600 28.03400
H  48.20300 29.58400 32.37800
H  50.45200 30.18700 35.93900
H  51.41200 28.82000 35.36100
H  49.77900 28.66600 36.11300
Mg 30.97600 57.60100 39.01800
C  28.37600 55.59900 38.12600
C  33.21300 55.12900 38.25100
C  33.69100 59.80800 39.59500
C  28.83800 60.14300 39.98000
N  30.80200 55.71400 38.01700
C  29.59100 54.99600 37.92900
C  29.80900 53.52400 37.55600
C  31.38800 53.34100 37.78200
C  31.83800 54.83400 38.02400
C  31.94500 52.21700 38.73400
C  29.30800 52.99000 36.18400
C  29.67200 53.73100 34.87300
H  28.60600 54.35600 34.09100
N  33.18100 57.45600 38.89200
C  33.86300 56.36500 38.52900
C  35.25800 56.61900 38.60900
C  35.43500 57.94900 38.97900
C  34.08600 58.48800 39.14200
C  36.29600 55.67500 38.14000
C  36.78700 58.63500 39.06300
O  37.81900 58.04000 38.73200
C  36.85400 60.09600 39.42300
N  31.25900 59.67300 39.53300
C  32.38900 60.37400 39.74400
C  32.20600 61.81700 40.18900
C  30.62400 61.81000 40.54400
C  30.17000 60.49800 39.97100
C  33.09100 62.24200 41.41600
C  29.88300 63.16400 40.11300
C  29.14900 63.83300 41.26200
N  29.05700 57.89900 39.04800
C  28.24700 58.93400 39.53300
C  26.85200 58.51000 39.44800
C  26.83600 57.29700 38.85100
C  28.18800 56.87900 38.65500
C  25.65500 59.31500 39.72800
C  26.00700 56.26500 38.23700
O  24.80000 56.27000 38.08800
C  27.00000 55.10600 37.85500
C  26.68600 54.01500 38.78100
O  27.16300 53.82500 39.90800
O  25.55800 53.37000 38.25400
C  24.76100 52.46600 39.13400
H  33.93100 54.30800 38.18700
H  34.50300 60.46500 39.91500
H  28.11100 60.82300 40.43000
H  29.31400 52.97100 38.35500
H  31.83900 52.95600 36.86800
H  31.15000 51.47300 38.78700
H  32.37200 52.59600 39.66200
H  32.74000 51.67400 38.22400
H  28.22500 53.03200 36.30100
H  29.54600 51.93200 36.06700
H  30.09800 52.99300 34.19400
H  30.44300 54.46100 35.11900
H  36.62800 56.03300 37.16600
H  35.96000 54.64200 38.04600
H  37.09900 55.75800 38.87300
H  37.83200 60.48700 39.14400
H  36.61500 60.18700 40.48300
H  36.16400 60.65200 38.78800
H  32.33200 62.47300 39.32800
H  30.63100 61.63900 41.62000
H  32.58100 62.97800 42.03800
H  33.97300 62.79900 41.10000
H  33.21900 61.35600 42.03800
H  29.12400 63.02900 39.34300
H  30.60200 63.78700 39.58100
H  29.95900 64.10600 41.93800
H  28.40700 63.11400 41.60700
H  28.73000 64.79300 40.95800
H  24.76100 58.94500 39.22600
H  25.86800 60.31100 39.34000
H  25.48200 59.28900 40.80400
H  26.80300 54.89000 36.80500
H  24.68300 51.56000 38.53400
H  23.78400 52.90100 39.34400
H  25.40400 52.18800 39.96900

