158

Mg -1.34400 16.96800 25.91200
C  -1.93100 14.84000 28.76500
C  -1.79600 19.72400 28.02000
C  -1.25200 18.83700 23.26300
C  -1.57300 14.09300 23.97800
N  -1.93800 17.30900 28.12800
C  -2.10500 16.24100 29.11600
C  -2.44900 16.93500 30.47500
C  -2.33900 18.48600 30.23100
C  -1.92300 18.50200 28.72300
C  -3.56100 19.38200 30.59800
C  -1.72700 16.45100 31.76300
C  -1.97300 17.20400 33.08000
H  -1.90200 16.31400 34.27900
N  -1.42700 19.04300 25.63500
C  -1.66900 19.98800 26.60500
C  -1.61300 21.27500 25.96000
C  -1.42200 21.07200 24.60300
C  -1.28800 19.61000 24.45900
C  -1.80300 22.54100 26.79500
C  -1.52100 22.13000 23.52200
O  -1.30300 21.88400 22.31900
C  -1.91500 23.56700 23.90800
N  -1.27300 16.46900 23.86500
C  -1.20800 17.48300 22.92300
C  -1.44900 16.93800 21.46800
C  -1.70300 15.39900 21.74400
C  -1.55300 15.29600 23.28300
C  -2.67400 17.65400 20.69900
C  -0.68100 14.50500 21.00400
C  0.80500 14.64500 21.49000
N  -1.45500 14.89500 26.22100
C  -1.43900 13.84800 25.32400
C  -1.53000 12.66300 26.06900
C  -1.61700 12.97800 27.39500
C  -1.75300 14.34300 27.45800
C  -1.63500 11.25000 25.44000
C  -1.72600 12.45300 28.72400
O  -1.66900 11.26900 29.07900
C  -1.89200 13.61800 29.66400
C  -0.79900 13.59900 30.60400
O  0.31100 14.06400 30.50100
O  -1.22400 12.77500 31.62400
C  -0.38800 12.67900 32.85700
H  -1.76500 20.61300 28.65200
H  -1.31100 19.56400 22.45000
H  -1.87700 13.17000 23.48100
H  -3.50000 16.69500 30.63700
H  -1.43600 18.93600 30.64300
H  -4.10600 18.82500 31.36100
H  -4.18500 19.47400 29.70900
H  -3.32700 20.43200 30.77300
H  -0.69300 16.30700 31.44800
H  -2.20400 15.49700 31.98900
H  -2.96000 17.66300 33.11900
H  -1.18500 17.95500 33.14200
H  -2.77400 22.98100 26.56900
H  -0.97400 23.19500 26.52600
H  -1.85300 22.33700 27.86500
H  -1.80800 24.18400 23.01600
H  -1.24600 23.99000 24.65800
H  -2.91100 23.54700 24.35000
H  -0.55200 17.01400 20.85300
H  -2.72300 15.03400 21.62700
H  -3.26900 16.98600 20.07600
H  -2.36700 18.52200 20.11600
H  -3.34700 17.92500 21.51300
H  -0.70200 14.97900 20.02300
H  -0.99100 13.46400 21.10100
H  0.99000 15.26400 22.36800
H  1.36800 15.07200 20.66000
H  1.17800 13.63200 21.64200
H  -0.93300 11.28000 24.60700
H  -2.66600 10.98700 25.20200
H  -1.26500 10.49700 26.13500
H  -2.89200 13.51200 30.08500
H  -1.03200 12.67400 33.73600
H  0.28400 13.53300 32.93600
H  0.15400 11.73400 32.83100
Mg 1.58900 7.61600 25.43800
C  1.68200 9.21200 28.35300
C  1.53400 4.50600 27.10300
C  1.30300 5.83000 22.41800
C  2.34800 10.33300 23.63400
N  1.52700 6.91700 27.58500
C  1.54300 7.83500 28.61900
C  1.62500 7.04800 29.97600
C  1.79500 5.56400 29.49500
C  1.59600 5.63200 27.97000
C  3.17500 4.92400 29.79800
C  0.44400 7.32200 30.86200
C  0.53300 7.05200 32.35900
H  1.96200 6.72400 33.09700
N  1.33400 5.49600 24.84600
C  1.42700 4.42500 25.70500
C  1.40500 3.21300 24.97800
C  1.27200 3.55300 23.56200
C  1.29600 4.99400 23.54200
C  1.65800 1.83700 25.60300
C  1.07500 2.67800 22.31000
O  1.10000 3.11800 21.18600
C  1.12000 1.13600 22.62500
N  1.43400 8.01200 23.34100
C  1.36000 7.17800 22.30600
C  1.60700 7.90600 20.93700
C  1.69600 9.38900 21.34200
C  1.88500 9.24200 22.85500
C  2.89000 7.36600 20.17800
C  0.52600 10.35200 20.90000
C  -0.82500 10.13700 21.71900
N  1.94400 9.37700 25.87300
C  2.31600 10.43600 25.07000
C  2.42600 11.66600 25.76500
C  2.18300 11.31500 27.13400
C  1.87800 9.87500 27.07200
C  2.73000 13.01400 25.12200
C  2.12700 11.69000 28.46600
O  2.29900 12.85200 28.88700
C  1.78500 10.36900 29.32000
C  2.87600 10.26300 30.31600
O  3.99500 9.74800 30.10500
O  2.49700 10.83400 31.54100
C  3.63900 10.79800 32.47500
H  1.35700 3.66300 27.77400
H  1.28100 5.35600 21.43400
H  2.57900 11.27500 23.13300
H  2.38100 7.53100 30.59500
H  1.08800 5.00600 30.11000
H  3.02000 3.94000 30.24200
H  3.81500 5.53200 30.43700
H  3.65300 4.97900 28.82000
H  -0.42200 6.72500 30.57500
H  0.12000 8.34800 30.69000
H  -0.22200 6.33500 32.68200
H  0.21300 7.97100 32.84900
H  2.48800 1.36500 25.07900
H  0.73200 1.26600 25.66600
H  2.02100 1.80800 26.63100
H  0.35000 0.79400 23.31700
H  2.06100 0.87400 23.10900
H  0.99100 0.66700 21.65000
H  0.72500 7.59200 20.37900
H  2.62200 9.76300 20.90600
H  3.65300 6.88700 20.79200
H  3.37100 8.18100 19.63800
H  2.58300 6.59400 19.47200
H  0.28800 10.04000 19.88400
H  0.90400 11.37000 20.80600
H  -0.68800 9.39300 22.50400
H  -1.69700 9.96300 21.08900
H  -1.02800 11.11300 22.16000
H  3.75600 13.27600 25.38000
H  1.91500 13.57000 25.58500
H  2.50800 13.14700 24.06300
H  0.83000 10.50100 29.82800
H  4.51400 11.27000 32.02700
H  3.93600 9.75900 32.61500
H  3.54200 11.12300 33.51100

