158

Mg 47.15200 16.28600 28.58000
C  45.12600 15.78600 31.30500
C  49.32600 17.99100 30.57700
C  49.21700 16.63800 25.87300
C  44.70200 15.03500 26.42400
N  47.12500 16.81200 30.69600
C  46.30700 16.45500 31.71800
C  46.77200 16.89300 33.08700
C  47.98700 17.77100 32.70400
C  48.09300 17.60200 31.14200
C  47.86700 19.28100 33.13700
C  47.23600 15.63600 33.93900
C  47.07100 15.81100 35.48700
H  46.72100 17.16900 36.04500
N  48.97000 17.19800 28.22900
C  49.73500 17.85700 29.18000
C  50.99500 18.25400 28.64800
C  51.05800 17.78100 27.32800
C  49.74100 17.13700 27.08800
C  52.05600 19.05800 29.50300
C  52.12300 17.84300 26.38300
O  52.00300 17.50500 25.22800
C  53.45800 18.49200 26.70600
N  46.99200 15.94000 26.33000
C  47.98900 16.11500 25.47200
C  47.48700 15.98900 23.99200
C  46.12400 15.35800 24.17800
C  45.92200 15.42700 25.72000
C  47.44700 17.30200 23.20600
C  45.96100 13.94400 23.49500
C  46.06400 12.72800 24.38100
N  45.35000 15.49800 28.76500
C  44.40900 15.04500 27.81900
C  43.20300 14.60000 28.56800
C  43.49800 14.81400 29.90900
C  44.77600 15.40000 30.01900
C  41.91800 14.10000 28.02600
C  42.99700 14.72100 31.26700
O  41.89500 14.30100 31.70200
C  43.99600 15.45100 32.22000
C  43.32900 16.60400 32.88300
O  42.97800 17.63600 32.36900
O  43.02100 16.24500 34.18600
C  42.59800 17.39300 35.08400
H  50.01900 18.46100 31.27800
H  49.77000 16.94500 24.98300
H  43.92600 14.62700 25.77300
H  45.98600 17.46900 33.57600
H  48.89600 17.51400 33.24800
H  46.93900 19.42300 33.69100
H  47.89000 19.85900 32.21300
H  48.72300 19.51500 33.77100
H  48.25900 15.40200 33.64700
H  46.54900 14.81400 33.73600
H  47.96000 15.46600 36.01500
H  46.26600 15.11500 35.72300
H  52.99200 18.51000 29.39300
H  51.92500 19.11400 30.58400
H  52.02200 20.09600 29.17200
H  53.45300 19.51000 27.09500
H  53.94400 18.69900 25.75300
H  54.06400 17.89800 27.39000
H  48.04400 15.27200 23.38900
H  45.42800 16.00000 23.63700
H  47.69300 18.08300 23.92600
H  46.46000 17.64900 22.90000
H  48.02400 17.37100 22.28300
H  46.72900 13.87700 22.72500
H  45.00700 13.92100 22.96900
H  46.94800 12.18000 24.05600
H  45.24500 12.01800 24.26400
H  46.14600 13.04600 25.42000
H  42.02700 13.86300 26.96800
H  41.03300 14.72100 28.16000
H  41.74200 13.11800 28.46700
H  44.26500 14.77800 33.03400
H  41.54600 17.37500 35.36900
H  43.07300 18.35200 34.87700
H  43.07200 17.16800 36.03900
Mg -6.12300 26.05300 26.66000
C  -4.30700 27.57300 29.22000
C  -7.71600 24.14300 28.83500
C  -7.59100 24.57800 24.03700
C  -3.90100 27.69900 24.36200
N  -5.96400 25.88900 28.74300
C  -5.22100 26.60900 29.68300
C  -5.77700 26.37100 31.10500
C  -6.44000 24.99100 30.96700
C  -6.78800 25.07600 29.44900
C  -5.53100 23.78200 31.37500
C  -6.65500 27.63000 31.51500
C  -6.97800 27.83600 33.02100
H  -6.51500 26.73800 33.98500
N  -7.50800 24.53800 26.45900
C  -8.09800 23.87400 27.49000
C  -9.15200 23.04700 26.98600
C  -9.12800 23.12700 25.56700
C  -8.02800 24.09500 25.26500
C  -10.06300 22.25600 27.96800
C  -9.83700 22.33200 24.55900
O  -9.73700 22.52600 23.38600
C  -10.73100 21.21800 25.00300
N  -5.75900 26.09900 24.49300
C  -6.54200 25.40500 23.67200
C  -6.05500 25.47700 22.16200
C  -4.95000 26.59600 22.27000
C  -4.82400 26.88000 23.74500
C  -5.61600 24.11300 21.54000
C  -5.35700 27.84700 21.45000
C  -4.27200 28.39200 20.34000
N  -4.47600 27.46700 26.73300
C  -3.72400 28.04200 25.73800
C  -2.78600 28.95700 26.30700
C  -2.98200 28.79100 27.72900
C  -4.00700 27.91400 27.88800
C  -2.09000 29.89000 25.46500
C  -2.58900 29.23000 29.06200
O  -1.83600 30.08800 29.41400
C  -3.49100 28.43600 30.07000
C  -2.69300 27.73900 31.08200
O  -2.01000 26.69700 30.88300
O  -2.83600 28.40800 32.25300
C  -1.98300 27.90100 33.35500
H  -8.34900 23.65900 29.58100
H  -8.09100 24.25500 23.12200
H  -3.27300 28.21700 23.63400
H  -4.90100 26.27300 31.74800
H  -7.39400 24.98800 31.49400
H  -5.33400 23.13100 30.52300
H  -6.00400 23.30900 32.23500
H  -4.60900 24.21200 31.76700
H  -7.57300 27.61700 30.92600
H  -6.06600 28.47000 31.14900
H  -8.05600 27.94300 33.14200
H  -6.51600 28.76200 33.36500
H  -11.06200 22.21800 27.53300
H  -10.10200 22.58300 29.00700
H  -9.66300 21.25100 28.10400
H  -10.10600 20.46000 25.47700
H  -11.14900 20.68900 24.14600
H  -11.56500 21.55300 25.61900
H  -6.90400 25.93300 21.65400
H  -3.98700 26.18200 21.97300
H  -6.55900 23.56800 21.57700
H  -4.88100 23.69900 22.23000
H  -5.30000 24.23700 20.50400
H  -5.36800 28.73800 22.07700
H  -6.38000 27.81400 21.07500
H  -3.51500 27.69100 19.98900
H  -3.69900 29.04500 20.99800
H  -4.70800 29.03600 19.57600
H  -1.68600 30.80000 25.90800
H  -2.75900 30.30500 24.71200
H  -1.32200 29.34900 24.91100
H  -4.16300 29.20500 30.45100
H  -2.22500 26.85300 33.53300
H  -2.08800 28.41400 34.31100
H  -0.92500 28.02500 33.12300

