158

Mg -1.22500 17.60000 25.65600
C  -1.91300 15.49100 28.53200
C  -2.14500 20.25600 27.62900
C  -1.25500 19.45600 22.92600
C  -1.13100 14.61900 23.72900
N  -1.71900 17.85000 27.91200
C  -2.02800 16.91100 28.83600
C  -2.52800 17.50300 30.16700
C  -2.53200 18.99600 29.87800
C  -2.07100 19.06800 28.38800
C  -3.89600 19.65000 30.16000
C  -1.75100 17.00700 31.44600
C  -2.03200 17.78400 32.75800
H  -1.85700 16.91200 33.99700
N  -1.63800 19.54600 25.36300
C  -1.89400 20.51000 26.27600
C  -1.80200 21.84600 25.62000
C  -1.74400 21.59800 24.20500
C  -1.53100 20.15800 24.10200
C  -1.80800 23.02800 26.52900
C  -1.60500 22.57200 23.09900
O  -1.48400 22.31400 21.91200
C  -1.64600 24.05700 23.47000
N  -1.21800 17.14000 23.64500
C  -1.14500 18.09900 22.69900
C  -0.81700 17.54800 21.29100
C  -0.63700 16.06700 21.61400
C  -1.00500 15.93700 23.05400
C  -2.03700 17.73100 20.35300
C  0.80600 15.51200 21.30700
C  1.95500 15.49800 22.38100
N  -1.44400 15.50600 26.06000
C  -1.38600 14.45800 25.14200
C  -1.49100 13.18000 25.88000
C  -1.71900 13.54300 27.20800
C  -1.67300 14.97500 27.23200
C  -1.47100 11.74900 25.32200
C  -1.94800 13.06600 28.55000
O  -2.14300 11.94500 29.06100
C  -2.05000 14.32800 29.41900
C  -0.85400 14.23100 30.24900
O  0.26000 14.70000 30.03800
O  -1.18000 13.47800 31.37800
C  -0.13200 13.13400 32.33500
H  -2.54100 21.09600 28.20200
H  -1.20100 20.07800 22.03000
H  -0.97500 13.89700 22.92500
H  -3.52100 17.10700 30.37500
H  -1.78100 19.45800 30.51900
H  -4.52200 19.18200 30.91900
H  -4.52700 19.55800 29.27600
H  -3.77100 20.64100 30.59600
H  -0.70800 17.02100 31.12800
H  -1.96200 15.97000 31.70900
H  -3.06600 18.03200 32.51800
H  -1.47000 18.71800 32.71900
H  -0.99100 23.00600 27.24900
H  -2.70800 22.89600 27.13000
H  -1.97200 24.05100 26.19100
H  -1.74700 24.57200 22.51500
H  -0.67000 24.11700 23.95100
H  -2.44400 24.45200 24.09800
H  0.10600 17.96800 20.89300
H  -1.29200 15.34000 21.13400
H  -1.75300 18.40600 19.54500
H  -2.81700 18.11800 21.00800
H  -2.33800 16.74000 20.01500
H  1.15200 16.08800 20.44900
H  0.71800 14.47000 20.99700
H  2.42900 14.52000 22.46700
H  1.56900 15.80300 23.35400
H  2.68200 16.23000 22.03000
H  -0.65200 11.72700 24.60200
H  -2.36500 11.50700 24.74800
H  -1.41000 11.02800 26.13700
H  -2.85500 14.29500 30.15400
H  0.83200 13.60600 32.14800
H  0.04700 12.06000 32.38400
H  -0.43300 13.33400 33.36300
Mg 16.54700 52.55600 26.80700
C  18.39100 50.71400 29.27200
C  14.34700 53.44100 29.19800
C  14.47900 53.43800 24.37100
C  18.83100 51.24200 24.38000
N  16.27300 51.81400 29.00800
C  17.24500 51.31100 29.79300
C  17.04400 51.64800 31.34300
C  15.60000 52.29200 31.22000
C  15.39500 52.56900 29.72700
C  14.51300 51.36300 31.84300
C  18.15400 52.49700 31.89800
C  18.82000 52.11500 33.22700
H  18.27200 52.64800 34.60700
N  14.70100 53.37900 26.74100
C  13.98300 53.76100 27.83100
C  12.77500 54.39100 27.35900
C  12.79000 54.44600 25.95100
C  14.04700 53.73900 25.61700
C  11.70500 54.90700 28.30300
C  11.80400 54.94300 24.93900
O  11.85600 54.65200 23.72000
C  10.62200 55.63400 25.41100
N  16.58600 52.23200 24.69700
C  15.66900 52.79700 23.88600
C  16.12000 52.89500 22.43700
C  17.55400 52.25300 22.50200
C  17.70200 51.84800 23.91400
C  15.10800 52.26600 21.40500
C  18.73400 53.19800 22.02100
C  19.17800 54.33400 23.00300
N  18.23900 51.17100 26.75600
C  19.03700 50.82400 25.72300
C  20.21900 50.16000 26.26400
C  20.01200 50.07500 27.66400
C  18.76700 50.65200 27.88600
C  21.41300 49.63600 25.44100
C  20.53900 49.63800 28.93600
O  21.63100 49.08500 29.12500
C  19.46800 50.13300 30.00100
C  18.90400 48.95500 30.76600
O  18.02000 48.20400 30.30800
O  19.47800 48.86300 31.93800
C  18.77400 48.02900 32.93000
H  13.76800 53.77900 30.06000
H  14.00400 54.02300 23.58100
H  19.71800 51.13700 23.75000
H  16.92000 50.75700 31.95800
H  15.60100 53.19500 31.83100
H  14.17400 51.90500 32.72600
H  14.77400 50.38200 32.24200
H  13.72700 51.23500 31.09900
H  17.79600 53.51100 32.07300
H  18.90500 52.60100 31.11400
H  19.87700 52.34800 33.09900
H  18.81100 51.03200 33.35400
H  11.53300 55.98100 28.23000
H  11.83500 54.60700 29.34300
H  10.71000 54.55900 28.02500
H  10.11000 54.88800 26.02000
H  10.01000 55.95300 24.56800
H  11.08800 56.42600 25.99600
H  16.38400 53.92300 22.18900
H  17.54100 51.28100 22.00800
H  15.11300 51.18200 21.51500
H  15.37500 52.68600 20.43500
H  14.18200 52.65500 21.82900
H  18.32000 53.70400 21.14900
H  19.61500 52.59000 21.81500
H  18.40700 55.10400 22.98500
H  20.08900 54.81200 22.64400
H  19.26100 53.90000 23.99900
H  22.16700 49.22900 26.11400
H  21.89000 50.40100 24.82900
H  21.12400 48.83100 24.76500
H  20.01000 50.74100 30.72500
H  18.66800 48.48700 33.91400
H  19.29700 47.09300 33.12400
H  17.71600 47.78600 32.83000

