158

Mg 23.83400 -6.21200 45.49300
C  25.77200 -3.52500 44.02200
C  21.21600 -5.01800 43.44900
C  22.09600 -8.90500 46.12200
C  26.73800 -7.54600 46.76900
N  23.59600 -4.47300 43.88200
C  24.46900 -3.48200 43.60300
C  23.95200 -2.64700 42.42600
C  22.39200 -2.98700 42.43200
C  22.41100 -4.29900 43.25900
C  21.35900 -1.97700 42.99100
C  24.66000 -2.83900 41.08000
C  25.16000 -1.64700 40.20700
H  25.03600 -1.65900 38.73100
N  21.84900 -6.73100 45.15600
C  20.93300 -6.13500 44.29800
C  19.70200 -6.82400 44.28700
C  19.86100 -7.98900 45.06000
C  21.28400 -7.93600 45.51600
C  18.53500 -6.38600 43.39400
C  18.88700 -9.17100 45.22800
O  17.84400 -9.25100 44.58000
C  19.05800 -10.19900 46.38100
N  24.36400 -7.94800 46.46000
C  23.44100 -8.94900 46.51000
C  24.06000 -10.22000 47.03100
C  25.54800 -9.79100 47.37600
C  25.58600 -8.32700 46.93000
C  23.24900 -10.83600 48.21400
C  26.58400 -10.66800 46.60200
C  27.97700 -10.86400 47.34800
N  25.85200 -5.62400 45.56200
C  26.89500 -6.24400 46.21500
C  28.05400 -5.30300 46.17200
C  27.61900 -4.24600 45.33300
C  26.31200 -4.50800 44.90200
C  29.48100 -5.49900 46.68900
C  28.03500 -3.05300 44.63900
O  29.16100 -2.60600 44.58300
C  26.89200 -2.60600 43.65800
C  26.65400 -1.14400 43.81500
O  26.00500 -0.54100 44.69900
O  27.50300 -0.50000 42.89800
C  27.79700 0.88600 43.00300
H  20.39400 -4.63800 42.83900
H  21.56700 -9.85500 46.22100
H  27.66400 -7.92300 47.20800
H  24.10300 -1.62300 42.76500
H  22.09500 -3.25000 41.41600
H  21.70700 -0.94400 43.01800
H  20.85300 -2.21700 43.92600
H  20.54300 -2.03700 42.27100
H  23.97200 -3.39200 40.44100
H  25.50600 -3.48700 41.30900
H  26.20500 -1.49200 40.47400
H  24.65900 -0.77100 40.62000
H  18.69100 -6.49200 42.32100
H  18.31700 -5.36100 43.69600
H  17.67200 -6.99300 43.66800
H  19.66900 -9.79000 47.18700
H  19.39000 -11.13200 45.92700
H  18.10200 -10.29600 46.89600
H  23.96500 -10.96200 46.23800
H  25.72500 -9.88600 48.44700
H  23.80100 -10.94300 49.14800
H  22.85200 -11.80800 47.92200
H  22.39800 -10.21400 48.49100
H  26.77100 -10.20500 45.63300
H  26.12800 -11.62400 46.34600
H  28.76100 -10.60600 46.63600
H  28.13600 -11.83400 47.81900
H  27.87000 -10.15500 48.16900
H  30.12800 -4.79900 46.16100
H  29.73800 -6.55700 46.62600
H  29.58800 -5.22000 47.73800
H  27.15400 -2.74200 42.60900
H  27.31800 1.55200 42.28500
H  28.84700 1.08800 42.78900
H  27.56500 1.34900 43.96200
Mg 42.45400 41.48500 26.63400
C  41.43400 43.67200 29.10000
C  43.22300 39.24400 29.21300
C  44.12200 39.62700 24.46800
C  41.97200 43.99400 24.25700
N  42.25200 41.44600 28.92600
C  41.79500 42.48200 29.68100
C  41.78600 42.19700 31.19500
C  42.38500 40.76200 31.23400
C  42.62600 40.40800 29.70800
C  43.63300 40.56400 32.12200
C  40.32500 42.25600 31.74700
C  40.04300 42.96700 33.04600
H  39.31200 42.25900 34.17600
N  43.52300 39.62300 26.83100
C  43.71400 38.83400 27.93100
C  44.36100 37.60200 27.51400
C  44.71200 37.76000 26.19800
C  44.18500 39.06400 25.81700
C  44.46000 36.39700 28.40200
C  45.36100 36.83000 25.16200
O  45.63900 37.02500 24.00300
C  45.67800 35.43000 25.59900
N  42.93900 41.82600 24.60000
C  43.62100 40.84600 23.88000
C  43.55800 41.10000 22.36500
C  42.77100 42.47600 22.29400
C  42.46400 42.76500 23.78800
C  44.91200 40.97700 21.55300
C  41.39100 42.46500 21.55000
C  40.43000 41.37700 22.00700
N  41.77800 43.46200 26.63100
C  41.67500 44.37600 25.58300
C  41.23500 45.61900 26.13700
C  41.10000 45.45800 27.54500
C  41.48600 44.08300 27.71600
C  40.86500 46.85900 25.41500
C  40.81000 46.07500 28.73600
O  40.56900 47.25800 29.00400
C  41.01600 45.01300 29.81100
C  42.03000 45.51500 30.77200
O  43.23200 45.34700 30.59200
O  41.51100 45.98900 31.90600
C  42.44900 46.22600 33.03600
H  43.33600 38.59100 30.08100
H  44.71100 39.08000 23.72900
H  41.84000 44.74200 23.47300
H  42.39000 42.94300 31.71000
H  41.68900 39.99300 31.57000
H  44.52700 40.71200 31.51700
H  43.74900 39.57300 32.56100
H  43.46400 41.32400 32.88500
H  39.91600 41.24700 31.80200
H  39.69800 42.73400 30.99400
H  39.39500 43.82200 32.85500
H  41.02400 43.23200 33.44100
H  43.84200 36.50000 29.29400
H  45.49900 36.15800 28.63100
H  44.07500 35.50100 27.91500
H  46.14700 34.87100 24.78900
H  44.75700 34.87600 25.77900
H  46.32900 35.43500 26.47300
H  42.80000 40.41100 21.99300
H  43.37300 43.35300 22.05400
H  44.91400 41.95400 21.06900
H  44.79000 40.12300 20.88600
H  45.83700 40.89000 22.12400
H  41.51900 42.41000 20.46900
H  40.87700 43.40600 21.74900
H  40.65300 40.79700 22.90200
H  40.25300 40.72500 21.15100
H  39.45100 41.72300 22.34000
H  39.92800 47.12500 25.90500
H  40.84000 46.66000 24.34300
H  41.63100 47.57600 25.71100
H  40.08000 44.91400 30.35900
H  43.06800 45.34500 33.20800
H  41.86000 46.50800 33.90800
H  43.11200 47.06400 32.82000

