158

Mg -1.59700 17.46200 27.63200
C  -1.93700 14.89600 29.95300
C  -2.43600 19.76000 30.17800
C  -1.42400 20.07400 25.41700
C  -1.80600 15.22200 25.07300
N  -2.03300 17.35600 29.83100
C  -2.04500 16.17200 30.63200
C  -2.08200 16.59700 32.13400
C  -2.41000 18.08800 32.06200
C  -2.35300 18.42900 30.58600
C  -3.64500 18.65300 32.91300
C  -0.78800 16.20500 32.80200
C  -0.16400 17.07700 33.94000
H  0.20700 16.33200 35.21200
N  -1.86800 19.59100 27.80400
C  -2.26600 20.31300 28.93400
C  -2.45600 21.69700 28.63900
C  -2.03700 21.80300 27.24900
C  -1.64900 20.48600 26.78100
C  -2.97900 22.62900 29.73800
C  -2.00500 23.09100 26.37900
O  -1.50600 23.20700 25.25600
C  -2.50600 24.36900 27.04300
N  -1.51600 17.55600 25.49000
C  -1.40500 18.73300 24.83000
C  -1.28300 18.45600 23.33300
C  -1.14600 16.88900 23.23400
C  -1.62800 16.50000 24.62800
C  -2.38400 19.04500 22.33700
C  0.23900 16.37200 22.89700
C  1.37700 16.75700 23.90100
N  -1.65800 15.39600 27.45500
C  -1.75500 14.66600 26.31800
C  -1.87700 13.32100 26.72900
C  -1.95000 13.32800 28.11500
C  -1.81000 14.66100 28.57700
C  -1.92100 12.07500 25.91800
C  -1.99000 12.50000 29.33200
O  -1.94500 11.27400 29.51200
C  -1.96100 13.51200 30.50500
C  -0.84100 13.09000 31.31200
O  0.28300 13.49500 31.11500
O  -1.28400 12.28900 32.35700
C  -0.24900 11.76400 33.16600
H  -2.46300 20.43700 31.03500
H  -1.18000 20.80400 24.64300
H  -1.69700 14.43700 24.32200
H  -2.96100 16.07500 32.51200
H  -1.67500 18.82100 32.39300
H  -4.45600 18.80100 32.20000
H  -3.53500 19.55600 33.51400
H  -3.95200 17.92200 33.66100
H  0.10300 16.19100 32.17400
H  -0.94400 15.18600 33.15600
H  -0.48200 18.07300 34.24900
H  0.83100 17.25000 33.53100
H  -2.86500 23.66300 29.41100
H  -2.48700 22.54300 30.70700
H  -4.01400 22.37600 29.96600
H  -3.44400 24.27200 27.59000
H  -2.64500 25.23800 26.40000
H  -1.84100 24.49600 27.89700
H  -0.29900 18.84700 23.07200
H  -1.78500 16.44400 22.47100
H  -3.30500 18.58800 22.69600
H  -2.02500 18.71900 21.36000
H  -2.51200 20.12700 22.37200
H  0.53600 16.65500 21.88700
H  -0.02300 15.32000 22.78500
H  1.00000 16.70600 24.92200
H  1.74500 17.75800 23.67900
H  2.26800 16.13200 23.84500
H  -1.50600 12.20100 24.91800
H  -2.96500 11.86800 25.68400
H  -1.40500 11.21700 26.34800
H  -2.88900 13.36100 31.05500
H  0.04600 10.83500 32.67700
H  -0.65100 11.68600 34.17600
H  0.61200 12.41800 33.30300
Mg 26.70000 49.61900 25.50200
C  24.67000 50.94400 28.22900
C  29.17600 48.92100 27.80800
C  28.41800 48.45300 23.08300
C  24.35000 51.01700 23.30400
N  26.89900 49.88400 27.71300
C  25.93200 50.35300 28.64800
C  26.40500 50.16600 30.13600
C  27.95300 49.82100 29.89900
C  28.03700 49.44000 28.40700
C  28.87600 51.03000 30.23600
C  25.60800 49.13100 31.09000
C  25.27400 49.64400 32.47100
H  26.26100 50.30700 33.37100
N  28.53500 48.72400 25.50000
C  29.42100 48.54600 26.50900
C  30.57800 47.82300 26.03600
C  30.27200 47.44600 24.66300
C  28.99100 48.16700 24.33400
C  31.81900 47.44700 27.03900
C  30.86900 46.42700 23.75400
O  30.37000 46.33800 22.62700
C  31.92300 45.53900 24.11400
N  26.42400 49.78600 23.47000
C  27.31100 49.21600 22.67500
C  27.12600 49.65000 21.17000
C  25.74100 50.41100 21.21300
C  25.41700 50.39900 22.73200
C  28.25400 50.41200 20.37300
C  24.61200 49.74300 20.28900
C  23.85000 48.48000 20.75500
N  25.00400 50.78600 25.68600
C  24.07800 51.21700 24.68300
C  23.00700 51.97300 25.26600
C  23.25900 51.90400 26.63400
C  24.42500 51.17600 26.85400
C  21.81000 52.47800 24.61500
C  22.59000 52.20900 27.88500
O  21.50800 52.68600 28.10100
C  23.60900 51.75000 28.96600
C  24.19700 52.90300 29.75100
O  25.14800 53.55800 29.40300
O  23.59900 53.15100 30.88000
C  24.12900 54.21500 31.73300
H  29.93300 48.62500 28.53800
H  28.94900 48.23600 22.15500
H  23.64700 51.41600 22.57000
H  26.19900 51.11400 30.63300
H  28.18000 49.12300 30.70400
H  29.76000 51.16800 29.61400
H  29.08200 50.78400 31.27800
H  28.30700 51.95900 30.20600
H  26.25100 48.26400 31.24200
H  24.85300 48.65100 30.46700
H  24.97600 48.69300 32.91200
H  24.38000 50.26800 32.48900
H  31.91200 48.19600 27.82500
H  32.74700 47.45100 26.46700
H  31.86600 46.46100 27.50200
H  31.69300 44.62900 23.55900
H  31.85700 45.33800 25.18300
H  32.85600 45.98900 23.77600
H  27.20600 48.69300 20.65600
H  25.84500 51.42800 20.83400
H  27.93400 50.69000 19.36800
H  29.20800 49.88800 20.33700
H  28.52700 51.32100 20.90900
H  25.19100 49.46700 19.40700
H  23.97600 50.59100 20.03300
H  23.99300 47.75300 19.95600
H  22.81100 48.76300 20.92100
H  24.18400 47.95400 21.65000
H  21.88100 53.44000 24.10700
H  20.95700 52.54200 25.29000
H  21.33000 51.80900 23.90100
H  23.12600 51.16800 29.75200
H  24.04200 55.15000 31.18000
H  25.12200 53.89300 32.04900
H  23.53800 54.15700 32.64700

