158

Mg 35.86000 2.24400 30.69900
C  33.22000 3.21700 32.79000
C  38.04800 2.50700 33.39300
C  38.35200 1.65100 28.57600
C  33.60800 2.51700 27.99100
N  35.65000 2.86400 32.79100
C  34.42900 3.03300 33.46600
C  34.67400 3.15000 34.94900
C  36.22000 3.35800 35.01300
C  36.67900 2.92400 33.64300
C  36.60000 4.81700 35.47700
C  34.16100 1.88400 35.67100
C  33.67000 2.09500 37.13000
H  34.18700 3.25100 37.93900
N  37.91800 2.08400 30.91600
C  38.63800 2.22200 32.14400
C  40.01300 1.92000 31.90700
C  40.13100 1.61900 30.50100
C  38.76000 1.73700 29.92700
C  41.01400 2.09000 33.03900
C  41.36700 1.24500 29.66000
O  41.22900 0.86500 28.50200
C  42.77200 1.16900 30.23700
N  35.97300 2.00600 28.51600
C  37.14600 1.80800 27.90500
C  36.98700 1.67100 26.36000
C  35.43000 1.86200 26.23900
C  34.96800 2.27100 27.63600
C  37.82700 2.59000 25.43500
C  34.71200 0.55500 25.85600
C  33.70500 0.60300 24.73900
N  33.80800 2.76600 30.34100
C  33.02400 2.77200 29.22100
C  31.59600 3.13600 29.55700
C  31.69400 3.33200 30.95100
C  33.03900 3.07000 31.37300
C  30.38700 3.46800 28.77700
C  30.95700 3.73800 32.13600
O  29.82200 4.10400 32.23000
C  31.85900 3.56900 33.32900
C  31.92600 4.86200 34.01000
O  32.48600 5.83300 33.56800
O  31.20900 4.82300 35.17400
C  31.05700 6.06600 35.99100
H  38.73200 2.43000 34.24100
H  39.16000 1.38200 27.89300
H  32.89900 2.68700 27.17800
H  34.13000 4.00600 35.34800
H  36.63600 2.72600 35.79800
H  37.12200 4.80700 36.43400
H  35.78300 5.51100 35.67500
H  37.30100 5.17700 34.72500
H  35.00200 1.19300 35.72700
H  33.42100 1.52300 34.95600
H  33.81500 1.15500 37.66300
H  32.58800 2.21900 37.08800
H  40.82400 1.35900 33.82600
H  40.88400 3.09900 33.43000
H  42.00700 1.95900 32.61000
H  43.42000 0.63900 29.53900
H  42.86500 0.54400 31.12600
H  43.05300 2.19600 30.46800
H  37.40200 0.68600 26.14500
H  35.10100 2.61600 25.52400
H  38.51700 1.89900 24.95100
H  38.25100 3.37600 26.06100
H  37.23800 3.14200 24.70200
H  34.24500 0.05500 26.70400
H  35.44200 -0.18600 25.53100
H  34.05400 0.14300 23.81400
H  33.36800 1.61100 24.49900
H  32.82500 0.07400 25.10600
H  30.45700 3.20100 27.72200
H  30.00100 4.47600 28.92600
H  29.62500 2.81300 29.20100
H  31.48500 2.79400 33.99800
H  31.86200 6.16100 36.72000
H  30.10700 5.99700 36.52100
H  30.88200 6.94700 35.37500
Mg 50.45300 45.21100 41.40200
C  47.30900 46.03400 40.04000
C  49.85700 41.89900 40.30700
C  53.88700 44.48900 41.45600
C  51.25900 48.58900 41.32500
N  48.67900 44.08500 40.58700
C  47.50400 44.57400 40.04400
C  46.69300 43.44000 39.44400
C  47.35500 42.13100 39.90200
C  48.74000 42.71300 40.38100
C  46.76700 41.33400 41.04000
C  46.74700 43.60300 37.88000
C  45.36600 43.60200 37.18100
H  45.22300 44.54100 35.99400
N  51.59500 43.41800 41.15100
C  51.19900 42.22700 40.65900
C  52.41600 41.46500 40.41700
C  53.54000 42.08700 40.99400
C  53.02800 43.36100 41.30200
C  52.34800 40.22100 39.61800
C  54.95400 41.50700 41.13200
O  55.35000 40.49300 40.55700
C  55.93200 42.10200 42.02100
N  52.30000 46.34600 41.41100
C  53.57700 45.80800 41.55900
C  54.63100 46.95800 41.38100
C  53.80000 48.22100 41.38000
C  52.35000 47.71000 41.44500
C  55.75800 46.85800 42.42800
C  53.98800 49.22800 40.23100
C  54.39300 50.65600 40.72500
N  49.46400 46.96000 41.03800
C  49.89600 48.25400 41.07100
C  48.81900 49.22300 40.78500
C  47.77500 48.33800 40.36700
C  48.19300 47.00500 40.44600
C  48.91700 50.64900 40.70200
C  46.43400 48.38900 39.82500
O  45.69900 49.32100 39.50800
C  46.15500 46.91400 39.47900
C  44.82900 46.51400 40.04000
O  43.85900 46.20400 39.35800
O  44.76700 46.54700 41.40100
C  43.40100 46.60400 41.99700
H  49.81000 40.92800 39.80900
H  54.97000 44.37900 41.37000
H  51.40000 49.66500 41.44600
H  45.68500 43.49000 39.85700
H  47.48400 41.45700 39.05500
H  46.14500 42.02200 41.61300
H  47.48600 40.88000 41.72200
H  46.11900 40.65700 40.48400
H  47.39900 42.81200 37.50800
H  47.27100 44.53600 37.67300
H  44.51700 43.65700 37.86200
H  45.18400 42.56100 36.91100
H  51.42700 39.72900 39.93200
H  53.11300 39.46300 39.78700
H  52.16000 40.42500 38.56400
H  55.49200 42.69800 42.82100
H  56.61100 42.72900 41.44300
H  56.54200 41.32600 42.48400
H  54.99900 46.80900 40.36600
H  54.01300 48.69500 42.33900
H  56.09800 47.80100 42.85700
H  56.70000 46.54500 41.97800
H  55.60400 46.11100 43.20700
H  53.06300 49.26000 39.65600
H  54.69100 48.81700 39.50600
H  55.10300 51.05500 40.00000
H  54.88300 50.79000 41.68900
H  53.52600 51.31100 40.63800
H  47.90100 51.03000 40.80900
H  49.40200 50.97700 39.78300
H  49.52500 50.94600 41.55600
H  45.98400 46.80700 38.40800
H  43.39800 46.48500 43.08000
H  42.80800 45.82600 41.51600
H  42.86600 47.49400 41.66500

