158

Mg 48.58000 34.97400 26.82400
C  46.97700 33.43500 29.45300
C  49.41100 37.68400 28.69100
C  49.77500 36.51400 24.00900
C  47.62000 32.20800 24.78300
N  48.23900 35.50200 28.83700
C  47.59600 34.70200 29.76500
C  47.85300 35.34800 31.20500
C  48.24600 36.81500 30.79700
C  48.79300 36.63900 29.34800
C  47.15400 37.94000 31.02300
C  49.00800 34.52800 31.94700
C  48.70100 34.22200 33.37600
H  47.65400 34.97800 34.22400
N  49.52000 36.77300 26.35600
C  49.76500 37.77700 27.34600
C  50.26600 38.96100 26.68500
C  50.50900 38.65000 25.31100
C  49.93000 37.25000 25.17800
C  50.61400 40.25100 27.37700
C  51.07200 39.50200 24.17800
O  51.18000 39.03300 23.06300
C  51.52200 40.91100 24.50200
N  48.42700 34.59900 24.76900
C  49.05100 35.29600 23.82300
C  48.97500 34.66500 22.44100
C  48.71000 33.16300 22.73900
C  48.15100 33.31200 24.14000
C  48.09700 35.52600 21.46500
C  49.88000 32.14400 22.79500
C  49.94600 30.95200 21.71800
N  47.50700 33.14600 26.96600
C  47.27300 32.08100 26.11500
C  46.43500 31.04200 26.81000
C  46.32300 31.57900 28.12200
C  46.96000 32.77900 28.19300
C  45.90800 29.70300 26.27300
C  45.68100 31.33200 29.40100
O  45.08200 30.37400 29.71700
C  46.08200 32.56800 30.27600
C  46.50600 32.00300 31.57800
O  47.54500 31.42100 31.83000
O  45.38500 32.03300 32.42300
C  45.55400 31.14700 33.61300
H  49.50900 38.58900 29.29500
H  50.19200 36.85700 23.06000
H  47.46900 31.41900 24.04300
H  46.98300 35.34300 31.86100
H  49.02500 37.15300 31.48100
H  46.98000 38.52400 30.11900
H  47.47800 38.76000 31.66400
H  46.24700 37.57800 31.50900
H  49.94600 35.08300 31.91500
H  49.20100 33.53900 31.53200
H  49.68500 34.29400 33.84100
H  48.39500 33.19400 33.57200
H  50.12000 41.05600 26.83300
H  51.68200 40.37100 27.55400
H  50.15400 40.22200 28.36500
H  50.69200 41.57300 24.75000
H  51.99700 41.43500 23.67200
H  52.27300 40.87600 25.29100
H  49.96600 34.56600 21.99800
H  47.94700 32.73100 22.09000
H  48.62600 35.86600 20.57500
H  47.80100 36.45200 21.95900
H  47.27500 34.88700 21.14400
H  49.94700 31.56000 23.71300
H  50.80500 32.70300 22.65300
H  49.10300 31.04000 21.03300
H  49.93600 30.01800 22.28000
H  50.89100 30.99600 21.17600
H  46.79100 29.34700 25.74100
H  45.05900 29.68600 25.59000
H  45.71600 29.02500 27.10500
H  45.20800 33.20700 30.40400
H  46.30100 31.52400 34.31100
H  45.77400 30.11300 33.34500
H  44.60400 31.15100 34.14800
Mg -10.34200 39.88500 39.53600
C  -9.53900 36.53200 38.69800
C  -7.29000 40.80100 38.52900
C  -11.44500 43.07400 39.50400
C  -13.60000 38.84600 40.31800
N  -8.57800 38.68900 38.82100
C  -8.45200 37.34200 38.53300
C  -7.02000 37.04800 37.96100
C  -6.26600 38.41500 38.31100
C  -7.42600 39.37200 38.57300
C  -5.27300 38.37700 39.55500
C  -7.08500 36.60300 36.43900
C  -7.52800 37.66700 35.45800
H  -8.80000 37.52500 34.67500
N  -9.47700 41.71200 39.05400
C  -8.20900 41.90300 38.63200
C  -7.93700 43.28200 38.45400
C  -9.18800 43.98800 38.69900
C  -10.13300 42.90200 39.16400
C  -6.67400 43.83800 37.90900
C  -9.46200 45.48100 38.38100
O  -8.57700 46.15500 37.80000
C  -10.69700 46.30800 38.67400
N  -12.36200 40.83700 39.76600
C  -12.49000 42.17900 39.77400
C  -13.85800 42.50900 40.24700
C  -14.34400 41.20100 40.96000
C  -13.43500 40.26300 40.25200
C  -14.13300 43.87000 41.12100
C  -15.88900 40.99000 40.89000
C  -16.45200 40.42900 39.67800
N  -11.40400 38.10700 39.53100
C  -12.72800 37.83100 39.79400
C  -13.04900 36.40600 39.62700
C  -11.84400 35.90500 39.19700
C  -10.88500 36.93100 39.14300
C  -14.33100 35.75200 39.93500
C  -11.18400 34.61700 38.78200
O  -11.65600 33.49100 38.59700
C  -9.66300 35.03100 38.57000
C  -8.87000 34.34300 39.59300
O  -9.04600 34.31700 40.79500
O  -7.96100 33.50100 38.92400
C  -6.89100 32.81700 39.70600
H  -6.32300 41.21400 38.23300
H  -11.72700 44.12800 39.55400
H  -14.61000 38.47300 40.50500
H  -6.68100 36.23500 38.60300
H  -5.64900 38.63300 37.44000
H  -5.58200 38.96700 40.41800
H  -4.32300 38.64800 39.09400
H  -5.31600 37.38200 39.99700
H  -7.68000 35.69100 36.49900
H  -6.04800 36.29700 36.30600
H  -6.82900 37.66100 34.62200
H  -7.47500 38.70300 35.79100
H  -6.77200 44.30000 36.92600
H  -5.92900 43.07000 37.70200
H  -6.34300 44.63200 38.57800
H  -10.77900 46.36600 39.76000
H  -11.59900 45.83300 38.28600
H  -10.57200 47.32100 38.29300
H  -14.38200 42.55100 39.29200
H  -14.09600 41.15100 42.02000
H  -13.18800 44.37300 41.32200
H  -14.70200 43.55000 41.99400
H  -14.87000 44.52400 40.65500
H  -16.17700 42.03800 40.96600
H  -16.18500 40.45300 41.79200
H  -17.13500 41.15400 39.23400
H  -17.03300 39.58800 40.05800
H  -15.69600 40.14800 38.94500
H  -14.82500 36.41900 40.64100
H  -14.21500 34.75800 40.36500
H  -14.84500 35.64300 38.98000
H  -9.50800 34.67200 37.55200
H  -7.32500 32.11200 40.41500
H  -6.30100 33.57600 40.22100
H  -6.36100 32.23400 38.95300

