158

Mg 0.96100 6.86400 26.20300
C  1.99000 9.37600 28.66500
C  1.00000 4.61200 28.71000
C  0.24000 4.77300 23.92400
C  1.68000 9.47400 23.76400
N  1.44700 7.04100 28.45200
C  1.75000 8.07800 29.25300
C  1.56200 7.76000 30.68500
C  1.52300 6.19000 30.66500
C  1.31600 5.91400 29.17400
C  2.79000 5.46200 31.18200
C  0.28000 8.49900 31.41000
C  0.45400 8.72700 32.97000
H  1.75500 8.36900 33.72600
N  0.63300 4.96900 26.28300
C  0.74600 4.11100 27.38300
C  0.37600 2.72100 26.99900
C  0.01500 2.78900 25.60900
C  0.38500 4.17100 25.18000
C  0.19000 1.58100 28.06000
C  -0.50200 1.66300 24.71300
O  -0.95200 1.86600 23.61500
C  -0.52700 0.23800 25.26100
N  1.32200 7.00200 23.97000
C  0.65500 6.00100 23.33300
C  0.07400 6.48300 21.95000
C  0.58400 8.00400 21.88800
C  1.17500 8.24200 23.30900
C  0.45100 5.61200 20.72800
C  -0.43400 9.08100 21.49600
C  -0.05200 10.27500 20.62200
N  1.72100 9.00700 26.14500
C  1.92200 9.88700 25.08700
C  2.42300 11.10200 25.57300
C  2.38100 10.96100 26.93700
C  2.00200 9.66100 27.24900
C  3.08100 12.22800 24.72800
C  2.64300 11.71100 28.14200
O  3.00300 12.87700 28.25700
C  2.25300 10.76700 29.33100
C  3.40100 10.61900 30.20200
O  4.45700 10.08500 29.86200
O  3.14100 11.28600 31.40700
C  4.27400 11.50900 32.29900
H  0.99200 3.84300 29.48500
H  -0.09900 4.04400 23.18600
H  1.66100 10.28200 23.02900
H  2.40500 8.19900 31.21800
H  0.64700 5.92200 31.25700
H  2.52700 4.82600 32.02700
H  3.59000 6.14800 31.45900
H  3.08900 4.77200 30.39300
H  -0.62500 7.89500 31.47000
H  0.11900 9.46100 30.92500
H  -0.35500 8.17500 33.44900
H  0.20800 9.74300 33.28100
H  0.57300 0.61600 27.72900
H  -0.87900 1.50800 28.25900
H  0.56500 2.04300 28.97300
H  -0.96100 0.05600 26.24400
H  0.52700 0.04600 25.46300
H  -0.75200 -0.54900 24.54200
H  -1.01400 6.42300 21.97800
H  1.45000 8.04100 21.22700
H  0.98500 4.69500 20.97900
H  1.21900 6.11000 20.13700
H  -0.35300 5.36500 20.03500
H  -0.71700 9.45400 22.48100
H  -1.26300 8.64600 20.93900
H  -0.91100 10.75200 20.14900
H  0.63000 10.00800 19.81500
H  0.23400 11.07700 21.30300
H  2.38400 12.71900 24.04900
H  3.77600 11.77200 24.02200
H  3.47900 13.05500 25.31600
H  1.39600 11.03400 29.94900
H  4.83100 12.39500 31.99300
H  4.91900 10.65200 32.49200
H  3.83700 11.81400 33.25000
Mg 25.79600 -8.03000 47.56100
C  27.66600 -5.51600 46.41200
C  23.36100 -7.19700 45.18100
C  24.02300 -10.84100 48.40000
C  28.27500 -8.92400 49.94800
N  25.65000 -6.57100 45.86600
C  26.53000 -5.59800 45.67800
C  26.11800 -4.65500 44.50500
C  24.62600 -5.16800 44.11900
C  24.46100 -6.33700 45.17300
C  23.53300 -4.08100 44.19700
C  27.14000 -4.73500 43.37800
C  27.62000 -3.35100 42.81100
H  27.21600 -3.02200 41.38400
N  23.86400 -8.86900 46.93700
C  23.03100 -8.29300 46.01300
C  21.75500 -9.04100 46.05100
C  21.98800 -10.13700 46.96100
C  23.31600 -10.02000 47.50700
C  20.58500 -8.62900 45.11300
C  20.89100 -11.16400 47.18300
O  19.76900 -10.94300 46.80000
C  21.10400 -12.40200 48.03700
N  26.16900 -9.63500 48.87300
C  25.24000 -10.62700 49.09700
C  25.53900 -11.45900 50.29700
C  27.00500 -11.08000 50.63000
C  27.18200 -9.83600 49.74500
C  24.49400 -11.14900 51.47500
C  28.03400 -12.13400 50.15200
C  28.28900 -13.23500 51.17500
N  27.72600 -7.48900 48.05800
C  28.50900 -7.77600 49.13400
C  29.65200 -6.78800 49.11900
C  29.29500 -5.85800 48.08500
C  28.18300 -6.35900 47.47400
C  30.75000 -6.72100 50.11100
C  29.81300 -4.70700 47.42300
O  30.80700 -4.05500 47.57400
C  28.74100 -4.34700 46.35600
C  28.12300 -3.03000 46.64500
O  27.35300 -2.81800 47.59900
O  28.34100 -2.22000 45.58000
C  27.68000 -0.93800 45.72400
H  22.58800 -6.87000 44.48200
H  23.51900 -11.71500 48.81700
H  28.91100 -9.15000 50.80600
H  26.17500 -3.59300 44.74700
H  24.52300 -5.72000 43.18500
H  22.95300 -4.16700 43.27900
H  24.05900 -3.12800 44.13500
H  22.87200 -4.20600 45.05500
H  26.60700 -5.33100 42.63700
H  28.02000 -5.26200 43.74700
H  28.68300 -3.24500 43.03000
H  27.12900 -2.52700 43.32800
H  20.05800 -9.53000 44.80000
H  20.89800 -8.03000 44.25800
H  19.85400 -8.02500 45.65100
H  21.89800 -13.10900 47.79800
H  20.15200 -12.88600 47.81900
H  21.06100 -12.23100 49.11300
H  25.50900 -12.46200 49.87100
H  27.07300 -10.81900 51.68600
H  23.96600 -12.08600 51.65300
H  23.74600 -10.43400 51.13200
H  25.00800 -10.86700 52.39400
H  28.97300 -11.60800 49.98400
H  27.77000 -12.59500 49.19900
H  29.28700 -13.12200 51.59700
H  28.32500 -14.24100 50.75700
H  27.64200 -13.14200 52.04700
H  30.39000 -7.06500 51.08100
H  31.12400 -5.69900 50.04500
H  31.56800 -7.37100 49.80200
H  29.32100 -4.30700 45.43400
H  26.61400 -1.16100 45.67800
H  28.04900 -0.20200 45.01000
H  28.01300 -0.51800 46.67300

