158

Mg -1.21900 18.32700 28.03700
C  -1.87000 16.02800 30.48700
C  -1.87200 20.82200 30.21700
C  -0.75300 20.41500 25.42400
C  -1.16300 15.51600 25.66600
N  -1.73100 18.34800 30.21200
C  -1.69500 17.38000 31.02200
C  -1.88900 17.88000 32.54800
C  -2.25500 19.39600 32.36100
C  -2.02700 19.56500 30.84100
C  -3.60100 19.83300 32.95300
C  -0.63800 17.56900 33.43800
C  -0.92200 16.90600 34.86100
H  0.21200 16.79300 35.84800
N  -1.28300 20.30800 27.87300
C  -1.47900 21.17000 28.90600
C  -1.39400 22.50800 28.34800
C  -1.02200 22.41400 26.99300
C  -0.99800 21.01800 26.70600
C  -1.67600 23.78100 29.22300
C  -0.82400 23.54100 26.05600
O  -0.82600 23.33200 24.83700
C  -0.73700 24.89700 26.52500
N  -0.90600 18.01000 25.87100
C  -0.78100 19.06400 25.05400
C  -0.56800 18.69600 23.61200
C  -0.38400 17.13200 23.73600
C  -0.82500 16.80600 25.11200
C  -1.64300 19.11900 22.57100
C  1.06100 16.61800 23.50900
C  2.17100 16.97900 24.45200
N  -1.42000 16.19400 28.00200
C  -1.46000 15.20600 27.03800
C  -1.70100 13.99500 27.59600
C  -1.82000 14.18900 28.96400
C  -1.70700 15.60300 29.18300
C  -1.83400 12.74700 26.85300
C  -2.00400 13.59800 30.31100
O  -2.18900 12.43700 30.60600
C  -1.95900 14.77300 31.32900
C  -0.78600 14.49100 32.06600
O  0.41600 14.74300 31.76600
O  -1.12200 13.90800 33.30800
C  0.05400 13.44200 34.02800
H  -2.04000 21.63600 30.92500
H  -0.55200 21.10200 24.59900
H  -1.04800 14.72100 24.92700
H  -2.77200 17.35900 32.92000
H  -1.56500 19.99800 32.95100
H  -4.06000 19.00400 33.49300
H  -4.29300 20.18300 32.18800
H  -3.46000 20.64900 33.66200
H  -0.05500 18.46200 33.66600
H  0.05700 16.90400 32.92500
H  -1.46700 15.97600 34.69700
H  -1.66400 17.57300 35.30100
H  -0.75100 24.29100 29.49300
H  -2.21300 23.50500 30.13100
H  -2.26000 24.55700 28.72700
H  -0.17700 24.88600 27.46000
H  -1.67100 25.43600 26.68400
H  -0.26300 25.58700 25.82700
H  0.40800 19.07600 23.30800
H  -0.93900 16.57300 22.98200
H  -2.40900 19.62300 23.16100
H  -2.10000 18.22900 22.13700
H  -1.18100 19.83900 21.89600
H  1.52700 17.01500 22.60800
H  1.17300 15.56900 23.23500
H  2.68800 17.90200 24.18600
H  2.79000 16.09300 24.31300
H  1.86700 17.03800 25.49700
H  -2.81600 12.32400 27.06400
H  -1.16700 11.98400 27.25200
H  -1.77500 12.77500 25.76500
H  -2.82900 14.73100 31.98400
H  0.12000 12.37300 34.22900
H  -0.02800 14.01900 34.94900
H  1.02600 13.77900 33.66700
Mg 47.03600 24.76700 27.99200
C  47.95300 26.96700 30.65700
C  46.27600 22.46400 30.46600
C  46.18200 22.80500 25.58100
C  48.25500 27.24100 25.70700
N  47.00900 24.78900 30.24200
C  47.35600 25.81200 31.13000
C  47.09800 25.44700 32.58800
C  46.80700 23.91300 32.42500
C  46.72500 23.65200 30.97400
C  47.87200 22.97400 33.15300
C  45.94300 26.18600 33.24900
C  46.36200 27.15600 34.38900
H  45.40500 27.15600 35.60000
N  46.33400 22.87500 27.97900
C  46.07500 22.06700 29.13500
C  45.62600 20.74800 28.64200
C  45.63200 20.82700 27.19700
C  46.03400 22.23300 26.86800
C  45.32700 19.57100 29.55500
C  45.35600 19.75300 26.15000
O  45.48100 19.96400 24.96000
C  44.90500 18.49100 26.64300
N  47.46100 24.79400 26.00200
C  46.78500 23.97200 25.21000
C  46.81200 24.29400 23.71200
C  47.18600 25.83000 23.81500
C  47.70200 25.99300 25.29200
C  47.75300 23.40900 22.82100
C  46.07300 26.87600 23.28400
C  46.38600 28.05300 22.37400
N  48.07800 26.60600 28.11800
C  48.51900 27.48200 27.09500
C  49.21300 28.60400 27.70000
C  48.95100 28.51500 29.10800
C  48.28600 27.23900 29.28300
C  50.00500 29.58100 26.89100
C  49.15800 29.18600 30.33100
O  49.75200 30.21200 30.67100
C  48.49700 28.24400 31.39800
C  49.49500 27.90400 32.41200
O  50.23500 26.93600 32.35300
O  49.41700 28.74800 33.46400
C  50.10400 28.39500 34.74300
H  45.93700 21.71500 31.18400
H  45.74100 22.22000 24.77100
H  48.37500 28.00300 24.93400
H  48.06500 25.64600 33.04900
H  45.88800 23.48100 32.82100
H  48.45600 23.56600 33.85700
H  48.58300 22.53500 32.45300
H  47.33700 22.17500 33.66500
H  45.11100 25.51600 33.46400
H  45.53200 26.86000 32.49700
H  46.30300 28.19900 34.07800
H  47.32300 26.85800 34.80900
H  44.29400 19.25300 29.41100
H  45.53500 19.67600 30.62000
H  45.97100 18.73700 29.27600
H  45.71700 17.99700 27.17800
H  44.72500 17.82300 25.80000
H  44.01900 18.61100 27.26600
H  45.80500 24.04700 23.37700
H  48.02500 25.92900 23.12600
H  47.78300 24.08000 21.96200
H  47.25000 22.45900 22.64400
H  48.77100 23.22200 23.16500
H  45.54800 27.24800 24.16300
H  45.35200 26.26700 22.73800
H  45.75600 27.77400 21.52900
H  47.44400 28.20100 22.16000
H  46.09400 29.04100 22.72900
H  50.09800 30.44500 27.54900
H  49.41900 29.93100 26.04200
H  50.99000 29.16500 26.68100
H  47.69300 28.72600 31.95400
H  49.36000 27.85700 35.33100
H  50.37300 29.32800 35.23900
H  51.01700 27.83300 34.54900

