158

Mg 36.17600 49.33200 24.95000
C  36.29300 47.62200 27.96400
C  34.70900 52.04300 26.55900
C  35.87100 50.78600 21.94200
C  37.27400 46.34500 23.34900
N  35.60800 49.76400 27.04900
C  35.80600 48.92200 28.18200
C  35.47300 49.67300 29.48000
C  34.84100 51.02600 28.96100
C  35.05400 50.90600 27.39900
C  33.37800 51.33800 29.41300
C  36.84600 49.85600 30.29500
C  36.77800 49.30300 31.69600
H  36.30700 50.31400 32.71700
N  35.45900 51.15100 24.32300
C  34.97400 52.15000 25.12300
C  34.54200 53.29200 24.32400
C  34.95000 52.97400 22.98100
C  35.43400 51.59700 23.03000
C  34.09500 54.64500 24.92600
C  34.98300 53.80700 21.73000
O  35.42300 53.44500 20.62900
C  34.63100 55.27000 21.90100
N  36.48300 48.63800 22.95800
C  36.26300 49.44600 21.86400
C  36.76600 48.72600 20.51400
C  37.61000 47.58200 21.16100
C  37.04700 47.45600 22.60300
C  35.45700 48.24800 19.72400
C  39.17000 47.83600 21.16000
C  39.92500 47.25300 20.00700
N  36.75600 47.37800 25.49700
C  37.16400 46.26200 24.77500
C  37.44000 45.11600 25.65200
C  37.16800 45.62700 26.87500
C  36.73100 46.97900 26.75400
C  37.79200 43.68800 25.30400
C  37.26700 45.24000 28.29500
O  37.64700 44.20500 28.79300
C  36.68600 46.52500 29.05700
C  35.65200 46.12900 30.02900
O  34.41600 46.33200 29.97500
O  36.30400 45.52600 31.10900
C  35.34900 45.16700 32.20200
H  34.14700 52.77800 27.13900
H  35.56100 51.13700 20.95500
H  37.78600 45.60100 22.73600
H  34.77800 49.02200 30.01000
H  35.48800 51.84000 29.28700
H  32.65800 51.25800 28.59900
H  33.35700 52.33400 29.85600
H  32.96700 50.66500 30.16600
H  37.11800 50.90500 30.41100
H  37.61800 49.37100 29.69800
H  37.69600 48.74800 31.89100
H  36.05200 48.49000 31.67300
H  34.80500 55.39800 24.58500
H  34.01200 54.59700 26.01200
H  33.09200 54.87300 24.56300
H  33.64700 55.45000 22.33300
H  34.77000 55.67900 20.90000
H  35.37000 55.77000 22.52600
H  37.33200 49.41400 19.88700
H  37.44100 46.66900 20.58900
H  35.58300 47.19200 19.48200
H  35.15800 48.78000 18.82100
H  34.59400 48.23300 20.39000
H  39.68400 47.61200 22.09500
H  39.29700 48.90500 20.98900
H  39.36800 46.91700 19.13300
H  40.35900 46.32100 20.37000
H  40.64600 48.03300 19.76200
H  37.77200 43.60500 24.21700
H  37.14800 43.05100 25.90900
H  38.81400 43.51300 25.64100
H  37.50400 46.92300 29.65700
H  35.93900 45.18100 33.11900
H  34.80600 44.22200 32.20700
H  34.67800 45.99900 32.41600
Mg 1.44700 42.71600 24.70400
C  2.40600 42.87600 27.98300
C  -1.69200 41.56400 25.73400
C  0.63100 41.78500 21.44900
C  4.60300 43.50400 23.59400
N  0.53600 42.15700 26.68700
C  1.03900 42.50300 27.87100
C  -0.04800 42.30400 28.93000
C  -1.28700 41.80000 28.16500
C  -0.80300 41.76300 26.81000
C  -1.79600 40.37900 28.64300
C  -0.20200 43.59900 29.73800
C  -0.49300 43.38600 31.24300
H  -1.08600 42.05100 31.76600
N  -0.30200 41.93200 23.70900
C  -1.45200 41.56400 24.33900
C  -2.46000 41.25100 23.36600
C  -1.82300 41.35800 22.06800
C  -0.44700 41.72700 22.34500
C  -3.93300 40.92300 23.74700
C  -2.37100 41.18200 20.68400
O  -1.71700 41.24600 19.66500
C  -3.83000 40.67800 20.59500
N  2.43900 42.64500 22.76800
C  1.94600 42.17900 21.65600
C  3.05800 42.03100 20.55400
C  4.16400 43.04200 21.11400
C  3.70400 43.16500 22.55000
C  3.50400 40.56700 20.47700
C  4.13700 44.46100 20.54900
C  4.92300 44.59700 19.23000
N  3.21600 43.06100 25.59700
C  4.42500 43.39700 25.08200
C  5.29200 43.68600 26.17200
C  4.57800 43.50200 27.35000
C  3.32600 43.09800 26.92300
C  6.68600 44.15600 26.13500
C  4.68200 43.50100 28.85100
O  5.56500 43.73900 29.66700
C  3.23000 43.00400 29.28000
C  3.42000 41.70200 30.01100
O  4.51600 41.03600 30.01800
O  2.36000 41.27300 30.78600
C  2.42000 40.17500 31.71500
H  -2.68400 41.33900 26.13100
H  0.47800 41.35600 20.45700
H  5.51700 43.85000 23.10700
H  0.30000 41.50900 29.58900
H  -2.06400 42.54100 28.35300
H  -1.48200 39.65700 27.89000
H  -2.87900 40.46200 28.73200
H  -1.34100 40.05800 29.58000
H  -1.00600 44.21900 29.34000
H  0.64500 44.28000 29.64900
H  -1.05000 44.28300 31.51500
H  0.45200 43.47100 31.77900
H  -4.59600 41.72300 23.41600
H  -4.09300 40.74400 24.81000
H  -4.20700 39.98500 23.26300
H  -4.19200 40.82200 19.57700
H  -4.58500 41.13300 21.23700
H  -3.80900 39.59800 20.74100
H  2.64400 42.26000 19.57200
H  5.18000 42.64900 21.15000
H  4.47900 40.49800 20.95900
H  3.55100 40.30700 19.41900
H  2.85500 39.83900 20.96400
H  4.66400 44.99300 21.34200
H  3.12500 44.86000 20.48800
H  4.97700 45.63600 18.90500
H  4.65000 43.96000 18.38900
H  5.94300 44.30900 19.48300
H  7.36400 43.35000 25.85500
H  6.91100 44.72800 27.03400
H  6.76400 44.72100 25.20600
H  2.65500 43.68400 29.90800
H  2.46500 39.24400 31.15100
H  1.39500 40.08800 32.07400
H  3.19600 40.35900 32.45800

