158

Mg 43.40200 2.81100 48.02400
C  41.23000 5.48200 47.15000
C  40.95200 0.50600 47.65000
C  45.73800 0.41100 48.28200
C  46.05500 5.26000 47.84100
N  41.32000 3.01000 47.23100
C  40.58700 4.18100 47.20800
C  39.06500 3.82100 47.05900
C  39.02000 2.26800 47.38300
C  40.53200 1.87100 47.47000
C  38.18100 2.02300 48.80200
C  38.55900 4.19500 45.59500
C  37.66500 5.45300 45.60800
H  37.77100 6.38600 44.35600
N  43.38800 0.75500 47.90000
C  42.24700 0.00800 47.74800
C  42.57500 -1.38400 47.97300
C  43.97100 -1.44300 48.21500
C  44.49000 -0.11400 48.10100
C  41.67300 -2.47900 47.89300
C  44.75300 -2.72900 48.56200
O  44.16400 -3.79000 48.60300
C  46.22000 -2.82200 48.61600
N  45.52800 2.83300 47.82600
C  46.20500 1.72000 48.13100
C  47.71000 2.03500 48.34800
C  47.83600 3.42500 47.73100
C  46.40000 3.90100 47.79300
C  48.14600 1.98900 49.83000
C  48.33500 3.41800 46.25700
C  49.79800 3.65100 46.04300
N  43.64400 5.03100 47.70600
C  44.76400 5.80300 47.77100
C  44.33000 7.25100 47.72100
C  42.97600 7.15700 47.46200
C  42.61400 5.78000 47.34600
C  45.21600 8.43800 48.06500
C  41.79400 7.96400 47.35000
O  41.51500 9.16300 47.29400
C  40.60100 6.84800 47.10600
C  39.60400 7.00300 48.14900
O  39.70500 6.58300 49.31600
O  38.66200 7.89000 47.70900
C  37.81200 8.40000 48.77900
H  40.11200 -0.19200 47.64600
H  46.60100 -0.22200 48.49500
H  46.86000 5.98900 47.72700
H  38.47900 4.35800 47.80500
H  38.46500 1.70400 46.63300
H  37.50300 2.84600 49.02600
H  38.84400 1.99000 49.66700
H  37.71200 1.03900 48.78300
H  37.97400 3.39000 45.15200
H  39.42400 4.38400 44.95800
H  37.67900 6.12600 46.46500
H  36.62600 5.12600 45.57300
H  41.82900 -2.94700 46.92100
H  40.62600 -2.21500 48.03600
H  41.83200 -3.23400 48.66400
H  46.52900 -2.30700 47.70600
H  46.48700 -3.87700 48.68500
H  46.54200 -2.35400 49.54600
H  48.30400 1.38400 47.70600
H  48.52900 4.06400 48.27900
H  47.28800 1.69000 50.43200
H  48.74800 2.81900 50.20100
H  48.83700 1.15100 49.92300
H  47.71400 4.14700 45.73700
H  47.98200 2.51300 45.76300
H  49.84800 4.43700 45.28900
H  50.33800 2.98700 45.36800
H  50.42600 3.86200 46.90800
H  45.97700 8.54200 47.29100
H  45.59400 8.17900 49.05300
H  44.56000 9.30200 47.95200
H  40.22700 7.03100 46.09800
H  37.09100 8.97000 48.19300
H  38.28000 9.09200 49.47900
H  37.25600 7.58900 49.25000
Mg 36.07500 0.56400 29.43700
C  33.76000 1.85400 31.84500
C  38.51400 0.65700 32.05200
C  38.43300 -0.08800 27.15200
C  33.71900 1.10600 26.98500
N  36.11700 1.22200 31.66700
C  35.05700 1.62000 32.40700
C  35.36500 1.76200 33.86100
C  36.97300 1.60600 33.87000
C  37.26800 1.17900 32.43500
C  37.79600 2.77800 34.33100
C  34.67600 0.74300 34.78900
C  34.68500 1.03300 36.33000
H  35.18100 2.35800 36.85000
N  38.12000 0.19300 29.59200
C  38.97900 0.34600 30.68700
C  40.36500 0.00200 30.31900
C  40.37200 -0.26200 28.97500
C  38.91100 -0.02900 28.48500
C  41.42200 -0.07700 31.35500
C  41.49200 -0.71300 28.07500
O  41.32100 -0.86200 26.87200
C  42.85200 -0.87400 28.57000
N  36.05800 0.38400 27.33200
C  37.18300 0.07500 26.61600
C  36.91300 -0.01000 25.06000
C  35.30600 0.30400 25.03700
C  35.01500 0.64700 26.50100
C  37.74100 0.95500 24.28700
C  34.44600 -0.83700 24.51700
C  33.03600 -0.46700 23.95000
N  34.16900 1.33500 29.38900
C  33.32000 1.41700 28.26900
C  32.01900 1.85100 28.72500
C  32.19600 2.04200 30.14400
C  33.48000 1.74600 30.47600
C  30.77900 2.03400 27.90700
C  31.43900 2.45100 31.33800
O  30.32100 2.88800 31.45900
C  32.41800 2.35800 32.52500
C  32.44200 3.74400 33.06700
O  33.21000 4.63200 32.71000
O  31.58300 3.96700 34.07300
C  31.18700 5.31000 34.51800
H  39.20200 0.65500 32.89900
H  39.22700 -0.12700 26.40400
H  32.95400 1.39500 26.26100
H  34.98400 2.72500 34.20100
H  37.32800 0.79400 34.50400
H  37.20000 3.66500 34.54600
H  38.66300 2.95800 33.69500
H  38.32700 2.56800 35.25900
H  35.21400 -0.15100 34.47500
H  33.65500 0.72800 34.40800
H  35.14700 0.23100 36.90500
H  33.63800 0.96800 36.62600
H  42.13400 -0.88600 31.19100
H  41.09400 -0.28600 32.37200
H  41.94300 0.87400 31.24500
H  43.54300 -0.92500 27.72800
H  42.90100 -1.77300 29.18600
H  43.20900 -0.05600 29.19500
H  37.22000 -0.92400 24.55200
H  35.18100 1.19100 24.41600
H  38.47400 1.40800 24.95600
H  37.20600 1.83500 23.93000
H  38.39500 0.42800 23.59300
H  34.33100 -1.57100 25.31500
H  35.03700 -1.38700 23.78500
H  32.97300 -0.87900 22.94300
H  32.91500 0.61500 24.00300
H  32.26500 -0.83000 24.63000
H  29.92200 2.29000 28.53100
H  30.57500 1.08800 27.40500
H  30.88700 2.82500 27.16400
H  31.99100 1.65400 33.23900
H  30.58500 5.30100 35.42600
H  30.57200 5.73200 33.72300
H  32.04200 5.97900 34.62400

