158

Mg -2.11500 17.33400 27.40800
C  -2.41900 14.94600 30.05000
C  -2.53600 19.84900 29.49400
C  -2.14500 19.41500 24.69100
C  -1.70300 14.52800 25.19800
N  -2.44700 17.32600 29.52900
C  -2.39500 16.30600 30.51500
C  -2.69800 16.94500 31.88500
C  -2.82900 18.47200 31.61600
C  -2.47800 18.60500 30.10400
C  -4.08300 19.26600 32.20100
C  -1.62500 16.47000 32.99100
C  -1.37600 17.35300 34.26300
H  -1.37800 16.62200 35.61100
N  -2.25700 19.40600 27.13700
C  -2.45500 20.29500 28.11800
C  -2.58800 21.60700 27.58200
C  -2.42300 21.51500 26.18600
C  -2.33500 20.05500 25.91600
C  -2.83500 22.80800 28.46600
C  -2.42700 22.53100 25.11300
O  -2.43000 22.21800 23.88500
C  -2.49900 24.05500 25.43700
N  -1.98200 16.98400 25.29000
C  -1.99300 17.99800 24.37300
C  -1.64100 17.52300 22.92800
C  -1.32300 15.97500 23.20500
C  -1.63400 15.78600 24.70000
C  -2.83300 17.77000 21.97200
C  0.07300 15.59400 22.79500
C  1.21200 16.10300 23.70900
N  -2.10200 15.25200 27.54000
C  -1.93700 14.26400 26.58300
C  -2.07600 12.94600 27.12300
C  -2.28200 13.25300 28.47300
C  -2.23200 14.62000 28.67400
C  -2.04500 11.69000 26.38700
C  -2.47500 12.54100 29.70800
O  -2.35100 11.35700 29.88900
C  -2.60200 13.65900 30.82200
C  -1.48500 13.35200 31.72500
O  -0.32100 13.73000 31.60500
O  -2.02200 12.67900 32.77800
C  -1.07600 12.46500 33.82600
H  -2.66000 20.72300 30.13700
H  -2.09600 20.00800 23.77500
H  -1.61500 13.69500 24.49700
H  -3.63900 16.45500 32.13700
H  -1.94300 18.97900 32.00000
H  -3.78200 20.06500 32.87900
H  -4.72200 18.50400 32.64600
H  -4.60500 19.58200 31.29900
H  -0.68300 16.44500 32.44300
H  -1.95600 15.47300 33.28400
H  -2.26400 17.98500 34.25100
H  -0.47500 17.93400 34.06900
H  -2.00800 23.49300 28.27900
H  -2.98700 22.50800 29.50300
H  -3.77700 23.17800 28.06200
H  -3.49000 24.34400 25.78800
H  -2.20900 24.66800 24.58300
H  -1.76100 24.18700 26.22800
H  -0.72700 18.03700 22.63100
H  -1.88700 15.29600 22.56600
H  -3.63100 18.28500 22.50800
H  -3.26600 16.89100 21.49500
H  -2.40400 18.40300 21.19500
H  0.20300 15.88900 21.75300
H  0.10700 14.51300 22.92800
H  1.21600 15.40800 24.54800
H  0.87900 17.01500 24.20400
H  2.17000 16.23200 23.20500
H  -1.91300 10.80900 27.01600
H  -1.30100 11.73000 25.59200
H  -3.00800 11.47100 25.92500
H  -3.58100 13.77900 31.28500
H  -0.28800 11.76200 33.55300
H  -1.70800 11.91000 34.51900
H  -0.79600 13.41600 34.27900
Mg 0.96200 7.31700 27.06800
C  1.31000 9.78800 29.49600
C  1.29300 5.02100 29.49900
C  0.79400 4.95500 24.55200
C  1.18400 9.74700 24.56700
N  1.31600 7.39000 29.29000
C  1.24700 8.50400 30.05400
C  1.11400 8.10300 31.61200
C  1.43600 6.61000 31.56300
C  1.33800 6.30300 30.03400
C  2.67900 6.00800 32.27200
C  -0.38000 8.44900 32.03500
C  -0.68800 8.58900 33.54000
H  0.39600 8.57600 34.59100
N  1.10700 5.30300 26.97700
C  1.17600 4.56900 28.13100
C  1.14300 3.23100 27.72600
C  1.16600 3.07700 26.33900
C  1.02800 4.47400 25.90700
C  1.30800 2.18200 28.73000
C  1.22100 1.90200 25.37000
O  1.31400 2.06600 24.16500
C  1.26500 0.46700 25.85600
N  1.08300 7.36300 24.83000
C  0.84300 6.25100 24.03700
C  0.41500 6.66700 22.63800
C  0.63100 8.21800 22.56900
C  0.97300 8.47000 24.03100
C  1.09800 5.82300 21.56000
C  -0.56300 9.02200 22.00200
C  -0.26000 10.46300 21.53100
N  1.18900 9.31100 27.00200
C  1.34800 10.13400 25.90700
C  1.55100 11.46500 26.38000
C  1.61100 11.36400 27.80800
C  1.38800 10.04300 28.09100
C  1.83000 12.64800 25.48700
C  1.85200 12.14900 28.97300
O  2.03100 13.34500 29.13100
C  1.57200 11.12700 30.13900
C  2.76700 11.14000 31.02100
O  3.92900 10.88400 30.69400
O  2.30700 11.38500 32.31800
C  3.31300 11.62600 33.43000
H  1.28500 4.26400 30.28600
H  0.70400 4.30500 23.68000
H  1.21500 10.52100 23.79600
H  1.84400 8.61000 32.24300
H  0.67000 6.04900 32.09800
H  2.48100 5.25200 33.03200
H  3.31900 6.76500 32.72600
H  3.28800 5.62500 31.45300
H  -0.92700 7.60300 31.62000
H  -0.67300 9.31900 31.44800
H  -1.40600 7.79400 33.74300
H  -1.22200 9.54000 33.56100
H  1.82700 1.31200 28.32700
H  0.40000 1.95400 29.28800
H  2.01800 2.48400 29.49900
H  2.29900 0.39700 26.19400
H  1.04200 -0.21700 25.03800
H  0.53200 0.46300 26.66300
H  -0.64700 6.42100 22.64000
H  1.35200 8.54000 21.81700
H  0.39400 5.12600 21.10600
H  1.88900 5.19500 21.97100
H  1.45900 6.56000 20.84300
H  -1.19100 9.19300 22.87600
H  -1.18000 8.40400 21.35000
H  -0.77700 10.64200 20.58800
H  0.80300 10.62200 21.34900
H  -0.65300 11.22200 22.20800
H  0.87300 12.87400 25.01800
H  2.50800 12.35900 24.68400
H  2.19200 13.54400 25.99100
H  0.70400 11.49900 30.68300
H  3.21200 10.74900 34.06900
H  3.14200 12.48500 34.07900
H  4.32500 11.65900 33.02500

