158

Mg 40.74100 9.81100 29.03600
C  42.41700 10.80900 31.91900
C  38.18800 8.60800 31.01100
C  39.56400 8.27900 26.38100
C  43.68100 10.74700 27.19600
N  40.34800 9.65700 31.24400
C  41.13200 10.20400 32.16400
C  40.31200 10.23600 33.49000
C  39.13200 9.23800 33.21900
C  39.15400 9.30100 31.74200
C  39.18200 7.82200 33.84300
C  39.95700 11.66300 34.01600
C  39.70400 11.85300 35.48300
H  40.76900 12.60000 36.27700
N  39.11800 8.69000 28.68400
C  38.11000 8.29900 29.63700
C  36.98900 7.65000 28.99100
C  37.33300 7.66900 27.60100
C  38.76600 8.21900 27.53700
C  35.83500 7.00500 29.78000
C  36.48300 7.23700 26.43700
O  36.87700 7.37100 25.30300
C  35.10500 6.66800 26.70300
N  41.53600 9.53600 27.09400
C  40.81500 8.87900 26.18400
C  41.43500 8.98100 24.78400
C  42.74600 9.75800 25.04200
C  42.66300 10.13900 26.50900
C  41.65400 7.57700 24.23000
C  43.01800 10.95900 24.04800
C  42.40700 12.31100 24.41300
N  42.64200 10.71900 29.39300
C  43.71700 11.02500 28.58200
C  44.74600 11.66900 29.34000
C  44.29700 11.54700 30.67200
C  43.01200 11.00300 30.61700
C  46.06500 12.03000 28.86300
C  44.61100 11.88100 32.02900
O  45.55900 12.49600 32.48700
C  43.47900 11.34600 32.91400
C  44.04500 10.41700 33.90700
O  44.61700 9.42400 33.65000
O  43.59000 10.77400 35.21100
C  43.77100 9.62300 36.11700
H  37.29900 8.26400 31.54400
H  39.06600 7.99800 25.45100
H  44.48000 11.18700 26.59400
H  40.86400 9.77100 34.30600
H  38.18700 9.71600 33.47700
H  39.68000 7.15600 33.13900
H  38.18200 7.56100 34.19000
H  39.92800 7.75000 34.63400
H  39.14700 12.03000 33.38500
H  40.73000 12.37100 33.71500
H  39.63000 10.92300 36.04800
H  38.78000 12.42800 35.54000
H  35.87000 6.74300 30.83800
H  35.54800 6.12500 29.20400
H  34.96700 7.66100 29.71700
H  34.63700 6.58100 25.72200
H  34.54900 7.40000 27.28800
H  35.08100 5.69300 27.18900
H  40.77900 9.42300 24.03400
H  43.61400 9.09800 25.04900
H  41.59700 6.87100 25.05900
H  42.59800 7.42600 23.70600
H  40.86600 7.30400 23.52800
H  42.63700 10.60600 23.08900
H  44.10400 10.95700 23.96400
H  41.90700 12.28400 25.38100
H  41.74900 12.51700 23.56900
H  43.23100 13.02400 24.44400
H  46.11600 12.18000 27.78500
H  46.68800 11.18800 29.16300
H  46.44100 12.92600 29.35700
H  42.99200 12.17800 33.42300
H  43.08700 8.77400 36.10500
H  43.67200 10.01100 37.13100
H  44.78400 9.24800 35.97100
Mg 17.88600 51.49700 26.27300
C  19.55200 49.97600 28.71400
C  15.38800 52.45100 28.50000
C  15.92300 52.43200 23.72200
C  20.10100 50.10400 23.89700
N  17.52200 51.17300 28.38400
C  18.38800 50.61800 29.24400
C  18.00100 50.79300 30.70100
C  16.50400 51.37100 30.51900
C  16.47300 51.68700 29.04700
C  15.32400 50.34000 30.88500
C  18.94600 51.81800 31.52000
C  18.32600 52.48800 32.81900
H  17.48300 51.61300 33.68200
N  16.04400 52.42800 26.10600
C  15.24100 52.80400 27.17600
C  14.05500 53.51000 26.70700
C  14.15100 53.44500 25.29100
C  15.38200 52.82200 24.98300
C  13.26600 54.41000 27.62100
C  13.12200 53.97300 24.25600
O  13.39700 54.26900 23.07900
C  11.79400 54.47200 24.74000
N  18.02000 51.38500 23.98400
C  17.01000 51.72000 23.23700
C  17.25800 51.31500 21.76900
C  18.71000 50.83700 21.79200
C  19.02300 50.86800 23.28700
C  16.24500 50.33700 21.14300
C  19.78100 51.72100 21.01700
C  19.77500 53.25100 21.29600
N  19.46100 50.24500 26.27000
C  20.34800 49.87200 25.27300
C  21.50000 49.15600 25.79500
C  21.30000 49.18500 27.22400
C  20.03400 49.82500 27.42300
C  22.58800 48.59300 24.90400
C  21.75600 48.76800 28.59100
O  22.68100 48.07100 29.02800
C  20.65500 49.40500 29.55500
C  20.17700 48.27300 30.41200
O  19.80100 47.16200 30.03600
O  20.12900 48.70500 31.71600
C  19.57100 47.73200 32.66600
H  14.57900 52.66200 29.20200
H  15.28200 52.72400 22.88800
H  20.78600 49.64200 23.18300
H  17.99900 49.82200 31.19600
H  16.35900 52.27500 31.11000
H  15.01500 50.50300 31.91700
H  15.70400 49.31900 30.93300
H  14.47700 50.31700 30.19900
H  19.30100 52.58700 30.83400
H  19.81500 51.27700 31.89600
H  17.74300 53.31100 32.40500
H  19.15300 52.86700 33.42000
H  13.83400 54.66700 28.51500
H  12.27500 54.00500 27.82500
H  13.06000 55.32700 27.07000
H  11.56500 54.00900 25.69900
H  11.08000 54.02700 24.04600
H  11.85200 55.55700 24.65400
H  17.11700 52.24100 21.21200
H  18.82300 49.85100 21.34000
H  15.59600 50.16200 22.00100
H  16.61400 49.34000 20.90000
H  15.79300 50.88600 20.31700
H  19.57600 51.66100 19.94800
H  20.71700 51.22600 21.27400
H  20.75200 53.65900 21.55800
H  19.08700 53.26300 22.14100
H  19.45000 53.81800 20.42400
H  23.31100 48.20900 25.62400
H  22.98200 49.37100 24.25000
H  22.24100 47.72700 24.34100
H  21.16000 50.12400 30.20000
H  19.87100 46.70800 32.44500
H  18.49800 47.92000 32.62700
H  20.00600 47.95600 33.64000

