158

Mg 17.34200 -2.48900 27.88000
C  16.51200 -0.81800 30.81200
C  19.24500 -4.70800 29.73900
C  18.32500 -3.83800 24.92500
C  15.42000 -0.20200 26.16300
N  17.76200 -2.74900 30.04100
C  17.20300 -2.05000 31.10200
C  17.61100 -2.58800 32.43400
C  18.66000 -3.68600 32.02600
C  18.52100 -3.79500 30.50400
C  20.15400 -3.39800 32.51000
C  16.41100 -3.06000 33.32600
C  16.52600 -2.47000 34.76100
H  17.92200 -2.44000 35.37600
N  18.42200 -4.14000 27.49600
C  19.17000 -4.92400 28.32500
C  19.93900 -5.94000 27.63300
C  19.66100 -5.64800 26.22400
C  18.78200 -4.48000 26.17800
C  20.71300 -7.07000 28.32200
C  20.22000 -6.38900 25.01900
O  20.01900 -6.08300 23.85300
C  21.09200 -7.60500 25.18100
N  16.94600 -2.07300 25.77900
C  17.33100 -2.84600 24.74400
C  16.81100 -2.42900 23.43800
C  15.65000 -1.35800 23.87600
C  16.00700 -1.16100 25.36200
C  17.90900 -1.91200 22.57300
C  14.10400 -1.69400 23.70300
C  13.62600 -3.08600 23.98900
N  16.40600 -0.65600 28.23100
C  15.52600 0.08900 27.49800
C  14.95500 1.15300 28.25400
C  15.35300 0.84300 29.57800
C  16.20000 -0.24800 29.55200
C  14.02100 2.15200 27.87500
C  15.31300 1.28000 30.94100
O  14.92400 2.37100 31.49500
C  15.98100 0.13400 31.81100
C  17.06200 0.74700 32.67200
O  18.17800 0.99400 32.34000
O  16.52300 1.12500 33.82100
C  17.28900 1.91900 34.80700
H  20.03200 -5.26600 30.25200
H  18.62900 -4.35800 24.01500
H  14.76000 0.55400 25.73400
H  18.12800 -1.68200 32.74800
H  18.39800 -4.67000 32.41500
H  20.22500 -2.68300 33.32900
H  20.82300 -3.10500 31.70100
H  20.55300 -4.26200 33.04200
H  16.34200 -4.13700 33.47500
H  15.46100 -2.66100 32.96800
H  15.81100 -3.03500 35.35900
H  16.15000 -1.45000 34.67700
H  20.37000 -8.05000 27.99200
H  20.62000 -7.04900 29.40800
H  21.73500 -6.92100 27.97300
H  22.05200 -7.19400 25.49300
H  21.31700 -8.09200 24.23100
H  20.61600 -8.30900 25.86300
H  16.29600 -3.19600 22.85900
H  15.86200 -0.34300 23.54000
H  18.75200 -1.64900 23.21200
H  17.60300 -1.05500 21.97300
H  18.23500 -2.61300 21.80400
H  13.83600 -1.43200 22.67900
H  13.47200 -1.04500 24.30800
H  12.82700 -3.14900 24.72700
H  14.42600 -3.72500 24.36300
H  13.34000 -3.64300 23.09600
H  14.43900 2.79600 27.10200
H  13.62200 2.75300 28.69300
H  13.11300 1.72200 27.45200
H  15.23200 -0.40400 32.39200
H  18.36400 1.99000 34.64300
H  17.28200 1.37200 35.74900
H  17.01800 2.97500 34.79400
Mg 40.51100 8.71000 29.30000
C  42.27400 10.34100 31.87400
C  38.64900 7.14700 31.67200
C  38.60100 7.46200 26.92100
C  42.61900 10.14200 27.00600
N  40.45900 8.71100 31.59200
C  41.20100 9.49100 32.40000
C  40.56500 9.53200 33.82400
C  39.33400 8.49600 33.68700
C  39.53200 8.03800 32.23400
C  39.31100 7.26000 34.64800
C  40.22300 10.96100 34.20100
C  39.23000 11.18000 35.48500
H  39.84600 12.16700 36.63800
N  38.92700 7.43100 29.29600
C  38.29500 6.86500 30.35900
C  37.22700 5.97600 29.85400
C  37.20900 6.01200 28.45400
C  38.31200 6.98100 28.13400
C  36.33500 5.10600 30.82900
C  36.29100 5.20000 27.48200
O  36.48600 5.32100 26.25600
C  35.15500 4.38800 27.95000
N  40.76700 8.60200 27.21900
C  39.72600 8.15600 26.43800
C  39.92700 8.56800 24.96700
C  41.14000 9.57300 25.02900
C  41.52200 9.44200 26.49400
C  40.12600 7.38100 24.09000
C  41.04300 11.01400 24.40900
C  40.09500 11.94500 25.15300
N  42.23800 9.82400 29.38300
C  43.07000 10.30600 28.34600
C  44.18000 11.07800 28.93900
C  43.86700 11.10200 30.26800
C  42.70200 10.36500 30.51800
C  45.25300 11.76400 28.23300
C  44.33300 11.63300 31.52200
O  45.24900 12.38000 31.80400
C  43.18200 11.26300 32.58400
C  43.84200 10.56300 33.73100
O  44.57000 9.58600 33.62300
O  43.45400 11.09700 34.94600
C  43.69300 10.12300 36.14000
H  37.98000 6.67400 32.39400
H  37.89900 7.19200 26.13000
H  43.15200 10.74200 26.26500
H  41.30900 9.09800 34.49300
H  38.39900 9.05200 33.76700
H  38.49500 7.49400 35.33200
H  40.24700 7.20700 35.20400
H  39.11700 6.27600 34.22000
H  39.84700 11.44000 33.29600
H  41.14700 11.46700 34.48100
H  38.86700 10.23600 35.89100
H  38.29200 11.61000 35.13500
H  35.29100 5.14000 30.51600
H  36.35300 5.55600 31.82100
H  36.71400 4.09300 30.96400
H  34.76700 3.92900 27.04100
H  34.38700 5.00700 28.41400
H  35.58800 3.83400 28.78300
H  39.03600 9.12400 24.67800
H  42.01200 9.18200 24.50500
H  41.13600 7.13000 23.76500
H  39.36100 7.31700 23.31600
H  39.80800 6.50400 24.65400
H  40.67100 10.83600 23.40100
H  42.04400 11.44600 24.38400
H  39.67500 11.53000 26.06900
H  39.27100 12.09600 24.45600
H  40.50900 12.92800 25.37600
H  46.15100 11.16600 28.38900
H  45.46000 12.75600 28.63300
H  44.96600 11.91800 27.19300
H  42.79900 12.24800 32.85100
H  43.63100 9.08100 35.82800
H  42.87000 10.30000 36.83200
H  44.64200 10.34900 36.62700

