158

Mg 48.98800 46.87700 43.01800
C  45.61500 47.21500 42.37400
C  49.16500 44.18200 41.04000
C  52.38300 46.96600 43.37900
C  48.83200 50.18300 44.42400
N  47.58200 46.02400 41.60800
C  46.22900 46.19400 41.65800
C  45.58000 45.34000 40.61500
C  46.65900 44.22400 40.31700
C  47.89300 44.77900 41.06400
C  46.22400 42.85800 40.83300
C  45.12800 46.20300 39.42200
C  43.56600 46.12700 39.15400
H  43.02100 45.45700 37.77000
N  50.50600 45.62300 42.42100
C  50.39500 44.53500 41.59600
C  51.68700 43.81100 41.45300
C  52.60600 44.54600 42.32200
C  51.85900 45.77400 42.75000
C  51.96800 42.54800 40.62900
C  54.03300 44.08300 42.77500
O  54.61900 43.14100 42.17300
C  54.74700 44.71500 44.06500
N  50.44400 48.36200 43.68600
C  51.74400 48.04800 43.93400
C  52.47200 49.29600 44.55400
C  51.30400 50.22700 44.88300
C  50.10800 49.58600 44.25000
C  53.36000 48.99400 45.72200
C  51.48900 51.65500 44.56900
C  50.99400 52.06800 43.18600
N  47.52500 48.40500 43.43200
C  47.60100 49.66100 43.97700
C  46.29900 50.29200 43.90200
C  45.37400 49.28900 43.42000
C  46.24700 48.22100 43.08300
C  46.03200 51.67000 44.31600
C  43.97400 48.92600 43.01200
O  42.88400 49.51900 43.10200
C  44.15800 47.45900 42.41000
C  43.39400 46.46600 43.15900
O  43.73800 45.90300 44.21300
O  42.12600 46.38100 42.60700
C  41.28100 45.31100 43.20400
H  49.11500 43.39300 40.28600
H  53.47300 47.02200 43.42000
H  48.76600 51.21200 44.78400
H  44.71900 44.80700 41.01800
H  46.75300 44.18100 39.23100
H  46.50800 42.06800 40.13700
H  45.18200 42.59300 41.01200
H  46.77300 42.74000 41.76700
H  45.63500 45.88700 38.51100
H  45.37300 47.25100 39.59900
H  43.39100 47.20100 39.09100
H  42.85200 45.75300 39.88800
H  52.88300 42.49200 40.03900
H  51.13200 42.46000 39.93400
H  51.86200 41.68600 41.28700
H  55.34900 45.58500 43.80400
H  55.37700 43.89700 44.41500
H  53.99800 45.02500 44.79400
H  53.04500 49.69100 43.71500
H  51.11300 50.08900 45.94700
H  53.28300 47.94000 45.98900
H  53.29200 49.73200 46.52000
H  54.36300 49.06100 45.30000
H  52.54100 51.93600 44.61500
H  50.90000 52.14900 45.34200
H  51.60800 52.90700 42.86000
H  49.97700 52.45700 43.14700
H  51.19000 51.25300 42.48800
H  45.03400 51.89500 43.93800
H  46.72200 52.38100 43.86200
H  46.07400 51.75300 45.40200
H  43.62600 47.54600 41.46200
H  41.87300 44.42000 43.41300
H  40.43300 45.00100 42.59200
H  40.77500 45.57200 44.13300
Mg 29.82100 58.09900 40.15500
C  27.18200 56.29700 38.94300
C  32.00800 56.09800 38.38600
C  32.46100 60.20900 40.94700
C  27.62800 60.65700 41.04800
N  29.64000 56.49300 38.77200
C  28.41400 55.89500 38.45300
C  28.65000 54.56900 37.71100
C  30.15700 54.46400 37.52800
C  30.63600 55.77500 38.26400
C  30.93000 53.27100 38.27800
C  27.87700 54.32000 36.38900
C  27.65300 55.52200 35.45900
H  28.09800 55.42700 34.03000
N  32.00600 57.97800 39.90100
C  32.62200 57.10800 39.09500
C  34.05000 57.32800 39.14000
C  34.26000 58.52000 39.95200
C  32.86000 58.97600 40.27600
C  35.15100 56.48000 38.51300
C  35.54300 59.06900 40.44100
O  36.60300 58.43200 40.25200
C  35.62600 60.29700 41.29100
N  30.03000 60.20400 40.80200
C  31.22100 60.79200 41.12700
C  30.98700 62.10200 41.84100
C  29.43900 62.19000 42.07900
C  28.95700 60.98700 41.25800
C  31.92600 62.47600 43.03500
C  28.83000 63.50100 41.49700
C  27.54600 63.89100 42.16600
N  27.78800 58.49400 39.94600
C  27.02800 59.51100 40.53200
C  25.62800 59.20400 40.25800
C  25.65400 57.92700 39.72100
C  27.01100 57.53000 39.54900
C  24.43200 59.96600 40.56000
C  24.87200 56.75200 39.32900
O  23.68700 56.48900 39.37500
C  25.80500 55.70100 38.64500
C  25.63200 54.33300 39.18800
O  26.23500 53.78700 40.12400
O  24.67300 53.70800 38.45700
C  24.24000 52.38500 39.02400
H  32.71300 55.42800 37.88900
H  33.28200 60.83000 41.31100
H  26.80600 61.34700 41.25200
H  28.33000 53.73500 38.33500
H  30.51600 54.47100 36.49900
H  31.39900 52.59800 37.56100
H  30.17100 52.69500 38.80800
H  31.76800 53.57000 38.90800
H  26.91500 53.92300 36.71300
H  28.44200 53.57800 35.82600
H  28.06900 56.43600 35.88100
H  26.58000 55.68100 35.34400
H  36.09200 57.01100 38.37200
H  34.82900 56.28100 37.49000
H  35.35100 55.60500 39.13100
H  36.67900 60.22600 41.56600
H  34.97000 60.27800 42.16200
H  35.49500 61.14000 40.61300
H  31.19100 62.87600 41.10000
H  29.20800 61.92300 43.11000
H  32.56000 61.64400 43.34400
H  31.29000 62.83900 43.84300
H  32.59700 63.23500 42.63400
H  28.72900 63.32800 40.42500
H  29.52800 64.32800 41.62700
H  27.52000 64.95800 42.38300
H  27.46400 63.64100 43.22400
H  26.68200 63.70900 41.52800
H  24.45900 60.52600 41.49500
H  23.56800 59.30400 40.61800
H  24.22500 60.64900 39.73600
H  25.54200 55.68800 37.58700
H  23.69000 51.98400 38.17300
H  23.71900 52.31900 39.97900
H  25.15100 51.80300 39.16300

