158

Mg -1.94000 16.82200 27.40600
C  -2.55100 14.76800 30.26200
C  -2.15500 19.41300 29.34100
C  -1.78800 18.53700 24.52400
C  -1.75500 13.76200 25.52400
N  -2.15000 16.92900 29.56700
C  -2.24800 16.01700 30.58600
C  -2.11700 16.73300 31.98500
C  -1.97000 18.27300 31.57600
C  -2.07000 18.19500 30.04600
C  -2.83200 19.26800 32.33200
C  -0.92200 16.33800 32.94100
C  -0.41300 17.29700 34.06600
H  -0.37700 16.84200 35.57700
N  -2.03600 18.77700 26.99900
C  -2.14900 19.77100 27.94500
C  -2.12400 21.07200 27.29600
C  -2.10500 20.75200 25.91800
C  -1.97000 19.26200 25.74300
C  -2.17500 22.40300 27.95300
C  -2.13200 21.78600 24.80600
O  -2.19200 21.52100 23.63700
C  -2.20900 23.27200 25.05200
N  -1.72900 16.19300 25.30600
C  -1.69800 17.15700 24.34900
C  -1.71700 16.52000 22.94800
C  -1.36300 15.02700 23.27300
C  -1.49800 14.96100 24.81700
C  -3.12400 16.70300 22.23500
C  0.13600 14.81500 22.79500
C  1.18300 15.84100 23.26000
N  -2.22500 14.68800 27.72000
C  -2.09500 13.59000 26.88000
C  -2.53500 12.44600 27.60600
C  -2.65800 12.83100 28.96200
C  -2.41800 14.21700 28.95100
C  -2.71300 11.07200 26.99500
C  -2.91100 12.33800 30.27600
O  -3.17300 11.26800 30.78100
C  -2.69900 13.59900 31.23800
C  -1.37000 13.33100 31.84800
O  -0.35700 13.27700 31.15400
O  -1.39700 12.93800 33.22100
C  -0.16300 12.58400 33.92200
H  -2.17000 20.32600 29.93900
H  -1.79900 19.14800 23.61900
H  -1.44800 12.85900 24.99200
H  -3.03400 16.56600 32.54900
H  -0.90800 18.51400 31.62000
H  -3.71900 19.69100 31.86000
H  -2.20300 20.07500 32.70900
H  -3.21900 18.85500 33.26300
H  -0.02500 16.14900 32.35200
H  -1.21900 15.42200 33.45100
H  -1.07200 18.15800 33.94900
H  0.60900 17.49800 33.74200
H  -1.38500 23.06400 27.59500
H  -2.16100 22.28800 29.03700
H  -3.09900 22.90100 27.66000
H  -2.08100 23.77600 24.09400
H  -1.49900 23.78800 25.69800
H  -3.25300 23.51900 25.24400
H  -0.95900 16.93200 22.28100
H  -1.96700 14.25700 22.79200
H  -3.82000 17.23400 22.88400
H  -3.54100 15.75800 21.88800
H  -3.02100 17.36500 21.37600
H  0.06400 14.87000 21.70900
H  0.51600 13.80400 22.94400
H  1.55300 16.24800 22.31900
H  1.95500 15.31700 23.82300
H  0.91500 16.67100 23.91300
H  -3.70100 10.96100 26.54800
H  -2.60700 10.36800 27.82100
H  -1.97200 10.90800 26.21200
H  -3.48200 13.66700 31.99300
H  0.73800 12.75700 33.33300
H  -0.16600 11.50900 34.10200
H  -0.09400 13.02700 34.91500
Mg 25.08500 1.02700 29.18300
C  27.32100 0.41400 31.79700
C  22.55400 1.50100 31.53700
C  22.90100 0.92000 26.73600
C  27.63700 0.04300 26.92400
N  25.02800 1.19900 31.43000
C  26.07000 0.87500 32.30700
C  25.64300 1.21800 33.75400
C  24.08600 1.37500 33.67200
C  23.85100 1.41600 32.09000
C  23.30000 0.22100 34.29300
C  26.36400 2.46200 34.15200
C  27.28600 2.40100 35.35100
H  26.99900 3.47000 36.57100
N  23.04000 1.33500 29.13200
C  22.18700 1.53900 30.17500
C  20.86200 1.63000 29.62100
C  20.91200 1.35800 28.19600
C  22.29900 1.21400 27.94600
C  19.63800 1.72400 30.50200
C  19.73900 1.15600 27.20500
O  19.95800 0.78700 26.01300
C  18.32100 1.43000 27.62600
N  25.23400 0.56900 27.10900
C  24.20500 0.77800 26.29400
C  24.52700 0.52100 24.73000
C  26.08300 0.34000 24.83900
C  26.33800 0.37400 26.37200
C  23.74200 -0.61000 24.00400
C  26.92400 1.44700 24.11300
C  27.80900 1.00500 22.93300
N  27.08300 0.39500 29.31100
C  27.99000 0.02100 28.30500
C  29.27200 -0.42800 28.89500
C  29.07700 -0.16400 30.29800
C  27.75000 0.28900 30.45300
C  30.47700 -0.91800 28.23500
C  29.70000 -0.20700 31.56400
O  30.82800 -0.44400 31.90900
C  28.64100 0.27800 32.57900
C  28.49800 -0.75900 33.60600
O  28.03000 -1.88800 33.41000
O  29.00700 -0.31000 34.83900
C  29.03500 -1.38300 35.76800
H  21.74800 1.69200 32.24800
H  22.22600 1.01100 25.88200
H  28.49900 -0.10500 26.27100
H  25.86400 0.54600 34.58400
H  23.69200 2.27300 34.14700
H  22.65300 -0.30000 33.58800
H  22.76500 0.57500 35.17500
H  23.97800 -0.58400 34.57500
H  25.61400 3.23800 34.30500
H  26.94100 2.82200 33.30100
H  28.33800 2.54400 35.10100
H  27.16700 1.54200 36.01100
H  19.88800 1.56500 31.55100
H  18.88200 0.99900 30.20100
H  19.25800 2.74600 30.49400
H  17.73800 1.53700 26.71100
H  18.34700 2.39800 28.12700
H  18.04500 0.58600 28.25800
H  24.29200 1.48600 24.28200
H  26.47500 -0.60700 24.46600
H  23.01300 -1.04000 24.69100
H  24.43400 -1.34300 23.58900
H  23.14900 -0.22300 23.17600
H  27.53600 2.06900 24.76600
H  26.35800 2.17100 23.52700
H  27.54100 1.35000 21.93400
H  27.81000 -0.08200 22.84100
H  28.85500 1.26500 23.09500
H  30.58000 -0.63700 27.18700
H  30.49500 -2.00400 28.33200
H  31.32700 -0.50700 28.78000
H  28.91100 1.22000 33.05600
H  28.01500 -1.33500 36.15000
H  29.67300 -1.12700 36.61400
H  29.36300 -2.30300 35.28400

