158

Mg 17.31400 -0.52800 27.85300
C  16.10200 1.54000 30.48300
C  19.18700 -2.22300 30.11600
C  18.67100 -2.03900 25.20100
C  15.58100 1.70900 25.64000
N  17.56300 -0.37500 29.96200
C  16.98600 0.47900 30.82600
C  17.47100 0.23400 32.27500
C  18.51900 -0.86900 32.15900
C  18.37600 -1.23100 30.65900
C  19.98300 -0.54400 32.58900
C  16.38000 -0.21400 33.26300
C  16.39500 0.64700 34.54800
H  17.73800 1.04300 35.27400
N  18.73200 -2.03400 27.65200
C  19.34300 -2.62100 28.70700
C  20.02500 -3.78800 28.20700
C  19.94900 -3.73100 26.78800
C  19.18500 -2.52300 26.45100
C  20.90800 -4.75100 28.94600
C  20.65200 -4.55200 25.59700
O  20.49900 -4.31200 24.39000
C  21.44800 -5.76000 25.86800
N  17.31000 -0.00600 25.71300
C  17.96500 -0.87100 24.84500
C  17.48800 -0.60300 23.36900
C  16.43900 0.48100 23.54000
C  16.34000 0.67100 25.12000
C  18.56500 -0.12700 22.37100
C  15.13200 0.36300 22.70300
C  15.00800 1.41800 21.61400
N  16.09400 1.22200 27.99400
C  15.44400 2.03000 27.01600
C  14.61500 3.08500 27.61600
C  14.88300 2.88800 29.02000
C  15.69300 1.73400 29.16500
C  13.72700 4.23200 27.10300
C  14.64900 3.49600 30.39600
O  13.93700 4.42400 30.74100
C  15.43900 2.61600 31.39600
C  16.39500 3.55300 31.90600
O  17.46000 3.88300 31.44600
O  15.83800 4.04600 33.12400
C  16.69700 5.12700 33.67400
H  19.72600 -2.94300 30.73500
H  18.85300 -2.70500 24.35500
H  14.96600 2.25600 24.92300
H  17.96300 1.13100 32.65100
H  18.30700 -1.84900 32.58700
H  20.70100 -0.36500 31.78800
H  20.36500 -1.48500 32.98500
H  19.93900 0.29400 33.28400
H  16.53400 -1.24900 33.57000
H  15.42400 0.01500 32.79200
H  15.68600 0.30000 35.30000
H  15.92600 1.60300 34.31600
H  20.75600 -4.76200 30.02500
H  21.97100 -4.65600 28.72500
H  20.67700 -5.79100 28.72000
H  21.96900 -6.06800 24.96100
H  20.90700 -6.56100 26.37200
H  22.30100 -5.47800 26.48500
H  16.95100 -1.51700 23.11400
H  16.94000 1.40800 23.25900
H  19.52500 -0.03000 22.87900
H  18.29800 0.82700 21.91600
H  18.71300 -0.81000 21.53500
H  14.38300 0.37000 23.49400
H  15.15100 -0.58000 22.15600
H  14.57900 2.24500 22.18100
H  14.41700 1.11100 20.75200
H  15.96600 1.79700 21.25700
H  14.07400 4.67200 26.16800
H  13.66300 4.99300 27.88100
H  12.78900 3.68000 27.03900
H  14.69900 2.28800 32.12600
H  17.73100 4.78800 33.72300
H  16.46000 5.41800 34.69800
H  16.65100 5.97800 32.99500
Mg -3.08000 34.90400 27.04400
C  -4.89200 33.19900 29.56500
C  -2.19000 37.28300 29.35300
C  -1.61000 36.66900 24.55500
C  -4.25500 32.64200 24.71600
N  -3.74800 35.30300 29.18900
C  -4.29300 34.40700 30.05000
C  -4.10200 34.79400 31.49200
C  -3.32200 36.14400 31.42100
C  -3.04800 36.23600 29.92800
C  -4.04200 37.46900 31.88900
C  -3.46900 33.68900 32.40600
C  -3.84600 33.56800 33.90700
H  -2.76100 33.40500 34.95900
N  -1.95100 36.64400 26.99000
C  -1.74300 37.50000 28.03100
C  -1.07500 38.60700 27.54000
C  -0.83300 38.47900 26.15000
C  -1.44600 37.23600 25.85100
C  -0.66000 39.70400 28.45100
C  -0.15100 39.31900 25.14400
O  -0.18400 39.05500 23.97200
C  0.55400 40.56900 25.56700
N  -2.77600 34.62200 24.96000
C  -2.19200 35.48900 24.13800
C  -2.07600 34.92800 22.67400
C  -2.94800 33.68300 22.74000
C  -3.36400 33.60800 24.23300
C  -2.47800 35.95600 21.51200
C  -2.28300 32.39300 22.24000
C  -3.07700 31.60100 21.26000
N  -4.31100 33.26400 27.05700
C  -4.73000 32.49100 26.01600
C  -5.63500 31.49900 26.53100
C  -5.65100 31.68900 27.94100
C  -4.90900 32.83200 28.21900
C  -6.29100 30.45800 25.74900
C  -6.24200 31.23500 29.12700
O  -7.09800 30.36000 29.29400
C  -5.65500 32.10700 30.33100
C  -6.91900 32.64600 31.02500
O  -7.69700 33.54600 30.72000
O  -7.03100 31.85200 32.13000
C  -7.74300 32.47800 33.26200
H  -1.94000 37.99400 30.14300
H  -1.21600 37.22500 23.70200
H  -4.59400 31.87300 24.01900
H  -5.09800 35.03400 31.86400
H  -2.37800 36.10900 31.96400
H  -4.24400 38.16700 31.07700
H  -3.48700 38.04600 32.62900
H  -5.00200 37.24000 32.35300
H  -2.38700 33.82300 32.39200
H  -3.60300 32.67900 32.01900
H  -4.55500 32.74000 33.88600
H  -4.35700 34.50500 34.12800
H  -0.88800 40.62400 27.91200
H  0.41200 39.64900 28.63700
H  -1.37700 39.76100 29.27000
H  -0.22300 41.32700 25.46900
H  1.35300 40.75600 24.85000
H  1.08100 40.63400 26.51900
H  -1.01100 34.75400 22.52300
H  -3.80900 33.82500 22.08700
H  -2.75500 36.91600 21.95000
H  -3.36800 35.57500 21.01200
H  -1.65600 36.09500 20.81000
H  -2.21600 31.77600 23.13600
H  -1.36300 32.46500 21.65900
H  -2.53800 30.69100 20.99800
H  -3.25700 32.20500 20.37000
H  -4.06300 31.23800 21.55200
H  -6.86900 29.82800 26.42500
H  -5.69300 29.77700 25.14200
H  -7.03800 30.97500 25.14700
H  -5.02800 31.52800 31.00800
H  -8.80600 32.62500 33.07300
H  -7.23400 33.31300 33.74200
H  -7.65000 31.70400 34.02500

