158

Mg -2.30800 16.71200 27.13200
C  -2.60600 14.64900 29.93700
C  -2.58900 19.46500 28.95100
C  -2.32100 18.55600 24.28600
C  -2.81900 13.81400 25.16800
N  -2.62900 16.99700 29.23900
C  -2.56400 16.04100 30.21700
C  -2.38000 16.78700 31.56200
C  -2.38300 18.26500 31.21900
C  -2.67100 18.26100 29.69800
C  -3.35400 19.16500 32.09700
C  -1.11100 16.24700 32.36000
C  -0.54100 17.18000 33.42100
H  -0.19500 16.60500 34.82400
N  -2.43300 18.71500 26.74500
C  -2.57900 19.73900 27.61000
C  -2.64600 21.00300 26.92300
C  -2.31300 20.71200 25.57300
C  -2.43900 19.26700 25.49800
C  -2.90000 22.22900 27.62700
C  -2.03200 21.66900 24.43000
O  -1.82100 21.37500 23.25500
C  -1.74500 23.12800 24.83300
N  -2.32900 16.17800 25.03200
C  -2.32600 17.15600 24.06600
C  -2.45200 16.57300 22.65100
C  -2.55500 14.97900 22.92800
C  -2.55700 14.97200 24.44900
C  -3.54300 17.04800 21.69400
C  -1.34800 14.13700 22.31100
C  -1.50300 13.55000 20.93400
N  -2.58900 14.60800 27.40800
C  -2.76600 13.57700 26.54600
C  -2.88100 12.34300 27.23600
C  -2.75800 12.67300 28.60100
C  -2.62500 14.06200 28.65300
C  -3.04000 11.05100 26.50000
C  -2.72100 12.14900 29.91400
O  -2.70800 10.97800 30.34200
C  -2.52500 13.40300 30.89000
C  -1.27700 13.08000 31.59300
O  -0.12800 13.18100 31.13600
O  -1.50700 12.68200 32.87000
C  -0.39300 12.60400 33.78600
H  -2.61400 20.37800 29.54900
H  -2.29400 19.08300 23.32900
H  -3.09000 12.96300 24.54000
H  -3.31100 16.64500 32.10900
H  -1.35100 18.61000 31.27800
H  -2.75200 19.72200 32.81400
H  -4.12700 18.58600 32.60300
H  -3.77000 19.83200 31.34200
H  -0.38700 16.02000 31.57700
H  -1.34800 15.32900 32.89600
H  -1.10500 18.11100 33.48100
H  0.42300 17.45100 32.98900
H  -3.64600 22.85300 27.13500
H  -1.91800 22.69800 27.69300
H  -3.30900 22.05100 28.62200
H  -1.33600 23.57200 23.92600
H  -0.94900 23.13400 25.57900
H  -2.69000 23.63700 25.02400
H  -1.57800 16.85600 22.06400
H  -3.46900 14.49600 22.58300
H  -3.41700 18.11400 21.50600
H  -4.46500 16.95100 22.26800
H  -3.71100 16.53400 20.74800
H  -1.22400 13.25900 22.94500
H  -0.42800 14.72000 22.26000
H  -2.52700 13.73500 20.60900
H  -1.30900 12.47900 20.98200
H  -0.71900 13.96100 20.29900
H  -2.76500 10.22700 27.15900
H  -2.50200 10.96200 25.55700
H  -4.11600 11.08700 26.33200
H  -3.34400 13.45100 31.60900
H  -0.04000 11.58400 33.63000
H  -0.77200 12.89600 34.76500
H  0.41700 13.24700 33.44100
Mg 46.50700 25.68800 28.64600
C  47.88300 27.78300 31.24200
C  45.57900 23.47100 31.21100
C  45.95500 23.49600 26.29800
C  48.09200 27.81300 26.34600
N  46.78900 25.65300 30.97900
C  47.16000 26.71600 31.74000
C  46.80300 26.43200 33.27100
C  46.40300 24.88700 33.18800
C  46.17100 24.67900 31.69500
C  47.41000 23.93300 33.84200
C  45.75200 27.49900 33.84000
C  46.21600 28.25900 35.13500
H  45.31200 28.02700 36.37100
N  45.75100 23.75300 28.74300
C  45.44000 23.00900 29.79900
C  44.89300 21.79100 29.29100
C  45.07600 21.72400 27.89200
C  45.66000 22.98500 27.59200
C  44.38800 20.60600 30.19400
C  44.56800 20.68400 26.87600
O  44.71500 20.96200 25.67700
C  43.85100 19.36400 27.28200
N  46.99700 25.68100 26.54600
C  46.61100 24.60900 25.81500
C  47.16700 24.81600 24.30600
C  47.52900 26.30100 24.31000
C  47.59900 26.65500 25.81800
C  48.27500 23.77600 23.84700
C  46.61700 27.17300 23.32400
C  47.33300 27.69100 22.04500
N  47.58700 27.47100 28.70200
C  48.14400 28.22600 27.72600
C  48.80500 29.41800 28.18800
C  48.79200 29.26400 29.61300
C  48.03400 28.09100 29.87100
C  49.47500 30.38200 27.22400
C  49.21100 29.91600 30.86700
O  49.88600 30.89300 31.05600
C  48.52000 28.92800 31.94900
C  49.51700 28.47500 33.04100
O  50.30800 27.56900 32.86100
O  49.30900 29.18500 34.21000
C  50.08700 28.64400 35.42700
H  45.25700 22.77800 31.99100
H  45.80900 22.89400 25.39900
H  48.39500 28.50700 25.56000
H  47.67900 26.52400 33.91200
H  45.46200 24.91600 33.73700
H  48.39700 24.28900 33.54600
H  47.29100 22.89600 33.53000
H  47.35600 24.03000 34.92600
H  44.84600 26.93000 34.04800
H  45.51500 28.26500 33.10200
H  46.27900 29.28800 34.78200
H  47.17000 27.95200 35.56200
H  43.41400 20.33500 29.78600
H  44.38100 20.86400 31.25300
H  44.97400 19.68900 30.12300
H  44.50700 18.81100 27.95400
H  43.84800 18.75100 26.38100
H  42.79200 19.46200 27.52400
H  46.40300 24.74200 23.53200
H  48.57800 26.46300 24.05900
H  47.71100 23.11700 23.18700
H  48.70000 23.30200 24.73200
H  49.09700 24.38600 23.47200
H  46.20300 27.98200 23.92700
H  45.81700 26.51100 22.99300
H  48.40300 27.49900 22.12300
H  47.21500 28.77200 22.11600
H  46.86500 27.40800 21.10200
H  49.68900 31.31900 27.73700
H  48.77000 30.57600 26.41600
H  50.28200 29.79800 26.78100
H  47.67600 29.41700 32.43400
H  50.64700 27.72600 35.24800
H  49.38900 28.38800 36.22500
H  50.73200 29.50000 35.62400

