158

Mg 8.76500 47.13100 25.28800
C  6.45700 46.92100 28.06800
C  11.18200 47.86800 27.52600
C  10.82400 47.27200 22.69100
C  6.06700 46.89800 23.14300
N  8.81300 47.58600 27.55500
C  7.80200 47.21300 28.46300
C  8.26300 47.56900 29.90200
C  9.77300 47.91900 29.69300
C  9.95100 47.84300 28.16600
C  10.36500 49.21000 30.38000
C  8.04600 46.44700 30.96200
C  8.95800 46.42600 32.21500
H  8.28100 46.02100 33.51200
N  10.72300 47.61700 25.07400
C  11.60500 47.83900 26.13900
C  13.00600 47.97700 25.58500
C  12.90000 47.81900 24.20600
C  11.45400 47.58300 23.89900
C  14.16600 48.28700 26.42600
C  13.94200 47.71900 23.16200
O  13.75200 47.57300 21.91000
C  15.31400 47.58500 23.60800
N  8.44700 47.09700 23.16100
C  9.50000 47.11700 22.32200
C  9.02300 46.91400 20.85000
C  7.47700 46.67500 21.03000
C  7.27100 46.91000 22.51900
C  9.46800 48.06800 19.92200
C  7.00000 45.33600 20.43100
C  5.59800 45.47000 19.85600
N  6.72300 46.91200 25.52800
C  5.78000 46.78400 24.53700
C  4.47600 46.46300 25.11500
C  4.68300 46.47100 26.49600
C  6.07600 46.77500 26.66500
C  3.15700 46.20800 24.36700
C  4.10100 46.37500 27.81600
O  2.90300 46.05300 28.03200
C  5.21700 46.66100 28.89300
C  5.25700 45.44400 29.75000
O  5.83700 44.42500 29.51600
O  4.40000 45.65300 30.78400
C  4.46500 44.60700 31.78600
H  11.99100 48.03500 28.24100
H  11.43500 47.26700 21.78600
H  5.19800 46.97900 22.48600
H  7.77000 48.49800 30.18800
H  10.32600 47.00900 29.92300
H  10.52800 49.91800 29.56700
H  11.24600 49.15700 31.02100
H  9.60400 49.67900 31.00400
H  8.05300 45.45500 30.51200
H  7.04800 46.69600 31.32500
H  9.34600 47.43600 32.34600
H  9.68900 45.63400 32.04900
H  14.98300 47.56800 26.48800
H  13.83000 48.45900 27.44900
H  14.54900 49.26000 26.11800
H  15.78200 48.42300 24.12600
H  15.83500 47.47700 22.65700
H  15.47700 46.68800 24.20600
H  9.41400 45.97100 20.46700
H  6.90800 47.44600 20.51000
H  9.87300 47.61300 19.01800
H  10.29500 48.60100 20.39100
H  8.68200 48.79800 19.72700
H  7.10700 44.54300 21.17000
H  7.54100 45.09500 19.51600
H  5.71700 45.10200 18.83700
H  5.20000 46.48500 19.85800
H  4.89100 44.78600 20.32700
H  2.60300 47.12300 24.15800
H  2.52300 45.57800 24.99100
H  3.28900 45.72200 23.40000
H  4.89800 47.53100 29.46700
H  4.19100 45.17000 32.67800
H  5.47100 44.20500 31.90500
H  3.79300 43.79600 31.50300
Mg -2.30500 34.14300 26.15300
C  -3.47700 32.74600 29.13700
C  -0.30300 36.22100 27.98000
C  -1.31800 35.60700 23.30900
C  -4.38500 31.97100 24.34700
N  -1.98600 34.46400 28.37200
C  -2.56100 33.78200 29.40500
C  -1.97800 34.28600 30.74400
C  -0.91300 35.34500 30.26400
C  -1.06200 35.32800 28.78800
C  -1.01100 36.75800 31.03400
C  -1.39600 33.19800 31.78200
C  -1.85100 33.39400 33.25100
H  -1.33900 32.39500 34.28400
N  -0.91100 35.66900 25.69500
C  -0.21000 36.41200 26.60200
C  0.55900 37.38300 25.82100
C  0.35700 37.15100 24.48300
C  -0.68300 36.13300 24.39600
C  1.32900 38.50700 26.48600
C  1.14700 37.73500 23.31900
O  0.86100 37.52400 22.13400
C  2.38800 38.57500 23.58700
N  -2.89700 33.95200 24.13900
C  -2.27700 34.62300 23.11200
C  -2.73700 34.10500 21.75900
C  -3.31200 32.69300 22.06100
C  -3.52600 32.82200 23.62100
C  -3.71200 35.00900 21.01100
C  -2.34500 31.53700 21.71500
C  -0.76900 31.75600 21.93300
N  -3.73100 32.80000 26.62500
C  -4.44500 31.91200 25.78500
C  -5.30700 31.04600 26.55200
C  -4.82800 31.29000 27.90700
C  -3.94700 32.39100 27.88000
C  -6.29200 30.10100 26.00000
C  -4.96500 30.76600 29.19300
O  -5.61200 29.85000 29.68500
C  -4.11700 31.65900 30.06300
C  -5.05200 32.42900 30.95800
O  -5.82200 33.30800 30.58600
O  -4.91200 32.00500 32.27500
C  -5.76800 32.53000 33.28100
H  0.28200 36.90700 28.59600
H  -0.92800 35.97500 22.35700
H  -4.89000 31.26100 23.68800
H  -2.80600 34.83300 31.19600
H  0.08300 34.92000 30.39300
H  0.00900 37.11100 31.18600
H  -1.54700 36.72300 31.98300
H  -1.55400 37.33900 30.28900
H  -0.33700 33.45400 31.80000
H  -1.48900 32.22500 31.30100
H  -2.92000 33.54600 33.40100
H  -1.51700 34.38700 33.55300
H  2.40800 38.37400 26.40900
H  1.12400 38.60300 27.55200
H  0.98400 39.44000 26.04000
H  2.08300 39.53700 23.99900
H  2.88700 38.73900 22.63200
H  3.09500 38.03500 24.21700
H  -1.89000 33.92700 21.09600
H  -4.32100 32.49800 21.69500
H  -3.47000 34.92200 19.95200
H  -3.49700 36.04200 21.28600
H  -4.74600 34.68900 21.14500
H  -2.58700 31.34300 20.67000
H  -2.68900 30.59800 22.14900
H  -0.29500 32.10300 21.01500
H  -0.35000 30.78100 22.18400
H  -0.59200 32.52300 22.68700
H  -5.84400 29.11300 26.10500
H  -6.42800 30.38400 24.95600
H  -7.23000 30.07700 26.55500
H  -3.46200 31.07500 30.70900
H  -5.17400 33.08200 34.00800
H  -6.26900 31.65000 33.68500
H  -6.51200 33.29400 33.05700

