158

Mg 45.32400 3.78400 47.74800
C  43.36300 6.65400 47.58400
C  42.54500 1.84600 47.49200
C  47.36100 1.18400 46.95300
C  48.15600 5.88400 47.30700
N  43.27400 4.18200 47.30300
C  42.62100 5.45100 47.53600
C  41.07600 5.25900 47.51300
C  40.88200 3.80400 47.52700
C  42.34200 3.21300 47.45500
C  39.89300 3.32100 48.69400
C  40.24000 6.09800 46.48600
C  40.95800 6.44200 45.17700
H  40.24700 5.92300 43.88300
N  45.03700 1.77600 47.42300
C  43.80100 1.14400 47.36800
C  43.95400 -0.28900 47.16000
C  45.32200 -0.55200 47.03800
C  45.99900 0.82100 47.13900
C  42.84000 -1.34200 47.03000
C  45.95500 -1.93700 46.99700
O  45.31000 -2.96100 46.86400
C  47.45900 -1.98900 46.78500
N  47.49400 3.59800 47.38700
C  48.03300 2.40700 47.07700
C  49.53900 2.44200 46.85800
C  49.83800 3.95700 47.11500
C  48.46700 4.49900 47.36400
C  50.39400 1.49600 47.69200
C  50.59000 4.68400 45.90800
C  52.12300 4.43300 45.96600
N  45.73400 5.81600 47.65600
C  46.90300 6.49500 47.37200
C  46.65200 7.94800 47.43300
C  45.24000 8.02700 47.66400
C  44.73800 6.71700 47.64500
C  47.59300 9.13900 47.26900
C  44.11500 8.99500 47.74500
O  44.07400 10.23500 47.65600
C  42.85900 8.06200 47.75400
C  42.02400 8.40500 48.91900
O  42.22700 7.92800 50.03700
O  40.91200 9.13200 48.53700
C  39.79500 9.17900 49.57900
H  41.69100 1.20000 47.70200
H  48.12400 0.43100 46.74300
H  48.93700 6.64500 47.37000
H  40.73600 5.68600 48.45700
H  40.36700 3.46100 46.62900
H  39.26600 2.53200 48.27700
H  39.24100 4.08400 49.11800
H  40.53900 2.91900 49.47400
H  39.89000 7.03200 46.92700
H  39.27700 5.62900 46.28300
H  41.88000 5.87200 45.05900
H  41.03500 7.52700 45.11600
H  43.00100 -2.12100 47.77600
H  43.13600 -1.75700 46.06600
H  41.83800 -0.92400 47.12700
H  47.92600 -1.52600 47.65400
H  47.73000 -1.50100 45.84900
H  47.76600 -3.01100 46.56200
H  49.61900 2.18800 45.80100
H  50.36500 4.07300 48.06200
H  50.82100 0.72900 47.04600
H  49.97200 0.97700 48.55200
H  51.24200 2.08000 48.05000
H  50.35300 5.74700 45.95000
H  50.31900 4.30600 44.92200
H  52.42200 4.01000 45.00700
H  52.47800 3.78300 46.76600
H  52.72300 5.33500 46.09000
H  47.21800 9.81300 46.49900
H  48.57900 8.73400 47.03800
H  47.66600 9.72800 48.18300
H  42.36000 8.40100 46.84600
H  40.02000 9.03500 50.63500
H  39.09400 8.40300 49.27100
H  39.19600 10.08300 49.46500
Mg 47.80500 25.58500 29.76500
C  48.38500 28.03500 32.32400
C  46.79200 23.42700 32.33100
C  47.44800 23.20000 27.44200
C  49.27100 27.72200 27.45200
N  47.59100 25.67800 31.98200
C  47.84200 26.81400 32.79600
C  47.47600 26.54200 34.32700
C  47.36000 24.93500 34.30200
C  47.25400 24.64200 32.75700
C  48.45100 24.13400 35.00400
C  46.13400 27.17500 34.78900
C  46.08100 28.15000 35.90300
H  46.74700 27.78100 37.29700
N  47.06000 23.63000 29.86000
C  46.61100 22.99000 30.95900
C  46.03500 21.72900 30.57400
C  46.19600 21.61700 29.12700
C  46.92000 22.86300 28.74600
C  45.35100 20.78300 31.51100
C  45.71900 20.52400 28.22600
O  45.78800 20.67800 27.03600
C  44.99000 19.32700 28.78800
N  48.41200 25.38300 27.78900
C  48.15000 24.27600 27.00100
C  48.74300 24.44900 25.60100
C  49.21900 26.00200 25.61700
C  48.95700 26.44100 27.00300
C  49.90600 23.45400 25.29700
C  48.53400 26.92300 24.56500
C  48.76000 26.49000 23.10300
N  48.61400 27.51000 29.80400
C  49.19300 28.21300 28.79500
C  49.70900 29.43300 29.30000
C  49.42000 29.47200 30.64800
C  48.81000 28.18800 30.95900
C  50.50900 30.46400 28.54000
C  49.49600 30.32700 31.93800
O  49.89300 31.48900 32.09200
C  48.92600 29.30800 33.13900
C  50.00600 28.88800 34.12000
O  51.16500 28.56200 33.77100
O  49.58600 28.83400 35.45100
C  50.64800 28.57300 36.52000
H  46.40200 22.68400 33.03000
H  47.32200 22.53200 26.58700
H  49.61700 28.50300 26.77200
H  48.36400 26.67800 34.94500
H  46.44600 24.57200 34.77200
H  48.99700 24.56100 35.84600
H  49.21700 23.93300 34.25500
H  47.98200 23.25500 35.44700
H  45.40200 26.37700 34.91800
H  45.84200 27.72300 33.89400
H  45.00700 28.22400 36.07500
H  46.32400 29.15300 35.55100
H  44.36300 20.52500 31.12700
H  45.35900 21.18600 32.52300
H  45.92300 19.86800 31.66200
H  45.40900 18.89600 29.69800
H  44.73100 18.58000 28.03700
H  44.06200 19.83800 29.04200
H  47.95900 24.29200 24.86100
H  50.27700 26.13500 25.38900
H  50.04600 22.83700 26.18500
H  50.86900 23.94300 25.14900
H  49.69600 22.70500 24.53300
H  48.92200 27.94000 24.63000
H  47.46500 26.97500 24.77200
H  47.77200 26.22800 22.72400
H  49.41500 25.62000 23.08000
H  49.21300 27.37200 22.64900
H  50.05000 30.68800 27.57700
H  51.45200 29.95800 28.33500
H  50.54300 31.37200 29.14200
H  48.17100 29.67300 33.83500
H  51.27400 27.76500 36.14000
H  50.04700 28.34100 37.39900
H  51.20600 29.45400 36.83700

