158

Mg 15.19400 51.20000 25.96400
C  17.68300 50.61800 28.45100
C  12.97000 51.58500 28.57600
C  12.98700 51.48700 23.66800
C  17.68900 50.65600 23.54700
N  15.38300 51.24500 28.24000
C  16.49200 51.05500 29.01500
C  16.25600 51.21200 30.53200
C  14.72300 51.12900 30.51600
C  14.32500 51.38300 29.07200
C  14.19000 49.78500 31.08000
C  16.79200 52.62100 30.99800
C  17.05200 52.83000 32.45300
H  16.34300 51.91200 33.47100
N  13.29200 51.44300 26.17000
C  12.48000 51.59900 27.23800
C  11.09200 51.67900 26.78200
C  11.02500 51.56900 25.34600
C  12.48100 51.46600 25.00800
C  9.89400 51.80900 27.75200
C  9.77500 51.56200 24.34100
O  9.99800 51.56600 23.15300
C  8.39600 51.56400 24.92300
N  15.39100 51.28600 23.85800
C  14.32100 51.42200 23.10000
C  14.60100 51.33800 21.61600
C  16.17500 51.35000 21.60600
C  16.45600 51.04900 23.09200
C  13.79300 50.15400 20.97500
C  16.80100 52.74200 21.23000
C  17.94000 52.69500 20.17900
N  17.23200 50.69800 25.90800
C  18.13700 50.47000 24.86300
C  19.42700 50.07700 25.32200
C  19.27700 50.12100 26.72200
C  17.94600 50.49700 27.06500
C  20.50900 49.70000 24.39000
C  19.99900 49.86700 27.97400
O  21.09500 49.38800 28.21500
C  18.99200 50.25900 29.16300
C  18.85500 49.11100 30.16400
O  18.22600 48.07600 30.08600
O  19.57500 49.51900 31.30200
C  19.34500 48.69800 32.52400
H  12.15600 51.64500 29.30200
H  12.26000 51.43900 22.85500
H  18.43600 50.54800 22.75800
H  16.68000 50.38200 31.09700
H  14.41300 51.95900 31.15100
H  13.28900 49.46700 30.55600
H  13.93300 49.81900 32.13900
H  14.99800 49.06000 30.98300
H  16.05900 53.41300 30.84900
H  17.68600 52.85900 30.42300
H  16.78700 53.85400 32.71700
H  18.13800 52.73900 32.47900
H  9.43300 50.82200 27.80200
H  9.16900 52.46400 27.26900
H  10.29900 52.07000 28.73000
H  8.11800 52.55100 25.29400
H  8.18000 50.88400 25.74700
H  7.63900 51.27000 24.19600
H  14.15200 52.25400 21.23200
H  16.62000 50.50900 21.07300
H  14.43200 49.48300 20.40100
H  13.06400 50.69700 20.37400
H  13.31700 49.52100 21.72400
H  17.29900 53.15100 22.10800
H  15.97000 53.39600 20.96500
H  17.40700 52.95900 19.26600
H  18.38200 51.70300 20.27000
H  18.60000 53.53300 20.40000
H  21.41200 50.17600 24.77300
H  20.30700 49.97400 23.35500
H  20.80500 48.65100 24.41700
H  19.53500 51.08200 29.62700
H  20.13900 48.96500 33.22200
H  19.35200 47.61000 32.46000
H  18.46200 49.11000 33.01300
Mg 0.24600 42.79100 26.06200
C  2.56800 42.20700 28.66000
C  -2.28500 41.88200 28.29200
C  -2.01900 42.42700 23.53500
C  2.77100 43.07900 23.80700
N  0.22400 42.10600 28.21300
C  1.24400 42.08900 29.14800
C  0.73000 41.88200 30.60800
C  -0.82000 41.85300 30.35000
C  -1.02100 42.03600 28.89000
C  -1.45400 40.52400 30.87900
C  1.25800 42.97700 31.54000
C  1.89300 42.50500 32.83900
H  1.28800 41.21400 33.46700
N  -1.84300 42.35400 25.94600
C  -2.69400 42.01700 26.99100
C  -4.04300 41.75700 26.52600
C  -3.95200 41.86800 25.11200
C  -2.54200 42.24200 24.80700
C  -5.24600 41.34700 27.51600
C  -5.10000 41.67700 24.12400
O  -4.96700 42.04700 22.97800
C  -6.56100 41.34700 24.57300
N  0.36800 42.77100 23.93200
C  -0.70000 42.67100 23.12700
C  -0.24000 42.67700 21.62100
C  1.26800 43.09400 21.77800
C  1.49900 43.09300 23.28900
C  -0.47200 41.33000 20.86000
C  1.81900 44.31900 21.06100
C  1.63200 45.71400 21.71000
N  2.27900 42.76100 26.16800
C  3.16500 42.83600 25.09200
C  4.51700 42.67500 25.64600
C  4.35100 42.49000 27.02000
C  2.93800 42.42600 27.32700
C  5.73300 42.71000 24.89700
C  5.04300 42.34700 28.26200
O  6.25300 42.29400 28.49000
C  3.91300 42.25900 29.38600
C  4.13700 40.93600 30.08100
O  3.62400 39.87300 29.80600
O  4.90400 41.18500 31.15300
C  5.13900 40.02900 32.02000
H  -2.97400 41.64500 29.10600
H  -2.71100 42.45000 22.69000
H  3.63800 43.26200 23.16900
H  1.20400 40.94100 30.88900
H  -1.34000 42.71700 30.76500
H  -0.76500 39.94900 31.49700
H  -1.58600 39.77700 30.09600
H  -2.31600 40.74000 31.51100
H  0.45800 43.60800 31.92700
H  1.94400 43.69700 31.09300
H  1.73400 43.22200 33.64500
H  2.92200 42.39800 32.49600
H  -5.46900 40.29000 27.37300
H  -6.11100 41.99400 27.37400
H  -5.01100 41.40200 28.57900
H  -6.62500 40.45700 25.20000
H  -7.23800 41.29300 23.72000
H  -6.87000 42.26700 25.06900
H  -0.85100 43.49600 21.24300
H  1.94600 42.26000 21.59800
H  -1.09000 40.64000 21.43600
H  0.35300 40.67300 20.58700
H  -1.05100 41.58500 19.97200
H  1.49700 44.36300 20.02100
H  2.89300 44.14600 20.99300
H  2.53700 45.99400 22.25000
H  0.81500 45.59600 22.42200
H  1.29700 46.44600 20.97500
H  6.55800 43.14200 25.46300
H  5.56300 43.35900 24.03800
H  5.88700 41.68200 24.56800
H  3.96900 43.13100 30.03700
H  5.85800 40.31200 32.78900
H  5.55600 39.16600 31.50000
H  4.18100 39.76600 32.46900

