158

Mg 9.41800 3.96800 28.04100
C  10.17800 2.16600 30.83200
C  7.44500 6.03400 29.75500
C  7.87600 5.14800 25.02200
C  10.91700 1.41800 25.95300
N  8.65500 3.85500 30.06800
C  9.41500 3.26700 31.07500
C  9.14000 3.93400 32.42800
C  8.18300 5.04700 32.01300
C  8.20300 5.04700 30.46000
C  6.80600 5.12000 32.73600
C  10.42100 4.30900 33.16100
C  10.55900 3.71000 34.61600
H  10.71600 4.67500 35.80800
N  7.97200 5.40500 27.50000
C  7.31100 6.14700 28.35800
C  6.33500 6.97300 27.66300
C  6.39200 6.71100 26.32700
C  7.50600 5.73400 26.22200
C  5.19700 7.71300 28.44200
C  5.56100 7.26200 25.12100
O  5.83700 7.04800 23.95300
C  4.38500 8.12800 25.41300
N  9.37500 3.36500 25.86800
C  8.71000 4.01100 24.91700
C  8.94700 3.36700 23.52600
C  10.25600 2.50500 23.77200
C  10.22500 2.38300 25.28900
C  7.73300 2.59800 22.96600
C  11.54100 3.15400 23.23700
C  12.47900 2.10600 22.60500
N  10.46400 2.26200 28.32400
C  11.03600 1.33700 27.41400
C  11.71600 0.31200 28.19800
C  11.46900 0.66200 29.58200
C  10.63400 1.76500 29.56100
C  12.60100 -0.72900 27.60000
C  11.75700 0.34800 31.01300
O  12.52600 -0.53200 31.42600
C  10.99400 1.39700 31.82800
C  10.14700 0.65300 32.83600
O  8.92600 0.43900 32.64400
O  10.80400 0.31500 33.96600
C  9.88300 -0.13600 35.04000
H  7.06000 6.88000 30.32900
H  7.36700 5.51700 24.12900
H  11.47600 0.68800 25.36300
H  8.53400 3.22400 32.99100
H  8.63200 5.99400 32.31100
H  6.07600 4.66100 32.06900
H  6.53800 6.13400 33.03200
H  6.78600 4.47400 33.61300
H  10.49700 5.39000 33.28200
H  11.28800 4.11200 32.52900
H  11.49100 3.15100 34.53200
H  9.71500 3.03300 34.74600
H  5.33400 8.79200 28.50400
H  5.19000 7.34900 29.47000
H  4.24700 7.52200 27.94300
H  4.79400 9.04700 25.83400
H  3.70200 7.53000 26.01600
H  3.82800 8.30700 24.49300
H  9.10400 4.13100 22.76400
H  10.09600 1.51300 23.35200
H  7.20500 2.26000 23.85800
H  7.90300 1.72600 22.33400
H  7.12100 3.35900 22.48100
H  12.00100 3.74500 24.02900
H  11.35200 3.83000 22.40300
H  12.42500 2.31500 21.53700
H  12.16100 1.09800 22.87300
H  13.47600 2.21000 23.03400
H  13.18500 -1.32800 28.29900
H  13.27100 -0.30500 26.85300
H  11.99700 -1.36400 26.95200
H  11.77100 2.00900 32.28700
H  9.13800 -0.89300 34.79900
H  9.38000 0.75000 35.42700
H  10.45100 -0.43800 35.92000
Mg -11.38800 16.85600 42.12200
C  -7.96800 16.98000 42.65500
C  -11.30600 20.33000 41.69600
C  -14.50200 16.68500 40.88700
C  -11.07400 13.40400 41.75900
N  -9.81500 18.45600 42.18100
C  -8.52700 18.22000 42.36100
C  -7.73500 19.51400 42.22900
C  -8.89900 20.57000 42.39800
C  -10.07800 19.72600 42.05100
C  -8.92800 21.15200 43.76100
C  -7.03300 19.72600 40.83700
C  -5.50900 19.93000 40.93400
H  -4.90300 20.74400 39.78900
N  -12.79600 18.33100 41.38900
C  -12.56100 19.69700 41.32200
C  -13.87700 20.40200 41.07500
C  -14.76200 19.35400 40.65400
C  -14.06200 18.01100 40.99600
C  -13.97500 21.88900 41.09600
C  -16.09600 19.48300 39.91100
O  -16.28100 20.63800 39.43600
C  -17.14000 18.46500 39.68200
N  -12.62700 15.32800 41.53000
C  -13.91700 15.45000 41.12100
C  -14.57100 14.07700 40.88900
C  -13.39200 13.06600 40.98500
C  -12.26500 13.98200 41.47800
C  -15.89200 13.80900 41.73800
C  -13.14600 12.30800 39.62600
C  -14.03100 11.03900 39.41200
N  -9.88800 15.41800 42.40000
C  -9.95800 14.05300 42.20200
C  -8.66700 13.51900 42.42200
C  -7.79400 14.56600 42.65400
C  -8.60700 15.70600 42.60700
C  -8.28300 12.07300 42.21600
C  -6.41900 15.01400 42.82400
O  -5.34800 14.36200 42.93600
C  -6.47500 16.59100 42.85300
C  -6.03900 17.03200 44.23700
O  -6.50000 16.59000 45.29900
O  -5.25400 18.12900 44.17500
C  -4.65600 18.76500 45.32900
H  -11.28300 21.42100 41.74100
H  -15.53500 16.48800 40.59300
H  -11.01200 12.33100 41.56800
H  -7.25000 19.56700 43.20300
H  -8.81300 21.36800 41.66100
H  -9.85900 20.86400 44.25000
H  -8.92700 22.24000 43.69500
H  -8.04000 21.04200 44.38300
H  -7.51800 20.42900 40.16000
H  -7.14500 18.73900 40.38800
H  -5.00300 18.96600 40.86700
H  -5.29800 20.44400 41.87200
H  -15.03600 22.11200 41.21400
H  -13.58300 22.29600 40.16400
H  -13.46700 22.29500 41.97100
H  -16.89100 17.71100 38.93500
H  -18.16400 18.83400 39.62700
H  -17.30700 17.83700 40.55700
H  -14.90900 14.07100 39.85300
H  -13.59700 12.48600 41.88500
H  -15.83800 12.86300 42.27600
H  -16.78600 13.83200 41.11500
H  -16.04400 14.53800 42.53400
H  -12.10500 11.98700 39.58200
H  -13.21900 12.96900 38.76200
H  -14.24600 10.50000 40.33500
H  -13.36900 10.31000 38.94500
H  -14.81800 11.11500 38.66200
H  -8.22300 11.77500 41.16900
H  -9.12400 11.56400 42.68800
H  -7.32100 11.82400 42.66300
H  -5.75700 16.89100 42.09000
H  -5.21900 18.56600 46.24000
H  -4.62300 19.85100 45.25000
H  -3.63400 18.39700 45.42400

