158

Mg 47.70600 34.45400 27.25000
C  45.97000 33.02900 29.87200
C  47.71400 37.51400 29.20100
C  48.98600 36.15100 24.70500
C  47.10200 31.67100 25.28600
N  46.88500 35.18000 29.31600
C  46.42800 34.30800 30.29200
C  46.45700 35.00100 31.62000
C  46.61100 36.50400 31.25300
C  47.09500 36.42900 29.82900
C  45.25300 37.31900 31.57800
C  47.45700 34.45200 32.68200
C  46.79400 34.16600 34.06200
H  45.61200 34.95000 34.51700
N  48.22400 36.55400 26.89200
C  48.23900 37.63400 27.83000
C  48.85800 38.82700 27.29900
C  49.36400 38.36300 26.01400
C  48.82400 36.98700 25.81300
C  48.96800 40.17400 28.03500
C  50.16600 39.08600 24.95800
O  50.63800 38.55700 23.97000
C  50.45900 40.65400 25.20000
N  47.71100 34.06500 25.15000
C  48.49000 34.83200 24.43600
C  48.76100 34.21800 23.10700
C  48.34800 32.73300 23.16700
C  47.73400 32.75100 24.63600
C  48.09800 34.98500 21.92900
C  49.51400 31.69200 22.86400
C  49.40500 30.53100 21.81100
N  46.73600 32.65900 27.42700
C  46.54800 31.57700 26.57100
C  45.75700 30.58300 27.20200
C  45.47000 31.09100 28.49300
C  46.10300 32.35900 28.59300
C  45.36000 29.28600 26.46500
C  44.90600 30.81200 29.78100
O  44.40100 29.74100 30.15300
C  45.15400 32.05900 30.67600
C  45.69500 31.57300 31.97700
O  46.83600 31.21500 32.15800
O  44.75600 31.48200 32.95500
C  44.99900 30.67300 34.18900
H  47.54800 38.44100 29.75300
H  49.61100 36.59000 23.92400
H  47.08500 30.74100 24.71300
H  45.43800 34.82800 31.96500
H  47.42000 37.04700 31.74200
H  44.70000 37.50600 30.65700
H  45.43900 38.28600 32.04400
H  44.53900 36.76800 32.19000
H  48.21100 35.23100 32.79300
H  47.87700 33.51000 32.32800
H  47.59300 34.08100 34.79800
H  46.43400 33.14400 33.95100
H  48.66900 40.08500 29.07900
H  48.38200 40.93300 27.51700
H  50.00600 40.48300 28.15600
H  49.58700 41.21000 25.54600
H  50.86600 41.03900 24.26500
H  51.28800 40.68500 25.90700
H  49.83300 34.35400 22.96300
H  47.53100 32.56700 22.46400
H  47.87800 34.31500 21.09800
H  48.72700 35.82900 21.64500
H  47.17800 35.50100 22.20700
H  49.78400 31.15300 23.77200
H  50.42700 32.24800 22.64900
H  49.64700 29.68200 22.44900
H  50.11400 30.69800 21.00000
H  48.41000 30.44500 21.37300
H  46.23700 28.78400 26.05800
H  44.72400 29.50100 25.60500
H  44.75900 28.57300 27.02800
H  44.12500 32.37900 30.84200
H  44.69600 31.27200 35.04800
H  46.03700 30.34200 34.24400
H  44.34000 29.81100 34.09300
Mg 17.18400 52.18400 24.59900
C  18.89000 50.95600 27.31200
C  14.48800 53.04000 26.52000
C  15.36900 53.02300 21.70200
C  19.65500 50.86300 22.47700
N  16.74900 51.96200 26.68900
C  17.67900 51.51100 27.63300
C  17.11600 51.86100 29.00000
C  15.60100 52.23200 28.71100
C  15.59800 52.45800 27.19100
C  14.55100 51.19100 29.22900
C  17.89200 52.99100 29.68700
C  17.49900 53.71000 31.00200
H  16.58800 52.92900 32.01600
N  15.17600 52.94800 24.21900
C  14.24800 53.23100 25.11500
C  13.06500 53.76100 24.46000
C  13.34400 53.92600 23.09100
C  14.70400 53.30500 22.91800
C  11.82900 54.05300 25.22600
C  12.45500 54.50700 22.04900
O  12.80800 54.67200 20.86500
C  11.00000 54.83400 22.36700
N  17.46000 51.98300 22.41800
C  16.60100 52.43200 21.45800
C  17.22800 52.39200 20.10000
C  18.61900 51.90800 20.32300
C  18.61700 51.54300 21.84300
C  16.39700 51.35400 19.16400
C  19.74800 52.87900 19.98600
C  21.10000 52.20300 19.80300
N  19.04800 51.20600 24.81800
C  19.89300 50.68500 23.87200
C  20.96000 49.91600 24.54600
C  20.69200 50.16800 25.98200
C  19.40400 50.77000 26.03200
C  22.08800 49.09900 23.88900
C  21.14800 49.94100 27.25500
O  22.14300 49.36600 27.62300
C  20.01800 50.52100 28.22900
C  19.64500 49.59200 29.30900
O  19.17500 48.45400 29.21400
O  19.86200 50.19300 30.53200
C  19.24200 49.53000 31.72400
H  13.67700 53.28400 27.21000
H  14.76500 53.17800 20.80600
H  20.47400 50.49400 21.85600
H  17.23700 51.02700 29.69100
H  15.25400 53.18800 29.10200
H  13.67700 51.77900 29.50700
H  14.91500 50.56600 30.04400
H  14.21600 50.54000 28.42100
H  17.93700 53.79800 28.95500
H  18.95100 52.75300 29.78900
H  17.01000 54.65700 30.77400
H  18.45900 53.98200 31.44200
H  11.60400 55.09700 25.00800
H  11.99500 54.19200 26.29500
H  11.04700 53.35800 24.92200
H  10.49600 54.20600 23.10300
H  10.38300 54.65100 21.48700
H  10.99800 55.85900 22.73600
H  17.24800 53.37600 19.63200
H  18.84000 50.95700 19.83700
H  17.01300 50.67700 18.57100
H  15.89900 51.92900 18.38400
H  15.70800 50.78200 19.78500
H  19.78600 53.60900 20.79400
H  19.56100 53.34100 19.01700
H  21.85300 52.55600 20.50800
H  21.44900 52.45200 18.80100
H  21.01900 51.11600 19.79900
H  22.74700 49.83500 23.42900
H  21.73800 48.37100 23.15800
H  22.63900 48.49700 24.61200
H  20.42400 51.43200 28.66700
H  19.24700 48.44500 31.62000
H  18.19800 49.83700 31.67500
H  19.74000 49.73400 32.67200

