158

Mg -12.96000 15.65800 41.99000
C  -9.89000 14.22800 41.67400
C  -11.61800 18.61700 40.39200
C  -16.05600 17.07000 41.72700
C  -14.29300 12.69600 42.99700
N  -10.91400 16.29700 41.19100
C  -9.79300 15.53600 41.18700
C  -8.59700 16.14800 40.42600
C  -9.18300 17.57800 40.08900
C  -10.71600 17.49300 40.52300
C  -8.44500 18.78100 40.75800
C  -8.43700 15.27800 39.14200
C  -7.01400 14.91100 38.73000
H  -6.34200 15.81700 37.67400
N  -13.73800 17.61700 41.31200
C  -13.00000 18.64800 40.72600
C  -13.90200 19.66700 40.33800
C  -15.22100 19.17100 40.51000
C  -15.05900 17.91700 41.24800
C  -13.47800 20.94000 39.57500
C  -16.54300 19.83000 40.14100
O  -16.60200 20.99600 39.75800
C  -17.90700 19.15300 40.31500
N  -14.89300 14.96400 42.30400
C  -16.01400 15.75400 42.25400
C  -17.25900 14.85100 42.60800
C  -16.69800 13.38900 42.82800
C  -15.17800 13.67100 42.72700
C  -18.10500 15.35500 43.84000
C  -17.31700 12.25500 41.93100
C  -17.63700 10.89700 42.51600
N  -12.33300 13.84200 42.29100
C  -12.94700 12.68700 42.84100
C  -11.97700 11.62100 43.12400
C  -10.73900 12.21800 42.72200
C  -11.01200 13.55200 42.20200
C  -12.19400 10.21700 43.64900
C  -9.35600 12.06600 42.73300
O  -8.73600 11.07100 43.16800
C  -8.74600 13.21200 41.89200
C  -7.60800 13.76000 42.67800
O  -7.60600 14.17500 43.79700
O  -6.51300 13.82300 41.87300
C  -5.27300 14.36900 42.52100
H  -11.27600 19.53800 39.91500
H  -17.12000 17.31300 41.76600
H  -14.70600 11.81600 43.49400
H  -7.68900 16.12800 41.02900
H  -9.12800 17.77300 39.01800
H  -7.39200 18.62200 40.98600
H  -8.79800 18.92200 41.77900
H  -8.63100 19.73700 40.26800
H  -8.76800 15.87500 38.29200
H  -9.10300 14.42600 39.00400
H  -7.01600 13.91400 38.29100
H  -6.32100 14.81700 39.56600
H  -14.27700 21.27900 38.91600
H  -12.65100 20.84200 38.87200
H  -13.18800 21.77500 40.21200
H  -17.82100 18.24800 39.71400
H  -18.61500 19.88100 39.91800
H  -18.11100 19.11900 41.38500
H  -17.90300 14.93700 41.73300
H  -16.96800 13.06200 43.83200
H  -18.64900 14.59900 44.40600
H  -18.91400 16.04600 43.60500
H  -17.31100 15.73900 44.48200
H  -16.89700 12.15000 40.93100
H  -18.25100 12.74100 41.64900
H  -17.28600 10.15100 41.80200
H  -18.68900 10.68500 42.70900
H  -17.07500 10.80400 43.44500
H  -12.56600 10.15300 44.67200
H  -11.28800 9.62400 43.52500
H  -13.00200 9.80600 43.04400
H  -8.40400 12.77700 40.95300
H  -4.64800 13.56400 42.90600
H  -5.47500 15.18600 43.21300
H  -4.69400 14.85400 41.73500
Mg -5.86300 25.76300 26.81100
C  -4.74000 27.33300 29.84300
C  -7.50100 23.59100 28.78300
C  -6.49000 24.00000 24.03000
C  -3.46400 27.67800 25.09200
N  -5.95700 25.46800 29.17800
C  -5.56400 26.25900 30.18700
C  -6.15500 25.86800 31.49500
C  -6.84300 24.51900 31.06900
C  -6.80500 24.50900 29.55300
C  -6.31700 23.21800 31.64900
C  -7.13500 26.91300 32.09800
C  -7.02100 27.30100 33.62000
H  -6.43500 26.19400 34.49800
N  -7.02600 24.10800 26.36900
C  -7.59900 23.30500 27.32300
C  -8.35600 22.33000 26.63200
C  -8.00900 22.40300 25.22300
C  -7.11600 23.54100 25.14500
C  -9.15200 21.21200 27.40900
C  -8.30500 21.49300 24.08500
O  -7.80700 21.62200 22.97800
C  -9.33400 20.41600 24.26800
N  -5.08500 25.88700 24.83100
C  -5.50100 24.98500 23.88500
C  -4.62100 25.19900 22.61000
C  -3.80900 26.49400 22.88300
C  -4.06400 26.62200 24.38100
C  -3.71700 24.03000 22.11600
C  -4.21700 27.63000 21.94900
C  -5.34100 28.66600 22.49100
N  -4.48300 27.27600 27.28400
C  -3.63300 28.00900 26.46500
C  -2.93400 28.96600 27.27700
C  -3.44800 28.82400 28.58700
C  -4.27300 27.76000 28.54300
C  -1.88900 29.82600 26.62000
C  -3.44300 29.33900 29.96400
O  -2.99600 30.33600 30.46500
C  -4.24700 28.34700 30.82700
C  -3.26400 27.83200 31.83700
O  -2.45700 26.93200 31.67200
O  -3.44400 28.47100 33.05000
C  -2.46000 28.22000 34.08600
H  -8.14100 22.92700 29.36700
H  -6.51900 23.31000 23.18400
H  -2.78900 28.22200 24.42900
H  -5.28500 25.55100 32.07000
H  -7.90400 24.60900 31.30300
H  -5.46400 22.81800 31.09900
H  -7.14200 22.50700 31.60500
H  -6.08600 23.44300 32.69000
H  -8.15500 26.64000 31.82800
H  -6.90700 27.84700 31.58400
H  -8.01800 27.63800 33.90600
H  -6.40700 28.19400 33.73300
H  -10.14900 21.13100 26.97500
H  -9.34800 21.42300 28.46000
H  -8.59600 20.27400 27.40300
H  -9.15000 19.75100 25.11200
H  -9.32300 19.84400 23.34000
H  -10.34900 20.81200 24.24500
H  -5.43900 25.32900 21.90100
H  -2.78500 26.21700 22.63100
H  -2.65100 24.11700 22.32600
H  -3.99200 23.75800 21.09700
H  -3.95700 23.16800 22.73800
H  -4.61600 27.23400 21.01500
H  -3.37800 28.29300 21.73800
H  -5.95400 29.04200 21.67100
H  -4.94700 29.48200 23.09600
H  -6.12200 28.24100 23.12100
H  -2.33100 30.31000 25.75000
H  -1.03000 29.19400 26.39200
H  -1.55200 30.59200 27.31800
H  -5.05400 28.91100 31.29400
H  -2.91700 28.23900 35.07600
H  -1.55800 28.80400 33.90100
H  -2.19700 27.16200 34.06800

