158

Mg 2.37100 -1.55600 44.97200
C  5.80600 -1.15000 44.06200
C  1.65500 1.07600 42.82800
C  -0.78900 -2.48900 44.93400
C  3.25800 -4.69900 46.35200
N  3.59000 -0.18000 43.71900
C  5.00600 -0.19600 43.49300
C  5.34300 0.80900 42.43900
C  4.06100 1.71400 42.37000
C  3.03000 0.81400 43.03100
C  4.18400 3.10200 43.08900
C  5.82100 0.12000 41.11200
C  5.02000 -0.18000 39.83000
H  5.17100 0.79500 38.61900
N  0.60900 -0.70000 44.16600
C  0.53100 0.38000 43.34400
C  -0.87700 0.64100 43.06000
C  -1.72000 -0.34500 43.73200
C  -0.64500 -1.24600 44.30500
C  -1.32100 1.83700 42.26000
C  -3.27700 -0.35500 43.69600
O  -3.98100 0.56600 43.21500
C  -3.90100 -1.56400 44.23300
N  1.34900 -3.33300 45.41600
C  0.04000 -3.44800 45.43600
C  -0.58000 -4.76500 45.97000
C  0.77100 -5.45800 46.49800
C  1.86700 -4.48000 46.07200
C  -1.51300 -4.55600 47.13400
C  1.04200 -6.87700 45.92600
C  0.72800 -7.96500 46.92800
N  4.15800 -2.69200 45.30800
C  4.32300 -3.88800 45.95400
C  5.79900 -4.22300 46.01000
C  6.37000 -3.08100 45.33200
C  5.32000 -2.21400 44.94100
C  6.46000 -5.47600 46.55500
C  7.62000 -2.56400 44.90200
O  8.75800 -2.93300 45.11800
C  7.34100 -1.23200 44.12200
C  8.07300 -0.13000 44.87200
O  7.89800 0.21200 45.98700
O  8.78000 0.63500 43.93000
C  9.46600 1.79600 44.56600
H  1.45600 2.06600 42.41400
H  -1.73800 -3.00600 44.78300
H  3.46600 -5.66200 46.82300
H  6.12400 1.37700 42.94500
H  3.79100 1.85400 41.32300
H  5.20400 3.44500 43.26400
H  3.57800 3.19700 43.99000
H  3.66000 3.66200 42.31600
H  6.13600 -0.89900 41.33500
H  6.63900 0.75400 40.76900
H  3.98400 -0.18700 40.16900
H  5.21100 -1.21400 39.53900
H  -1.68700 1.70500 41.24200
H  -0.48900 2.54200 42.25200
H  -2.03200 2.35500 42.90300
H  -3.49400 -2.40900 43.67800
H  -4.98200 -1.41900 44.22300
H  -3.65300 -1.67700 45.28900
H  -1.08900 -5.40500 45.24900
H  0.76800 -5.45200 47.58800
H  -0.98800 -4.34400 48.06500
H  -2.12000 -5.44800 47.29200
H  -2.18800 -3.71700 46.96800
H  2.06100 -6.87100 45.54000
H  0.28500 -6.98200 45.14900
H  0.40800 -7.54000 47.88000
H  1.58100 -8.62600 47.07800
H  -0.05400 -8.60000 46.51300
H  7.21600 -5.83600 45.85800
H  5.67100 -6.21600 46.69200
H  6.92300 -5.33000 47.53000
H  7.86000 -1.35000 43.17100
H  8.87400 2.44600 45.21100
H  9.93500 2.36000 43.75900
H  10.19600 1.51500 45.32500
Mg 47.15500 45.21400 43.53000
C  43.81700 44.24800 43.14200
C  47.97000 41.94000 42.89500
C  50.28600 46.22700 43.13900
C  46.03300 48.57200 43.43800
N  45.94600 43.32600 42.96700
C  44.63800 43.13500 42.90100
C  44.23700 41.72500 42.64400
C  45.55400 40.95800 42.78500
C  46.59000 42.13300 42.90900
C  45.68900 39.91800 43.90800
C  43.43500 41.29600 41.34800
C  43.66100 42.10900 40.04400
H  43.22500 41.61000 38.58100
N  48.91700 44.26300 43.10600
C  49.04400 42.85800 43.00100
C  50.43800 42.53800 42.92600
C  51.20700 43.76100 42.76600
C  50.19300 44.82000 43.03200
C  50.95600 41.09500 42.89300
C  52.70000 43.88400 42.51700
O  53.32800 42.84600 42.22600
C  53.40300 45.15100 42.41700
N  47.98000 47.09100 43.33900
C  49.32900 47.26700 43.28600
C  49.82300 48.73200 43.44000
C  48.44100 49.46300 43.49300
C  47.39500 48.31800 43.39000
C  50.85700 49.00700 44.57000
C  48.22400 50.52600 42.35600
C  49.37000 51.58100 42.21000
N  45.29400 46.24000 43.42400
C  45.01500 47.62600 43.47000
C  43.57400 47.87900 43.40500
C  43.06800 46.54800 43.37500
C  44.11700 45.60400 43.31500
C  42.85000 49.13900 43.53800
C  41.83100 45.71800 43.35300
O  40.64800 46.04100 43.30600
C  42.31700 44.20800 43.32800
C  41.75400 43.48500 44.48300
O  40.80600 42.68200 44.42300
O  42.40900 43.79500 45.65700
C  41.74100 43.42300 46.91700
H  48.27400 40.90000 42.76100
H  51.33600 46.50400 43.25500
H  45.81000 49.64100 43.44400
H  43.54000 41.55600 43.46500
H  45.73300 40.35700 41.89400
H  44.76500 39.98100 44.48200
H  46.49400 40.02500 44.63500
H  45.83000 38.94200 43.44200
H  42.39200 41.32300 41.66100
H  43.54300 40.23700 41.11200
H  44.69500 42.42000 39.89700
H  43.03900 42.98700 40.22000
H  50.41700 40.51700 43.64400
H  51.97700 40.93000 43.23600
H  50.80600 40.59300 41.93700
H  52.96100 45.76800 41.63500
H  54.46600 44.99900 42.23100
H  53.34600 45.70500 43.35400
H  50.28300 48.97800 42.48200
H  48.36900 50.01500 44.43000
H  51.85400 48.70300 44.25100
H  50.54700 48.29900 45.33800
H  50.85100 50.03100 44.94500
H  47.37000 51.10800 42.70300
H  47.86300 50.05800 41.44000
H  49.05100 52.58800 42.47700
H  49.68200 51.56200 41.16600
H  50.25700 51.32800 42.79100
H  42.02800 49.21200 44.25000
H  42.43000 49.26200 42.54000
H  43.61000 49.91500 43.63700
H  41.86600 43.67700 42.49000
H  42.14500 42.47500 47.27100
H  40.69800 43.19600 46.69500
H  41.88300 44.19200 47.67700

