158

Mg 24.50500 -5.74000 45.75700
C  27.00900 -3.49900 44.27600
C  22.28600 -4.41700 43.60100
C  22.69900 -8.48000 46.14000
C  27.30900 -7.34400 47.20900
N  24.70500 -4.26600 44.02600
C  25.76000 -3.43900 43.64200
C  25.32500 -2.42500 42.53100
C  23.75100 -2.61000 42.56400
C  23.57600 -3.91700 43.36400
C  22.98100 -1.39300 43.12000
C  26.00500 -2.76800 41.18800
C  26.32400 -1.46500 40.36900
H  25.78100 -1.37100 38.95000
N  22.63100 -6.28300 45.17000
C  21.81100 -5.52600 44.31600
C  20.55700 -6.23900 44.08100
C  20.72900 -7.52300 44.71900
C  22.09600 -7.48600 45.34300
C  19.41900 -5.71600 43.26300
C  19.70700 -8.65000 44.67700
O  18.59700 -8.52300 44.18500
C  20.05800 -10.08100 44.93500
N  24.99100 -7.66000 46.57200
C  24.01900 -8.55500 46.69300
C  24.48600 -9.79000 47.55900
C  25.92500 -9.36400 48.02000
C  26.13300 -8.04200 47.24100
C  23.56200 -10.22900 48.70000
C  27.07900 -10.39300 47.72900
C  27.75500 -10.90400 48.95800
N  26.68800 -5.40500 45.98700
C  27.64700 -6.15400 46.63200
C  28.92300 -5.40100 46.68700
C  28.63900 -4.34300 45.74500
C  27.30300 -4.47800 45.26900
C  30.30500 -5.74500 47.28500
C  29.31500 -3.32000 45.05100
O  30.50200 -3.04800 45.11600
C  28.22500 -2.61100 44.08700
C  27.98600 -1.17100 44.58900
O  27.88700 -0.79500 45.75300
O  28.06200 -0.31100 43.50600
C  27.99600 1.12000 43.82700
H  21.48600 -3.95500 43.01800
H  22.01300 -9.28700 46.40300
H  28.15800 -7.68700 47.80300
H  25.48600 -1.38400 42.81400
H  23.41700 -2.94200 41.58200
H  23.59500 -0.50200 42.99300
H  22.77300 -1.57400 44.17500
H  22.05000 -1.11800 42.62400
H  25.36600 -3.41500 40.58800
H  26.87300 -3.41200 41.32900
H  27.39500 -1.27100 40.43400
H  25.94000 -0.60800 40.92300
H  19.64900 -6.14600 42.28800
H  19.41100 -4.62700 43.21400
H  18.45300 -6.05100 43.64200
H  19.44300 -10.74900 44.33100
H  19.89400 -10.31900 45.98600
H  21.08600 -10.21700 44.59900
H  24.57700 -10.62900 46.87000
H  26.03300 -9.02900 49.05100
H  22.86600 -11.03100 48.45400
H  22.88200 -9.38700 48.82600
H  24.16000 -10.43500 49.58700
H  27.75100 -9.93900 47.00100
H  26.69700 -11.24500 47.16800
H  27.57200 -10.30000 49.84700
H  28.80900 -10.94900 48.68200
H  27.47500 -11.88600 49.33800
H  30.14100 -5.95100 48.34300
H  30.99300 -4.91800 47.11000
H  30.68900 -6.65700 46.82800
H  28.60800 -2.56200 43.06800
H  27.98300 1.78800 42.96600
H  28.91200 1.45200 44.31600
H  27.13800 1.46500 44.40400
Mg 25.89800 0.82200 29.33800
C  28.01300 0.60100 32.23100
C  23.24500 1.12100 31.43700
C  24.02100 0.95300 26.61100
C  28.70600 -0.02000 27.45800
N  25.72200 0.87200 31.57800
C  26.64900 0.81100 32.55000
C  26.12500 1.05100 33.93200
C  24.56300 1.28700 33.67000
C  24.46600 1.01600 32.11300
C  23.66800 0.37800 34.53900
C  26.78900 2.26000 34.78000
C  27.38500 1.98400 36.15100
H  27.19800 2.97900 37.25300
N  23.93500 0.99900 29.06400
C  22.95300 1.26000 30.02700
C  21.68300 1.25400 29.44100
C  21.86100 1.22600 28.00700
C  23.32800 0.98800 27.85200
C  20.47400 1.45400 30.22900
C  20.84400 1.23700 26.89100
O  21.11400 1.03500 25.67600
C  19.45300 1.50400 27.27800
N  26.25800 0.37300 27.29700
C  25.36600 0.64700 26.31700
C  25.95800 0.38500 24.89100
C  27.48900 0.33800 25.19700
C  27.47000 0.11500 26.73300
C  25.39000 -0.92400 24.30700
C  28.27000 1.58500 24.74200
C  29.44400 1.22900 23.71200
N  27.93800 0.27700 29.68900
C  28.90300 -0.12000 28.82900
C  30.13800 -0.36100 29.59900
C  29.86300 -0.07200 30.95900
C  28.50300 0.36800 30.93300
C  31.51300 -0.74600 29.12300
C  30.41000 0.11800 32.28700
O  31.49800 0.12700 32.71000
C  29.23400 0.48600 33.22800
C  29.07800 -0.66200 34.15700
O  28.62500 -1.80000 33.92900
O  29.46700 -0.29800 35.39200
C  29.16500 -1.34100 36.46000
H  22.35300 1.21500 32.05900
H  23.42700 1.10900 25.70800
H  29.58500 -0.02500 26.81000
H  26.38400 0.19200 34.55100
H  24.30700 2.30700 33.95800
H  23.27400 -0.43000 33.92300
H  22.80700 1.04600 34.56100
H  24.20000 0.00600 35.41400
H  26.17000 3.15700 34.78500
H  27.58600 2.55700 34.09900
H  28.46800 2.01600 36.03300
H  27.22500 0.98600 36.56000
H  20.50000 1.00500 31.22100
H  19.77600 0.79400 29.71300
H  20.05000 2.45800 30.20500
H  19.08700 0.69300 27.90800
H  18.89300 1.48800 26.34300
H  19.40000 2.53900 27.61500
H  25.69500 1.25000 24.28300
H  27.94500 -0.58200 24.83100
H  24.65500 -0.59700 23.57100
H  24.96700 -1.60100 25.04900
H  26.09100 -1.51500 23.71800
H  28.85300 2.06300 25.53000
H  27.58100 2.34200 24.36800
H  30.18300 2.00900 23.89400
H  29.04600 1.42900 22.71700
H  29.85900 0.23700 23.88900
H  32.31000 -0.29000 29.71000
H  31.53500 -0.31900 28.12000
H  31.76200 -1.80500 29.18900
H  29.44500 1.41000 33.76600
H  28.14200 -1.09600 36.74600
H  29.90400 -1.24800 37.25600
H  29.15600 -2.38300 36.14000

