158

Mg 41.49900 7.35300 29.59100
C  43.38100 8.99000 31.96900
C  39.45600 6.22300 32.04500
C  39.71700 5.72100 27.28400
C  44.17800 7.66700 27.36100
N  41.55600 7.52500 31.78300
C  42.25700 8.39700 32.53600
C  41.80300 8.39800 33.97700
C  40.71300 7.29500 34.00000
C  40.56200 6.95200 32.56500
C  41.15200 6.04700 34.83400
C  41.41400 9.78200 34.52700
C  40.68800 9.81600 35.91300
H  41.25900 10.75600 36.92900
N  39.79400 6.20000 29.62000
C  39.03100 5.84500 30.72800
C  37.91700 5.14600 30.31900
C  37.86000 5.27500 28.93100
C  39.13000 5.75000 28.59000
C  37.03700 4.33000 31.26500
C  36.82100 4.84500 27.96800
O  36.96300 4.80200 26.75300
C  35.48500 4.31700 28.49300
N  41.95400 6.67600 27.61300
C  41.02500 6.11900 26.84700
C  41.53900 5.93900 25.39200
C  42.97700 6.62100 25.38700
C  43.06700 6.98100 26.89400
C  41.54900 4.52600 24.79000
C  43.17200 7.83200 24.42600
C  42.61500 9.16300 24.77900
N  43.39000 8.21700 29.60400
C  44.36500 8.28700 28.65100
C  45.45800 9.11200 29.09500
C  45.11300 9.44800 30.42500
C  43.88700 8.80700 30.71000
C  46.63200 9.45200 28.26200
C  45.60800 10.10200 31.58100
O  46.67900 10.72400 31.76800
C  44.47100 9.82500 32.66000
C  45.06600 9.11400 33.76200
O  45.03000 7.92200 33.96700
O  45.76800 10.00200 34.57100
C  46.25900 9.39100 35.79500
H  38.72300 5.92000 32.79600
H  39.20400 5.26900 26.43300
H  44.72100 7.99200 26.47100
H  42.73700 8.19600 34.50100
H  39.72000 7.64000 34.28600
H  41.28200 5.24600 34.10600
H  40.33500 5.75000 35.49100
H  42.09300 6.20200 35.36300
H  40.79800 10.30900 33.79900
H  42.32300 10.38200 34.57100
H  40.55700 8.83700 36.37300
H  39.64300 10.11200 35.82900
H  37.51700 4.38100 32.24200
H  37.00200 3.27200 31.00600
H  36.02100 4.71000 31.37300
H  35.59400 3.34600 28.97700
H  34.87700 4.09100 27.61700
H  34.86200 4.88700 29.18200
H  40.84400 6.48200 24.75100
H  43.74900 5.86200 25.25400
H  41.99100 4.54800 23.79400
H  40.63700 3.92800 24.80100
H  42.20400 3.94000 25.43600
H  42.92500 7.50900 23.41500
H  44.24700 8.00900 24.38900
H  41.83800 8.95000 25.51400
H  42.07700 9.61100 23.94400
H  43.35100 9.85700 25.18600
H  47.20200 8.52500 28.20200
H  47.28200 10.14800 28.79300
H  46.33000 9.89300 27.31200
H  44.05100 10.76400 33.01900
H  47.01700 8.66100 35.51200
H  45.53500 9.08700 36.55100
H  46.87400 10.13800 36.29600
Mg 25.69300 50.57000 27.14600
C  23.63600 51.47100 29.70600
C  28.14700 49.76800 29.46400
C  27.74500 49.98000 24.48900
C  23.17300 51.52300 24.73700
N  25.93700 50.70400 29.40400
C  24.82600 50.95100 30.18000
C  25.20000 50.63800 31.69400
C  26.68400 50.27900 31.58700
C  26.97200 50.21200 30.05000
C  27.72800 51.12800 32.40500
C  24.27400 49.48900 32.34000
C  23.24600 49.93300 33.33600
H  23.33200 49.29000 34.72300
N  27.64300 49.95500 26.95700
C  28.44900 49.71400 28.06600
C  29.75200 49.25900 27.54800
C  29.71800 49.27900 26.08400
C  28.33500 49.76800 25.77500
C  30.89700 48.93800 28.42400
C  30.73900 48.70300 25.10200
O  30.52800 48.83000 23.88400
C  31.90200 47.72700 25.53100
N  25.51100 50.90400 24.96200
C  26.50800 50.48700 24.14700
C  26.07600 50.48600 22.63200
C  24.55200 50.92700 22.72300
C  24.40400 51.14400 24.22300
C  27.05300 51.23800 21.70400
C  23.53800 49.91700 22.15500
C  22.62800 50.35200 20.95000
N  23.89900 51.52000 27.18500
C  22.97600 51.80600 26.15700
C  21.82900 52.44900 26.79100
C  22.02000 52.29800 28.16400
C  23.28400 51.70200 28.34600
C  20.67600 53.18400 26.09600
C  21.44700 52.46300 29.48300
O  20.41900 53.01500 29.88300
C  22.44000 51.94600 30.50300
C  22.71400 53.17200 31.42400
O  23.30200 54.17300 31.06800
O  22.09600 52.94300 32.63600
C  22.22200 54.04900 33.63100
H  28.85800 49.41800 30.21600
H  28.33600 49.68500 23.61900
H  22.35400 51.87100 24.10500
H  25.08200 51.58900 32.21200
H  26.85000 49.27300 31.97300
H  28.14600 51.93400 31.80100
H  28.53200 50.48900 32.76800
H  27.27400 51.69500 33.21700
H  24.94100 48.81200 32.87400
H  23.87600 48.97500 31.46500
H  22.24000 49.85100 32.92500
H  23.50900 50.96700 33.56000
H  31.14000 47.87800 28.48800
H  30.88000 49.33500 29.43900
H  31.58800 49.46300 27.76300
H  32.56100 48.16400 26.28100
H  32.33100 47.29800 24.62600
H  31.43500 46.88200 26.03700
H  26.05200 49.45300 22.28800
H  24.35200 51.90900 22.29500
H  27.42800 50.50200 20.99200
H  27.87100 51.66600 22.28300
H  26.56600 52.04200 21.15200
H  22.91500 49.66800 23.01400
H  23.94000 48.91700 21.99200
H  22.57600 49.50200 20.27000
H  23.02400 51.24400 20.46500
H  21.65300 50.51200 21.41100
H  20.28300 53.88900 26.82800
H  20.03000 52.45500 25.60700
H  21.09800 53.69600 25.23000
H  21.91400 51.12100 30.98500
H  22.71700 54.93900 33.24200
H  22.76900 53.72700 34.51700
H  21.21100 54.35700 33.89600

