158

Mg 54.43400 24.46700 44.55900
C  51.60900 26.34400 43.91700
C  52.66100 21.64300 43.64600
C  57.30500 22.80300 44.21100
C  56.15800 27.47200 45.19900
N  52.39600 24.10000 43.88400
C  51.39300 25.00700 43.65200
C  50.09000 24.30900 43.21500
C  50.38700 22.78400 43.48700
C  51.90400 22.80700 43.75800
C  49.56600 22.24400 44.63100
C  49.75900 24.60700 41.77000
C  48.33500 25.07500 41.45500
H  47.92600 25.37600 40.01400
N  54.92300 22.49300 43.94000
C  54.06700 21.47400 43.65400
C  54.77300 20.28100 43.33100
C  56.11100 20.53400 43.52900
C  56.20000 21.98300 43.90800
C  54.13600 19.01800 42.70600
C  57.25100 19.55600 43.40500
O  57.08800 18.38600 43.06800
C  58.66900 19.92700 43.84100
N  56.44200 25.13400 44.37700
C  57.48200 24.21700 44.33000
C  58.84400 24.93600 44.64200
C  58.47500 26.37800 44.79100
C  56.89400 26.34300 44.83200
C  59.64500 24.47500 45.87700
C  58.99900 27.40400 43.73000
C  59.80800 28.63800 44.34100
N  53.95000 26.45800 44.86000
C  54.71200 27.60200 45.10800
C  53.87900 28.76600 45.19300
C  52.64000 28.31100 44.73900
C  52.75500 26.89900 44.54300
C  54.20300 30.17100 45.61700
C  51.28500 28.76700 44.50400
O  50.74000 29.85600 44.59900
C  50.63600 27.50000 43.85500
C  50.06900 28.00500 42.48800
O  50.79000 28.31400 41.53400
O  48.69700 28.28700 42.58500
C  48.04300 28.92500 41.41400
H  52.13200 20.69000 43.57400
H  58.30700 22.36900 44.18400
H  56.69600 28.36700 45.52000
H  49.27800 24.68600 43.83600
H  50.24400 22.13500 42.62400
H  48.52900 22.58200 44.63400
H  49.93200 22.26800 45.65700
H  49.40400 21.18100 44.45600
H  49.94000 23.73800 41.13700
H  50.42000 25.38900 41.39600
H  48.15500 25.95300 42.07600
H  47.75800 24.19600 41.74200
H  54.36100 18.07700 43.20900
H  54.51300 19.01600 41.68400
H  53.05300 19.12100 42.65000
H  59.06700 20.75500 43.25400
H  59.20000 18.97500 43.81100
H  58.52000 20.14600 44.89800
H  59.46300 24.85000 43.74900
H  58.63000 26.80200 45.78300
H  59.11500 23.77500 46.52400
H  59.97700 25.29500 46.51300
H  60.54800 24.02500 45.46500
H  58.07700 27.78100 43.28800
H  59.57200 26.90700 42.94700
H  60.81800 28.69200 43.93400
H  59.98100 28.63900 45.41700
H  59.26600 29.55900 44.12500
H  53.69300 30.80300 44.89000
H  55.28500 30.22400 45.49900
H  53.86800 30.49400 46.60300
H  49.79200 27.23500 44.49200
H  47.71800 29.95500 41.56100
H  47.12500 28.34700 41.31500
H  48.63900 29.07000 40.51200
Mg -12.34000 17.33200 40.88300
C  -9.16100 15.70000 40.45300
C  -10.81700 20.21000 39.99100
C  -15.41300 18.70700 40.93000
C  -13.82100 14.13900 41.40200
N  -10.19700 17.75600 40.31600
C  -9.08700 17.05600 40.20700
C  -7.87600 17.83300 39.76000
C  -8.37600 19.28200 39.77800
C  -9.90000 19.10400 40.04900
C  -7.77200 20.34400 40.76600
C  -7.25900 17.28700 38.43200
C  -5.75200 17.02100 38.46400
H  -5.31100 15.71900 37.70300
N  -13.00900 19.15000 40.43100
C  -12.24200 20.25700 40.03800
C  -13.10700 21.40300 39.84600
C  -14.40000 20.99600 40.15300
C  -14.34500 19.56600 40.57100
C  -12.52400 22.76000 39.44200
C  -15.61000 21.91100 40.05000
O  -15.43500 23.12000 39.80700
C  -17.06600 21.47700 40.19400
N  -14.38300 16.56300 41.15500
C  -15.43500 17.35100 41.24500
C  -16.72700 16.57100 41.58900
C  -16.22000 15.11600 41.50500
C  -14.70000 15.24600 41.29200
C  -17.50300 16.94700 42.88200
C  -16.97900 14.03400 40.65400
C  -17.74800 12.89600 41.30600
N  -11.73900 15.37200 40.95500
C  -12.40300 14.19200 41.24600
C  -11.50500 13.08000 41.17400
C  -10.27000 13.64100 40.87100
C  -10.42300 15.02300 40.79500
C  -11.90800 11.59300 41.36200
C  -8.88400 13.27700 40.60000
O  -8.36400 12.14500 40.56500
C  -8.11400 14.56100 40.30400
C  -6.96900 14.77800 41.20500
O  -7.01600 15.49200 42.25600
O  -5.87200 14.04700 40.83700
C  -4.63600 14.47600 41.56300
H  -10.47600 21.23400 39.82100
H  -16.40000 19.17000 40.98800
H  -14.33800 13.17900 41.34500
H  -7.16500 17.69300 40.57500
H  -8.29200 19.69700 38.77300
H  -6.88100 20.08200 41.33600
H  -8.63300 20.66700 41.35200
H  -7.58200 21.23400 40.16600
H  -7.32100 18.00300 37.61300
H  -7.87300 16.46100 38.07400
H  -5.34500 16.97200 39.47400
H  -5.29100 17.91500 38.04600
H  -11.90800 22.79000 38.54300
H  -11.76700 23.00000 40.18800
H  -13.15700 23.64700 39.46000
H  -17.25300 20.55100 39.64900
H  -17.76900 22.18700 39.75900
H  -17.27900 21.38300 41.25800
H  -17.30800 16.88900 40.72300
H  -16.13900 14.81800 42.55000
H  -17.41400 16.25300 43.71900
H  -18.58500 17.00800 42.76700
H  -17.12800 17.88000 43.30400
H  -16.39300 13.63400 39.82700
H  -17.82200 14.55500 40.20000
H  -17.10000 12.03800 41.12500
H  -18.61100 12.56100 40.73100
H  -18.04600 12.87900 42.35400
H  -12.96100 11.51400 41.63500
H  -11.31300 10.98600 42.04300
H  -11.87300 11.07400 40.40400
H  -7.75400 14.45900 39.28000
H  -4.56900 15.56200 41.63700
H  -3.81700 14.11400 40.94300
H  -4.53400 14.01700 42.54600

