158

Mg 30.73900 57.64400 40.48400
C  27.61500 56.11500 39.68000
C  32.32400 54.92900 39.19200
C  33.40200 59.41200 40.53000
C  28.69100 60.62100 40.97900
N  30.06300 55.69500 39.79100
C  28.78700 55.36100 39.44300
C  28.70200 54.04200 38.69400
C  30.18200 53.42900 39.01500
C  30.91000 54.75400 39.36000
C  30.36700 52.57900 40.24000
C  28.53400 54.29300 37.15500
C  28.22600 53.07100 36.28400
H  27.54100 53.27700 34.90900
N  32.69300 57.18800 39.92500
C  33.20100 56.07400 39.37900
C  34.63900 56.27800 39.15900
C  34.98700 57.55300 39.66100
C  33.68100 58.10300 39.97800
C  35.47900 55.19000 38.59700
C  36.41600 58.06500 39.82400
O  37.35300 57.32400 39.64400
C  36.70400 59.50100 40.27700
N  31.03200 59.74500 40.76400
C  32.28000 60.15800 40.77600
C  32.33900 61.59600 41.14800
C  30.85600 62.04300 41.23700
C  30.12200 60.75800 40.99200
C  33.20000 61.93700 42.32800
C  30.58700 63.13100 40.19000
C  30.81900 64.64200 40.68900
N  28.51700 58.18600 40.58600
C  27.94000 59.44300 40.73200
C  26.47600 59.36800 40.42200
C  26.29100 58.04700 39.99400
C  27.57500 57.38800 40.11300
C  25.42100 60.46800 40.52100
C  25.34200 57.02700 39.44900
O  24.18000 57.10700 39.23000
C  26.17500 55.76300 39.38800
C  25.67200 54.71300 40.30600
O  25.73200 54.77500 41.48100
O  25.23400 53.58800 39.56300
C  24.60900 52.54100 40.40400
H  32.89800 54.05100 38.88800
H  34.33100 59.97500 40.64000
H  28.12800 61.53000 41.20500
H  27.84300 53.44900 39.00600
H  30.67700 52.88200 38.21300
H  31.17000 52.76900 40.95200
H  30.63400 51.57300 39.91800
H  29.44300 52.52900 40.81600
H  29.55600 54.48100 36.82500
H  27.86400 55.13400 36.97700
H  27.55600 52.39200 36.81200
H  29.10300 52.46500 36.05900
H  36.22800 55.50000 37.86900
H  34.85900 54.46400 38.07100
H  35.94900 54.70900 39.45500
H  36.10900 60.23500 39.73300
H  37.76900 59.64400 40.09100
H  36.47800 59.52400 41.34300
H  32.80300 62.04600 40.26900
H  30.71300 62.28700 42.29000
H  33.78900 61.11100 42.72700
H  32.55500 62.35700 43.10000
H  33.96500 62.68800 42.13200
H  29.51200 62.98900 40.07500
H  31.02400 62.91000 39.21600
H  31.33900 64.79000 41.63600
H  29.78600 64.98000 40.77400
H  31.35500 65.26500 39.97300
H  25.06800 60.73800 41.51600
H  24.59300 60.21500 39.85800
H  25.93300 61.35200 40.14200
H  26.11700 55.31100 38.39800
H  25.47500 52.05900 40.85800
H  24.12000 51.79000 39.78300
H  23.86100 52.85300 41.13200
Mg 26.67700 50.04300 26.92500
C  24.62300 51.33500 29.63200
C  28.94100 49.05300 29.40600
C  28.69500 49.22800 24.53700
C  24.38100 51.53700 24.70200
N  26.73700 50.18200 29.27100
C  25.68200 50.66800 30.11700
C  26.05200 50.43600 31.58300
C  27.49100 49.71700 31.47200
C  27.76900 49.62900 29.93200
C  28.59900 50.48300 32.20500
C  25.00300 49.58700 32.33800
C  24.37300 50.26300 33.66100
H  24.59200 49.48600 34.94700
N  28.48200 49.22800 26.95100
C  29.27400 48.84500 28.02200
C  30.53000 48.23400 27.63000
C  30.51800 48.28800 26.13900
C  29.17200 48.88100 25.80100
C  31.51900 47.57800 28.61700
C  31.52700 47.86400 25.18700
O  31.33200 48.06900 24.01800
C  32.81900 47.27200 25.56100
N  26.52000 50.36400 24.93200
C  27.51800 49.88200 24.12700
C  27.13900 49.99100 22.61700
C  25.79400 50.76000 22.71700
C  25.46900 50.85200 24.21000
C  28.17700 50.81600 21.73700
C  24.58400 50.03600 21.96900
C  24.05200 48.63500 22.34000
N  24.88400 51.16300 27.08000
C  24.09700 51.74300 26.08100
C  22.94500 52.54400 26.62600
C  23.17000 52.37300 28.05200
C  24.34500 51.56600 28.24500
C  21.82200 53.24000 25.80800
C  22.60100 52.67900 29.36200
O  21.57800 53.26100 29.67500
C  23.52800 52.04100 30.44400
C  23.93600 53.16300 31.33600
O  24.73400 54.04000 31.09100
O  23.20500 53.11500 32.53200
C  23.66000 54.00200 33.60100
H  29.54000 48.57700 30.18500
H  29.20500 48.87700 23.63800
H  23.70800 52.07600 24.03200
H  26.17300 51.39600 32.08600
H  27.62000 48.72500 31.90300
H  29.54900 50.00000 31.97700
H  28.56200 50.65100 33.28100
H  28.65700 51.43400 31.67700
H  25.47200 48.64200 32.61300
H  24.15500 49.35300 31.69300
H  23.31400 50.42300 33.46100
H  24.77500 51.27100 33.75900
H  31.38500 47.88700 29.65300
H  32.55400 47.86300 28.42800
H  31.37200 46.49800 28.60200
H  33.29200 47.70300 26.44400
H  33.53600 47.35400 24.74400
H  32.60500 46.21400 25.71500
H  26.89900 49.03300 22.15600
H  25.81600 51.77400 22.31500
H  29.07800 51.05400 22.30100
H  27.79900 51.76800 21.36500
H  28.34900 50.18700 20.86300
H  24.89700 49.95500 20.92800
H  23.84300 50.83600 21.98600
H  24.61300 48.22400 23.17900
H  24.20300 48.03300 21.44400
H  23.00100 48.74900 22.60400
H  21.38700 52.67100 24.98500
H  22.05500 54.22000 25.39100
H  21.04700 53.37400 26.56200
H  22.94900 51.30200 30.99800
H  22.88600 54.12900 34.35800
H  23.87900 54.96300 33.13500
H  24.53700 53.64200 34.13900

