158

Mg 15.89200 -1.73400 28.25200
C  15.03400 0.23000 31.04800
C  17.95300 -3.54800 30.39100
C  17.20900 -3.26800 25.66200
C  14.19100 0.47100 26.24600
N  16.40000 -1.66500 30.46900
C  15.80500 -0.82300 31.39400
C  16.35100 -1.09100 32.81400
C  17.42300 -2.23800 32.49900
C  17.22900 -2.52200 31.03000
C  18.88300 -2.08500 33.03100
C  15.21300 -1.50800 33.71100
C  15.10500 -1.03800 35.15900
H  16.46200 -0.72700 35.77400
N  17.29600 -3.27700 28.03900
C  17.99200 -3.93200 29.03000
C  18.76300 -4.99500 28.41000
C  18.65500 -4.88000 27.00600
C  17.71600 -3.75500 26.82300
C  19.60700 -6.03700 29.22100
C  19.25500 -5.66400 25.87300
O  19.04600 -5.47600 24.66900
C  20.28100 -6.81300 26.13500
N  15.73600 -1.39300 26.20600
C  16.31300 -2.20400 25.29700
C  15.98400 -1.82800 23.81000
C  14.77800 -0.86300 24.05100
C  14.89100 -0.56300 25.58400
C  17.12000 -1.34900 22.84500
C  13.38900 -1.53600 23.74300
C  12.55900 -0.92400 22.54700
N  14.94800 0.02800 28.52300
C  14.20000 0.76300 27.62200
C  13.64800 1.90300 28.27000
C  13.90500 1.70800 29.61800
C  14.74200 0.54400 29.75900
C  12.85400 2.98700 27.65000
C  13.76400 2.31500 30.96600
O  13.15500 3.34100 31.29700
C  14.52800 1.40500 31.95400
C  15.51300 2.19600 32.61100
O  16.64600 2.31700 32.34400
O  14.87400 2.85100 33.68500
C  15.68000 3.88500 34.38700
H  18.48500 -4.20000 31.08700
H  17.51400 -3.75600 24.73400
H  13.76200 1.17900 25.53400
H  16.82200 -0.21000 33.25000
H  17.17600 -3.14900 33.04400
H  19.59900 -1.96400 32.21900
H  19.03400 -2.90600 33.73400
H  18.84900 -1.24100 33.72000
H  15.24000 -2.59700 33.72200
H  14.24200 -1.29600 33.26200
H  14.63800 -1.73100 35.85800
H  14.55900 -0.09600 35.12200
H  19.50800 -5.89800 30.29700
H  20.60800 -5.80800 28.85500
H  19.45000 -7.10800 29.09500
H  21.11800 -6.33000 26.63900
H  20.59800 -7.19500 25.16500
H  19.81700 -7.63900 26.67500
H  15.55600 -2.71500 23.34300
H  14.79600 0.00000 23.38700
H  17.11800 -0.28600 22.60200
H  17.06100 -1.94900 21.93700
H  18.07800 -1.54400 23.32700
H  12.73500 -1.48000 24.61300
H  13.55600 -2.59300 23.53600
H  11.78900 -0.23800 22.90000
H  12.17400 -1.68000 21.86400
H  13.25500 -0.39300 21.89800
H  13.31500 3.49900 26.80600
H  12.75200 3.82300 28.34200
H  11.90500 2.56900 27.31700
H  13.89400 0.94200 32.71100
H  15.11000 4.74100 34.74900
H  16.59400 4.24800 33.91700
H  16.01200 3.32100 35.25800
Mg 47.12700 25.18100 28.12300
C  48.27000 27.47900 30.85100
C  46.29000 23.01800 30.51500
C  46.74000 23.01600 25.61500
C  48.55800 27.55000 25.96000
N  47.29500 25.23100 30.42500
C  47.73900 26.24100 31.30500
C  47.41400 25.88200 32.78000
C  47.11200 24.34300 32.63400
C  46.81200 24.21300 31.15300
C  48.15700 23.24200 33.08600
C  46.24000 26.70600 33.35400
C  46.51000 27.41000 34.64800
H  45.35600 27.58600 35.60600
N  46.56100 23.32200 28.05800
C  46.24900 22.54500 29.15300
C  45.83600 21.23200 28.68400
C  45.92400 21.23000 27.30400
C  46.41200 22.55000 26.90200
C  45.35600 20.15300 29.58300
C  45.60300 20.04900 26.27300
O  45.79700 20.17400 25.08100
C  45.20000 18.65800 26.81600
N  47.66200 25.24900 26.07600
C  47.24500 24.27600 25.22900
C  47.33600 24.74400 23.80100
C  47.79900 26.22900 23.91800
C  48.01600 26.38500 25.39800
C  48.42500 23.92300 23.03700
C  46.72400 27.26800 23.51200
C  46.67800 27.70000 22.06700
N  48.16600 27.09800 28.26000
C  48.69900 27.85400 27.32200
C  49.36000 28.93100 27.94600
C  49.17300 28.95300 29.29200
C  48.39500 27.77500 29.48000
C  50.15400 29.99900 27.13500
C  49.50200 29.59900 30.54100
O  50.14100 30.62500 30.79200
C  48.77000 28.73100 31.67800
C  49.76600 28.44800 32.71200
O  50.52300 27.51700 32.72800
O  49.74100 29.44500 33.70800
C  50.58100 29.21000 34.88400
H  45.98200 22.36100 31.33000
H  46.43200 22.53500 24.68400
H  48.94000 28.15800 25.13800
H  48.33300 25.99800 33.35500
H  46.22000 24.07400 33.20000
H  48.92300 23.60600 33.77100
H  48.69300 22.81300 32.24000
H  47.60200 22.42000 33.53900
H  45.33500 26.11200 33.47400
H  46.10300 27.46300 32.58100
H  46.75100 28.47000 34.55800
H  47.23900 26.80700 35.18900
H  44.29700 19.98000 29.39100
H  45.50300 20.47200 30.61500
H  45.79200 19.18200 29.34800
H  44.33400 18.65800 27.47700
H  46.15000 18.43000 27.30000
H  45.02400 18.02200 25.94800
H  46.40500 24.61500 23.24900
H  48.71500 26.59400 23.45400
H  48.04900 22.99600 22.60400
H  49.05600 23.48600 23.81100
H  49.12600 24.42800 22.37200
H  46.66000 28.09300 24.22200
H  45.77700 26.73200 23.58200
H  47.44700 27.13700 21.53900
H  46.76200 28.78400 21.99500
H  45.72000 27.52200 21.57900
H  49.91300 30.07300 26.07400
H  51.19800 29.68800 27.16700
H  49.93600 30.94100 27.63900
H  47.92100 29.24900 32.12300
H  50.39500 30.12600 35.44600
H  51.64600 29.04200 34.72800
H  50.16500 28.42900 35.52000

