158

Mg 6.00500 53.57500 41.36700
C  5.42500 50.12200 40.79200
C  8.97000 53.37600 39.82000
C  6.10500 56.94500 41.39700
C  2.73500 53.77200 42.76100
N  6.88800 51.92400 40.25200
C  6.57600 50.58900 40.18600
C  7.63100 49.90800 39.31200
C  8.85000 50.85300 39.36500
C  8.16700 52.22400 39.83300
C  10.00300 50.35600 40.26800
C  6.95800 49.77100 37.89600
C  7.30100 48.49000 37.15800
H  6.37600 47.83900 36.17400
N  7.37600 54.97300 40.82600
C  8.57500 54.71000 40.21900
C  9.35600 55.85700 40.06800
C  8.57300 56.93400 40.47600
C  7.25500 56.34600 40.89600
C  10.85600 55.72100 39.59800
C  9.06900 58.40100 40.44100
O  10.12200 58.70800 39.86600
C  8.21100 59.56700 40.91000
N  4.60500 55.14900 41.87100
C  4.89200 56.47100 41.75200
C  3.71000 57.41100 42.12100
C  2.73200 56.34300 42.66400
C  3.34700 55.00900 42.40700
C  4.10400 58.52400 43.17800
C  1.31500 56.57800 42.15100
C  0.61100 57.86600 42.65900
N  4.41100 52.27400 41.75100
C  3.18900 52.46200 42.39100
C  2.59600 51.18200 42.62900
C  3.37800 50.18900 41.92700
C  4.52600 50.88800 41.51500
C  1.30600 50.97400 43.49600
C  3.58700 48.83700 41.69200
O  2.81200 47.91500 41.91400
C  4.91700 48.69300 40.96500
C  4.93800 47.71800 39.87300
O  4.57300 47.89800 38.71900
O  5.33500 46.51000 40.29500
C  5.06300 45.30300 39.47700
H  9.93100 53.24600 39.31900
H  6.29300 58.01800 41.47800
H  1.79500 53.87900 43.30700
H  7.75100 48.91800 39.75300
H  9.28500 51.01600 38.37900
H  9.73800 49.45000 40.81400
H  10.31400 51.12300 40.97700
H  10.78700 50.07900 39.56200
H  7.25200 50.54300 37.18500
H  5.87200 49.86200 37.93600
H  7.48000 47.83100 38.00700
H  8.25400 48.60300 36.64300
H  11.51800 56.52100 39.93000
H  10.95100 55.57000 38.52200
H  11.25700 54.80700 40.03600
H  8.77600 60.49300 40.80800
H  7.84300 59.40900 41.92400
H  7.38800 59.45400 40.20500
H  3.39700 57.86500 41.18100
H  2.71500 56.50900 43.74100
H  5.06900 58.28700 43.62600
H  3.38100 58.63700 43.98600
H  4.29200 59.43100 42.60400
H  0.62500 55.79200 42.45900
H  1.33900 56.55500 41.06200
H  -0.29500 57.68800 43.23900
H  0.41800 58.50000 41.79300
H  1.30800 58.39100 43.31200
H  1.21200 49.88800 43.51700
H  0.48400 51.46600 42.97600
H  1.52000 51.28400 44.51900
H  5.62400 48.29700 41.69300
H  4.01000 45.05300 39.34700
H  5.51900 44.44300 39.96600
H  5.53900 45.37600 38.49900
Mg 1.39600 42.11900 25.72100
C  2.92900 42.38900 28.91800
C  -1.30800 40.64700 27.24000
C  0.10800 41.88200 22.80300
C  4.48000 43.23800 24.41300
N  0.86900 41.46700 27.93300
C  1.55800 41.96100 28.99200
C  0.69800 41.67600 30.27400
C  -0.59100 40.99000 29.77700
C  -0.35100 40.99800 28.24800
C  -0.98600 39.70600 30.51100
C  0.51000 42.97000 31.07800
C  0.82300 42.88800 32.60400
H  0.69100 41.53800 33.29100
N  -0.18200 41.15400 25.08200
C  -1.20300 40.66800 25.81400
C  -2.29700 40.26000 24.97000
C  -1.98700 40.76600 23.68200
C  -0.64000 41.29700 23.79900
C  -3.57200 39.59500 25.39600
C  -2.89600 40.83000 22.44900
O  -2.47600 41.32100 21.38100
C  -4.29000 40.49300 22.45000
N  2.25500 42.48000 23.92200
C  1.47600 42.28200 22.78500
C  2.13900 42.84300 21.54500
C  3.43100 43.47700 22.09400
C  3.40200 43.08300 23.54300
C  2.35000 41.87000 20.36400
C  3.48400 45.06500 22.02900
C  4.15600 45.54500 20.76100
N  3.31100 42.70900 26.45800
C  4.45100 43.11100 25.80300
C  5.48800 43.32800 26.76300
C  4.96000 43.00400 27.94200
C  3.63500 42.62700 27.74500
C  7.02400 43.78400 26.55500
C  5.30300 43.01600 29.32600
O  6.28000 43.32500 29.92300
C  3.92900 42.63600 30.13600
C  4.29800 41.41900 30.93000
O  4.37800 40.31600 30.44900
O  4.33500 41.73700 32.24900
C  4.44000 40.60100 33.17400
H  -2.20300 40.31200 27.76700
H  -0.31200 42.04800 21.80900
H  5.41400 43.62800 24.00300
H  1.33000 40.95000 30.78600
H  -1.44900 41.64100 29.94600
H  -1.04600 38.89300 29.78700
H  -1.96600 39.76900 30.98300
H  -0.29600 39.53500 31.33800
H  -0.54400 43.24800 31.06700
H  1.17900 43.74700 30.70800
H  0.01600 43.56100 32.89500
H  1.74500 43.40800 32.86400
H  -4.40900 40.29200 25.35400
H  -3.40700 39.20300 26.40000
H  -3.70200 38.73800 24.73500
H  -4.52100 39.52700 22.90000
H  -4.62800 40.44100 21.41500
H  -4.90300 41.18100 23.03200
H  1.50700 43.67900 21.24600
H  4.33600 43.14600 21.58500
H  1.37700 41.75000 19.88800
H  2.62700 40.87200 20.70400
H  2.96100 42.24700 19.54400
H  3.85300 45.38100 23.00500
H  2.42700 45.33100 22.00400
H  4.42000 44.68400 20.14800
H  5.08500 46.09800 20.90300
H  3.44600 46.20100 20.25700
H  7.58100 42.90000 26.86600
H  7.22700 44.49500 27.35600
H  7.27200 44.14100 25.55500
H  3.64100 43.40200 30.85600
H  5.49800 40.40700 33.34900
H  4.06600 39.70100 32.68600
H  3.85400 40.76000 34.07900

