158

Mg 8.83100 3.23900 27.44600
C  10.13900 1.79300 30.34500
C  6.61900 5.00400 29.46000
C  7.28200 4.48700 24.71600
C  10.54300 0.83100 25.52200
N  8.38600 3.25400 29.64200
C  9.19500 2.77400 30.62800
C  8.81800 3.25400 32.03800
C  7.72500 4.31200 31.67600
C  7.57000 4.21100 30.11000
C  6.39600 3.96600 32.32800
C  10.01800 3.84300 32.82200
C  9.59900 4.61200 34.01300
H  10.05400 4.15300 35.37200
N  7.23000 4.58400 27.20700
C  6.40000 5.19000 28.10900
C  5.51700 6.09800 27.49900
C  5.83300 6.06800 26.10000
C  6.86900 5.01300 25.97900
C  4.55700 7.03000 28.24300
C  5.27800 6.90300 24.97700
O  5.40100 6.71200 23.77300
C  4.52200 8.14300 25.30600
N  8.97700 2.72800 25.34000
C  8.26300 3.42800 24.41000
C  8.74000 2.95700 23.00000
C  9.72900 1.79000 23.29900
C  9.75900 1.80600 24.79600
C  7.53400 2.63000 22.04900
C  11.04300 1.76400 22.51600
C  11.15800 0.65700 21.39900
N  10.19200 1.62400 27.77200
C  10.76300 0.75100 26.91800
C  11.46400 -0.27600 27.63200
C  11.22700 0.11700 28.94600
C  10.50600 1.27800 29.01900
C  12.16400 -1.44300 27.18300
C  11.54100 -0.23100 30.35500
O  12.09000 -1.23800 30.73900
C  10.97100 0.94900 31.26000
C  10.10700 0.26300 32.27400
O  9.11000 -0.45100 32.04800
O  10.58000 0.40000 33.55300
C  9.75900 -0.07500 34.72100
H  6.04300 5.72800 30.03900
H  6.89100 4.98400 23.82600
H  11.17300 0.13500 24.96500
H  8.37900 2.47900 32.66700
H  8.02300 5.33600 31.90400
H  5.95700 3.01200 32.03500
H  5.63800 4.64600 31.93900
H  6.50600 3.99600 33.41200
H  10.63500 4.37400 32.09600
H  10.60400 3.03700 33.26300
H  8.51000 4.59600 33.97200
H  9.84500 5.67000 33.92100
H  3.60100 7.08900 27.72300
H  5.04800 7.97900 28.46000
H  4.20400 6.60000 29.18000
H  3.46500 7.93200 25.47000
H  4.74400 8.85200 24.50800
H  4.92000 8.55100 26.23500
H  9.20100 3.85000 22.57900
H  9.27400 0.81400 23.12700
H  6.63300 2.83000 22.62800
H  7.64200 1.59700 21.71700
H  7.47500 3.32900 21.21600
H  11.86900 1.67500 23.22100
H  11.23300 2.74000 22.07000
H  10.78700 0.94500 20.41600
H  10.61400 -0.26300 21.61300
H  12.22400 0.46900 21.26400
H  12.80500 -1.10400 26.36900
H  11.56500 -2.31700 26.92900
H  12.84500 -1.69000 27.99700
H  11.74700 1.58700 31.68200
H  10.46600 -0.05200 35.55000
H  9.61500 -1.14700 34.58900
H  8.79200 0.41800 34.81900
Mg 48.17300 16.72500 28.92000
C  46.23100 16.39900 31.93400
C  50.29000 18.52800 30.63800
C  49.48500 17.48700 26.08500
C  45.41400 15.27300 27.19800
N  48.24200 17.38900 31.00700
C  47.45400 17.03500 32.07700
C  48.01200 17.56000 33.44800
C  49.11300 18.56700 32.84900
C  49.19800 18.16700 31.40000
C  48.83600 20.07200 32.97600
C  48.62700 16.47300 34.38000
C  48.16200 16.48600 35.89800
H  47.76000 17.84700 36.54200
N  49.73900 17.71800 28.44600
C  50.59400 18.32000 29.29500
C  51.77200 18.75900 28.63300
C  51.56900 18.49900 27.30000
C  50.22200 17.86300 27.22600
C  53.07400 19.11400 29.35400
C  52.49900 18.84100 26.12400
O  52.25400 18.51400 25.00800
C  53.81700 19.44600 26.26400
N  47.48200 16.53700 26.90400
C  48.27500 16.86100 25.86500
C  47.72600 16.46800 24.46000
C  46.47500 15.60800 24.92200
C  46.46800 15.80300 26.42900
C  47.34900 17.62900 23.70000
C  46.47200 14.10500 24.51500
C  45.85800 13.66600 23.13200
N  46.20200 15.91500 29.41900
C  45.20700 15.42300 28.56800
C  44.08300 15.01300 29.42700
C  44.46800 15.29400 30.70400
C  45.73100 15.82300 30.68800
C  42.70900 14.53400 28.97600
C  44.05100 15.27100 32.12600
O  43.03700 14.88400 32.64300
C  45.14600 15.97100 32.92300
C  44.49100 17.04500 33.69300
O  44.24200 18.11200 33.19000
O  44.01000 16.56600 34.95600
C  43.16200 17.53600 35.73800
H  51.00700 19.12500 31.20600
H  50.04200 17.73100 25.17700
H  44.56500 14.72000 26.79000
H  47.22700 18.16400 33.90200
H  50.09100 18.50700 33.32600
H  49.59200 20.58800 33.56900
H  47.87800 20.20900 33.47700
H  48.85700 20.46500 31.96000
H  49.71200 16.57500 34.35700
H  48.38300 15.52200 33.90700
H  48.91500 16.02300 36.53700
H  47.27400 15.85800 35.96800
H  53.87200 18.43200 29.06000
H  52.98800 19.01900 30.43600
H  53.37700 20.14100 29.14500
H  53.71700 20.25500 26.98700
H  54.20000 19.67100 25.26800
H  54.61400 18.77600 26.58700
H  48.60800 15.97300 24.05400
H  45.56000 16.06700 24.54800
H  46.34100 17.56900 23.29100
H  48.03600 17.67800 22.85400
H  47.47900 18.55300 24.26400
H  46.16900 13.59500 25.42900
H  47.54500 13.94400 24.41800
H  46.50700 13.08300 22.47900
H  45.35100 14.51000 22.66600
H  45.06400 12.93400 23.28000
H  42.25700 15.21100 28.25100
H  42.06500 14.40700 29.84700
H  42.75400 13.54000 28.53200
H  45.81600 15.34300 33.51100
H  42.12400 17.37400 35.44600
H  43.45700 18.56900 35.55500
H  43.14700 17.28500 36.79900

