158

Mg 48.20700 34.70300 27.37100
C  45.99200 33.38100 29.76900
C  48.35600 37.40400 29.27200
C  49.44500 36.29900 24.78700
C  47.24900 31.89700 25.21500
N  47.46800 35.17800 29.44600
C  46.60500 34.53000 30.16100
C  46.69000 35.08800 31.59700
C  46.96300 36.55900 31.27400
C  47.57800 36.44400 29.84100
C  45.78000 37.65100 31.36100
C  47.83600 34.49700 32.40600
C  48.39500 35.10100 33.71100
H  47.38500 35.65900 34.68300
N  49.05700 36.55400 27.14200
C  49.10100 37.53400 28.07000
C  49.96400 38.63100 27.59500
C  50.09300 38.41600 26.22400
C  49.55100 37.05100 25.98700
C  50.33500 39.87700 28.43500
C  50.72700 39.29000 25.13600
O  50.84900 38.81900 23.98500
C  51.34300 40.67900 25.49400
N  48.10400 34.22800 25.26300
C  48.89200 35.08100 24.46800
C  49.27400 34.36100 23.11600
C  48.58400 32.93800 23.29300
C  47.99700 32.94300 24.67600
C  48.95000 35.11900 21.78400
C  49.44000 31.67400 23.01800
C  50.74900 31.59500 23.86600
N  46.97500 32.91800 27.45900
C  46.63500 31.91700 26.52800
C  45.84300 30.93000 27.14500
C  45.43600 31.50400 28.37100
C  46.20500 32.73500 28.51800
C  45.27600 29.71100 26.39100
C  44.72600 31.25900 29.61700
O  44.01700 30.31800 29.99000
C  44.95900 32.56100 30.53900
C  45.04600 32.06400 31.92200
O  45.80700 31.18700 32.39500
O  43.90000 32.49500 32.60000
C  43.78800 31.98300 34.03000
H  48.37100 38.32300 29.86100
H  49.90200 36.77800 23.91800
H  47.19300 31.00800 24.58400
H  45.78200 34.90900 32.17200
H  47.78800 37.04600 31.79400
H  44.86600 37.14500 31.67100
H  45.69700 38.16400 30.40300
H  46.01200 38.41000 32.10900
H  48.64400 34.18000 31.74700
H  47.44000 33.53300 32.72500
H  49.19300 35.82400 33.54600
H  48.83700 34.27400 34.26700
H  51.41100 40.04400 28.47300
H  50.03200 39.69000 29.46500
H  49.79000 40.72600 28.02300
H  51.59200 41.18100 24.55900
H  52.23200 40.49300 26.09700
H  50.54200 41.22700 25.98900
H  50.35800 34.25300 23.06900
H  47.73300 32.89600 22.61400
H  48.44500 36.02500 22.12100
H  48.31200 34.60000 21.06900
H  49.90400 35.38800 21.32900
H  49.62900 31.55500 21.95100
H  48.85600 30.81300 23.33900
H  50.56000 30.73700 24.51100
H  50.76500 32.48700 24.49200
H  51.73000 31.31800 23.48100
H  46.02400 28.94400 26.19000
H  44.95200 30.02900 25.40000
H  44.43500 29.31400 26.95900
H  44.02700 33.12000 30.62100
H  42.99700 31.31300 34.36700
H  43.73800 32.85200 34.68500
H  44.65000 31.38200 34.32100
Mg 41.73900 41.11300 26.74600
C  40.91200 43.61200 29.09200
C  42.67800 39.05400 29.27700
C  42.78700 38.83400 24.33900
C  41.22500 43.43500 24.21700
N  41.89000 41.41700 28.90700
C  41.28100 42.44100 29.69100
C  41.34200 42.09900 31.18100
C  41.95100 40.66600 31.15200
C  42.25000 40.38700 29.71500
C  43.13700 40.45200 32.11300
C  39.84000 42.16000 31.79900
C  39.91200 41.65300 33.27200
H  39.21300 42.49800 34.34900
N  42.60100 39.20100 26.77500
C  42.87200 38.55400 27.94000
C  43.37200 37.25800 27.62100
C  43.53800 37.20800 26.15300
C  42.93600 38.44300 25.66700
C  43.78400 36.18600 28.63400
C  44.15200 36.14000 25.23800
O  44.27800 36.29800 24.03000
C  44.75800 34.95100 25.83100
N  41.93200 41.17100 24.68600
C  42.37000 40.08900 23.86600
C  42.44900 40.46700 22.31800
C  41.53700 41.79300 22.33400
C  41.56100 42.17700 23.85900
C  43.91100 40.55100 21.70100
C  40.24300 41.65300 21.57400
C  39.25000 40.63600 22.19500
N  41.12400 43.14200 26.59400
C  41.08700 43.97400 25.55500
C  40.73600 45.33600 25.96500
C  40.57100 45.20400 27.31800
C  40.89000 43.85900 27.72700
C  40.60400 46.60500 25.13700
C  40.22900 45.86300 28.60900
O  40.00200 47.09500 28.68000
C  40.22400 44.81000 29.69800
C  40.83400 45.46800 30.86600
O  41.92700 46.06100 30.87600
O  39.97000 45.58800 31.93900
C  40.23300 46.41800 33.11200
H  42.91700 38.35500 30.08200
H  43.17800 38.21100 23.53200
H  40.93400 44.19000 23.48300
H  41.97300 42.76200 31.77300
H  41.19900 39.97200 31.52800
H  43.30800 41.40300 32.61700
H  43.96300 40.05200 31.52500
H  42.71000 39.69500 32.77100
H  39.14200 41.53000 31.24900
H  39.48600 43.18900 31.74300
H  40.92800 41.35000 33.52400
H  39.32000 40.73800 33.24500
H  44.83900 36.12000 28.90000
H  43.41700 35.22300 28.28100
H  43.23700 36.46000 29.53700
H  45.35600 34.32400 25.17000
H  43.99900 34.30000 26.26300
H  45.44100 35.27900 26.61400
H  41.84200 39.69100 21.85200
H  42.04400 42.61100 21.82200
H  44.20200 41.57300 21.45900
H  43.93200 39.87000 20.85000
H  44.59200 40.25700 22.50000
H  40.46500 41.40900 20.53500
H  39.71300 42.60500 21.53100
H  38.97400 39.90000 21.43900
H  38.32500 41.10100 22.53700
H  39.73800 40.10400 23.01100
H  40.58300 46.27000 24.10000
H  41.46800 47.23200 25.35800
H  39.70000 47.16800 25.36700
H  39.15900 44.64900 29.86300
H  40.56800 45.90000 34.01100
H  39.23800 46.83500 33.26400
H  40.98800 47.18400 32.93500

