158

Mg 8.07000 2.45500 27.94900
C  9.70300 1.11400 30.83000
C  6.35500 4.70300 30.08300
C  6.56500 3.71200 25.27800
C  9.85700 0.13200 25.90000
N  8.04300 2.74700 30.29600
C  8.77900 2.08000 31.20500
C  8.59500 2.64700 32.61800
C  7.50400 3.72500 32.39600
C  7.31900 3.82600 30.83600
C  6.16200 3.73000 33.13100
C  9.92400 3.16900 33.22100
C  9.73800 3.92500 34.54000
H  10.29700 3.30900 35.82400
N  6.70300 4.01000 27.72400
C  6.20000 4.78500 28.69400
C  5.31000 5.79200 28.08600
C  5.33600 5.55500 26.67600
C  6.24400 4.40600 26.48100
C  4.59600 6.89200 28.95100
C  4.51700 6.28500 25.60000
O  4.57100 5.93400 24.43700
C  3.86900 7.57400 26.05400
N  8.04000 1.86800 25.88500
C  7.38900 2.63800 24.95300
C  7.52200 2.05200 23.53300
C  8.79300 1.09100 23.74900
C  8.90500 0.98500 25.26100
C  6.16800 1.39800 22.99500
C  10.08400 1.58700 23.07300
C  10.86500 0.60900 22.18600
N  9.23600 0.81200 28.16100
C  9.98800 -0.00600 27.26900
C  10.83700 -0.88500 27.98300
C  10.79700 -0.42700 29.31400
C  9.76900 0.57300 29.41000
C  11.80600 -1.88600 27.42800
C  11.39100 -0.70800 30.63600
O  12.16100 -1.57200 30.97200
C  10.68200 0.30000 31.64800
C  10.16100 -0.45100 32.74800
O  9.19400 -1.17200 32.73300
O  10.91000 -0.21900 33.90900
C  10.29100 -0.74900 35.10300
H  5.92300 5.46700 30.73200
H  6.01600 4.05400 24.39800
H  10.41400 -0.54400 25.24700
H  8.15500 1.93100 33.31100
H  7.89600 4.73600 32.50600
H  6.13400 2.87700 33.80900
H  5.34700 3.64700 32.41200
H  6.08300 4.62800 33.74400
H  10.33100 3.85000 32.47400
H  10.64800 2.38800 33.45600
H  8.69100 4.18200 34.70000
H  10.33000 4.82500 34.38000
H  4.85200 7.90300 28.63200
H  4.79300 6.99600 30.01800
H  3.52000 6.71800 28.96500
H  3.48700 8.05200 25.15200
H  4.70000 8.18000 26.41500
H  3.09800 7.29700 26.77300
H  7.81300 2.86700 22.87000
H  8.56400 0.07700 23.42200
H  5.41800 1.33100 23.78300
H  6.43100 0.44500 22.53600
H  5.69500 1.94600 22.18000
H  10.78300 1.97200 23.81600
H  9.77700 2.36400 22.37200
H  11.50600 1.07100 21.43600
H  10.06900 -0.01700 21.78100
H  11.51600 -0.06800 22.74000
H  12.69600 -1.47200 26.95500
H  11.20900 -2.42400 26.69100
H  12.07600 -2.50400 28.28400
H  11.38800 0.96400 32.14800
H  10.19600 -1.83300 35.15400
H  9.27900 -0.34500 35.07400
H  10.72500 -0.40400 36.04100
Mg 53.84500 24.12200 44.81500
C  51.17500 26.25100 43.84300
C  51.90000 21.36000 43.77600
C  56.56400 22.28700 44.83000
C  55.78600 27.05300 45.08100
N  51.83500 23.85000 43.82400
C  50.95200 24.87500 43.64700
C  49.60500 24.34800 43.13300
C  49.73400 22.80700 43.51700
C  51.23400 22.62500 43.77900
C  48.88000 22.41100 44.76100
C  49.37600 24.55800 41.68500
C  47.92100 24.64700 41.22700
H  47.43100 24.05600 39.92500
N  54.21300 22.01100 44.36600
C  53.26400 21.11400 44.06000
C  53.95800 19.83200 44.03400
C  55.26500 20.04500 44.42400
C  55.44500 21.52700 44.49000
C  53.30800 18.56700 43.61200
C  56.27300 18.90500 44.72500
O  55.86600 17.73700 44.53600
C  57.68200 19.15400 45.28800
N  55.83900 24.54300 44.79900
C  56.70900 23.61700 44.97200
C  58.06700 24.26600 45.19200
C  57.86300 25.74800 45.29500
C  56.40900 25.77500 44.99100
C  58.74100 23.72600 46.47800
C  58.76500 26.63300 44.36300
C  58.74600 26.45500 42.83900
N  53.56100 26.28300 44.60900
C  54.41700 27.32900 44.87700
C  53.75200 28.57700 44.84300
C  52.42900 28.20600 44.53000
C  52.38500 26.77700 44.24800
C  54.37300 29.91000 45.03500
C  51.13800 28.67200 44.25300
O  50.69400 29.82600 44.24500
C  50.24200 27.40100 43.72900
C  49.73800 27.89300 42.43600
O  50.35600 28.07200 41.36500
O  48.40000 28.02200 42.53200
C  47.71400 28.63200 41.36100
H  51.24100 20.51200 43.57900
H  57.45900 21.66300 44.77700
H  56.49600 27.87700 45.18400
H  48.78600 24.78800 43.70200
H  49.38400 22.18600 42.69200
H  48.12600 21.63100 44.66000
H  48.35200 23.27900 45.15500
H  49.56700 22.04700 45.52500
H  50.01000 23.87300 41.12200
H  49.79500 25.53500 41.44600
H  47.55600 25.67200 41.15900
H  47.29500 24.22100 42.01200
H  53.95900 17.83000 43.14300
H  52.58500 18.85200 42.84700
H  52.73100 18.08400 44.40200
H  57.77600 18.22400 45.84900
H  57.79300 19.92500 46.05100
H  58.49500 19.17600 44.56300
H  58.62700 24.14500 44.26500
H  58.01900 26.01600 46.34000
H  59.58800 23.10100 46.19700
H  58.06800 23.10700 47.07100
H  59.12500 24.42800 47.21900
H  59.76300 26.51500 44.78500
H  58.54300 27.65600 44.66600
H  58.11600 25.65100 42.45700
H  59.73100 26.26200 42.41500
H  58.41400 27.33100 42.28100
H  53.73300 30.63600 44.53200
H  55.30900 30.17100 44.54100
H  54.49700 30.11800 46.09800
H  49.39100 27.36800 44.40800
H  46.63900 28.76200 41.48600
H  47.95500 28.15600 40.41000
H  48.08400 29.65700 41.33100

