158

Mg 53.80600 24.10100 44.47800
C  51.23800 26.26900 43.45100
C  51.79900 21.63000 43.34400
C  56.43100 22.15100 44.82100
C  55.66900 26.87400 45.47100
N  51.86500 24.01100 43.30200
C  51.02000 25.03300 43.00300
C  49.88900 24.49700 42.12200
C  49.71900 23.09600 42.76600
C  51.16800 22.89700 43.24700
C  48.65000 22.99000 43.88800
C  50.09900 24.63800 40.61400
C  48.97500 25.13000 39.70000
H  49.59200 25.80600 38.46100
N  54.08000 22.10300 44.17400
C  53.11700 21.24300 43.72500
C  53.69700 19.92300 43.69100
C  54.99200 20.00800 44.28200
C  55.23700 21.47700 44.45500
C  52.97400 18.68300 43.17300
C  55.87000 18.80400 44.68700
O  55.54200 17.65300 44.52300
C  57.24900 18.98900 45.38000
N  55.80600 24.48300 44.79900
C  56.66300 23.48000 45.01900
C  58.03700 24.00600 45.34000
C  57.87400 25.55500 45.29000
C  56.37200 25.64200 45.23100
C  58.65300 23.60100 46.70100
C  58.48300 26.27000 44.04800
C  59.06400 27.69200 44.21500
N  53.54400 26.17600 44.57200
C  54.31500 27.16500 45.09400
C  53.61900 28.47500 45.08900
C  52.39000 28.12900 44.48900
C  52.38900 26.76200 44.11300
C  54.02800 29.73400 45.67900
C  51.03500 28.59500 44.06500
O  50.56300 29.72800 44.13300
C  50.26400 27.41400 43.51800
C  49.79700 27.78700 42.13200
O  50.54700 27.89600 41.19100
O  48.50000 28.15300 42.17700
C  47.87000 28.72400 40.99900
H  51.08100 20.82200 43.18900
H  57.32300 21.54400 44.98700
H  56.31000 27.62600 45.93600
H  48.99900 25.07500 42.36800
H  49.44200 22.28000 42.09800
H  47.80900 23.56600 43.50000
H  49.04900 23.48000 44.77600
H  48.40600 21.94300 44.06700
H  50.45100 23.65800 40.29400
H  51.02200 25.16600 40.37400
H  48.36700 25.91500 40.15000
H  48.37200 24.29800 39.33700
H  52.17700 18.90400 42.46300
H  52.51300 18.22800 44.05000
H  53.55600 17.85800 42.76200
H  57.07500 19.73100 46.16000
H  57.98500 19.34300 44.65800
H  57.65000 18.09800 45.86300
H  58.72500 23.56500 44.61900
H  58.38500 25.91100 46.18500
H  59.14300 22.62900 46.63300
H  57.90900 23.37700 47.46500
H  59.37700 24.28900 47.13700
H  57.73100 26.21100 43.26100
H  59.27000 25.55900 43.80000
H  60.15300 27.73000 44.25700
H  58.65600 28.27900 45.03700
H  58.73900 28.39400 43.44700
H  54.89300 30.19800 45.20600
H  54.21900 29.47300 46.72000
H  53.19000 30.42600 45.58600
H  49.39700 27.20500 44.14400
H  48.03900 28.24900 40.03300
H  48.28600 29.72700 41.09400
H  46.81300 28.95800 41.12400
Mg 47.72200 15.68300 28.80600
C  45.10900 15.61000 31.22700
C  49.75400 16.97800 31.16500
C  49.85600 16.25300 26.33900
C  45.31200 14.59700 26.37900
N  47.37100 16.37800 30.95000
C  46.28800 16.16500 31.73000
C  46.62300 16.44400 33.14800
C  48.01300 17.20100 33.08700
C  48.43400 16.87400 31.60100
C  48.07000 18.64100 33.41000
C  46.56100 15.09100 34.00200
C  45.91300 15.27700 35.37300
H  45.75400 16.70000 36.01400
N  49.51400 16.53600 28.80700
C  50.23400 16.93000 29.85500
C  51.66900 17.13500 29.47000
C  51.69700 16.89800 28.07000
C  50.31500 16.64500 27.65200
C  52.74900 17.53000 30.53200
C  52.90100 16.87500 27.08900
O  52.73700 16.79800 25.85000
C  54.32300 17.17500 27.51200
N  47.49600 15.66000 26.59200
C  48.64500 15.80800 25.82200
C  48.28800 15.62100 24.37500
C  46.89000 14.98800 24.37000
C  46.50800 15.09300 25.88100
C  48.35400 16.89700 23.53500
C  46.78200 13.50600 23.80600
C  45.60700 13.25900 22.85500
N  45.66600 15.17000 28.74400
C  44.81800 14.72700 27.73800
C  43.50800 14.30500 28.25900
C  43.56200 14.65800 29.67200
C  44.89100 15.19700 29.91400
C  42.39700 13.79800 27.35400
C  42.78200 14.62700 30.91300
O  41.58300 14.35000 31.03400
C  43.85900 15.22600 31.97800
C  43.16100 16.36100 32.58900
O  43.26300 17.51100 32.18500
O  42.40400 15.95500 33.62900
C  41.73300 16.89100 34.48600
H  50.59400 17.22700 31.81700
H  50.55600 16.25900 25.50100
H  44.65100 14.10900 25.66000
H  45.78600 17.09600 33.39700
H  48.64900 16.74600 33.84600
H  47.14200 19.16100 33.64500
H  48.59000 19.20400 32.63400
H  48.70300 18.74600 34.29100
H  47.59800 14.80900 34.18300
H  46.09300 14.31300 33.39800
H  46.38000 14.59000 36.07900
H  44.97400 14.72400 35.34600
H  53.31700 18.31400 30.03000
H  53.34100 16.65200 30.79000
H  52.36900 18.02500 31.42600
H  54.87900 17.30400 26.58300
H  54.62000 16.25700 28.02000
H  54.35400 18.09700 28.09200
H  49.00300 14.86000 24.06300
H  46.20500 15.59300 23.77700
H  47.39800 17.42000 23.51700
H  48.44900 16.48900 22.52900
H  49.19200 17.57900 23.68000
H  46.86900 12.69400 24.52700
H  47.63800 13.33200 23.15500
H  45.04800 12.33400 22.99700
H  45.99800 13.20500 21.83900
H  44.93100 14.11300 22.87600
H  42.45300 14.35200 26.41700
H  41.40700 13.76600 27.80900
H  42.70000 12.76300 27.19500
H  44.01500 14.45400 32.73100
H  40.76400 17.32300 34.23700
H  42.44200 17.71100 34.37100
H  41.75200 16.58100 35.53100

