158

Mg 0.51600 7.94300 26.34100
C  1.36800 9.85500 28.97500
C  0.26000 5.15400 28.49200
C  -0.12600 5.97600 23.54900
C  0.91400 10.68100 24.20500
N  0.69300 7.56500 28.41700
C  0.98900 8.53900 29.33400
C  0.86800 8.08000 30.78600
C  0.72700 6.51400 30.61200
C  0.55200 6.40000 29.04900
C  2.04500 5.64100 31.06800
C  -0.45400 8.64200 31.40900
C  -0.80900 8.27800 32.87800
H  0.44400 7.92400 33.75300
N  0.22500 5.83600 26.01000
C  0.00200 4.91600 27.06700
C  -0.38500 3.66700 26.53000
C  -0.44000 3.82800 25.08500
C  -0.14500 5.27600 24.80100
C  -0.69500 2.45600 27.45300
C  -0.76500 2.78400 24.06100
O  -0.85300 2.99300 22.84200
C  -0.81000 1.36900 24.48600
N  0.28200 8.25900 24.24000
C  0.00900 7.32500 23.29400
C  -0.19800 7.97400 21.93600
C  -0.04700 9.55300 22.16200
C  0.35400 9.55400 23.62300
C  0.89600 7.44600 20.97500
C  -1.32300 10.36500 21.91000
C  -1.23500 11.58200 21.02200
N  1.02800 9.92400 26.49400
C  1.22900 10.93100 25.57100
C  1.78700 12.13400 26.22400
C  1.79400 11.78000 27.62100
C  1.36300 10.44900 27.70400
C  2.04900 13.50600 25.59300
C  2.18500 12.31100 28.95500
O  2.65900 13.40600 29.29400
C  1.76700 11.11700 29.83700
C  2.85200 10.75500 30.81100
O  3.70000 9.95700 30.59900
O  2.70700 11.50400 31.90800
C  3.91900 11.49000 32.73700
H  0.25800 4.32800 29.20500
H  -0.26200 5.39800 22.63200
H  1.05100 11.58700 23.61200
H  1.71700 8.41600 31.38200
H  -0.19200 6.23900 31.12900
H  2.45700 6.23700 31.88200
H  2.80200 5.42800 30.31400
H  1.74700 4.72000 31.56900
H  -1.31700 8.33500 30.81800
H  -0.38800 9.72900 31.36100
H  -1.50300 7.44200 32.96200
H  -1.27700 9.21500 33.17800
H  -1.48900 1.86300 27.00000
H  -1.07500 2.80400 28.41400
H  0.15300 1.80800 27.67300
H  0.02700 1.17700 25.15800
H  -0.71000 0.72900 23.60900
H  -1.76700 1.09400 24.92900
H  -1.22800 7.84800 21.60300
H  0.79900 9.91300 21.57600
H  1.24800 8.22900 20.30200
H  0.55000 6.56400 20.43600
H  1.75800 7.09000 21.53900
H  -1.83800 10.56200 22.85000
H  -2.00400 9.65800 21.43800
H  -0.31300 11.47100 20.45200
H  -1.06900 12.44900 21.66100
H  -2.02000 11.69000 20.27300
H  1.10700 13.84000 25.15800
H  2.72200 13.42400 24.73900
H  2.40100 14.24100 26.31700
H  0.95400 11.37900 30.51500
H  4.80800 11.85400 32.22100
H  4.10300 10.53000 33.22000
H  3.68100 12.09500 33.61100
Mg 17.68700 52.25700 26.77200
C  19.80600 50.76200 29.25800
C  15.32100 52.51900 29.33100
C  15.67500 53.42000 24.55100
C  19.80400 50.92700 24.29500
N  17.69000 51.75600 29.11700
C  18.66800 51.26200 29.92200
C  18.29900 51.31900 31.38900
C  16.69000 51.44300 31.26900
C  16.54000 51.95700 29.83400
C  15.83800 50.19000 31.66500
C  19.10800 52.38800 32.16500
C  18.91700 52.62100 33.76300
H  17.81100 51.76500 34.44900
N  15.80300 52.92400 26.86500
C  14.99500 53.00100 28.04900
C  13.77400 53.67000 27.73700
C  13.82700 53.90200 26.32300
C  15.17400 53.45700 25.86600
C  12.67000 53.89600 28.70100
C  12.70700 54.41800 25.39600
O  12.86800 54.44400 24.18700
C  11.38700 54.83400 25.83000
N  17.85100 52.28500 24.73800
C  16.87400 52.92000 23.99300
C  17.16600 52.82400 22.44000
C  18.55200 52.07200 22.39000
C  18.79100 51.72300 23.93400
C  15.98100 52.10900 21.74200
C  19.72200 53.01000 21.83500
C  20.26700 54.07800 22.71500
N  19.53400 51.12300 26.72800
C  20.24700 50.60100 25.63300
C  21.33500 49.73800 26.09700
C  21.22600 49.90000 27.54500
C  20.09200 50.66000 27.83400
C  22.22600 48.88700 25.27200
C  21.89100 49.50700 28.80600
O  22.93800 48.94900 28.95200
C  20.95200 50.02000 29.94500
C  20.59100 48.88000 30.79900
O  20.01100 47.93900 30.32100
O  20.87500 49.19000 32.11400
C  20.38500 48.31500 33.11200
H  14.60500 52.49100 30.15500
H  15.02000 53.73600 23.73600
H  20.32800 50.52900 23.42400
H  18.61400 50.34000 31.75100
H  16.26300 52.23700 31.88200
H  15.29600 49.74900 30.82900
H  14.95800 50.58300 32.17300
H  16.30500 49.41200 32.26900
H  19.06300 53.29900 31.56800
H  20.10000 51.96200 32.01700
H  18.76400 53.68900 33.92200
H  19.81800 52.29400 34.28100
H  12.26400 54.90800 28.68500
H  13.04300 53.77400 29.71800
H  11.88600 53.15100 28.56600
H  10.97400 54.04100 26.45400
H  10.71700 54.93600 24.97700
H  11.40000 55.81700 26.30000
H  17.20900 53.80500 21.96700
H  18.58000 51.15700 21.79800
H  15.92900 51.09300 22.13400
H  15.96400 52.15000 20.65300
H  15.09200 52.71300 21.92400
H  19.29300 53.43400 20.92700
H  20.57900 52.36900 21.62500
H  20.39500 54.99200 22.13500
H  21.18700 53.69400 23.15600
H  19.74900 54.22800 23.66200
H  21.78600 48.58600 24.32200
H  22.31900 48.00500 25.90600
H  23.25000 49.25500 25.21900
H  21.50000 50.77700 30.50600
H  19.55800 47.64600 32.87200
H  20.05200 48.95700 33.92700
H  21.17100 47.63300 33.43500

