158

Mg 29.91100 57.21600 41.11100
C  27.05000 55.82300 39.65600
C  31.83000 55.04400 39.29900
C  32.61900 59.23500 41.72300
C  27.86100 59.89500 42.31600
N  29.41400 55.66500 39.53800
C  28.22200 55.15300 39.24500
C  28.32800 53.81700 38.45600
C  29.88200 53.61800 38.35300
C  30.43500 54.82700 39.14200
C  30.45200 52.21700 38.86200
C  27.51500 53.81600 37.12100
C  27.29100 55.09400 36.33300
H  27.76000 55.08100 34.82700
N  31.90200 57.00700 40.79700
C  32.49500 56.03400 40.04400
C  33.94500 56.24400 39.99500
C  34.25700 57.47300 40.71600
C  32.88300 57.99500 41.10800
C  34.85300 55.28500 39.39800
C  35.62300 58.03400 40.86400
O  36.62600 57.47500 40.45700
C  35.84200 59.37100 41.43700
N  30.14500 59.25500 41.90700
C  31.38300 59.84900 42.06000
C  31.32100 61.36300 42.49200
C  29.88400 61.40900 43.02400
C  29.20700 60.15000 42.36400
C  32.53900 61.78900 43.42700
C  29.21800 62.72300 42.75200
C  28.63300 63.42300 43.90700
N  27.88000 57.69800 41.11400
C  27.21800 58.77200 41.68500
C  25.81100 58.53500 41.55500
C  25.66900 57.38500 40.79800
C  26.93600 56.96600 40.47000
C  24.69300 59.39400 42.10100
C  24.74100 56.51900 40.13400
O  23.51200 56.49800 40.05800
C  25.62500 55.41300 39.36200
C  25.34100 54.04400 39.95200
O  25.79000 53.53200 40.99300
O  24.33900 53.51000 39.24800
C  23.94400 52.16800 39.70400
H  32.44700 54.39500 38.67400
H  33.43000 59.95800 41.83500
H  27.27900 60.69600 42.77700
H  27.96400 52.99000 39.06500
H  30.18800 53.62400 37.30700
H  31.11900 52.27400 39.72300
H  31.07100 51.73000 38.10900
H  29.63300 51.56000 39.15400
H  26.53100 53.41800 37.36900
H  27.87700 52.98500 36.51600
H  27.74900 55.92400 36.87200
H  26.22000 55.27800 36.25000
H  35.80400 55.74700 39.13200
H  34.45800 54.92000 38.45000
H  35.03400 54.43700 40.05800
H  35.39200 60.10700 40.77100
H  36.91300 59.52700 41.56700
H  35.35800 59.55300 42.39700
H  31.43600 61.98800 41.60700
H  29.93300 61.27900 44.10500
H  33.26800 62.41000 42.90500
H  33.06100 60.91200 43.80900
H  32.13200 62.32600 44.28400
H  28.47500 62.52400 41.97900
H  29.87000 63.43300 42.24500
H  27.61100 63.69300 43.63900
H  29.28400 64.26100 44.15400
H  28.56800 62.84200 44.82700
H  24.24200 60.01100 41.32400
H  25.04400 60.01600 42.92400
H  23.89400 58.81700 42.56600
H  25.25600 55.47500 38.33800
H  23.24500 51.79300 38.95700
H  23.48500 52.21800 40.69200
H  24.84600 51.55800 39.75000
Mg 5.86700 53.82000 40.62300
C  5.45400 50.33800 40.61800
C  9.08500 53.31700 39.68500
C  6.01700 57.20200 40.14200
C  2.54100 54.17100 41.60500
N  6.98700 52.13000 40.10300
C  6.67600 50.77100 40.15700
C  7.77900 49.89200 39.70900
C  8.99400 50.78700 40.00200
C  8.31200 52.18400 39.84300
C  9.75200 50.62500 41.30000
C  7.70200 49.44200 38.25800
C  6.76100 50.22700 37.29400
H  7.48600 51.23500 36.42500
N  7.29100 55.11900 40.03900
C  8.58800 54.67600 39.71400
C  9.35900 55.89500 39.38800
C  8.51500 57.08000 39.53800
C  7.23600 56.49300 39.97300
C  10.74800 55.77500 38.85800
C  8.92000 58.58700 39.28000
O  10.07600 58.80300 38.87200
C  7.95000 59.74700 39.38300
N  4.46900 55.41600 40.58200
C  4.75900 56.74900 40.52600
C  3.55300 57.70800 40.80000
C  2.43600 56.65700 41.24000
C  3.18100 55.29400 41.15700
C  3.84000 58.69300 41.97700
C  1.21100 56.68800 40.19100
C  -0.14600 56.62800 40.89900
N  4.22100 52.56900 41.03400
C  2.93900 52.81800 41.52300
C  2.33200 51.59700 41.95900
C  3.24700 50.60000 41.56800
C  4.36100 51.26700 41.04000
C  0.95500 51.45900 42.47900
C  3.47500 49.17000 41.48800
O  2.73000 48.19600 41.72200
C  4.91000 48.96500 40.76000
C  4.67600 48.32800 39.42300
O  4.29300 48.83300 38.33500
O  5.27400 47.08700 39.48900
C  5.39700 46.23500 38.23500
H  10.12700 53.01000 39.57000
H  6.01800 58.28600 40.00500
H  1.59000 54.01900 42.12100
H  7.83900 49.05400 40.40500
H  9.73700 50.64300 39.21800
H  9.31600 49.86000 41.94300
H  9.57700 51.47400 41.96200
H  10.80000 50.33800 41.22100
H  7.36100 48.40700 38.23600
H  8.67100 49.45500 37.75900
H  6.03600 50.81600 37.85600
H  6.08400 49.55800 36.76400
H  11.30100 55.18200 39.58500
H  11.21900 56.74700 38.70500
H  10.71300 55.19900 37.93300
H  7.39900 59.85900 40.31600
H  7.25200 59.86800 38.55400
H  8.52500 60.67200 39.34100
H  3.47700 58.30000 39.88700
H  2.17600 56.69100 42.29800
H  3.86400 59.71900 41.60900
H  4.82200 58.49500 42.40600
H  3.18200 58.66300 42.84500
H  1.15100 55.84500 39.50300
H  1.20400 57.67500 39.72700
H  -0.17200 56.94400 41.94200
H  -0.59700 55.63600 40.87100
H  -0.91600 57.22900 40.41500
H  0.30700 51.89900 41.72000
H  0.78700 51.91400 43.45400
H  0.74100 50.39100 42.44300
H  5.50400 48.37100 41.45400
H  6.32700 45.69900 38.42800
H  5.50300 46.76700 37.29000
H  4.60100 45.50000 38.11800

