158

Mg 24.30600 -4.58600 45.51800
C  26.43500 -2.45100 43.64900
C  21.56900 -3.68200 43.35500
C  22.76300 -7.43400 46.24500
C  27.21800 -5.67900 47.24100
N  24.06800 -3.19300 43.75800
C  25.06200 -2.40800 43.23500
C  24.47700 -1.55100 42.07600
C  22.97800 -1.79300 42.22100
C  22.87100 -2.98400 43.14300
C  22.15700 -0.49700 42.75800
C  25.14800 -2.15300 40.73900
C  25.84600 -1.26400 39.72500
H  25.38900 -1.35900 38.25500
N  22.32100 -5.41800 44.94200
C  21.34900 -4.88800 44.11200
C  20.20200 -5.77600 44.15400
C  20.56800 -6.90900 44.88800
C  21.98700 -6.62400 45.40400
C  18.90400 -5.46700 43.49700
C  19.59700 -8.07500 45.13700
O  18.45700 -8.08500 44.64500
C  20.02800 -9.19300 45.94000
N  24.81900 -6.23400 46.65100
C  23.98500 -7.22300 46.87000
C  24.64000 -8.33300 47.76000
C  25.95300 -7.68900 48.25500
C  26.05300 -6.45800 47.37300
C  23.71300 -8.95200 48.83000
C  27.28000 -8.66600 48.07700
C  28.29600 -8.63200 49.18400
N  26.42400 -4.13800 45.59200
C  27.42400 -4.70100 46.32800
C  28.69900 -4.00200 45.98400
C  28.33000 -3.20300 44.87400
C  26.94100 -3.26200 44.71600
C  30.04000 -4.32100 46.53200
C  28.87000 -2.25800 43.93100
O  29.97300 -1.89900 43.83300
C  27.60500 -1.70800 43.09400
C  27.58500 -0.13600 43.32200
O  27.48600 0.41000 44.39900
O  27.67700 0.58800 42.11800
C  27.52300 2.03200 42.10300
H  20.73500 -3.29800 42.76200
H  22.31500 -8.40000 46.48700
H  28.11700 -5.88000 47.82700
H  24.80300 -0.51100 42.10700
H  22.48900 -2.10400 41.29800
H  22.65600 0.41700 42.43900
H  22.22400 -0.50200 43.84600
H  21.13000 -0.50200 42.39300
H  24.43700 -2.81000 40.23900
H  25.86900 -2.93100 40.99200
H  26.87700 -1.61600 39.70200
H  25.95000 -0.20300 39.95000
H  18.46600 -6.24600 42.87300
H  19.07000 -4.51700 42.98900
H  18.18800 -5.27500 44.29700
H  20.80100 -9.70500 45.36700
H  19.20100 -9.89700 46.04000
H  20.44400 -8.77000 46.85400
H  24.91600 -9.18500 47.13900
H  25.91700 -7.34900 49.29000
H  22.67600 -8.61600 48.85700
H  24.18600 -8.79900 49.80000
H  23.60600 -10.03500 48.76900
H  27.67700 -8.31400 47.12500
H  27.01200 -9.70100 47.86600
H  28.36400 -9.64200 49.58800
H  28.06300 -7.99300 50.03600
H  29.15200 -8.47600 48.52700
H  29.90700 -5.40200 46.47400
H  30.26100 -4.15300 47.58600
H  30.86100 -3.85200 45.99000
H  27.79500 -1.83600 42.02900
H  27.46700 2.28000 43.16300
H  26.63400 2.27900 41.52200
H  28.35000 2.59300 41.66900
Mg -1.82200 33.84300 27.22400
C  -3.45600 31.91300 29.66500
C  -0.77900 35.97100 29.92200
C  -0.62600 35.97400 25.01300
C  -3.20000 31.92700 24.71500
N  -2.11500 33.92700 29.60900
C  -2.75800 32.97300 30.33700
C  -2.58900 33.28400 31.81200
C  -1.82300 34.67100 31.85900
C  -1.52500 34.89100 30.36900
C  -2.48600 35.91900 32.56100
C  -1.90800 32.18100 32.59400
C  -2.58300 31.68600 33.90300
H  -1.81700 31.96300 35.22600
N  -0.77200 35.58400 27.41100
C  -0.29400 36.20600 28.57300
C  0.65500 37.21600 28.17700
C  0.68300 37.22600 26.68500
C  -0.28900 36.23500 26.32800
C  1.50400 38.06900 29.15800
C  1.35800 38.15600 25.78200
O  1.05800 38.29400 24.58100
C  2.23100 39.20700 26.36900
N  -1.99300 34.10200 25.20000
C  -1.33400 34.96600 24.44600
C  -1.46600 34.71000 22.92500
C  -1.86200 33.22000 22.91700
C  -2.50200 33.10000 24.33700
C  -2.51600 35.65500 22.32400
C  -0.76400 32.13400 22.62400
C  -1.21100 30.71700 22.25600
N  -3.22300 32.37300 27.10700
C  -3.59700 31.65500 26.01400
C  -4.35600 30.50500 26.45300
C  -4.41700 30.60000 27.87700
C  -3.65200 31.75700 28.23800
C  -4.90800 29.42000 25.51400
C  -4.90800 29.91900 29.00400
O  -5.52500 28.89900 29.13300
C  -4.31800 30.78900 30.27200
C  -5.34100 31.29600 31.19600
O  -6.14600 32.19700 30.93400
O  -5.18000 30.64800 32.37100
C  -6.27800 30.76500 33.32100
H  -0.31300 36.59800 30.68500
H  -0.17000 36.56900 24.21900
H  -3.49300 31.20500 23.94900
H  -3.59200 33.36000 32.23200
H  -0.81400 34.66800 32.27100
H  -2.98900 36.50800 31.79400
H  -1.73000 36.56700 33.00500
H  -3.22800 35.59800 33.29300
H  -0.90800 32.48900 32.90100
H  -1.72000 31.31900 31.95400
H  -2.73100 30.61200 33.78900
H  -3.54900 32.18900 33.95400
H  2.56200 37.98700 28.90900
H  1.28200 37.83900 30.20000
H  1.24900 39.12400 29.05800
H  3.07900 38.65400 26.77100
H  1.75400 39.80300 27.14700
H  2.50800 39.82600 25.51600
H  -0.53500 34.81100 22.36700
H  -2.74400 33.13300 22.28200
H  -3.33100 35.18700 21.77300
H  -2.01900 36.31000 21.60800
H  -2.83000 36.38600 23.07000
H  -0.26200 32.01400 23.58400
H  0.02600 32.47100 21.95400
H  -0.99100 30.15800 23.16500
H  -0.70100 30.26500 21.40500
H  -2.29100 30.65100 22.12400
H  -4.15000 29.21800 24.75700
H  -5.83700 29.73600 25.03800
H  -5.14700 28.60800 26.20000
H  -3.74100 30.09600 30.88500
H  -7.02700 31.50900 33.04900
H  -5.86700 31.14600 34.25600
H  -6.77800 29.81300 33.49700

