158

Mg 25.69100 0.74600 29.37700
C  27.78300 0.30500 32.10400
C  23.08800 1.19700 31.51800
C  23.69800 0.90400 26.70900
C  28.35600 0.23900 27.29700
N  25.40700 0.59400 31.57600
C  26.41000 0.52400 32.52000
C  25.93000 0.83200 34.00300
C  24.42200 0.98700 33.67600
C  24.26200 0.90800 32.14600
C  23.42700 0.08100 34.47900
C  26.69400 2.07100 34.63700
C  27.60700 1.80400 35.80000
H  27.46300 2.69500 37.05300
N  23.65200 1.00300 29.12900
C  22.76600 1.20500 30.15400
C  21.50400 1.51200 29.55900
C  21.63900 1.28700 28.19600
C  23.04000 1.12700 27.93600
C  20.27300 1.80100 30.48600
C  20.61700 1.39700 27.17800
O  20.85100 1.19800 25.99700
C  19.16100 1.57400 27.59800
N  25.97800 0.78900 27.32700
C  25.03600 0.72900 26.41900
C  25.57800 0.80900 24.97800
C  27.11100 0.72400 25.19100
C  27.15600 0.60000 26.74000
C  25.04300 -0.30400 24.04100
C  27.97500 1.90000 24.72400
C  29.40200 1.51700 24.17700
N  27.63500 0.27700 29.60100
C  28.61200 0.08600 28.64100
C  29.84700 -0.29000 29.29200
C  29.51500 -0.18300 30.62900
C  28.18900 0.15900 30.76700
C  31.15100 -0.72300 28.64700
C  30.06600 -0.26200 31.93100
O  31.22900 -0.56800 32.23500
C  28.95100 0.06900 32.96800
C  28.90400 -1.11600 33.83700
O  28.77800 -2.28700 33.46200
O  28.98800 -0.73500 35.15900
C  28.86000 -1.80200 36.19700
H  22.27500 1.61900 32.11300
H  23.26400 1.15300 25.73800
H  29.16700 0.16200 26.57000
H  26.18700 -0.11000 34.48800
H  24.15900 2.01100 33.93900
H  23.32200 -0.81600 33.87000
H  22.49000 0.63800 34.49000
H  23.74700 -0.22400 35.47500
H  25.98200 2.72500 35.14200
H  27.32500 2.57000 33.90100
H  28.63400 1.92700 35.45700
H  27.55800 0.75800 36.10500
H  19.71000 0.86700 30.48900
H  19.64200 2.64300 30.20400
H  20.49600 2.14400 31.49600
H  18.52400 1.42600 26.72700
H  19.12000 2.63900 27.82500
H  18.91700 0.84500 28.37200
H  25.32700 1.77500 24.54000
H  27.55300 -0.16000 24.73200
H  24.18100 0.14000 23.54300
H  24.61100 -1.18100 24.52300
H  25.86700 -0.56900 23.37900
H  28.04200 2.68900 25.47300
H  27.41100 2.29700 23.87900
H  30.11800 2.11700 24.73900
H  29.53900 1.74500 23.12000
H  29.58800 0.44400 24.21900
H  31.22500 -0.22300 27.68200
H  31.23500 -1.81000 28.64200
H  31.99900 -0.32200 29.20100
H  29.20700 0.90700 33.61500
H  29.11000 -2.79800 35.83000
H  27.90600 -1.77400 36.72300
H  29.53600 -1.61600 37.03200
Mg -2.66300 35.04200 26.85200
C  -4.52300 33.47400 29.21300
C  -1.83100 37.50700 29.09600
C  -0.64400 36.44900 24.52400
C  -3.93400 32.98000 24.41800
N  -3.20300 35.45200 28.88200
C  -3.91200 34.60200 29.69500
C  -3.85700 35.10400 31.16300
C  -3.42300 36.58200 30.98200
C  -2.73900 36.53400 29.53900
C  -4.57600 37.58500 30.95900
C  -2.88100 34.28900 32.11000
C  -3.41000 33.70100 33.38600
H  -2.52500 33.59000 34.67100
N  -1.39100 36.74300 26.82300
C  -1.13000 37.59200 27.85400
C  -0.04900 38.44000 27.50100
C  0.33000 38.15200 26.17600
C  -0.53700 37.07200 25.76500
C  0.38700 39.51100 28.47600
C  1.31900 38.78700 25.20700
O  1.57000 38.21700 24.16800
C  1.96200 40.07500 25.55400
N  -2.38200 34.83400 24.70100
C  -1.39500 35.47100 24.06000
C  -1.18600 34.87600 22.62100
C  -2.30100 33.72200 22.58800
C  -2.92400 33.86800 24.01000
C  -1.36700 35.94800 21.48800
C  -1.73000 32.33600 22.19800
C  -2.70900 31.38100 21.46000
N  -4.09200 33.63000 26.75900
C  -4.54500 32.88100 25.68600
C  -5.49900 31.89600 26.18900
C  -5.45300 32.04900 27.58400
C  -4.58900 33.12100 27.83500
C  -6.14000 30.76700 25.43400
C  -5.91300 31.51400 28.83500
O  -6.51700 30.46500 29.07400
C  -5.31500 32.44800 29.97400
C  -6.45800 33.11600 30.69900
O  -7.20700 33.93300 30.23500
O  -6.64700 32.52200 31.91500
C  -7.49100 33.31400 32.78400
H  -1.42600 38.12200 29.90300
H  -0.00700 36.76300 23.69400
H  -4.31200 32.32100 23.63400
H  -4.91900 34.99500 31.38100
H  -2.67200 36.90600 31.70200
H  -5.43600 37.00500 31.29400
H  -4.68600 37.91300 29.92600
H  -4.57800 38.32300 31.76100
H  -2.00500 34.91700 32.27300
H  -2.54500 33.43100 31.52900
H  -3.76500 32.71400 33.09000
H  -4.34400 34.17400 33.69000
H  0.85600 39.23500 29.42000
H  -0.41000 40.18000 28.80000
H  1.01300 40.25600 27.98400
H  2.41800 40.40900 24.62200
H  2.67100 39.79500 26.33400
H  1.20000 40.76600 25.91500
H  -0.18300 34.44900 22.58900
H  -3.04600 33.98100 21.83400
H  -2.13500 36.56900 21.94800
H  -1.75800 35.46600 20.59200
H  -0.44800 36.47600 21.23200
H  -1.59600 31.78000 23.12600
H  -0.70000 32.35300 21.84300
H  -2.15900 30.90700 20.64800
H  -3.49200 32.05500 21.11100
H  -3.06300 30.58400 22.11300
H  -5.76500 30.81700 24.41200
H  -7.21700 30.69900 25.59100
H  -5.60400 29.95400 25.92300
H  -4.64800 31.88200 30.62400
H  -7.24100 34.37100 32.86900
H  -7.60100 32.87400 33.77500
H  -8.47700 33.31300 32.32000

