158

Mg 50.11400 46.43600 42.44400
C  46.59700 46.69300 41.31700
C  50.17900 43.28500 41.00000
C  53.39400 46.48800 42.49000
C  49.81500 49.76600 43.37900
N  48.57300 45.11300 41.45600
C  47.27700 45.46500 41.07300
C  46.68300 44.27300 40.27300
C  47.67800 43.11900 40.45100
C  48.92200 43.89500 41.02500
C  47.13900 41.92500 41.30100
C  46.40300 44.79400 38.88000
C  44.93900 44.49800 38.32200
H  44.85600 43.65400 37.14400
N  51.59900 45.07100 41.79500
C  51.38100 43.86400 41.24700
C  52.63200 43.13900 41.21000
C  53.63100 44.06600 41.49500
C  52.89800 45.27400 41.95100
C  52.77400 41.62000 40.84800
C  55.08700 43.77200 41.50400
O  55.40700 42.58400 41.50600
C  56.13700 44.77200 41.64900
N  51.46200 47.98500 42.80500
C  52.78800 47.70300 42.85700
C  53.49400 48.96400 43.32100
C  52.33500 49.93100 43.84000
C  51.07800 49.20300 43.26100
C  54.49000 48.76200 44.48600
C  52.57300 51.41800 43.41400
C  52.01400 52.54200 44.30400
N  48.48500 47.94900 42.60400
C  48.53300 49.26800 43.05900
C  47.22200 49.92900 42.87400
C  46.47200 48.90700 42.20700
C  47.23900 47.73900 42.11300
C  46.80600 51.33900 43.16300
C  45.10900 48.60400 41.58500
O  44.16000 49.36500 41.34500
C  45.21500 47.16300 41.01100
C  44.24600 46.28100 41.80600
O  44.50000 45.66100 42.80600
O  42.99800 46.34000 41.26400
C  42.03600 45.35100 41.78500
H  50.06300 42.28100 40.58500
H  54.47200 46.55200 42.65400
H  49.88600 50.82500 43.63900
H  45.74100 43.89800 40.67500
H  47.81100 42.75400 39.43200
H  47.04500 41.00100 40.73000
H  46.10000 42.06600 41.59900
H  47.75200 41.86500 42.20000
H  47.11000 44.44300 38.12800
H  46.55400 45.87300 38.83600
H  44.45400 45.47300 38.26400
H  44.31700 44.09900 39.12400
H  53.39300 41.75400 39.96100
H  51.91700 41.05200 40.48600
H  53.34800 41.04300 41.57300
H  55.66000 45.67900 41.27900
H  56.88200 44.45100 40.92000
H  56.53900 44.79900 42.66200
H  54.03200 49.44500 42.50400
H  52.14800 49.89800 44.91400
H  54.59400 49.67700 45.06900
H  55.43000 48.31700 44.16100
H  54.00600 47.94100 45.01600
H  52.04500 51.55200 42.47000
H  53.63000 51.64000 43.26400
H  51.38400 53.20800 43.71400
H  52.76500 53.16600 44.78700
H  51.38400 52.15800 45.10700
H  46.03100 51.67300 42.47300
H  47.66700 52.00800 43.19100
H  46.38600 51.41600 44.16500
H  44.87100 47.26900 39.98200
H  41.75700 44.70400 40.95300
H  41.05700 45.71500 42.09800
H  42.51500 44.59800 42.41100
Mg 26.85700 50.32700 25.74900
C  24.74800 51.19600 28.49200
C  29.29800 49.26800 27.81700
C  28.69000 49.71600 23.07100
C  24.40000 51.85100 23.61400
N  26.92500 50.15700 27.90000
C  25.98500 50.49200 28.80600
C  26.46800 50.01600 30.19300
C  27.97100 49.53400 30.01200
C  28.07600 49.56700 28.44000
C  29.11100 50.32100 30.77000
C  25.47900 48.90600 30.90300
C  25.00000 49.18300 32.31500
H  25.95800 49.87800 33.31100
N  28.78400 49.52900 25.49000
C  29.63300 49.18600 26.43300
C  30.86800 48.81000 25.86500
C  30.79000 48.99100 24.45300
C  29.36200 49.43000 24.27500
C  32.07000 48.45300 26.71200
C  31.84900 48.66600 23.39100
O  31.64400 48.89600 22.20000
C  33.10000 48.00600 23.84000
N  26.67000 50.88600 23.69500
C  27.49300 50.30700 22.79800
C  27.08800 50.74400 21.37900
C  25.67600 51.24800 21.49700
C  25.50200 51.28800 23.04200
C  28.14600 51.72400 20.54000
C  24.69000 50.38800 20.65200
C  23.71100 51.16700 19.85100
N  25.00100 51.43100 25.91000
C  24.12600 51.92700 24.97700
C  22.95800 52.52400 25.60500
C  23.19100 52.30200 27.02300
C  24.45100 51.60900 27.11200
C  21.83500 53.23600 24.97100
C  22.60300 52.47300 28.38500
O  21.59400 53.03000 28.72000
C  23.53900 51.68600 29.31600
C  23.92500 52.35500 30.59000
O  24.75700 53.25200 30.73700
O  23.08300 51.93300 31.55100
C  23.29600 52.45700 32.85700
H  29.96100 48.86800 28.58800
H  29.20500 49.45800 22.14200
H  23.69300 52.31200 22.92100
H  26.34300 50.92000 30.78900
H  28.13400 48.47300 30.19700
H  29.68500 49.62000 31.37700
H  28.81700 51.15800 31.40400
H  29.85000 50.63600 30.03400
H  25.84500 47.90000 30.69900
H  24.60900 48.85200 30.24900
H  24.59100 48.30300 32.81200
H  24.08200 49.75300 32.17300
H  32.32200 47.41500 26.49600
H  31.81900 48.39000 27.77100
H  32.92100 49.10000 26.49800
H  33.80100 48.65300 24.36700
H  33.59400 47.71000 22.91500
H  32.94700 47.07500 24.38700
H  27.04000 49.92000 20.66700
H  25.72400 52.28600 21.16700
H  28.97400 52.02200 21.18200
H  27.80700 52.64100 20.05800
H  28.55300 51.09100 19.75100
H  24.20500 49.71600 21.36000
H  25.18300 49.65500 20.01300
H  22.76700 51.05400 20.38500
H  23.47900 50.67500 18.90700
H  23.94600 52.21600 19.66800
H  20.97000 53.28800 25.63200
H  21.63800 52.67100 24.05900
H  22.20700 54.24400 24.78900
H  22.95300 50.82600 29.63700
H  24.35200 52.41900 33.12300
H  22.65700 51.90000 33.54200
H  22.98100 53.49900 32.90300

