158

Mg 8.96900 4.12800 27.86400
C  10.32700 2.39300 30.58700
C  7.14000 6.01000 30.10900
C  7.30000 5.73800 25.25200
C  10.21400 1.78200 25.68500
N  8.68100 4.07000 30.08900
C  9.47800 3.41800 30.99000
C  9.17200 3.94200 32.43500
C  8.12400 5.01300 32.19900
C  7.97000 5.08200 30.68400
C  6.69600 4.77300 32.93400
C  10.44900 4.39200 33.26900
C  10.28600 5.44400 34.41400
H  10.83900 5.24400 35.78600
N  7.58300 5.81100 27.72800
C  7.03100 6.45500 28.74900
C  6.22300 7.54200 28.24100
C  6.21200 7.42200 26.82500
C  7.06100 6.29700 26.49900
C  5.47500 8.61000 29.16400
C  5.51100 8.26600 25.84100
O  5.75000 8.06200 24.66800
C  4.77500 9.51200 26.27300
N  8.74600 3.74300 25.74900
C  8.01400 4.56400 24.91900
C  8.05100 4.04800 23.47500
C  8.94000 2.78700 23.55300
C  9.36500 2.75200 25.02300
C  6.62800 3.80900 22.83800
C  10.12500 2.81100 22.59900
C  10.42400 1.42000 22.03400
N  10.02900 2.46300 28.07400
C  10.58200 1.66100 27.06500
C  11.54100 0.78200 27.71100
C  11.48200 1.06900 29.04700
C  10.50100 2.04900 29.22900
C  12.22400 -0.35300 26.88200
C  12.00300 0.72900 30.36200
O  12.92700 -0.06200 30.68300
C  11.28900 1.66100 31.42400
C  10.82400 0.89900 32.58900
O  9.87200 0.08800 32.59700
O  11.77300 0.97200 33.58600
C  11.50200 0.26100 34.79300
H  6.72700 6.81000 30.72600
H  6.91500 6.20600 24.34300
H  10.66400 1.07600 24.98400
H  8.69500 3.13600 32.99300
H  8.46800 6.03400 32.36500
H  6.70000 4.32200 33.92700
H  6.11300 4.19100 32.22000
H  6.21000 5.73500 33.09900
H  11.21300 4.79500 32.60400
H  10.81000 3.56400 33.88000
H  9.21200 5.48700 34.59400
H  10.77000 6.32800 33.99800
H  4.41800 8.68900 28.91200
H  5.87000 9.62100 29.06400
H  5.59800 8.19300 30.16400
H  3.74000 9.43500 26.60800
H  4.76800 10.15600 25.39300
H  5.41000 10.06500 26.96500
H  8.54500 4.87500 22.96500
H  8.36300 1.89000 23.32800
H  5.88200 3.75400 23.63200
H  6.55400 2.85000 22.32600
H  6.38900 4.66700 22.21000
H  10.97800 3.07300 23.22500
H  9.94500 3.48800 21.76400
H  11.30200 1.09000 22.58900
H  10.65000 1.48400 20.97000
H  9.65600 0.64800 22.07900
H  13.15200 -0.58800 27.40300
H  12.53600 -0.16300 25.85500
H  11.53100 -1.19400 26.90100
H  12.06400 2.29600 31.85200
H  10.90100 0.97500 35.35500
H  12.39800 0.06400 35.38200
H  10.97700 -0.69400 34.81000
Mg 0.44300 43.23200 26.40200
C  2.71800 43.50700 29.10800
C  -2.12500 42.75000 28.68800
C  -1.52500 42.96900 23.79800
C  3.16900 43.67000 24.24200
N  0.34000 43.25600 28.62200
C  1.39200 43.36800 29.48500
C  0.83300 43.44000 30.95100
C  -0.64700 42.95400 30.76800
C  -0.86000 43.00100 29.26000
C  -1.07600 41.57600 31.36600
C  0.98000 44.88200 31.56400
C  1.04300 44.97300 33.09200
H  0.75700 43.67100 33.86200
N  -1.43600 42.80800 26.26600
C  -2.36200 42.72600 27.31600
C  -3.72300 42.58600 26.70800
C  -3.57000 42.56700 25.24200
C  -2.15100 42.76200 25.03100
C  -4.95400 42.36000 27.66500
C  -4.66500 42.50900 24.25600
O  -4.48600 42.46700 23.04300
C  -6.09600 42.61800 24.67000
N  0.86200 42.93900 24.19800
C  -0.18500 43.09500 23.37600
C  0.24000 43.14000 21.88800
C  1.73600 43.67000 22.02600
C  1.97400 43.41000 23.53100
C  -0.05100 41.79900 21.17100
C  1.97900 45.17100 21.71900
C  3.24000 45.58700 20.97200
N  2.46500 43.45400 26.64100
C  3.44200 43.56600 25.61900
C  4.76300 43.67100 26.27300
C  4.53600 43.61100 27.63900
C  3.09200 43.56900 27.79700
C  6.03800 44.02600 25.59300
C  5.11100 43.57300 28.89500
O  6.27500 43.52900 29.17900
C  3.96600 43.42700 29.94100
C  4.22100 42.10900 30.73100
O  4.32400 40.95800 30.26100
O  4.24000 42.41100 32.08200
C  4.23500 41.32500 33.02600
H  -2.98600 42.50000 29.31000
H  -2.24400 42.81700 22.99000
H  4.08000 43.84100 23.66500
H  1.39000 42.76000 31.59500
H  -1.36000 43.61300 31.26400
H  -1.94800 41.63700 32.01700
H  -0.22100 41.21300 31.93700
H  -1.32900 41.00900 30.47000
H  0.19300 45.39700 31.01300
H  1.93800 45.20200 31.15600
H  0.37700 45.74200 33.48400
H  2.00400 45.38700 33.39800
H  -5.89500 42.42800 27.11900
H  -4.99200 43.14600 28.42000
H  -4.91000 41.40300 28.18500
H  -6.77700 42.75500 23.83100
H  -6.18100 43.46100 25.35600
H  -6.29300 41.77300 25.33000
H  -0.51700 43.77900 21.43300
H  2.44900 43.01400 21.52700
H  -0.44900 41.95000 20.16800
H  -0.74800 41.18900 21.74600
H  0.86900 41.24700 20.97700
H  1.96600 45.77300 22.62800
H  1.08400 45.53700 21.21500
H  3.14000 45.56700 19.88600
H  4.07200 45.02000 21.38800
H  3.52000 46.59400 21.27900
H  6.64100 44.75400 26.13500
H  5.96700 44.53500 24.63200
H  6.71100 43.20300 25.35500
H  4.06900 44.22800 30.67300
H  5.19500 40.84300 32.83900
H  3.45700 40.60400 32.77500
H  4.36000 41.67500 34.05100

