158

Mg 1.03000 -2.01600 43.52100
C  4.39500 -1.29100 42.38900
C  0.00200 0.69000 41.39900
C  -2.14000 -2.99700 43.87500
C  2.27800 -5.18200 44.48000
N  2.15600 -0.57000 41.86200
C  3.51200 -0.36000 41.83000
C  3.78400 0.95700 41.08200
C  2.31500 1.65000 40.97500
C  1.43500 0.50600 41.37000
C  2.23300 3.02400 41.65300
C  4.40600 0.52700 39.71700
C  5.83000 1.09400 39.39300
H  6.04900 1.96100 38.16300
N  -0.79100 -1.14300 42.92800
C  -0.92800 -0.05600 42.19500
C  -2.36600 0.40600 42.29300
C  -3.06700 -0.71000 42.88900
C  -2.01300 -1.66500 43.27500
C  -2.86100 1.80400 41.86900
C  -4.49900 -0.72900 43.04500
O  -5.17300 0.25700 42.72700
C  -5.18800 -1.84800 43.70800
N  0.17200 -3.85900 44.14200
C  -1.19500 -4.02200 44.17400
C  -1.62100 -5.41100 44.65600
C  -0.16100 -6.01300 44.90900
C  0.87000 -4.97700 44.52100
C  -2.50000 -5.55100 45.88600
C  0.16100 -7.48500 44.39700
C  0.41600 -8.56700 45.52200
N  2.93200 -3.01600 43.58800
C  3.27000 -4.30500 44.04600
C  4.67500 -4.50400 43.90600
C  5.17000 -3.26900 43.43000
C  4.06500 -2.45600 43.11700
C  5.51800 -5.74400 44.21200
C  6.37200 -2.61400 43.06400
O  7.57200 -2.97300 43.04500
C  5.89800 -1.24700 42.38300
C  6.36200 -0.13200 43.29600
O  5.82200 0.18200 44.35100
O  7.48200 0.47600 42.76000
C  8.13900 1.43700 43.70200
H  -0.37900 1.62600 40.98400
H  -3.16100 -3.32500 44.08500
H  2.65900 -6.17100 44.74400
H  4.48000 1.59200 41.63000
H  2.10800 1.69700 39.90600
H  1.42800 3.12400 42.38100
H  1.92500 3.71800 40.87100
H  3.15900 3.30900 42.15300
H  3.69000 0.77000 38.93300
H  4.69700 -0.51600 39.58900
H  6.58000 0.30500 39.33200
H  6.08000 1.61300 40.31900
H  -3.87300 2.11200 42.13200
H  -2.74300 1.99200 40.80200
H  -2.18700 2.40400 42.48200
H  -6.22500 -1.60300 43.94100
H  -4.70100 -2.10700 44.64700
H  -5.14800 -2.75700 43.10700
H  -2.16000 -5.75500 43.77400
H  0.10400 -6.07400 45.96500
H  -3.44500 -5.94600 45.51400
H  -2.69100 -4.61900 46.41800
H  -1.99700 -6.24100 46.56300
H  1.00400 -7.51200 43.70700
H  -0.70200 -7.81900 43.82200
H  1.36500 -9.08500 45.38000
H  -0.37200 -9.32000 45.55500
H  0.44900 -8.00800 46.45700
H  6.15900 -5.74300 45.09200
H  6.10400 -5.92600 43.31100
H  4.91100 -6.64800 44.26600
H  6.34400 -1.16700 41.39100
H  7.49500 2.30900 43.82100
H  8.96300 1.92100 43.17900
H  8.55100 0.93100 44.57600
Mg 17.25900 52.61900 25.68300
C  18.58600 51.08000 28.59000
C  14.72400 53.89300 27.68900
C  15.73600 53.64800 22.87900
C  19.68300 50.97800 23.76400
N  16.70800 52.44200 27.93900
C  17.42300 51.81600 28.92600
C  16.75800 51.95100 30.26400
C  15.44500 52.70400 29.90900
C  15.60400 53.01000 28.38800
C  14.05500 51.99900 30.37200
C  17.61100 52.53800 31.37500
C  17.69800 51.88800 32.80100
H  16.45900 51.00100 33.09900
N  15.52800 53.54000 25.36300
C  14.56100 53.92800 26.33400
C  13.43700 54.65200 25.64900
C  13.71500 54.56600 24.26300
C  15.01200 53.82600 24.09700
C  12.29700 55.30900 26.44200
C  13.00900 55.20900 23.16800
O  13.41100 55.11600 22.01100
C  11.82700 56.07900 23.49500
N  17.56900 52.16500 23.59300
C  16.91600 52.88200 22.70700
C  17.56800 52.87400 21.27500
C  18.80300 51.96700 21.60600
C  18.68600 51.65400 23.06900
C  16.72000 52.25500 20.13300
C  20.18100 52.66600 21.18500
C  21.43800 51.82100 20.95000
N  18.89500 51.36200 26.08000
C  19.78700 50.79500 25.18700
C  20.79200 49.95400 25.95200
C  20.33600 50.02300 27.28300
C  19.19400 50.90200 27.27900
C  21.93600 49.20500 25.30900
C  20.58200 49.56900 28.66500
O  21.43800 48.80200 29.08100
C  19.47500 50.29800 29.58100
C  18.83900 49.17300 30.37500
O  17.88100 48.47500 30.04500
O  19.54700 49.01700 31.56300
C  19.13800 47.88700 32.37200
H  13.98500 54.42700 28.28900
H  15.23500 53.93800 21.95300
H  20.54300 50.58400 23.21900
H  16.48100 50.91000 30.43400
H  15.30700 53.69000 30.35300
H  14.32200 51.02300 30.77600
H  13.42100 51.85900 29.49700
H  13.54600 52.54700 31.16500
H  17.08800 53.47700 31.55300
H  18.63400 52.77700 31.08500
H  17.82000 52.61200 33.60600
H  18.55700 51.22300 32.88800
H  11.28600 55.04800 26.12800
H  12.29700 56.39600 26.36300
H  12.44900 55.21600 27.51700
H  11.04500 55.46400 23.94100
H  11.41100 56.48800 22.57400
H  12.09700 56.92000 24.13200
H  17.71700 53.91700 20.99500
H  18.83800 50.94400 21.22900
H  16.02500 51.46300 20.41400
H  17.32800 51.78300 19.36100
H  16.00300 52.99200 19.77100
H  20.58600 53.22000 22.03200
H  19.94300 53.35800 20.37700
H  21.74100 51.98700 19.91600
H  21.31400 50.73900 20.99500
H  22.22300 52.10800 21.64900
H  22.16700 48.24900 25.78000
H  22.85800 49.69700 25.62100
H  21.93800 49.16800 24.22000
H  19.96700 51.01900 30.23300
H  18.10800 47.87500 32.72900
H  19.93500 47.89800 33.11500
H  19.37900 47.09100 31.66700

