158

Mg 29.82100 58.09900 40.15500
C  27.18200 56.29700 38.94300
C  32.00800 56.09800 38.38600
C  32.46100 60.20900 40.94700
C  27.62800 60.65700 41.04800
N  29.64000 56.49300 38.77200
C  28.41400 55.89500 38.45300
C  28.65000 54.56900 37.71100
C  30.15700 54.46400 37.52800
C  30.63600 55.77500 38.26400
C  30.93000 53.27100 38.27800
C  27.87700 54.32000 36.38900
C  27.65300 55.52200 35.45900
H  28.09800 55.42700 34.03000
N  32.00600 57.97800 39.90100
C  32.62200 57.10800 39.09500
C  34.05000 57.32800 39.14000
C  34.26000 58.52000 39.95200
C  32.86000 58.97600 40.27600
C  35.15100 56.48000 38.51300
C  35.54300 59.06900 40.44100
O  36.60300 58.43200 40.25200
C  35.62600 60.29700 41.29100
N  30.03000 60.20400 40.80200
C  31.22100 60.79200 41.12700
C  30.98700 62.10200 41.84100
C  29.43900 62.19000 42.07900
C  28.95700 60.98700 41.25800
C  31.92600 62.47600 43.03500
C  28.83000 63.50100 41.49700
C  27.54600 63.89100 42.16600
N  27.78800 58.49400 39.94600
C  27.02800 59.51100 40.53200
C  25.62800 59.20400 40.25800
C  25.65400 57.92700 39.72100
C  27.01100 57.53000 39.54900
C  24.43200 59.96600 40.56000
C  24.87200 56.75200 39.32900
O  23.68700 56.48900 39.37500
C  25.80500 55.70100 38.64500
C  25.63200 54.33300 39.18800
O  26.23500 53.78700 40.12400
O  24.67300 53.70800 38.45700
C  24.24000 52.38500 39.02400
H  32.71300 55.42800 37.88900
H  33.28200 60.83000 41.31100
H  26.80600 61.34700 41.25200
H  28.33000 53.73500 38.33500
H  30.51600 54.47100 36.49900
H  31.39900 52.59800 37.56100
H  30.17100 52.69500 38.80800
H  31.76800 53.57000 38.90800
H  26.91500 53.92300 36.71300
H  28.44200 53.57800 35.82600
H  28.06900 56.43600 35.88100
H  26.58000 55.68100 35.34400
H  36.09200 57.01100 38.37200
H  34.82900 56.28100 37.49000
H  35.35100 55.60500 39.13100
H  36.67900 60.22600 41.56600
H  34.97000 60.27800 42.16200
H  35.49500 61.14000 40.61300
H  31.19100 62.87600 41.10000
H  29.20800 61.92300 43.11000
H  32.56000 61.64400 43.34400
H  31.29000 62.83900 43.84300
H  32.59700 63.23500 42.63400
H  28.72900 63.32800 40.42500
H  29.52800 64.32800 41.62700
H  27.52000 64.95800 42.38300
H  27.46400 63.64100 43.22400
H  26.68200 63.70900 41.52800
H  24.45900 60.52600 41.49500
H  23.56800 59.30400 40.61800
H  24.22500 60.64900 39.73600
H  25.54200 55.68800 37.58700
H  23.69000 51.98400 38.17300
H  23.71900 52.31900 39.97900
H  25.15100 51.80300 39.16300
Mg 10.08400 47.36900 25.94800
C  8.21600 47.14200 28.76300
C  12.68900 48.86300 27.62100
C  11.85800 47.28600 23.10600
C  7.16600 46.56200 24.10300
N  10.35100 47.95100 27.99200
C  9.51700 47.66700 29.01800
C  10.12100 48.13000 30.34700
C  11.39500 48.96700 29.84900
C  11.48100 48.62200 28.36500
C  11.23300 50.49800 30.13300
C  10.50100 47.09100 31.42300
C  9.84100 47.14200 32.86600
H  9.93100 45.95100 33.75700
N  12.16100 47.97700 25.40500
C  13.03800 48.39700 26.32700
C  14.32800 48.56700 25.62900
C  14.12500 48.15000 24.26100
C  12.66200 47.78200 24.18700
C  15.55000 49.11100 26.37200
C  15.08900 47.95900 23.13800
O  14.70600 47.47100 22.07000
C  16.55400 48.24900 23.39800
N  9.58900 47.00900 23.82500
C  10.51900 46.93300 22.82400
C  9.90700 46.62700 21.43000
C  8.41300 46.50600 21.79200
C  8.34500 46.79900 23.32600
C  10.15800 47.62100 20.34200
C  7.75400 45.20200 21.34200
C  7.23200 45.19400 19.92200
N  8.09700 46.81800 26.30900
C  7.08200 46.53500 25.47400
C  5.89200 46.32900 26.20100
C  6.31000 46.47500 27.55200
C  7.65300 46.89900 27.52300
C  4.45000 46.26400 25.68300
C  5.85400 46.55000 28.92200
O  4.77200 46.34900 29.41800
C  7.11400 46.97700 29.83400
C  7.40700 45.77900 30.70400
O  8.08300 44.81200 30.39000
O  6.62700 45.79000 31.85100
C  6.69600 44.70500 32.77500
H  13.54100 49.17100 28.23100
H  12.37400 47.02800 22.17900
H  6.24200 46.42800 23.53800
H  9.52300 48.84500 30.91300
H  12.22500 48.46700 30.34900
H  10.67400 51.09300 29.41100
H  12.22700 50.91900 30.28100
H  10.78100 50.58400 31.12100
H  11.57300 47.12400 31.62100
H  10.33400 46.07100 31.07800
H  8.84900 47.59000 32.80300
H  10.51800 47.86300 33.32300
H  16.18900 48.23900 26.51300
H  15.29500 49.51300 27.35300
H  16.10400 49.88000 25.83500
H  16.75900 47.76900 24.35400
H  16.65900 49.28800 23.71100
H  17.23900 48.01100 22.58300
H  10.20100 45.69100 20.95600
H  8.00900 47.36700 21.25900
H  10.02900 48.64500 20.69400
H  9.42700 47.32000 19.59200
H  11.15900 47.34700 20.00900
H  6.95500 44.84600 21.99300
H  8.47300 44.38900 21.43300
H  7.96700 44.79900 19.22000
H  7.06300 46.20200 19.54200
H  6.30900 44.62000 19.99800
H  4.37200 45.55900 24.85500
H  4.17500 47.25900 25.33200
H  3.75800 45.99600 26.48200
H  6.99800 47.89700 30.40600
H  7.17400 45.19400 33.62400
H  7.26000 43.83500 32.44100
H  5.69200 44.47100 33.13100

