158

Mg 43.99600 3.20900 48.24500
C  41.58900 5.54100 47.22200
C  41.47700 0.75000 48.04100
C  46.31000 0.92000 48.34500
C  46.44900 5.82300 47.76500
N  41.86900 3.14800 47.47400
C  41.06200 4.21400 47.19300
C  39.59700 3.86500 46.93100
C  39.56500 2.42100 47.55500
C  41.14400 2.04200 47.59800
C  38.80200 2.37300 48.95000
C  39.14000 3.89100 45.41800
C  38.06400 4.93000 45.10200
H  38.51500 5.91500 43.98300
N  43.89900 1.06100 48.24100
C  42.80500 0.29900 48.20900
C  43.22800 -1.09500 48.50100
C  44.65600 -1.15700 48.50700
C  45.07600 0.31800 48.39900
C  42.21800 -2.21800 48.71700
C  45.54000 -2.39400 48.76200
O  45.09200 -3.51600 48.89600
C  47.09200 -2.22800 48.92500
N  46.11600 3.41900 48.08900
C  46.84400 2.23000 48.17900
C  48.37900 2.59000 48.37100
C  48.32100 4.15200 48.49600
C  46.88500 4.49900 47.97700
C  49.05400 1.91800 49.56400
C  49.47000 4.84400 47.68300
C  50.29700 5.98100 48.34500
N  44.06900 5.26600 47.62500
C  45.11300 6.22800 47.60000
C  44.51900 7.45300 47.23300
C  43.18500 7.29900 47.16600
C  42.90500 5.91300 47.39000
C  45.22100 8.80500 47.29000
C  41.92800 7.98800 47.08000
O  41.66800 9.19100 47.02200
C  40.78900 6.84700 46.99000
C  39.79600 7.06200 48.01400
O  39.91900 6.57100 49.12700
O  38.75500 7.81700 47.60400
C  37.73600 8.25000 48.57600
H  40.66400 0.02000 48.06400
H  47.12400 0.21300 48.51500
H  47.22600 6.58400 47.85600
H  39.01300 4.57400 47.51800
H  39.00600 1.71900 46.93600
H  38.32600 3.23800 49.41300
H  39.55200 2.01200 49.65400
H  38.05100 1.62300 48.70600
H  38.77300 2.91900 45.08600
H  39.96300 4.21500 44.78200
H  37.62500 5.46800 45.94100
H  37.19500 4.39300 44.72100
H  41.33300 -1.92300 49.28000
H  42.56200 -3.16800 49.12600
H  41.98500 -2.62600 47.73300
H  47.52700 -1.77000 48.03700
H  47.46200 -3.25100 49.00100
H  47.30500 -1.66800 49.83500
H  48.89500 2.24100 47.47700
H  48.34300 4.33100 49.57100
H  48.19200 1.71700 50.20000
H  49.69800 2.52400 50.20100
H  49.59200 1.01000 49.29300
H  49.02000 5.11100 46.72700
H  50.17100 4.02300 47.53000
H  51.32100 5.77700 48.03600
H  50.41800 6.03600 49.42700
H  49.97700 6.95300 47.97000
H  44.39400 9.43800 46.96900
H  46.08200 8.80900 46.62100
H  45.62500 8.98700 48.28600
H  40.44700 6.80300 45.95600
H  37.88800 7.81700 49.56400
H  36.72400 8.08300 48.20600
H  37.84900 9.33100 48.50800
Mg 47.18000 14.59900 27.65500
C  44.94000 14.74700 30.43700
C  49.08400 16.85300 29.00300
C  48.93300 14.67600 24.67400
C  44.56600 13.06300 25.81300
N  46.90500 15.77500 29.47500
C  46.04400 15.60900 30.50100
C  46.56000 16.27300 31.78800
C  47.72200 17.20400 31.29100
C  47.99700 16.48200 29.88500
C  47.33800 18.71300 31.10400
C  47.12600 15.29500 32.96600
C  46.94800 15.79100 34.46700
H  47.98100 15.58800 35.56000
N  48.83900 15.67200 26.96600
C  49.62200 16.48900 27.76300
C  50.74700 16.98700 27.04200
C  50.67600 16.36600 25.69900
C  49.42500 15.49300 25.72600
C  51.76800 17.88500 27.63300
C  51.58700 16.56900 24.53400
O  51.44500 15.92100 23.55800
C  52.63200 17.60800 24.58800
N  46.74700 14.07800 25.54300
C  47.71700 14.08600 24.54800
C  47.19900 13.57200 23.24500
C  45.92100 12.81900 23.68200
C  45.73700 13.34800 25.14300
C  47.03000 14.78100 22.22700
C  45.95100 11.22800 23.60600
C  46.89700 10.47300 24.55100
N  45.22900 13.90400 28.06200
C  44.30700 13.34300 27.18900
C  43.13900 12.99300 27.92500
C  43.33400 13.48900 29.29500
C  44.58600 14.06700 29.27100
C  41.93600 12.30000 27.39900
C  42.84700 13.62500 30.68200
O  41.78900 13.22700 31.07300
C  43.94300 14.38400 31.52400
C  43.26800 15.58400 32.04100
O  42.74700 16.39400 31.31800
O  43.48900 15.65000 33.35400
C  42.97300 16.91200 34.05700
H  49.82400 17.57000 29.36500
H  49.62300 14.55400 23.83700
H  43.88800 12.43400 25.23200
H  45.86900 16.99200 32.22800
H  48.62800 17.20200 31.89800
H  46.45900 19.08000 31.63400
H  47.18600 18.93900 30.04900
H  48.14700 19.36100 31.44200
H  48.18100 15.15300 32.73100
H  46.62100 14.32900 32.97900
H  46.14200 15.18600 34.88300
H  46.59800 16.82300 34.47300
H  51.68100 17.95500 28.71700
H  51.67100 18.89700 27.24000
H  52.77900 17.52600 27.44200
H  53.38100 17.53000 25.37500
H  52.15400 18.56300 24.80800
H  53.14100 17.54900 23.62600
H  47.92500 12.81800 22.94100
H  44.97100 13.00500 23.18100
H  47.13800 15.78200 22.64500
H  46.07400 14.62000 21.73000
H  47.83000 14.76100 21.48800
H  46.39100 11.01200 22.63200
H  44.92100 10.88100 23.52200
H  47.55900 9.80000 24.00500
H  46.43800 9.92600 25.37300
H  47.63600 11.10800 25.04100
H  42.22100 11.75700 26.49700
H  41.12500 12.97400 27.12500
H  41.51900 11.61400 28.13600
H  44.25200 13.71100 32.32500
H  42.27800 17.53400 33.49300
H  43.90300 17.40700 34.33500
H  42.43100 16.53200 34.92400

