158

Mg 47.01400 16.57500 28.21100
C  44.95900 16.07500 31.16900
C  49.10400 18.41900 30.12000
C  48.54600 17.56000 25.46100
C  44.45700 15.19700 26.32100
N  46.89700 17.23800 30.43200
C  46.06300 16.85800 31.42000
C  46.67500 17.18000 32.78800
C  47.83900 18.17800 32.39100
C  47.95000 18.02600 30.86900
C  47.54700 19.67000 32.81300
C  47.12200 15.98400 33.61900
C  47.54800 16.21200 35.09500
H  46.89700 17.37600 35.80700
N  48.79100 17.63500 27.86500
C  49.55100 18.26200 28.82000
C  50.73800 18.71900 28.20400
C  50.52100 18.66200 26.78500
C  49.24200 17.93700 26.62500
C  51.93600 19.04300 29.07100
C  51.29300 19.14900 25.64400
O  50.94800 18.99400 24.46000
C  52.49500 19.86400 25.89300
N  46.59800 16.30000 26.23700
C  47.41100 16.81300 25.31300
C  46.78100 16.70400 23.88900
C  45.56800 15.63500 24.13300
C  45.46900 15.71900 25.64200
C  46.31600 17.94800 23.18900
C  45.91500 14.25400 23.66100
C  45.31800 13.97300 22.26800
N  45.12900 15.75500 28.60800
C  44.21400 15.21300 27.70900
C  43.09000 14.64900 28.42800
C  43.38300 14.90500 29.80300
C  44.59500 15.65300 29.83900
C  41.88200 14.04100 27.75800
C  42.82500 14.83900 31.15200
O  41.79000 14.25300 31.48200
C  43.87600 15.57100 32.14500
C  43.10800 16.70400 32.83800
O  42.47500 17.55400 32.26200
O  43.33100 16.66900 34.19700
C  42.65200 17.66300 34.98100
H  49.78300 18.93500 30.80200
H  48.82600 18.09300 24.55000
H  43.71900 14.76800 25.63900
H  45.89300 17.70000 33.34200
H  48.81600 17.94100 32.81200
H  46.76100 19.73100 33.56600
H  47.27700 20.26000 31.93800
H  48.41500 20.13400 33.28100
H  47.83100 15.47100 32.96800
H  46.27800 15.29300 33.62500
H  48.63500 16.26500 35.03600
H  47.44800 15.38500 35.79800
H  51.97100 18.51300 30.02200
H  52.04600 20.11300 29.25000
H  52.82100 18.63700 28.58200
H  53.37100 19.29200 26.19900
H  52.21300 20.49800 26.73300
H  52.86100 20.43700 25.04100
H  47.56600 16.27600 23.26400
H  44.60400 16.00400 23.78400
H  45.33900 17.71300 22.76700
H  47.05500 18.14000 22.41100
H  46.37200 18.79500 23.87300
H  45.60500 13.46300 24.34400
H  47.00300 14.23400 23.60600
H  46.01000 14.10500 21.43700
H  44.58700 14.74600 22.03100
H  44.83100 13.00100 22.18000
H  41.70400 14.66800 26.88500
H  40.94000 14.20800 28.28100
H  42.05100 12.99900 27.48300
H  44.28200 14.87100 32.87500
H  43.10900 17.49700 35.95700
H  41.63600 17.27700 35.06700
H  42.65300 18.67100 34.56500
Mg 16.64500 53.54600 25.56500
C  17.92300 51.81800 28.39700
C  14.31300 54.85300 27.56500
C  15.11500 54.57700 22.83800
C  19.01200 51.71600 23.62500
N  16.23600 53.41500 27.74000
C  16.92600 52.73000 28.72500
C  16.48300 53.26800 30.10000
C  15.17200 53.97200 29.75900
C  15.20900 54.12100 28.26700
C  13.91300 53.26100 30.39700
C  17.55500 54.12900 30.82400
C  17.96700 53.76400 32.31400
H  17.01600 52.86900 33.08100
N  15.00700 54.71800 25.22900
C  14.15800 55.12600 26.18000
C  13.01800 55.81300 25.58800
C  13.27600 55.82800 24.19200
C  14.49800 55.03700 24.03400
C  11.89800 56.24400 26.53300
C  12.43100 56.39300 23.06300
O  12.80500 56.23400 21.91200
C  11.18100 57.29600 23.35100
N  17.19000 53.41100 23.53800
C  16.35400 53.89500 22.55400
C  16.67200 53.37400 21.12700
C  18.05200 52.65300 21.39100
C  18.17900 52.63800 22.93700
C  15.55800 52.45100 20.53100
C  19.25900 53.42400 20.80800
C  19.65200 53.08000 19.40600
N  18.10900 51.95300 25.87200
C  19.00900 51.41300 25.00800
C  19.97300 50.54700 25.78200
C  19.49600 50.64100 27.09500
C  18.41700 51.53300 27.12900
C  21.16700 49.92600 25.21200
C  19.84000 50.32800 28.48600
O  20.74300 49.63800 28.96900
C  18.82400 51.15900 29.40900
C  18.10300 50.21100 30.28800
O  16.99300 49.76000 30.07900
O  19.00400 49.74200 31.25900
C  18.54500 48.73900 32.18000
H  13.58100 55.23300 28.28100
H  14.63800 54.88800 21.90600
H  19.81000 51.30600 23.00200
H  16.31000 52.39500 30.73000
H  15.12200 54.97900 30.17200
H  14.17700 52.26700 30.75700
H  13.20600 53.01200 29.60500
H  13.34900 53.94600 31.02900
H  17.21100 55.16100 30.89800
H  18.46100 54.15600 30.21900
H  18.06600 54.71800 32.83100
H  19.00000 53.42600 32.40200
H  11.62700 55.55900 27.33700
H  10.96800 56.53100 26.04200
H  12.27000 57.20000 26.90200
H  11.30200 57.92400 24.23400
H  10.37700 56.62100 23.64300
H  10.92900 58.00000 22.55800
H  16.71900 54.29200 20.54100
H  17.94600 51.62700 21.04100
H  15.30200 52.84000 19.54600
H  14.56800 52.50300 20.98300
H  15.85500 51.40900 20.40400
H  20.14200 53.39800 21.44600
H  19.00700 54.48300 20.86500
H  20.73900 53.16700 19.38600
H  19.19400 53.81200 18.74100
H  19.46300 52.07000 19.04300
H  21.91400 50.00600 26.00200
H  21.60100 50.39700 24.33000
H  20.89500 48.91000 24.92900
H  19.44400 51.92000 29.88300
H  18.06900 49.15000 33.07100
H  19.42000 48.18300 32.51600
H  17.82200 48.08300 31.69500

