158

Mg 25.45400 1.47600 29.14300
C  27.37800 1.03700 32.14600
C  22.64500 2.03700 31.07600
C  23.73100 1.83600 26.32700
C  28.26000 0.61800 27.25900
N  25.05500 1.50000 31.37800
C  26.04600 1.39600 32.38900
C  25.33300 1.68300 33.72800
C  23.87300 1.80700 33.31400
C  23.88600 1.83900 31.79500
C  22.74200 0.92700 34.03700
C  25.89500 2.88100 34.53700
C  26.58800 2.65700 35.86600
H  26.39500 3.73800 37.00200
N  23.47900 1.90600 28.75200
C  22.48000 1.96500 29.65800
C  21.24300 2.13500 29.03000
C  21.49100 1.92100 27.59300
C  22.93700 1.86000 27.49800
C  19.95500 2.39800 29.81300
C  20.47900 1.74800 26.46400
O  20.87800 1.63500 25.33000
C  19.00800 1.75200 26.70900
N  26.02100 1.42000 27.02500
C  25.11400 1.66000 26.08100
C  25.79000 1.59800 24.66800
C  27.23200 0.99400 24.95300
C  27.19200 0.99600 26.50600
C  25.16500 0.66000 23.59300
C  28.45100 1.68400 24.36200
C  28.58900 3.22800 24.64800
N  27.41500 0.89100 29.53200
C  28.43900 0.58300 28.66800
C  29.62400 0.33900 29.48700
C  29.28400 0.57400 30.80600
C  27.87500 0.85000 30.79200
C  30.89800 -0.23000 28.87100
C  29.81300 0.68700 32.14500
O  30.92900 0.40900 32.58500
C  28.58500 1.06300 32.98200
C  28.40300 0.03400 34.09400
O  27.57800 -0.86900 34.19200
O  29.23000 0.46900 35.13000
C  29.23800 -0.41200 36.33600
H  21.78900 2.30600 31.69800
H  23.09700 2.04100 25.46200
H  29.06400 0.35900 26.56600
H  25.47800 0.78400 34.32700
H  23.52800 2.80500 33.58500
H  22.24100 0.24800 33.34800
H  22.02500 1.53700 34.58500
H  23.27500 0.26100 34.71500
H  25.10300 3.59300 34.77000
H  26.60300 3.35600 33.85800
H  27.65100 2.46500 35.72600
H  26.16000 1.70200 36.17100
H  20.02200 3.44600 30.10500
H  19.81700 1.77800 30.69900
H  19.02700 2.33600 29.24500
H  18.51200 2.69500 26.93700
H  18.73200 0.97000 27.41700
H  18.55500 1.45500 25.76300
H  25.75800 2.63500 24.33400
H  27.37100 -0.04600 24.65700
H  24.80900 1.31300 22.79600
H  24.37000 0.14100 24.12800
H  25.84700 -0.00400 23.06200
H  28.25500 1.65000 23.29100
H  29.39000 1.14100 24.46600
H  28.30200 3.57200 25.64200
H  27.86600 3.76000 24.03100
H  29.60100 3.62500 24.57400
H  30.68000 -0.91100 28.04800
H  31.40900 -0.64800 29.73800
H  31.55800 0.57100 28.53800
H  28.70200 2.04800 33.43400
H  29.10200 -1.44500 36.01600
H  28.67100 -0.15200 37.23000
H  30.25700 -0.40900 36.72300
Mg 42.21800 41.70800 26.36100
C  41.35000 43.86800 28.99000
C  43.06000 39.43500 28.62300
C  43.56600 39.99700 23.81300
C  41.62800 44.32700 24.02300
N  42.25200 41.65900 28.63400
C  41.78800 42.56800 29.51300
C  41.79300 42.07400 30.94900
C  42.45500 40.63800 30.77200
C  42.60300 40.56000 29.27800
C  43.68100 40.46100 31.63500
C  40.46500 42.02800 31.61100
C  40.38800 41.76600 33.20400
H  39.77000 42.80400 34.14300
N  43.04000 39.87700 26.26200
C  43.27400 39.04500 27.29800
C  43.87600 37.81000 26.86700
C  44.11600 37.96700 25.41800
C  43.51900 39.32500 25.08000
C  44.30100 36.76300 27.78200
C  44.83000 37.06000 24.44600
O  45.07300 37.37200 23.29000
C  45.21300 35.69200 24.87500
N  42.68900 42.25900 24.26300
C  43.19400 41.27000 23.42000
C  43.03100 41.62400 21.93100
C  42.09800 42.88500 22.02000
C  42.15500 43.22700 23.53200
C  44.48000 41.79000 21.28700
C  40.63800 42.55400 21.67500
C  39.92800 41.38100 22.44200
N  41.61700 43.72600 26.39400
C  41.50000 44.66300 25.38100
C  41.08900 45.90100 25.99100
C  41.01500 45.64600 27.42700
C  41.35600 44.28400 27.56600
C  40.78900 47.17600 25.36200
C  40.80700 46.21400 28.70400
O  40.56500 47.36300 29.02800
C  40.90900 45.14000 29.78000
C  42.03300 45.55900 30.70100
O  43.22800 45.37100 30.52100
O  41.54200 46.15700 31.80300
C  42.42500 46.69200 32.81400
H  43.25600 38.64800 29.35400
H  43.87100 39.37600 22.96800
H  41.35800 45.00400 23.21000
H  42.45400 42.73700 31.50600
H  41.68600 40.00400 31.21300
H  44.16300 41.35600 32.02700
H  44.36200 39.78400 31.11900
H  43.31300 39.89400 32.49000
H  39.79500 41.35000 31.08200
H  39.98800 43.00500 31.53200
H  41.39000 41.58400 33.59000
H  39.85400 40.81700 33.25600
H  43.82700 35.81700 27.52000
H  44.05900 36.88500 28.83800
H  45.37300 36.63900 27.62600
H  46.18800 35.84300 25.33800
H  45.39300 35.16600 23.93800
H  44.50400 35.09700 25.45000
H  42.63100 40.75000 21.41700
H  42.45100 43.71700 21.41000
H  45.14700 41.11800 21.82600
H  44.82800 42.76900 21.61800
H  44.59900 41.54100 20.23300
H  40.60500 42.28800 20.61800
H  39.97900 43.39600 21.88300
H  40.50200 40.91800 23.24500
H  39.56900 40.70300 21.66800
H  39.08800 41.85100 22.95400
H  39.75200 47.34100 25.65100
H  41.00600 47.03900 24.30200
H  41.30500 48.06500 25.72600
H  40.04300 44.99300 30.42500
H  42.77600 45.88000 33.45000
H  42.10500 47.61700 33.29500
H  43.22100 47.06700 32.17200

