158

Mg 42.38900 41.48500 26.92700
C  41.64400 43.93100 29.38300
C  43.38100 39.40100 29.42600
C  43.12700 39.23500 24.58300
C  41.73500 43.88400 24.44300
N  42.36400 41.72600 29.12300
C  41.94500 42.73200 29.95600
C  41.92700 42.32600 31.38000
C  42.70100 40.96600 31.36000
C  42.92000 40.69200 29.84300
C  44.02300 40.94900 32.24900
C  40.55200 42.19000 31.88200
C  40.36500 41.67000 33.33300
H  39.74600 42.60200 34.31200
N  43.27500 39.58200 26.96400
C  43.60400 38.88600 28.09400
C  44.17800 37.65800 27.68100
C  44.01400 37.48400 26.26100
C  43.41500 38.80200 25.88800
C  44.77100 36.61000 28.64000
C  44.39500 36.28300 25.44600
O  44.23100 36.24700 24.24300
C  44.93700 34.99200 26.17500
N  42.30300 41.53900 24.84700
C  42.67000 40.51200 24.11400
C  42.61800 40.79800 22.58500
C  41.87800 42.20000 22.55700
C  42.00900 42.64200 24.02700
C  44.00900 40.91900 21.78400
C  40.44600 42.10300 21.95000
C  39.36500 41.73700 22.95800
N  41.76600 43.45800 26.86500
C  41.58900 44.34300 25.79500
C  41.33800 45.70000 26.35700
C  41.27800 45.45700 27.64200
C  41.56700 44.19000 27.98300
C  41.15700 46.95500 25.55400
C  40.99200 46.24800 28.85100
O  40.62900 47.42200 28.91000
C  41.04900 45.20800 30.03700
C  41.90100 45.79200 31.08900
O  43.14000 46.01900 31.00800
O  41.18400 45.90800 32.26900
C  41.99700 46.31600 33.42700
H  43.52200 38.77500 30.30900
H  43.16500 38.50800 23.77000
H  41.53700 44.58300 23.62800
H  42.49600 42.99800 32.02200
H  42.06800 40.20000 31.80600
H  43.77400 40.72800 33.28700
H  44.45400 41.94800 32.31600
H  44.87200 40.29600 32.04700
H  40.12400 41.51700 31.13900
H  40.13500 43.19400 31.80500
H  41.24600 41.16500 33.72900
H  39.64100 40.87300 33.16500
H  45.76800 36.24400 28.39300
H  44.00800 35.83200 28.67900
H  44.74200 36.99500 29.65900
H  45.94200 35.15200 26.56700
H  44.88900 34.19200 25.43600
H  44.29300 34.68100 26.99800
H  41.96400 40.07800 22.09400
H  42.50600 42.89600 21.99900
H  44.42800 41.85300 22.16000
H  43.89300 40.82000 20.70500
H  44.66600 40.11500 22.11500
H  40.48100 41.34900 21.16300
H  40.32000 43.10400 21.53600
H  39.84900 41.53700 23.91400
H  38.82300 40.85700 22.61200
H  38.72600 42.62000 22.96600
H  41.52600 46.87100 24.53200
H  41.82000 47.65600 26.06000
H  40.14600 47.35400 25.64300
H  40.03000 45.06000 30.39400
H  42.37200 47.30700 33.17400
H  42.80400 45.65200 33.74000
H  41.24300 46.64900 34.13900
Mg -1.47000 34.17400 25.70000
C  -3.15500 32.37400 28.41300
C  -0.19700 36.28200 28.09900
C  -0.16100 35.91200 23.18800
C  -2.99200 32.08500 23.50200
N  -1.74600 34.27500 28.02200
C  -2.33300 33.39100 28.89600
C  -1.94200 33.79900 30.30700
C  -1.07500 35.08900 30.18700
C  -1.02400 35.25100 28.67300
C  -1.54800 36.46400 30.88600
C  -1.28400 32.60000 31.09800
C  -1.71400 32.47900 32.63400
H  -0.75800 32.27300 33.78000
N  -0.24300 35.87400 25.70900
C  0.16300 36.55900 26.77900
C  1.01200 37.69300 26.34400
C  1.07300 37.55900 24.86900
C  0.25200 36.38700 24.51800
C  1.67900 38.72300 27.20700
C  1.76000 38.46300 23.87600
O  1.87900 38.23000 22.68200
C  2.42400 39.80200 24.29200
N  -1.62100 34.00300 23.65900
C  -0.99600 34.84300 22.78700
C  -1.40900 34.46300 21.34700
C  -1.85500 33.03900 21.53500
C  -2.14700 32.99700 23.02200
C  -2.29100 35.48700 20.58200
C  -0.79500 31.91300 21.09200
C  0.60300 32.02800 21.64800
N  -2.91500 32.65800 25.87000
C  -3.45900 31.94300 24.85400
C  -4.42800 31.02700 25.40300
C  -4.37700 31.15800 26.79300
C  -3.36500 32.12200 27.03300
C  -5.35400 30.17000 24.55100
C  -4.98500 30.81100 28.02700
O  -5.97700 30.17700 28.36000
C  -4.20700 31.48500 29.15300
C  -5.19500 32.13200 30.08200
O  -5.92400 33.06600 29.76300
O  -5.34100 31.42000 31.27100
C  -6.38400 31.90500 32.22400
H  0.16000 36.94200 28.89300
H  0.20600 36.45500 22.31500
H  -3.49400 31.47700 22.74600
H  -2.91700 34.05100 30.72400
H  -0.09000 34.90000 30.61300
H  -0.66700 37.07300 31.08800
H  -2.14200 36.40000 31.79800
H  -2.15100 37.06700 30.20700
H  -0.20600 32.75200 31.03800
H  -1.45100 31.68000 30.53800
H  -2.33900 31.58700 32.65300
H  -2.39700 33.29900 32.85500
H  1.38300 38.54100 28.24000
H  1.34600 39.75900 27.15100
H  2.76300 38.65900 27.11300
H  2.56700 40.41100 23.39900
H  3.35300 39.58400 24.81900
H  1.72000 40.28300 24.97100
H  -0.46800 34.46000 20.79600
H  -2.72100 32.87900 20.89200
H  -1.77700 35.81500 19.67900
H  -2.32200 36.33300 21.26900
H  -3.25500 35.06700 20.29600
H  -0.72000 31.93100 20.00400
H  -1.18800 30.95600 21.43500
H  1.29200 32.66400 21.09200
H  1.02600 31.03000 21.76400
H  0.45400 32.46800 22.63400
H  -5.16000 29.11100 24.71900
H  -5.29600 30.41300 23.49000
H  -6.37900 30.46500 24.77600
H  -3.69100 30.67800 29.67400
H  -5.73700 32.46300 32.90000
H  -6.91800 31.06900 32.67500
H  -7.13900 32.62200 31.90200

