158

Mg 9.12800 48.17400 26.75500
C  6.89200 47.87400 29.48000
C  11.44500 49.22800 28.90900
C  11.05900 48.57700 24.17300
C  6.26400 47.89400 24.56700
N  8.99700 48.83500 28.98500
C  8.12000 48.33000 29.87100
C  8.60200 48.67600 31.32800
C  10.10000 49.04200 31.09900
C  10.18500 49.01500 29.57300
C  10.61100 50.38600 31.71200
C  8.23700 47.57600 32.40200
C  8.93800 47.72900 33.78900
H  8.65500 46.69800 34.92200
N  11.06500 48.69900 26.57500
C  11.84900 49.09600 27.57900
C  13.14300 49.42300 27.02800
C  13.06500 49.16000 25.63200
C  11.71100 48.72300 25.41300
C  14.34400 50.07600 27.81400
C  14.22500 49.19100 24.63600
O  14.12100 48.97900 23.49900
C  15.61000 49.58800 25.19600
N  8.66200 48.12600 24.61500
C  9.71900 48.33900 23.78800
C  9.26800 48.24100 22.29300
C  7.76100 47.86600 22.32700
C  7.51600 47.96200 23.88500
C  9.61900 49.45900 21.31500
C  7.38800 46.40600 21.85900
C  6.70100 46.26700 20.48400
N  7.03600 47.87500 26.91800
C  6.08000 47.76600 25.92600
C  4.85700 47.47800 26.60200
C  5.08500 47.47700 27.92000
C  6.45100 47.75600 28.12700
C  3.57900 47.15000 25.92600
C  4.49700 47.38300 29.21000
O  3.32600 47.29700 29.58700
C  5.63000 47.40300 30.26000
C  5.73200 46.09700 30.87500
O  6.53800 45.23200 30.49600
O  4.97400 46.07300 32.03700
C  5.29200 44.86200 32.93400
H  12.24200 49.30300 29.65200
H  11.74900 48.81400 23.36100
H  5.48800 47.77800 23.80800
H  8.17800 49.64900 31.57800
H  10.73500 48.23600 31.46700
H  10.93200 51.17900 31.03700
H  11.44600 49.99600 32.29500
H  9.95800 50.83100 32.46300
H  8.41100 46.59600 31.95600
H  7.18900 47.79400 32.60800
H  8.62700 48.66700 34.25000
H  10.01100 47.57800 33.66900
H  15.26500 49.51700 27.65000
H  14.09600 50.29000 28.85400
H  14.42000 51.05000 27.33200
H  16.10900 48.94700 25.92200
H  15.60800 50.66600 25.35900
H  16.21700 49.43500 24.30400
H  9.75200 47.33100 21.93800
H  7.04800 48.52300 21.82900
H  8.74600 49.87400 20.81000
H  10.39700 49.17500 20.60700
H  10.01400 50.30700 21.87300
H  6.65100 46.02700 22.56800
H  8.25700 45.74900 21.84600
H  7.22100 45.70000 19.71200
H  6.41100 47.15900 19.92800
H  5.84900 45.63200 20.72900
H  2.92100 47.98900 26.15000
H  3.14500 46.33500 26.50500
H  3.57800 46.89200 24.86700
H  5.49700 48.11100 31.07900
H  5.61500 45.31900 33.87000
H  6.13600 44.22600 32.66800
H  4.37300 44.33700 33.19200
Mg 0.48900 43.26400 25.98600
C  2.86600 43.02300 28.44200
C  -1.91000 42.09800 28.05500
C  -1.56400 43.04700 23.24700
C  3.21100 43.99100 23.62400
N  0.57200 42.57500 27.99100
C  1.53900 42.76700 28.86100
C  1.01000 42.69900 30.30200
C  -0.42100 42.11900 30.10300
C  -0.63400 42.19600 28.61100
C  -0.50400 40.58300 30.50700
C  1.14200 44.01400 31.14100
C  1.23800 43.96600 32.66200
H  0.86300 42.60000 33.29100
N  -1.53300 42.73400 25.73500
C  -2.33600 42.37900 26.71900
C  -3.71900 42.17900 26.15100
C  -3.61900 42.43800 24.70600
C  -2.16800 42.72700 24.48500
C  -4.98000 41.86600 27.01500
C  -4.62300 42.35500 23.72600
O  -4.44300 42.76700 22.61400
C  -5.96800 41.87700 24.12300
N  0.81300 43.37700 23.81300
C  -0.25500 43.38600 22.93600
C  0.16200 43.84800 21.51100
C  1.70800 44.08300 21.62300
C  1.93300 43.83200 23.11600
C  -0.15400 42.95400 20.26400
C  2.25900 45.46800 21.12000
C  2.33100 46.67100 22.00600
N  2.60300 43.51800 25.97300
C  3.53300 43.81600 24.98700
C  4.85200 43.81300 25.61000
C  4.64500 43.52100 26.93000
C  3.26400 43.31300 27.11900
C  6.12300 43.92500 24.85900
C  5.30500 43.23500 28.16500
O  6.49600 43.07800 28.46800
C  4.15500 43.05000 29.24900
C  4.43100 41.87200 30.07400
O  4.17900 40.70900 29.79500
O  4.86900 42.30600 31.30000
C  5.10800 41.35300 32.36500
H  -2.61900 41.66300 28.76200
H  -2.21000 43.13900 22.37100
H  3.98800 44.21500 22.89100
H  1.55900 41.94300 30.86400
H  -1.22100 42.63100 30.63600
H  0.40400 40.33100 31.05400
H  -0.48600 39.87100 29.68200
H  -1.43300 40.38500 31.04200
H  0.29400 44.62900 30.83900
H  2.01300 44.53600 30.74600
H  0.78400 44.78700 33.21600
H  2.29400 44.03200 32.92600
H  -4.86700 41.80600 28.09700
H  -5.25000 40.86100 26.68800
H  -5.78900 42.58400 26.88000
H  -5.83000 40.90200 24.58900
H  -6.59800 41.77500 23.23900
H  -6.46000 42.55500 24.82000
H  -0.29000 44.82900 21.36300
H  2.31700 43.34300 21.10400
H  -0.59900 41.98500 20.49300
H  0.70200 42.89300 19.59300
H  -0.88800 43.55100 19.72300
H  1.72700 45.78800 20.22300
H  3.29500 45.32400 20.81200
H  3.29000 46.73900 22.52000
H  1.61000 46.66400 22.82300
H  2.25500 47.50400 21.30800
H  6.31500 44.87300 24.35600
H  6.22500 43.24400 24.01500
H  6.86100 43.66900 25.62000
H  4.05400 43.98100 29.80600
H  5.34100 41.81300 33.32500
H  5.82500 40.57900 32.09200
H  4.20600 40.77900 32.57900

