158

Mg 0.81200 7.59700 25.18600
C  1.45700 9.70500 27.97200
C  1.22200 4.86600 27.19500
C  0.60500 5.56300 22.45300
C  0.88500 10.30100 23.18400
N  1.57700 7.36500 27.38900
C  1.54300 8.35200 28.32800
C  1.71700 7.62700 29.68600
C  1.81100 6.14000 29.40800
C  1.51800 6.08800 27.89400
C  3.15000 5.45600 29.81200
C  0.54200 7.98100 30.70800
C  0.84100 8.06400 32.18600
H  2.17100 7.60700 32.78300
N  0.76600 5.49500 24.93200
C  0.97000 4.57800 25.89600
C  0.82400 3.20400 25.30100
C  0.59300 3.42300 23.92400
C  0.65700 4.90500 23.65600
C  0.97000 1.89300 26.08100
C  0.48400 2.37000 22.82800
O  0.57900 2.60800 21.62200
C  0.13500 1.01400 23.25100
N  0.85700 7.87800 23.04100
C  0.64000 6.87800 22.11700
C  0.69200 7.49500 20.72700
C  0.72500 9.03400 20.97100
C  0.86400 9.10300 22.48400
C  1.89700 6.94300 19.89800
C  -0.50300 9.81100 20.30700
C  -1.84100 9.52900 21.01600
N  0.98700 9.62700 25.50100
C  1.00000 10.64700 24.52600
C  1.04600 11.93700 25.18900
C  1.33600 11.57400 26.57200
C  1.25500 10.20300 26.66700
C  1.16000 13.35100 24.70100
C  1.65800 12.05000 27.86800
O  1.83500 13.20400 28.28500
C  1.67000 10.96300 28.85200
C  3.00200 11.02400 29.57700
O  4.03900 10.59000 29.15600
O  2.80900 11.54600 30.84600
C  3.96200 11.46300 31.67000
H  1.45200 3.99000 27.80400
H  0.24600 4.95200 21.62100
H  0.81000 11.18400 22.54500
H  2.63600 7.98800 30.14800
H  1.05300 5.46100 29.79900
H  3.88100 6.21300 30.09800
H  3.56700 4.73500 29.10800
H  2.91300 4.95600 30.75100
H  -0.23200 7.22900 30.55200
H  0.03900 8.89900 30.40500
H  0.07400 7.45900 32.66800
H  0.73000 9.06200 32.60900
H  1.91100 1.44000 25.76900
H  0.14800 1.17900 26.02400
H  0.95900 2.04500 27.16000
H  0.97700 0.60900 23.81200
H  -0.09900 0.43900 22.35500
H  -0.79500 0.94900 23.81500
H  -0.22400 7.14500 20.25100
H  1.62000 9.49600 20.55500
H  2.57700 7.73600 19.58700
H  1.45500 6.40200 19.06200
H  2.41600 6.28500 20.59500
H  -0.48800 9.45900 19.27600
H  -0.37900 10.89000 20.40600
H  -2.39700 8.78100 20.45100
H  -2.50800 10.37500 21.17900
H  -1.50100 9.11400 21.96500
H  0.58800 13.93400 25.42400
H  0.73900 13.47600 23.70400
H  2.08700 13.92400 24.74000
H  0.81600 11.08900 29.51700
H  4.98100 11.50600 31.28500
H  3.99800 10.54500 32.25700
H  3.86800 12.31500 32.34300
Mg 35.69300 0.47200 29.61100
C  33.60300 1.57000 32.20600
C  38.33400 0.45700 31.93400
C  37.89200 -0.26500 27.09100
C  33.31700 1.34300 27.35300
N  35.93700 1.01900 31.81500
C  34.88300 1.34300 32.63500
C  35.29000 1.18400 34.12400
C  36.88900 1.08900 33.99500
C  37.10900 0.82700 32.45800
C  37.54500 2.39600 34.58900
C  34.64100 0.01500 34.93300
C  34.03000 0.38000 36.32900
H  34.84000 1.38000 37.16400
N  37.76800 0.04900 29.56400
C  38.65300 0.14200 30.64600
C  39.91200 -0.35500 30.19200
C  39.80900 -0.69300 28.86700
C  38.44500 -0.36000 28.38500
C  41.18400 -0.53500 31.09800
C  40.81200 -1.24500 27.90200
O  40.65000 -1.51400 26.73300
C  42.17900 -1.59900 28.36400
N  35.66400 0.55400 27.44800
C  36.66500 0.15700 26.65600
C  36.21600 0.47300 25.19500
C  34.83300 1.21200 25.27100
C  34.52100 0.97100 26.77700
C  37.34700 1.37600 24.51300
C  33.80600 0.71300 24.30700
C  33.06500 1.82200 23.45300
N  33.78200 1.09300 29.67700
C  32.92500 1.38400 28.68300
C  31.66500 1.76100 29.26700
C  31.85100 1.86700 30.65300
C  33.19500 1.45000 30.87200
C  30.54300 2.01800 28.21700
C  31.22200 2.20900 31.88500
O  30.05200 2.55500 32.11400
C  32.35300 1.96400 32.97000
C  32.54000 3.25500 33.63600
O  33.39800 4.06400 33.37200
O  31.69300 3.36200 34.75200
C  31.93500 4.41000 35.74200
H  39.05700 0.36700 32.74800
H  38.59600 -0.62100 26.33600
H  32.69200 1.95900 26.70300
H  34.89600 2.06000 34.64000
H  37.36600 0.31300 34.59400
H  37.73400 3.13500 33.81100
H  38.47600 2.15500 35.10000
H  36.78200 3.02000 35.05400
H  35.51000 -0.60600 35.15200
H  33.93600 -0.53900 34.31200
H  34.03900 -0.61900 36.76600
H  32.95200 0.53000 36.27000
H  41.58900 -1.53500 30.94000
H  40.99400 -0.47100 32.17000
H  41.94200 0.18100 30.78500
H  41.98300 -2.38800 29.09000
H  42.59300 -0.66300 28.73800
H  42.84600 -1.98600 27.59400
H  36.14800 -0.39400 24.53800
H  34.77500 2.29200 25.13600
H  36.91300 2.24400 24.01500
H  37.89700 0.77500 23.78900
H  38.01100 1.73200 25.30000
H  33.03200 0.21100 24.88800
H  34.11800 -0.06800 23.61300
H  32.11100 2.00300 23.94800
H  32.89600 1.51200 22.42100
H  33.53500 2.80100 23.54600
H  30.56500 1.02200 27.77600
H  30.81400 2.75300 27.45800
H  29.52000 2.15300 28.56700
H  31.98900 1.25400 33.71200
H  31.54500 5.24400 35.15800
H  32.98500 4.59300 35.97400
H  31.32400 4.41400 36.64500

