158

Mg 40.42300 9.39700 29.28200
C  42.44800 10.32300 32.10800
C  38.49700 7.54900 31.32600
C  38.77700 8.45000 26.49700
C  43.01400 10.70200 27.14600
N  40.48900 9.07800 31.43300
C  41.33200 9.61100 32.42200
C  40.74500 9.41300 33.77400
C  39.51800 8.44200 33.55200
C  39.49900 8.28500 32.04000
C  39.56000 7.05500 34.23000
C  40.43900 10.72600 34.55200
C  39.89000 10.44500 35.96900
H  39.79200 11.67900 36.91100
N  38.81100 8.11100 28.94900
C  38.13900 7.44000 29.95200
C  37.02900 6.79100 29.30300
C  37.12100 6.93100 27.93000
C  38.22900 7.89900 27.71900
C  36.08100 6.00700 30.25800
C  36.33100 6.22200 26.80000
O  36.43900 6.59000 25.60900
C  35.40700 5.19000 27.24500
N  40.93100 9.45300 27.13200
C  39.94900 9.20500 26.20400
C  40.44400 9.46700 24.73900
C  41.82900 10.21300 25.02300
C  41.94100 10.09800 26.50600
C  40.50000 8.25100 23.84300
C  41.66900 11.71400 24.51700
C  40.60100 12.59100 25.19500
N  42.31200 10.36400 29.48800
C  43.21000 10.83200 28.55200
C  44.33000 11.48300 29.27000
C  43.98500 11.26600 30.58500
C  42.82100 10.62100 30.74700
C  45.36100 12.32500 28.64100
C  44.53300 11.63300 31.89400
O  45.53900 12.27900 32.19600
C  43.54300 10.99500 32.97400
C  44.28000 10.01300 33.81700
O  44.27000 8.81500 33.53200
O  44.96300 10.57400 34.86000
C  45.69200 9.63600 35.69800
H  37.81000 7.10200 32.04700
H  38.18000 8.15900 25.63000
H  43.78400 11.20800 26.56000
H  41.46000 8.88300 34.40300
H  38.53600 8.87100 33.75100
H  39.52500 6.29900 33.44500
H  38.67900 6.92300 34.85800
H  40.41200 6.89100 34.89100
H  39.77400 11.43200 34.05400
H  41.41000 11.18200 34.74800
H  40.44700 9.61100 36.39700
H  38.83400 10.19500 35.86800
H  35.37100 5.34900 29.75600
H  35.63000 6.56000 31.08200
H  36.80400 5.33600 30.72200
H  35.99600 4.41500 27.73600
H  34.91200 4.83200 26.34200
H  34.57700 5.64100 27.78800
H  39.70800 10.18400 24.37400
H  42.57600 9.62100 24.49600
H  40.08600 7.38600 24.36200
H  41.51300 7.97900 23.54800
H  40.02400 8.52800 22.90300
H  41.43300 11.70700 23.45300
H  42.61400 12.24700 24.62400
H  40.11400 12.01300 25.98000
H  39.93100 12.82200 24.36700
H  41.03900 13.50900 25.58900
H  45.14300 12.52500 27.59200
H  46.36400 11.89900 28.61000
H  45.39500 13.28700 29.15300
H  43.09600 11.72700 33.64600
H  46.27100 9.00300 35.02600
H  45.02700 8.97200 36.25000
H  46.43600 10.24700 36.21000
Mg 48.61500 44.95300 43.00900
C  45.18200 44.80100 42.47100
C  48.64300 41.65000 42.34200
C  51.93900 45.14500 43.20800
C  48.38500 48.39500 43.19900
N  47.10700 43.43700 42.32400
C  45.81700 43.54800 42.23600
C  45.00700 42.28100 41.97300
C  46.15500 41.24400 42.16300
C  47.39800 42.17300 42.16300
C  46.09200 40.48100 43.49700
C  44.29400 42.14700 40.52300
C  44.83700 42.99400 39.31800
H  44.77500 42.31000 37.91300
N  50.08000 43.63000 42.75100
C  49.89000 42.25100 42.59900
C  51.18900 41.51700 42.64500
C  52.14600 42.54300 42.92700
C  51.41700 43.90000 42.97600
C  51.30300 40.02400 42.53000
C  53.62800 42.25400 43.06000
O  54.05500 41.17100 42.76200
C  54.58000 43.36300 43.37800
N  49.98900 46.57900 42.98200
C  51.31900 46.39600 43.21900
C  52.10200 47.74200 43.44000
C  50.95600 48.82200 43.50200
C  49.67200 47.88900 43.14000
C  53.00300 47.77800 44.71800
C  51.16200 50.06400 42.56900
C  50.94400 51.45800 43.27500
N  47.10500 46.36200 42.97500
C  47.15100 47.68000 43.00200
C  45.80700 48.25100 42.82100
C  45.01300 47.15300 42.73900
C  45.83000 46.02300 42.68700
C  45.44700 49.71600 42.69900
C  43.67800 46.70300 42.60200
O  42.64000 47.38200 42.46400
C  43.74600 45.16100 42.45500
C  43.06000 44.48300 43.51100
O  42.12100 43.75800 43.30500
O  43.76100 44.68000 44.71300
C  43.42600 43.63200 45.70300
H  48.53600 40.57200 42.21000
H  53.02700 45.24200 43.20000
H  48.24000 49.47300 43.29900
H  44.26300 42.25300 42.76800
H  46.13800 40.51200 41.35600
H  45.17200 40.42500 44.07900
H  46.84300 40.82600 44.20700
H  46.30600 39.44000 43.25400
H  43.22300 42.34100 40.58800
H  44.35900 41.11000 40.19400
H  45.90900 43.09100 39.49600
H  44.32700 43.95700 39.27300
H  51.52000 39.78700 41.48900
H  50.49800 39.33900 42.79900
H  52.16100 39.68500 43.11100
H  54.23500 44.04100 44.15900
H  54.77100 43.89700 42.44700
H  55.55800 42.97500 43.66300
H  52.74000 47.97400 42.58700
H  50.76400 49.14400 44.52600
H  54.02100 48.16600 44.68900
H  53.14100 46.78800 45.15300
H  52.50600 48.25800 45.56100
H  50.53400 50.03800 41.67900
H  52.21100 49.98700 42.28500
H  50.61400 51.38600 44.31100
H  50.17100 51.97600 42.70800
H  51.88000 52.01700 43.28800
H  45.66800 50.09700 41.70200
H  46.07400 50.23100 43.42700
H  44.37600 49.77500 42.89300
H  43.26700 44.88300 41.51600
H  42.42600 43.79800 46.10500
H  44.20500 43.74400 46.45700
H  43.53200 42.67100 45.20100

