158

Mg 17.25100 -1.83200 27.15100
C  16.29100 0.43900 29.64500
C  19.19600 -3.40500 29.43700
C  18.79000 -3.40800 24.55400
C  15.74600 0.34400 24.80700
N  17.56100 -1.59000 29.33900
C  17.08700 -0.55800 30.08500
C  17.52800 -0.76400 31.58900
C  18.56400 -1.91900 31.45800
C  18.51100 -2.32800 29.98600
C  20.07100 -1.36500 31.79200
C  16.38800 -1.14100 32.63200
C  16.50200 -0.58400 34.06800
H  17.96800 -0.32400 34.61300
N  18.75100 -3.36500 27.00800
C  19.36000 -3.89200 28.09000
C  20.06500 -4.97600 27.64500
C  19.88900 -5.09100 26.24100
C  19.06600 -3.91000 25.81600
C  20.88400 -5.91900 28.58500
C  20.38500 -6.17900 25.29600
O  20.07200 -6.25700 24.12000
C  21.29000 -7.23100 25.72700
N  17.28200 -1.49400 25.04000
C  18.01300 -2.28400 24.15400
C  17.80500 -1.88200 22.70300
C  16.71600 -0.71900 22.73300
C  16.67800 -0.54400 24.30400
C  19.11900 -1.38300 22.03300
C  15.39500 -1.02300 22.14700
C  15.28500 -0.56600 20.64900
N  16.09700 -0.17500 27.18600
C  15.49000 0.59400 26.14900
C  14.78600 1.70100 26.75600
C  15.11200 1.75000 28.14400
C  15.92600 0.62900 28.30300
C  14.00400 2.73800 25.95600
C  15.06100 2.39100 29.38100
O  14.31600 3.31300 29.63900
C  15.69600 1.56300 30.46500
C  16.53700 2.42500 31.39800
O  17.39500 3.26400 31.02100
O  16.11200 2.26500 32.70800
C  16.51500 3.19800 33.65400
H  19.69900 -3.88200 30.28100
H  19.26000 -3.97100 23.74400
H  15.16700 1.03100 24.18600
H  17.96700 0.17300 31.93400
H  18.25200 -2.70400 32.14700
H  20.38000 -1.93300 32.66900
H  20.02400 -0.33000 32.13200
H  20.77400 -1.52000 30.97400
H  16.19700 -2.20700 32.75500
H  15.42200 -0.81300 32.25000
H  15.93000 -1.15700 34.79800
H  15.91300 0.32800 33.96300
H  21.89500 -6.21700 28.30700
H  20.37500 -6.87600 28.70100
H  21.03200 -5.41400 29.54000
H  22.32100 -6.88800 25.81300
H  21.49900 -7.90400 24.89500
H  20.91600 -7.75800 26.60500
H  17.44900 -2.74500 22.14100
H  17.19800 0.20900 22.42500
H  18.81000 -0.52900 21.43100
H  19.60000 -2.06500 21.33100
H  19.70400 -0.95800 22.84800
H  14.54400 -0.84400 22.80400
H  15.36200 -2.09800 21.97100
H  14.78100 -1.29200 20.01000
H  16.29100 -0.24500 20.37700
H  14.68200 0.34100 20.60900
H  14.76700 2.92900 25.20100
H  13.68500 3.56200 26.59600
H  13.18300 2.14200 25.55700
H  14.94800 1.13300 31.13300
H  16.99700 2.70200 34.49700
H  15.65100 3.79700 33.93900
H  17.24000 3.94300 33.32600
Mg 35.60400 1.84300 30.12300
C  33.03600 3.07700 32.41500
C  37.72400 1.87400 32.70800
C  37.85500 1.31500 27.92400
C  33.29500 2.59400 27.41500
N  35.32600 2.47700 32.31000
C  34.23200 2.85900 33.01900
C  34.51200 2.96100 34.47000
C  36.07900 2.88200 34.51000
C  36.44000 2.34000 33.10900
C  36.72300 4.26200 34.76500
C  33.78600 1.86300 35.27600
C  33.25700 2.20700 36.71700
H  34.07200 3.32500 37.49900
N  37.55500 1.37600 30.33700
C  38.22100 1.41600 31.47100
C  39.56700 0.93200 31.15300
C  39.66500 0.97500 29.73100
C  38.37000 1.27500 29.28100
C  40.49600 0.51400 32.26500
C  40.95800 0.81100 28.86400
O  40.95900 0.86900 27.63900
C  42.24400 0.60600 29.52000
N  35.47300 1.75300 27.95000
C  36.59000 1.50800 27.30200
C  36.46600 1.84100 25.78800
C  34.89000 1.88900 25.62500
C  34.53100 2.08400 27.07000
C  37.29200 3.05700 25.26200
C  34.10700 0.79300 24.94400
C  33.70000 -0.44500 25.65500
N  33.66500 2.63700 29.86100
C  32.89400 2.86200 28.76400
C  31.52900 3.28900 29.24600
C  31.58500 3.37300 30.61000
C  32.85300 3.00300 30.99400
C  30.30300 3.56800 28.47400
C  30.79300 3.70600 31.76600
O  29.66200 4.16600 31.85800
C  31.74500 3.47900 33.01500
C  31.91200 4.78700 33.67600
O  32.60300 5.74500 33.27100
O  31.00900 4.91000 34.72100
C  30.91300 6.22300 35.37800
H  38.42600 1.79400 33.54100
H  38.56600 1.00100 27.15700
H  32.47300 2.90400 26.76600
H  34.15700 3.95000 34.76000
H  36.50900 2.22700 35.26800
H  35.97500 5.05300 34.70900
H  37.51600 4.51600 34.06200
H  37.31600 4.28600 35.68000
H  34.52200 1.06100 35.21900
H  32.87700 1.47100 34.81900
H  33.21000 1.32300 37.35300
H  32.19700 2.43900 36.61400
H  41.14100 -0.29800 31.92900
H  39.91500 0.19700 33.13100
H  41.09500 1.31600 32.69600
H  42.58100 1.43800 30.13700
H  42.89600 0.49400 28.65400
H  42.27700 -0.29900 30.12700
H  36.77400 0.92800 25.27800
H  34.77600 2.84100 25.10500
H  37.69800 2.76200 24.29400
H  38.11800 3.31500 25.92400
H  36.68800 3.92800 25.00900
H  34.76400 0.50600 24.12200
H  33.21000 1.07500 24.39300
H  33.96300 -1.34200 25.09500
H  32.62700 -0.46300 25.84700
H  34.28200 -0.53400 26.57200
H  30.22800 2.75000 27.75600
H  30.49500 4.47600 27.90300
H  29.34700 3.62800 28.99400
H  31.15200 2.76100 33.58200
H  31.78000 6.43300 36.00500
H  30.09800 6.07100 36.08500
H  30.67000 7.08800 34.76100

