158

Mg 40.48300 9.72000 30.55900
C  42.07700 11.18800 33.20600
C  37.91000 8.76000 32.77900
C  38.87100 8.39500 27.96100
C  43.34100 10.03600 28.54600
N  39.91200 10.13700 32.72500
C  40.74000 10.70500 33.59900
C  40.18300 10.65000 35.11000
C  38.95300 9.72700 34.96800
C  38.87300 9.53400 33.39100
C  39.04400 8.42100 35.88600
C  39.87500 12.10100 35.69300
C  40.69900 12.57100 36.99100
H  39.87200 13.08400 38.15700
N  38.61100 8.64500 30.35600
C  37.72600 8.38200 31.42800
C  36.56600 7.69300 30.81700
C  36.83700 7.43900 29.44400
C  38.15000 8.14100 29.15000
C  35.42600 7.24400 31.75800
C  35.98900 6.75100 28.30900
O  36.15300 6.84700 27.12700
C  34.83600 5.93200 28.79900
N  41.06200 9.35600 28.54000
C  40.13200 8.91300 27.65500
C  40.73700 8.82200 26.21300
C  42.25300 9.01500 26.48800
C  42.23200 9.52300 27.87500
C  40.41300 7.56500 25.29600
C  42.96400 9.83000 25.38900
C  42.87400 11.33700 25.59600
N  42.32700 10.45800 30.78300
C  43.39000 10.50700 29.85100
C  44.37300 11.28300 30.49500
C  43.92500 11.58600 31.78700
C  42.66500 11.03500 31.94200
C  45.71300 11.67600 29.84300
C  44.30700 12.21000 33.10200
O  45.39300 12.74700 33.36200
C  43.11600 11.88700 34.08400
C  43.80100 11.09700 35.15800
O  44.35500 9.99500 35.09100
O  43.94400 11.89600 36.31700
C  44.32500 11.15900 37.51400
H  37.24300 8.31900 33.52300
H  38.27600 8.00500 27.13200
H  44.13400 10.20700 27.81500
H  40.84200 10.14000 35.81300
H  38.05300 10.18400 35.38000
H  39.75700 7.72300 35.44700
H  38.11500 7.85300 35.84200
H  39.24000 8.57300 36.94700
H  38.84400 12.16500 36.04100
H  39.97800 12.81800 34.87800
H  41.35700 13.37500 36.66000
H  41.27400 11.68400 37.25500
H  35.16200 8.05500 32.43600
H  35.72400 6.41700 32.40300
H  34.53000 7.03300 31.17400
H  35.31900 5.21900 29.46800
H  34.43500 5.46100 27.90200
H  34.07400 6.62200 29.16100
H  40.25200 9.59800 25.62000
H  42.76400 8.05900 26.60000
H  39.92300 7.70300 24.33300
H  39.93500 6.82400 25.93700
H  41.38800 7.23700 24.93400
H  42.54600 9.55700 24.41900
H  44.02000 9.58200 25.28600
H  42.05300 11.69800 26.21600
H  42.74300 11.77700 24.60700
H  43.84000 11.68300 25.96200
H  45.51600 12.25000 28.93800
H  46.38700 10.84600 29.63300
H  46.14900 12.39900 30.53300
H  42.73500 12.79500 34.55000
H  43.95600 11.81500 38.30300
H  45.39400 10.97100 37.61300
H  43.77400 10.22000 37.55600
Mg 48.86300 45.74000 43.42100
C  45.39400 45.96900 42.29200
C  48.97000 42.72000 41.96100
C  52.28400 45.98400 43.50100
C  48.55300 49.17700 44.03000
N  47.27700 44.53600 42.19400
C  45.99400 44.76900 41.89500
C  45.30300 43.54900 41.27400
C  46.49000 42.57600 41.20700
C  47.68300 43.26800 41.89600
C  46.29100 41.17600 41.88000
C  44.40200 43.79900 39.93500
C  45.07800 44.43000 38.70600
H  45.69400 43.59300 37.64100
N  50.42400 44.37800 43.10600
C  50.26100 43.20500 42.49300
C  51.53200 42.51900 42.36300
C  52.51900 43.48700 42.74100
C  51.76100 44.73000 43.18200
C  51.61900 41.05000 41.97000
C  54.02800 43.13800 42.65000
O  54.40500 42.05700 42.19800
C  55.07500 44.12500 43.07000
N  50.22500 47.41500 43.62600
C  51.57000 47.16800 43.84900
C  52.33500 48.44200 44.19600
C  51.08200 49.49700 44.35400
C  49.82700 48.61600 43.96200
C  53.21900 48.33100 45.50300
C  51.21400 50.89000 43.79400
C  52.34800 51.76500 44.28700
N  47.31800 47.27400 43.41500
C  47.37400 48.60700 43.69900
C  46.02900 49.17500 43.75900
C  45.25800 48.24000 43.08800
C  46.10000 47.08200 42.96400
C  45.59800 50.60400 44.18200
C  43.95500 47.93100 42.64000
O  42.96800 48.66400 42.66800
C  44.00000 46.47700 42.13000
C  43.00800 45.72100 42.95700
O  41.85700 45.53000 42.58200
O  43.43900 45.36200 44.17300
C  42.42200 44.86300 45.15700
H  49.08800 41.76800 41.43900
H  53.36900 46.10200 43.52300
H  48.43500 50.25000 44.19600
H  44.63800 43.18600 42.05800
H  46.70800 42.44900 40.14700
H  46.44100 40.47700 41.05800
H  45.25600 41.08000 42.20800
H  46.90200 41.06800 42.77600
H  43.56100 44.43900 40.20000
H  43.98500 42.86300 39.56300
H  45.89100 45.06400 39.05900
H  44.31100 45.11000 38.33600
H  51.89100 41.00900 40.91500
H  50.65900 40.53600 42.01500
H  52.34900 40.52300 42.58400
H  54.99200 44.96800 42.38500
H  56.05100 43.71700 42.80900
H  55.12900 44.48600 44.09700
H  52.92800 48.81200 43.36000
H  50.97000 49.62200 45.43100
H  53.98500 49.10500 45.46300
H  53.63900 47.32500 45.50000
H  52.55600 48.40000 46.36600
H  50.30300 51.37200 44.15000
H  51.24100 50.87700 42.70500
H  52.71500 51.37600 45.23600
H  52.06200 52.81000 44.40800
H  53.13900 51.72700 43.53800
H  44.70700 50.88900 43.62500
H  46.42600 51.25200 43.89300
H  45.32800 50.68200 45.23500
H  43.58300 46.33200 41.13400
H  42.27400 43.79500 44.99300
H  41.50800 45.43400 44.99400
H  42.74500 45.06600 46.17800

