158

Mg 1.88800 -1.50600 43.21700
C  5.36600 -1.09300 42.83300
C  1.40100 1.37000 41.25900
C  -1.38600 -2.26500 42.90400
C  2.48200 -4.72700 44.54400
N  3.14000 -0.10100 42.14100
C  4.54000 -0.07800 42.18800
C  5.16200 1.05100 41.45700
C  3.85000 2.08600 41.33900
C  2.70700 1.05900 41.61800
C  3.86700 3.31300 42.29900
C  5.77200 0.71400 40.03200
C  6.69100 1.83800 39.50900
H  6.29400 2.51700 38.17500
N  0.24300 -0.56400 42.32900
C  0.25400 0.58000 41.50200
C  -1.13800 0.83700 41.07800
C  -1.96800 -0.14800 41.61600
C  -1.06200 -1.02800 42.39300
C  -1.60000 1.93400 40.20400
C  -3.46600 -0.19900 41.42300
O  -4.10000 0.65100 40.78800
C  -4.33200 -1.25700 42.08300
N  0.74500 -3.31200 43.61100
C  -0.60000 -3.24800 43.58000
C  -1.23500 -4.54300 43.94100
C  -0.02000 -5.36400 44.52100
C  1.16900 -4.45300 44.11700
C  -2.43900 -4.51300 44.99400
C  0.10300 -6.80600 43.91200
C  0.36100 -7.93200 44.91200
N  3.53500 -2.61800 43.80600
C  3.66800 -3.87600 44.36100
C  5.04200 -4.16600 44.60400
C  5.79500 -3.18100 44.01300
C  4.85200 -2.20100 43.54500
C  5.44100 -5.44400 45.27200
C  7.06200 -2.62400 43.62400
O  8.18400 -3.09100 43.81600
C  6.86100 -1.35900 42.85600
C  7.52300 -0.22200 43.43900
O  7.21900 0.44000 44.42800
O  8.68500 -0.00600 42.70900
C  9.13700 1.35400 42.81200
H  1.32200 2.27900 40.65900
H  -2.42100 -2.61400 42.93100
H  2.57500 -5.73300 44.95800
H  5.91000 1.54200 42.08100
H  3.81700 2.33900 40.27900
H  2.88900 3.49700 42.74400
H  4.04000 4.14700 41.61900
H  4.62300 3.17300 43.07200
H  4.96000 0.61400 39.31100
H  6.25000 -0.26500 40.02200
H  7.70000 1.42400 39.51800
H  6.69400 2.57400 40.31300
H  -0.78600 2.65100 40.10400
H  -2.38400 2.53900 40.65800
H  -1.91200 1.60500 39.21300
H  -5.38800 -1.17900 41.82800
H  -4.09200 -1.15600 43.14200
H  -3.92100 -2.19800 41.71800
H  -1.48900 -5.15200 43.07300
H  -0.08500 -5.32100 45.60800
H  -3.40400 -4.71900 44.53100
H  -2.41300 -3.53300 45.46900
H  -2.29900 -5.37800 45.64200
H  1.05200 -6.83700 43.37600
H  -0.80200 -6.99000 43.33300
H  1.30200 -8.44200 44.70400
H  -0.48000 -8.61500 44.79200
H  0.23300 -7.51700 45.91200
H  6.53000 -5.40400 45.25600
H  5.26900 -6.32200 44.65000
H  5.17400 -5.65300 46.30800
H  7.07200 -1.51900 41.79900
H  10.10100 1.39300 42.30500
H  9.23800 1.70100 43.84100
H  8.43200 2.10700 42.45800
Mg 30.08700 58.90000 38.33700
C  27.44900 56.79600 37.35700
C  32.32900 56.40900 37.79300
C  32.55100 61.18300 38.35300
C  27.70600 61.56100 38.38300
N  29.85900 56.84800 37.57200
C  28.74700 56.17200 37.16900
C  29.04700 54.71600 36.96300
C  30.50400 54.57500 37.59900
C  30.94400 56.02500 37.65600
C  30.70900 53.72100 38.90000
C  28.95000 54.41300 35.42400
C  27.67200 53.65700 34.97400
H  26.78400 54.31100 33.91100
N  32.08600 58.80100 38.11200
C  32.89700 57.67800 37.93100
C  34.34100 58.05200 37.88900
C  34.40500 59.43100 38.12600
C  32.98900 59.87300 38.19900
C  35.41500 57.01800 37.64400
C  35.64400 60.28400 38.25900
O  36.76600 59.77200 38.09100
C  35.64400 61.76100 38.67300
N  30.10100 61.15500 38.17300
C  31.29100 61.81500 38.39500
C  30.98700 63.37700 38.37200
C  29.47300 63.49000 38.46400
C  29.05700 61.97200 38.33400
C  31.89600 64.14600 39.35500
C  28.87800 64.44500 37.42900
C  27.83200 65.45900 37.96400
N  28.03400 59.20200 37.98100
C  27.24300 60.29300 38.12200
C  25.80800 59.93500 38.06200
C  25.84100 58.56300 37.70300
C  27.19600 58.18700 37.67900
C  24.63300 60.80000 38.40100
C  25.03800 57.34400 37.51700
O  23.85500 57.08800 37.54100
C  26.04500 56.22600 37.10200
C  25.72700 54.92300 37.74800
O  26.04100 54.57800 38.89300
O  24.80500 54.34800 36.99800
C  23.97800 53.23900 37.67200
H  33.10600 55.64500 37.86100
H  33.21000 62.04400 38.48900
H  26.98200 62.37200 38.48100
H  28.33400 54.08900 37.49900
H  31.19800 54.15900 36.86900
H  29.76700 53.20000 39.07200
H  30.99800 54.15000 39.85900
H  31.44300 52.97200 38.60400
H  29.79100 53.77600 35.15200
H  29.06600 55.34500 34.87200
H  26.99100 53.29500 35.74400
H  28.04800 52.77300 34.45900
H  35.53700 56.89500 36.56700
H  35.12400 56.14900 38.23400
H  36.31900 57.35700 38.14900
H  36.67700 62.09700 38.76500
H  35.14700 61.75400 39.64400
H  35.08300 62.34900 37.94800
H  31.33800 63.65800 37.37900
H  29.30400 63.87100 39.47200
H  31.32200 64.77700 40.03300
H  32.53400 64.81500 38.77800
H  32.52600 63.50100 39.96700
H  28.32600 63.83200 36.71600
H  29.63500 64.90000 36.79100
H  26.82900 65.07300 37.78100
H  28.09400 66.45600 37.60900
H  28.00900 65.46100 39.04000
H  23.95800 60.33300 39.11700
H  24.20500 60.77200 37.39900
H  24.89000 61.81800 38.69400
H  25.80900 56.03300 36.05500
H  23.00700 53.07700 37.20500
H  23.87600 53.30200 38.75600
H  24.52500 52.30100 37.56900

