158

Mg 45.34600 4.96900 48.16000
C  43.10300 7.53300 47.38900
C  42.67400 2.77000 47.99600
C  47.45700 2.54400 48.34400
C  47.92900 7.18500 47.39900
N  43.19300 5.18800 47.78500
C  42.50400 6.30600 47.47800
C  41.04400 6.05200 47.24000
C  40.83700 4.59000 47.66000
C  42.35900 4.09900 47.82200
C  39.96200 4.46700 48.88700
C  40.67900 6.35800 45.77200
C  39.47800 7.34300 45.67800
H  38.75700 7.30900 44.32500
N  45.13200 2.90300 48.25500
C  43.97300 2.19400 48.18300
C  44.29600 0.77500 48.39200
C  45.64500 0.65500 48.51800
C  46.16300 2.04900 48.33700
C  43.15000 -0.32400 48.57800
C  46.53700 -0.61900 48.81200
O  45.99900 -1.72800 48.89400
C  48.04900 -0.58700 48.71000
N  47.37300 4.94800 47.83500
C  48.00800 3.81500 48.23000
C  49.54900 3.94000 48.09000
C  49.68500 5.44100 47.86200
C  48.25000 5.91100 47.76800
C  50.47500 3.47200 49.34400
C  50.52300 5.69800 46.60200
C  49.81800 5.41100 45.21700
N  45.52600 7.00900 47.61500
C  46.66400 7.74800 47.42100
C  46.30700 9.11100 47.17600
C  44.87400 9.11600 47.17200
C  44.49000 7.82500 47.40700
C  47.30500 10.23300 46.82800
C  43.66400 9.94400 47.03500
O  43.49300 11.10900 46.74800
C  42.46200 8.88600 47.12000
C  41.60700 9.39200 48.17900
O  41.72800 9.20400 49.33700
O  40.72900 10.27300 47.59500
C  39.84800 10.91600 48.60400
H  41.87600 2.03000 47.90400
H  48.29100 1.86300 48.52800
H  48.65000 7.96600 47.15000
H  40.62900 6.77600 47.94200
H  40.29400 4.05000 46.88400
H  39.14600 3.74600 48.85500
H  39.47000 5.39900 49.16600
H  40.53700 4.20500 49.77500
H  40.22600 5.48400 45.30500
H  41.51200 6.61200 45.11600
H  39.91200 8.34300 45.68700
H  38.74700 7.16500 46.46600
H  43.27300 -1.16900 47.90000
H  42.16600 0.13700 48.49100
H  43.17900 -0.75200 49.58000
H  48.50200 -0.09000 47.85100
H  48.39200 -1.60000 48.92400
H  48.42100 -0.06900 49.59400
H  49.77700 3.29900 47.23800
H  50.08800 5.95900 48.73200
H  49.90900 3.21800 50.24100
H  51.19900 4.25800 49.56200
H  50.96800 2.57800 48.96300
H  51.38400 5.03100 46.63600
H  50.75500 6.76000 46.51500
H  48.96500 4.73700 45.29900
H  50.57400 4.97200 44.56500
H  49.47400 6.30000 44.68900
H  46.83000 11.20100 46.67200
H  47.75500 9.73500 45.96900
H  48.02000 10.37300 47.63900
H  41.91700 8.91300 46.17600
H  39.64500 10.34300 49.50900
H  38.87300 11.18500 48.20000
H  40.27000 11.86400 48.93800
Mg 40.47000 9.24100 29.85500
C  42.38300 10.56000 32.38500
C  38.16800 8.32400 32.07000
C  38.85600 7.87300 27.24000
C  43.16200 9.67800 27.64600
N  40.33600 9.26200 32.09600
C  41.31700 9.78700 32.93500
C  40.80600 9.73400 34.40100
C  39.38300 9.08700 34.29600
C  39.26300 8.88300 32.75700
C  39.22000 7.79000 35.14400
C  40.78200 11.21600 35.08000
C  39.81700 11.28500 36.32100
H  40.50700 11.81400 37.61500
N  38.70700 8.36800 29.62400
C  37.88700 8.09000 30.69400
C  36.62100 7.60500 30.17800
C  36.75900 7.49100 28.75100
C  38.13900 7.90600 28.49300
C  35.42200 7.32500 31.05200
C  35.76700 7.01900 27.74600
O  36.02900 7.01600 26.53600
C  34.39500 6.41200 28.24100
N  41.08300 8.51600 27.83400
C  40.18300 8.04300 26.95500
C  40.69400 8.09700 25.43000
C  42.14700 8.59900 25.60400
C  42.16500 8.98400 27.12700
C  40.54800 6.67700 24.69700
C  42.54600 9.64900 24.55700
C  42.46400 11.16600 25.06100
N  42.31400 9.99800 29.91100
C  43.17300 10.25800 28.91600
C  44.20100 11.16800 29.48500
C  43.91800 11.26900 30.84500
C  42.77400 10.54700 31.07800
C  45.32200 11.79700 28.73100
C  44.38500 11.83600 32.05700
O  45.39400 12.47300 32.23800
C  43.31300 11.41700 33.15800
C  44.01100 10.74500 34.28900
O  44.20000 9.53100 34.46900
O  44.39300 11.71600 35.22200
C  44.71200 11.19200 36.59500
H  37.39600 8.16100 32.82500
H  38.32600 7.50800 26.35800
H  44.03200 9.92900 27.03600
H  41.46600 9.18000 35.06900
H  38.49800 9.70300 34.45600
H  38.34900 7.77800 35.80000
H  40.05700 7.63100 35.82300
H  39.14100 6.93400 34.47400
H  40.51300 11.97200 34.34200
H  41.78000 11.46900 35.43700
H  39.43800 10.28600 36.53500
H  39.11400 12.02800 35.94500
H  34.52400 7.61500 30.50600
H  35.35600 7.85200 32.00400
H  35.20300 6.30800 31.37500
H  34.41400 5.79700 29.14100
H  34.04200 5.74000 27.45900
H  33.79400 7.31800 28.31800
H  40.04600 8.79600 24.90100
H  42.89300 7.80900 25.51500
H  41.48400 6.31300 24.27300
H  39.70500 6.71800 24.00700
H  40.33400 5.97100 25.50000
H  42.09900 9.67700 23.56300
H  43.57700 9.49700 24.23900
H  43.45700 11.52800 25.32900
H  41.74200 11.26600 25.87200
H  42.08300 11.84600 24.30000
H  45.11000 11.95500 27.67300
H  46.17000 11.12500 28.85800
H  45.53700 12.70400 29.29500
H  42.84200 12.36800 33.40700
H  43.97700 10.47900 36.96800
H  44.64600 12.02100 37.29900
H  45.73800 10.82800 36.64000

