158

Mg 1.68300 -1.39800 44.18100
C  5.05900 -0.94300 43.24300
C  0.92200 1.03800 41.88000
C  -1.40000 -2.42700 44.40800
C  2.81500 -4.16000 46.12800
N  2.87600 -0.14300 42.60700
C  4.21200 -0.07100 42.45700
C  4.65000 0.90200 41.37300
C  3.27200 1.70000 41.10300
C  2.24700 0.84900 41.92000
C  3.30500 3.22500 41.27100
C  5.39200 0.28100 40.10400
C  6.87700 0.62000 40.11000
H  7.48600 0.91400 38.72200
N  -0.03100 -0.72600 43.33400
C  -0.16600 0.28300 42.43200
C  -1.57900 0.53700 42.31900
C  -2.27900 -0.30900 43.13200
C  -1.22100 -1.26700 43.66300
C  -2.11700 1.50300 41.23100
C  -3.82700 -0.29800 43.34200
O  -4.51100 0.41000 42.62100
C  -4.45400 -1.19800 44.29900
N  0.84200 -3.32300 44.85400
C  -0.45900 -3.37800 45.07100
C  -0.84200 -4.60800 45.68100
C  0.52900 -5.24700 46.32500
C  1.49700 -4.21300 45.66100
C  -1.94800 -4.52300 46.75500
C  0.87400 -6.68100 45.75900
C  1.00000 -7.72500 46.92900
N  3.52900 -2.37000 44.61200
C  3.77500 -3.39400 45.52100
C  5.20400 -3.67100 45.53400
C  5.75500 -2.61300 44.72300
C  4.69000 -1.95500 44.15800
C  5.92200 -4.87100 46.12600
C  6.94200 -2.08000 44.21700
O  8.09800 -2.50100 44.35400
C  6.55400 -0.89300 43.26900
C  7.04800 0.32300 43.91800
O  6.76900 0.71300 45.04100
O  7.85200 1.02100 42.98300
C  8.25000 2.38300 43.32700
H  0.68100 1.98300 41.38900
H  -2.43500 -2.66600 44.66000
H  3.24600 -4.93300 46.76800
H  5.32600 1.65600 41.77800
H  3.01200 1.56300 40.05400
H  2.70300 3.56100 42.11600
H  2.98700 3.68100 40.33300
H  4.29900 3.50600 41.61800
H  4.94800 0.79100 39.24900
H  5.29000 -0.80400 40.10200
H  7.53100 -0.15900 40.50200
H  7.02100 1.53600 40.68300
H  -2.66700 0.93500 40.48000
H  -1.34600 2.10500 40.74900
H  -2.71200 2.25600 41.74700
H  -5.43600 -0.85400 44.62400
H  -3.87900 -1.32200 45.21700
H  -4.53100 -2.14000 43.75700
H  -1.17400 -5.26000 44.87400
H  0.47000 -5.34000 47.41000
H  -1.63800 -4.65300 47.79200
H  -2.79800 -5.19600 46.64800
H  -2.41300 -3.54400 46.64100
H  1.84800 -6.54300 45.29100
H  0.15700 -6.94300 44.98200
H  2.04400 -8.03600 46.94000
H  0.42700 -8.60600 46.63900
H  0.61800 -7.30800 47.86100
H  5.87800 -5.54200 45.26800
H  5.27500 -5.18900 46.94300
H  6.94300 -4.75700 46.49200
H  7.00000 -1.00900 42.28100
H  7.39900 3.01700 43.07700
H  9.07800 2.68100 42.68400
H  8.55700 2.58000 44.35400
Mg 23.84100 -6.57900 45.58100
C  26.38800 -4.53200 44.01500
C  21.63900 -4.97600 43.34400
C  21.59000 -8.81300 46.45400
C  26.28200 -8.20100 47.38200
N  24.10100 -4.99400 43.72900
C  25.16700 -4.29000 43.36900
C  24.86000 -3.35200 42.17400
C  23.31700 -3.23000 42.25300
C  22.95100 -4.45200 43.17400
C  22.71300 -1.93400 42.99000
C  25.51700 -3.96200 40.88000
C  26.45800 -2.97700 40.18400
H  26.10700 -2.75300 38.70700
N  21.87900 -6.81100 45.07800
C  21.16700 -6.08800 44.16100
C  19.78300 -6.59500 44.17100
C  19.72300 -7.71300 45.03700
C  21.11200 -7.84600 45.57400
C  18.80900 -5.96300 43.24900
C  18.53600 -8.56800 45.30600
O  17.47500 -8.40800 44.72300
C  18.53900 -9.64300 46.30300
N  23.94200 -8.35900 46.71800
C  22.85400 -9.09900 47.03100
C  23.26800 -10.31300 47.95300
C  24.70000 -9.97600 48.36500
C  25.00700 -8.79700 47.45000
C  22.26500 -10.63200 49.06200
C  25.70900 -11.20500 48.19700
C  26.70900 -11.48500 49.26600
N  25.91700 -6.43200 45.75800
C  26.75600 -7.11200 46.57700
C  28.12100 -6.53800 46.41400
C  28.03300 -5.55400 45.39100
C  26.60100 -5.50300 45.04600
C  29.30300 -7.03100 47.24600
C  28.74300 -4.61200 44.70300
O  29.93000 -4.27200 44.77700
C  27.79100 -3.99700 43.71000
C  27.92800 -2.46900 43.74400
O  28.62300 -1.78400 42.99700
O  27.27300 -1.94300 44.86800
C  27.44400 -0.46500 45.19900
H  20.88300 -4.38000 42.82900
H  20.92600 -9.65700 46.65000
H  27.06300 -8.58400 48.04100
H  25.18700 -2.35100 42.45600
H  22.94000 -3.32200 41.23400
H  23.52200 -1.36000 43.44300
H  21.99400 -2.09700 43.79300
H  22.25300 -1.30700 42.22600
H  24.75200 -4.16300 40.12900
H  25.99700 -4.91600 41.09500
H  27.48400 -3.34100 40.25000
H  26.39300 -1.99900 40.66000
H  18.62900 -6.35900 42.25000
H  19.04700 -4.90700 43.12400
H  17.85100 -6.02100 43.76700
H  18.92000 -9.29700 47.26400
H  19.09300 -10.48700 45.89200
H  17.55000 -10.02600 46.55200
H  23.34100 -11.14000 47.24700
H  24.73300 -9.61600 49.39300
H  22.69400 -10.45200 50.04700
H  22.09800 -11.70800 49.01600
H  21.32400 -10.08300 49.09400
H  26.17300 -11.19700 47.21100
H  25.06800 -12.07100 48.35900
H  27.71800 -11.68800 48.90600
H  26.39200 -12.34000 49.86300
H  26.71200 -10.67900 50.00000
H  29.12100 -7.62300 48.14300
H  29.86900 -6.13300 47.49400
H  29.97700 -7.52400 46.54600
H  28.04300 -4.24300 42.67800
H  27.82400 0.22200 44.44300
H  28.26600 -0.44600 45.91500
H  26.46900 -0.24700 45.63400

