158

Mg 45.75100 3.91200 47.08500
C  43.41800 6.63300 46.54600
C  43.17100 1.79400 46.54000
C  48.01000 1.63700 46.80200
C  48.37700 6.40700 47.13500
N  43.58300 4.23100 46.51600
C  42.81900 5.42300 46.41300
C  41.33900 5.04500 46.00200
C  41.26900 3.51500 46.19600
C  42.71400 3.11800 46.42400
C  40.23400 2.98800 47.23800
C  41.05500 5.48000 44.51400
C  40.34500 6.78000 44.21500
H  40.86900 7.61900 43.02200
N  45.59900 1.96400 46.87100
C  44.41100 1.23800 46.65500
C  44.74400 -0.12300 46.70700
C  46.18600 -0.20100 46.66200
C  46.67700 1.16000 46.82500
C  43.68400 -1.19300 46.55500
C  47.01500 -1.53900 46.60800
O  46.47800 -2.61300 46.56200
C  48.58700 -1.58100 46.70300
N  47.91200 4.03700 46.78300
C  48.61100 2.89000 46.74400
C  50.15500 3.12200 46.75300
C  50.29500 4.63200 46.92500
C  48.76100 5.08600 46.93200
C  50.94400 2.21500 47.68600
C  51.22700 5.36000 45.91400
C  52.52500 5.99400 46.35300
N  45.89800 6.05600 46.94000
C  47.06000 6.86800 47.00900
C  46.64700 8.32300 47.01000
C  45.18600 8.23600 46.91800
C  44.79100 6.88100 46.75700
C  47.46500 9.60500 46.82600
C  43.94300 9.02400 46.88800
O  43.75100 10.22600 47.00400
C  42.76200 8.00400 46.73500
C  41.92800 8.09100 47.99300
O  42.19800 7.58600 49.06300
O  40.86000 8.95400 47.78200
C  40.07300 9.34300 48.97800
H  42.33000 1.10700 46.42900
H  48.80900 0.92300 46.59300
H  49.20800 7.09700 47.29500
H  40.71200 5.67500 46.63400
H  40.87700 2.97300 45.33600
H  39.39400 2.71000 46.60200
H  39.96900 3.82800 47.88000
H  40.66100 2.13000 47.75800
H  40.59700 4.65900 43.96200
H  41.98800 5.52400 43.95200
H  40.31600 7.41400 45.10200
H  39.28600 6.64300 43.99600
H  43.78300 -1.62300 45.55800
H  42.62900 -0.92300 46.60900
H  43.82100 -1.93500 47.34100
H  48.84900 -0.95800 47.55900
H  48.97300 -1.19400 45.76000
H  48.87300 -2.61800 46.87500
H  50.50100 2.88000 45.74800
H  50.73400 4.83200 47.90200
H  50.37600 2.07600 48.60600
H  51.92000 2.67400 47.84300
H  51.13300 1.25400 47.20700
H  50.65100 6.18400 45.49300
H  51.40200 4.69700 45.06600
H  52.28400 7.04100 46.53500
H  53.32300 6.09300 45.61700
H  52.97700 5.49200 47.20800
H  48.33800 9.50300 47.47000
H  46.84100 10.37600 47.27800
H  47.72900 9.76200 45.78000
H  42.18400 8.25700 45.84600
H  40.68500 9.89000 49.69500
H  39.81800 8.44400 49.54100
H  39.19400 9.91200 48.67500
Mg 42.11700 40.50400 27.08200
C  41.21100 42.73000 29.52200
C  42.99600 38.35900 29.44700
C  42.90900 38.34000 24.71000
C  41.19600 42.83300 24.52600
N  41.98100 40.51300 29.21600
C  41.50400 41.49200 29.99800
C  41.55500 41.12400 31.48800
C  42.16400 39.72200 31.37600
C  42.38300 39.53300 29.95800
C  43.48300 39.49900 32.27800
C  40.17700 41.25700 32.23000
C  40.14700 42.10500 33.62000
H  39.54200 41.34400 34.84200
N  42.93700 38.62800 27.09000
C  43.25800 37.94400 28.18300
C  43.81400 36.61800 27.85300
C  43.65200 36.53300 26.42000
C  43.06800 37.79900 26.02500
C  44.26900 35.57500 28.79100
C  44.00000 35.43100 25.47500
O  43.76300 35.43900 24.26100
C  44.66300 34.16900 25.99400
N  42.03800 40.59500 24.93800
C  42.37000 39.51000 24.19600
C  42.18100 39.72900 22.67300
C  41.46700 41.16600 22.63800
C  41.57900 41.57600 24.10400
C  43.44200 39.58500 21.78700
C  40.00900 41.30800 22.06800
C  39.50000 42.72400 21.63500
N  41.35000 42.42100 26.94900
C  41.08800 43.26100 25.88100
C  40.61600 44.49500 26.42600
C  40.65900 44.34600 27.86600
C  41.14800 43.06000 28.08100
C  40.34000 45.66500 25.69500
C  40.50800 45.10400 29.12900
O  40.09600 46.21500 29.36400
C  40.74600 44.03900 30.27400
C  41.66900 44.60900 31.30800
O  42.82200 44.81100 31.07100
O  41.02400 44.97000 32.45700
C  41.74800 45.48700 33.61200
H  43.22800 37.69100 30.27900
H  43.11900 37.65100 23.88900
H  41.09800 43.55900 23.71600
H  42.25400 41.68200 32.11200
H  41.35600 39.11300 31.78200
H  43.62100 38.44500 32.52100
H  43.31100 39.91200 33.27200
H  44.32200 39.92600 31.72800
H  39.82400 40.28300 32.56900
H  39.51200 41.71400 31.49700
H  39.55500 42.98000 33.35000
H  41.14800 42.43400 33.90200
H  43.71900 34.64600 28.64000
H  44.19100 35.91700 29.82300
H  45.28800 35.31700 28.50100
H  43.81500 33.77300 26.55300
H  45.54000 34.51200 26.54300
H  44.92500 33.40000 25.26800
H  41.40600 39.07700 22.27200
H  42.04300 41.92700 22.10900
H  43.46500 40.23200 20.91100
H  43.56100 38.58600 21.36700
H  44.37700 39.86700 22.27000
H  39.27200 40.78300 22.67700
H  40.00600 40.83900 21.08400
H  39.13900 42.65800 20.60800
H  40.36300 43.38700 21.57300
H  38.83900 43.22600 22.34200
H  40.54500 45.57000 24.62900
H  41.05200 46.41900 26.03000
H  39.33000 46.03900 25.86100
H  39.77200 43.91200 30.74700
H  42.75200 45.85200 33.39400
H  41.79500 44.60400 34.24900
H  41.20500 46.30400 34.08700

