158

Mg 34.05400 2.93400 29.45200
C  31.96100 3.78000 32.16600
C  36.79900 2.89100 31.54300
C  36.06000 2.19500 26.83000
C  31.26400 3.32200 27.35500
N  34.28600 3.18500 31.55300
C  33.33200 3.59000 32.50600
C  33.94100 3.62200 33.92000
C  35.50000 3.54200 33.62300
C  35.51800 3.15100 32.13400
C  36.18700 4.97300 33.94700
C  33.42200 2.37000 34.72500
C  32.95400 2.65400 36.22900
H  33.68100 3.70300 37.06900
N  36.20900 2.58500 29.18200
C  37.16600 2.62200 30.16800
C  38.36100 2.10500 29.62500
C  38.16700 1.75000 28.25500
C  36.80700 2.18300 28.02900
C  39.58600 1.81500 30.50300
C  39.07600 1.22300 27.25600
O  38.75700 1.02600 26.06900
C  40.53300 0.89600 27.61200
N  33.72600 2.96400 27.43900
C  34.68700 2.51300 26.58200
C  34.14900 2.46900 25.18700
C  32.59500 2.55700 25.37400
C  32.50000 3.05600 26.79400
C  34.74300 3.42600 24.16700
C  31.81800 1.29100 25.13300
C  31.61200 0.64800 23.71800
N  32.04200 3.49500 29.67500
C  31.02700 3.49500 28.74600
C  29.79500 3.79100 29.44700
C  30.13600 3.88300 30.82100
C  31.48400 3.63500 30.85100
C  28.47900 3.98200 28.89300
C  29.59100 4.22800 32.09600
O  28.41900 4.42300 32.47400
C  30.78600 4.10000 33.04800
C  30.99300 5.36600 33.74300
O  31.11300 6.39800 33.10300
O  30.95600 5.28700 35.13700
C  30.83400 6.53700 35.77000
H  37.55400 2.82900 32.33000
H  36.58100 1.84900 25.93500
H  30.36700 3.40600 26.73800
H  33.71100 4.54500 34.45200
H  35.99700 2.77700 34.21900
H  37.08700 5.18800 33.37100
H  36.62700 4.88100 34.94000
H  35.59400 5.88600 33.88600
H  34.19300 1.59900 34.74500
H  32.53900 1.89100 34.30300
H  33.08600 1.64400 36.61800
H  31.92800 3.02100 36.21400
H  40.51800 2.14800 30.04600
H  39.62300 0.76100 30.77800
H  39.49500 2.23900 31.50400
H  40.45700 0.15300 28.40600
H  41.05900 1.78200 27.96600
H  41.00900 0.42200 26.75400
H  34.29100 1.45000 24.82600
H  32.13800 3.28700 24.70600
H  35.33100 4.24500 24.58000
H  33.93900 3.82100 23.54700
H  35.46400 2.79500 23.64600
H  30.84000 1.46100 25.58300
H  32.41700 0.52900 25.63200
H  32.55600 0.85100 23.21300
H  30.84700 1.10100 23.08700
H  31.46700 -0.42500 23.84000
H  27.90500 3.05600 28.84900
H  28.55500 4.35000 27.87000
H  27.89800 4.66600 29.51100
H  30.60400 3.44500 33.90000
H  30.84900 6.31500 36.83700
H  29.84000 6.90700 35.52000
H  31.54900 7.32000 35.51600
Mg 49.39900 34.85200 27.18500
C  47.06600 33.62700 29.57600
C  50.47200 37.22900 29.49000
C  51.07300 36.23800 24.75900
C  48.20100 32.41900 24.95300
N  48.73400 35.38300 29.24400
C  47.90900 34.68000 30.06500
C  48.00300 35.24500 31.53200
C  48.81100 36.56100 31.43200
C  49.40100 36.35100 29.96800
C  47.97800 37.80500 31.69400
C  48.85300 34.27200 32.46700
C  48.44100 34.18800 33.96400
H  47.77100 35.40800 34.63300
N  50.61300 36.57500 27.10900
C  51.02800 37.31600 28.18300
C  51.92100 38.32700 27.70600
C  52.21300 38.03200 26.31100
C  51.29000 36.90400 25.99000
C  52.42800 39.45000 28.62400
C  53.09600 38.63300 25.29700
O  53.29100 38.24200 24.14700
C  53.93600 39.80300 25.59900
N  49.47000 34.50200 25.02800
C  50.35100 35.11200 24.32700
C  50.45300 34.49600 22.89800
C  49.78500 33.13600 23.06400
C  49.10500 33.29500 24.41600
C  49.88900 35.40500 21.81400
C  50.63900 31.89600 22.99200
C  51.40700 31.64600 21.68500
N  47.90900 33.32200 27.20200
C  47.54800 32.49000 26.16400
C  46.55600 31.53200 26.69400
C  46.30100 31.92400 28.01800
C  47.14300 33.08000 28.27100
C  45.83800 30.36600 25.97400
C  45.50000 31.72800 29.22600
O  44.65200 30.84100 29.41500
C  45.86700 32.90000 30.21000
C  45.94300 32.41200 31.59800
O  46.87400 31.72000 32.03200
O  44.88000 32.67400 32.42000
C  44.99100 32.36800 33.87200
H  50.87000 37.88200 30.27000
H  51.64700 36.63100 23.91600
H  47.98000 31.50700 24.39500
H  46.98500 35.44400 31.86600
H  49.65300 36.52100 32.12400
H  48.10700 38.31500 30.73900
H  48.36800 38.36100 32.54700
H  46.97700 37.43600 31.92100
H  49.92100 34.49200 32.43800
H  48.76000 33.26900 32.05200
H  49.34500 34.08300 34.56400
H  47.90900 33.26200 34.18000
H  51.75200 40.30200 28.56400
H  53.43600 39.76200 28.34900
H  52.52300 39.14000 29.66500
H  54.86200 39.48700 26.08000
H  53.22600 40.39000 26.18000
H  54.20300 40.27400 24.65300
H  51.46900 34.24000 22.60100
H  48.99100 32.89500 22.35600
H  50.64800 35.87500 21.19000
H  49.48500 36.26200 22.35300
H  49.09000 34.99900 21.19400
H  50.11100 31.00200 23.32600
H  51.34400 32.08500 23.80100
H  51.01500 32.33500 20.93700
H  51.25900 30.62000 21.34800
H  52.44500 31.90100 21.89900
H  46.39700 29.43600 25.86900
H  45.54800 30.76100 25.00000
H  44.99700 30.16000 26.63600
H  45.06000 33.63200 30.26300
H  44.08600 31.79500 34.07500
H  44.87400 33.29800 34.42800
H  45.81800 31.81100 34.31300

