158

Mg 17.33500 -0.59100 27.59200
C  16.41200 1.37300 30.55500
C  19.08300 -2.52900 29.78900
C  18.74900 -1.90000 24.89500
C  15.93400 1.94500 25.64700
N  17.87000 -0.45400 29.94900
C  17.24600 0.28200 30.89800
C  17.63500 -0.14600 32.29200
C  18.80200 -1.18800 32.07300
C  18.54500 -1.44300 30.52300
C  20.24700 -0.77000 32.32700
C  16.52100 -0.87000 33.01100
C  16.59500 -0.89000 34.57200
H  17.87400 -0.31500 35.24800
N  18.73200 -2.02300 27.34900
C  19.30300 -2.80000 28.40500
C  20.04900 -3.89500 27.78300
C  19.89900 -3.80100 26.35200
C  19.14700 -2.56100 26.11300
C  20.89600 -4.96100 28.62900
C  20.45700 -4.70100 25.25500
O  20.31500 -4.50100 24.10900
C  21.06500 -5.98300 25.71800
N  17.18800 -0.11000 25.65100
C  18.01000 -0.71300 24.70800
C  18.02700 -0.05200 23.27500
C  16.81600 0.93400 23.48200
C  16.61600 0.97200 24.98700
C  19.38700 0.70000 22.90100
C  15.48100 0.65500 22.72900
C  15.17500 1.43700 21.49300
N  16.22600 1.16000 27.98700
C  15.79000 2.03900 27.02600
C  15.03500 3.03300 27.67300
C  15.16600 2.74600 29.07100
C  15.97600 1.68100 29.24200
C  14.33800 4.15700 27.04400
C  14.85600 3.30800 30.42100
O  14.22400 4.30800 30.71200
C  15.53700 2.37200 31.43900
C  16.33400 3.22400 32.41500
O  17.51500 3.53700 32.40300
O  15.44500 3.69100 33.37000
C  15.85900 4.85300 34.13700
H  19.57900 -3.26200 30.42900
H  19.28800 -2.25000 24.01200
H  15.49000 2.70700 25.00200
H  17.96800 0.75400 32.80900
H  18.75200 -2.16500 32.55300
H  20.35900 0.20400 32.80400
H  20.74600 -0.78000 31.35800
H  20.72900 -1.39600 33.07800
H  16.60100 -1.89400 32.64700
H  15.56000 -0.47700 32.68000
H  16.49900 -1.96300 34.73600
H  15.67000 -0.37700 34.83600
H  21.01600 -4.53600 29.62500
H  21.86200 -5.22500 28.19800
H  20.35100 -5.90100 28.71300
H  21.09200 -6.62600 24.83900
H  20.34100 -6.42600 26.40100
H  22.02800 -5.80800 26.19900
H  17.80900 -0.82800 22.54100
H  17.20000 1.92400 23.23400
H  19.22400 1.76600 22.74100
H  19.88800 0.15400 22.10200
H  19.94800 0.52000 23.81800
H  14.65300 0.76400 23.43000
H  15.48800 -0.40900 22.49300
H  16.01800 2.11300 21.34700
H  14.24000 1.93000 21.75900
H  15.11900 0.76400 20.63700
H  14.90100 4.67500 26.26700
H  13.99300 4.75700 27.88600
H  13.44900 3.79400 26.52900
H  14.80700 1.88100 32.08400
H  16.66900 4.58400 34.81500
H  14.97500 5.22300 34.65700
H  16.39500 5.57100 33.51600
Mg 16.55700 52.35000 26.53900
C  18.45700 50.93300 28.99200
C  14.18800 53.15900 28.80400
C  14.37500 53.30600 23.91600
C  18.71900 51.07700 24.19900
N  16.29400 51.89100 28.61700
C  17.23200 51.43600 29.46400
C  16.90600 51.76300 31.04000
C  15.34100 52.09200 30.88600
C  15.22600 52.40500 29.28500
C  14.38900 51.01300 31.46100
C  17.70700 52.97000 31.57800
C  17.89400 53.11700 33.14500
H  16.98500 52.18000 33.99100
N  14.70200 53.33400 26.40600
C  13.88900 53.58300 27.48400
C  12.82900 54.39300 27.03700
C  12.91000 54.59000 25.65100
C  14.04500 53.73000 25.21100
C  11.94200 54.99700 28.10200
C  12.07500 55.43000 24.68900
O  12.31200 55.49100 23.52400
C  11.03700 56.42500 25.21000
N  16.47200 51.87200 24.32400
C  15.51200 52.45700 23.51700
C  15.84600 52.25800 22.03800
C  17.29000 51.65800 22.13100
C  17.58000 51.60500 23.61900
C  14.80200 51.48700 21.36600
C  18.37900 52.43000 21.34000
C  19.44000 51.71700 20.59600
N  18.23900 51.16500 26.51800
C  19.03400 50.72800 25.49000
C  20.17800 49.91100 26.00800
C  19.94400 49.98400 27.42500
C  18.81600 50.79900 27.66000
C  21.27900 49.08100 25.35600
C  20.42700 49.56800 28.62000
O  21.35200 48.80100 28.89500
C  19.52900 50.29600 29.77100
C  19.03500 49.18400 30.64600
O  18.57500 48.11900 30.16300
O  19.23200 49.44600 31.92300
C  19.07000 48.41300 32.91700
H  13.51500 53.40800 29.62700
H  13.93300 53.70100 23.00000
H  19.53000 50.80300 23.52100
H  17.05500 50.85100 31.61800
H  15.07800 52.93800 31.52100
H  13.71800 51.54100 32.13900
H  14.98400 50.19100 31.85900
H  13.81800 50.51300 30.67900
H  17.27800 53.90300 31.21300
H  18.72500 52.90200 31.19500
H  17.66700 54.12100 33.50200
H  18.94000 53.01100 33.43300
H  11.23600 55.72000 27.69400
H  12.45200 55.54100 28.89700
H  11.45000 54.16500 28.60700
H  11.56600 57.07900 25.90300
H  10.34000 55.89500 25.85900
H  10.55500 57.00100 24.41900
H  15.84800 53.16200 21.42900
H  17.31700 50.64200 21.73700
H  15.23000 50.62700 20.85100
H  14.28000 52.08600 20.61900
H  14.02100 51.17300 22.05900
H  18.94200 53.09400 21.99700
H  17.94900 53.16600 20.66100
H  20.45600 51.86000 20.96500
H  19.33900 51.94800 19.53600
H  19.36800 50.63900 20.74300
H  21.44100 49.43600 24.33800
H  21.16900 47.99700 25.36300
H  22.23700 49.23000 25.85400
H  20.13700 50.97000 30.37300
H  17.99400 48.46300 33.08500
H  19.59800 48.67600 33.83400
H  19.17500 47.37600 32.59800

