158

Mg 49.04100 46.08300 42.82700
C  45.77400 46.30100 41.34100
C  49.44900 43.18500 40.99700
C  52.31000 46.33800 43.26400
C  48.67100 49.52100 43.79300
N  47.71400 45.01600 41.21500
C  46.41100 45.24400 40.85100
C  45.86800 44.23000 39.87900
C  46.97600 43.13400 40.00700
C  48.08800 43.74500 40.80900
C  46.43600 41.73800 40.50300
C  45.65300 44.74400 38.39300
C  44.26500 44.87900 37.80500
H  44.04200 44.45600 36.31100
N  50.56600 44.81100 42.49800
C  50.54700 43.69600 41.67500
C  51.85800 43.05300 41.69700
C  52.69000 43.84400 42.57300
C  51.86200 45.03200 42.83000
C  52.19500 41.82900 40.92400
C  54.06900 43.49300 43.06600
O  54.60800 42.44900 42.69900
C  54.77600 44.36500 44.13500
N  50.34500 47.63700 43.55500
C  51.71900 47.51500 43.61100
C  52.40800 48.74000 44.13600
C  51.17400 49.67300 44.41300
C  49.97700 48.99200 43.78400
C  53.44500 48.65400 45.32600
C  51.36400 51.16400 43.99100
C  51.01400 52.25100 44.98700
N  47.52600 47.51400 42.81600
C  47.55200 48.82400 43.28200
C  46.23700 49.43000 43.06400
C  45.49500 48.37800 42.48400
C  46.29000 47.29800 42.21400
C  45.94100 50.85500 43.33800
C  44.08100 48.05500 41.91600
O  43.04900 48.69100 41.97600
C  44.24200 46.69900 41.17600
C  43.33100 45.75100 41.81700
O  43.56000 45.16000 42.86300
O  42.19200 45.69200 41.03300
C  40.96000 45.27200 41.65200
H  49.50400 42.15800 40.63100
H  53.39700 46.42400 43.32500
H  48.51400 50.58000 44.00800
H  44.90900 43.89200 40.27000
H  47.34700 42.96700 38.99600
H  45.35000 41.68200 40.43200
H  46.70300 41.55600 41.54400
H  46.94800 40.98900 39.89900
H  46.22900 44.09500 37.73400
H  46.15600 45.70900 38.33500
H  43.91400 45.90700 37.89500
H  43.52800 44.34800 38.40800
H  52.66700 41.14400 41.62900
H  53.01400 41.93200 40.21200
H  51.31400 41.45200 40.40500
H  55.49300 45.07000 43.71300
H  55.26000 43.60000 44.74200
H  53.98800 44.81100 44.74100
H  52.95700 49.11700 43.27300
H  51.07000 49.61900 45.49600
H  54.40800 48.80700 44.83900
H  53.45400 47.61900 45.66900
H  53.26900 49.31000 46.17800
H  50.75800 51.49500 43.14700
H  52.40700 51.27700 43.69400
H  51.95400 52.59500 45.41800
H  50.42800 51.92900 45.84800
H  50.43000 53.12200 44.69000
H  46.60500 51.61300 42.92400
H  46.21300 51.06800 44.37200
H  44.91200 51.12500 43.10000
H  43.91000 46.79800 40.14200
H  40.30500 46.12600 41.82200
H  41.08000 44.91200 42.67400
H  40.31500 44.50900 41.21600
Mg 26.38000 50.05400 26.20600
C  24.47100 51.02700 28.91000
C  28.59800 48.72100 28.47100
C  28.44000 49.31300 23.55100
C  24.31400 51.72200 24.02700
N  26.50900 49.83400 28.40300
C  25.58600 50.29400 29.28600
C  25.91300 49.92800 30.75200
C  27.32200 49.31500 30.59000
C  27.53200 49.32100 29.05800
C  28.37200 50.06500 31.54700
C  24.86900 48.94100 31.26800
C  24.53300 48.95100 32.74700
H  25.36300 49.60500 33.87200
N  28.22800 49.13300 26.02300
C  28.99900 48.66700 27.08700
C  30.17400 48.01500 26.53400
C  30.14700 48.13700 25.09300
C  28.88800 48.84300 24.80400
C  31.23100 47.38300 27.44800
C  31.18900 47.65200 24.08300
O  31.08000 47.81000 22.90000
C  32.50500 47.08400 24.57900
N  26.35700 50.40300 24.11500
C  27.29900 49.99000 23.19600
C  26.93200 50.36600 21.73000
C  25.48700 50.94800 21.90300
C  25.40100 51.08100 23.45200
C  27.99400 51.34500 21.02600
C  24.33300 50.00600 21.48700
C  23.14400 50.67100 20.78000
N  24.76700 51.16400 26.39800
C  24.03400 51.78700 25.41200
C  22.92800 52.43500 25.99000
C  23.09700 52.19100 27.38900
C  24.21300 51.47100 27.58800
C  21.94200 53.28000 25.18400
C  22.53000 52.61300 28.66500
O  21.54500 53.31800 28.89000
C  23.48300 51.89500 29.73800
C  24.01600 52.92100 30.62600
O  25.04600 53.60000 30.33100
O  23.29500 53.03400 31.77700
C  23.62000 54.13300 32.71600
H  29.27300 48.20100 29.15300
H  29.04400 49.16500 22.65400
H  23.71000 52.28100 23.31000
H  25.94200 50.89400 31.25600
H  27.26900 48.28800 30.95000
H  29.12100 50.33900 30.80300
H  28.90000 49.38300 32.21400
H  27.94500 50.94000 32.03600
H  25.21600 47.92200 31.09800
H  23.89800 48.96500 30.77300
H  24.50100 47.95800 33.19700
H  23.50900 49.29300 32.89900
H  32.13100 47.99500 27.38900
H  31.51800 46.42700 27.00900
H  30.81100 47.28000 28.44900
H  33.18600 46.94200 23.74000
H  32.39400 46.15600 25.13900
H  32.87200 47.89300 25.21000
H  26.88800 49.40900 21.21000
H  25.52800 51.92400 21.42000
H  28.85800 51.66500 21.60800
H  27.43800 52.17300 20.58700
H  28.35400 50.72700 20.20300
H  23.85100 49.58600 22.37000
H  24.75400 49.21900 20.86100
H  23.24600 51.73900 20.58600
H  22.26800 50.43900 21.38700
H  23.11800 50.10400 19.84900
H  21.42300 52.50200 24.62500
H  22.39800 54.02400 24.53000
H  21.25200 53.84100 25.81400
H  22.91000 51.25400 30.40800
H  23.85200 55.02800 32.13900
H  24.46200 53.70900 33.26400
H  22.82800 54.36600 33.42900

