158

Mg 25.36900 50.44800 26.87900
C  23.11100 51.15900 29.58900
C  27.64800 49.35700 29.05700
C  27.57700 50.50400 24.32400
C  23.03200 52.04400 24.73300
N  25.34900 50.35400 29.03900
C  24.38100 50.70000 29.98100
C  24.95100 50.48100 31.39300
C  26.28000 49.77800 31.17000
C  26.50700 49.92100 29.66100
C  27.40900 50.25000 31.98900
C  23.95200 49.69600 32.35900
C  24.43800 49.37700 33.81300
H  24.13000 50.28600 34.99500
N  27.27400 50.00600 26.72200
C  28.11200 49.50000 27.73400
C  29.35900 49.11000 27.19200
C  29.35100 49.56900 25.84300
C  28.00900 50.09900 25.62100
C  30.35100 48.25700 28.00300
C  30.52300 49.53200 24.85900
O  30.49500 49.93200 23.70000
C  31.81900 49.05500 25.40200
N  25.24500 51.01500 24.74800
C  26.34200 50.95900 23.90600
C  26.11100 51.79100 22.59900
C  24.56600 51.93900 22.62400
C  24.21400 51.58600 24.06900
C  26.92600 53.05600 22.41200
C  23.77000 51.08100 21.67100
C  23.43500 49.64600 22.15100
N  23.43100 51.34600 27.06200
C  22.62000 51.89700 26.08200
C  21.32500 52.26400 26.65500
C  21.53300 52.09400 27.98500
C  22.77100 51.46000 28.24800
C  20.20000 52.79900 25.89000
C  20.85300 52.33700 29.23000
O  19.79000 52.88800 29.53600
C  21.86900 51.70100 30.31800
C  22.22300 52.78400 31.23200
O  23.12600 53.58200 31.19600
O  21.30300 52.77200 32.27100
C  21.46600 53.95900 33.12000
H  28.28100 48.90400 29.82300
H  28.40600 50.57500 23.61700
H  22.32100 52.50800 24.04600
H  25.24100 51.44100 31.82100
H  26.19800 48.69700 31.28500
H  28.09000 49.47500 32.34100
H  26.99600 50.86500 32.78900
H  28.01700 50.98600 31.46400
H  23.36200 48.96400 31.80700
H  23.22900 50.46200 32.63900
H  25.47200 49.03600 33.85200
H  23.87300 48.50200 34.13500
H  30.36300 47.22500 27.65300
H  30.12400 48.28100 29.06900
H  31.36600 48.65400 27.98500
H  31.87300 48.04500 25.80800
H  31.95400 49.73500 26.24400
H  32.63400 49.16800 24.68800
H  26.34400 51.10600 21.78300
H  24.11100 52.91400 22.45100
H  27.43900 53.22000 23.35900
H  26.39500 53.96900 22.14400
H  27.69600 53.01400 21.64100
H  24.20300 50.99000 20.67500
H  22.80800 51.59300 21.70200
H  24.00300 49.30700 23.01700
H  23.53400 49.01900 21.26500
H  22.37400 49.56900 22.39100
H  20.22200 52.43500 24.86200
H  20.32800 53.87700 25.98600
H  19.35700 52.55200 26.53500
H  21.43000 50.90500 30.92000
H  22.38100 53.87600 33.70700
H  20.61200 53.98600 33.79600
H  21.40400 54.91700 32.60400
Mg -8.91100 41.05500 42.19700
C  -7.98200 37.88800 41.15400
C  -6.00600 42.18900 40.51600
C  -10.10700 44.34700 42.24200
C  -12.07400 39.96100 43.13600
N  -7.29700 40.09300 40.85000
C  -7.04400 38.79200 40.72500
C  -5.70000 38.46600 40.09900
C  -4.97800 39.84800 40.06800
C  -6.16100 40.76700 40.46100
C  -3.84000 39.97700 41.02000
C  -5.95300 37.82500 38.65800
C  -5.15300 36.59900 38.32900
H  -3.94800 36.66400 37.36800
N  -8.17500 42.92600 41.49800
C  -6.95900 43.15000 40.94700
C  -6.78300 44.58000 40.73800
C  -7.96900 45.29300 41.09200
C  -8.88400 44.19600 41.56900
C  -5.48400 45.12600 40.12400
C  -8.17400 46.79400 40.90800
O  -7.25400 47.47900 40.42000
C  -9.49700 47.46200 41.36400
N  -10.83800 41.99200 42.64900
C  -10.97200 43.36200 42.77900
C  -12.49600 43.63400 43.20200
C  -13.02900 42.26700 43.67700
C  -11.89300 41.32500 43.22300
C  -12.65100 44.72200 44.23000
C  -14.44900 41.81900 43.12300
C  -15.53500 41.60100 44.22100
N  -9.81400 39.32500 42.27900
C  -11.14300 39.02300 42.68800
C  -11.33600 37.57500 42.60200
C  -10.06900 37.12700 42.12600
C  -9.28100 38.21300 41.78300
C  -12.55600 36.72700 43.02800
C  -9.36500 35.98600 41.84800
O  -9.67800 34.81000 42.10600
C  -8.01200 36.35600 41.07400
C  -6.90100 35.72800 41.79500
O  -6.21200 36.24100 42.72900
O  -6.92600 34.45800 41.37300
C  -6.41400 33.52400 42.32800
H  -5.07500 42.49900 40.03700
H  -10.35700 45.41000 42.27800
H  -13.00600 39.56200 43.54300
H  -5.11500 37.77900 40.71000
H  -4.70200 40.19400 39.07200
H  -2.94800 39.60800 40.51300
H  -3.88000 39.24400 41.82600
H  -3.73000 40.92300 41.54900
H  -5.62800 38.59700 37.96100
H  -7.01700 37.69300 38.45700
H  -5.86300 35.81100 38.07500
H  -4.80600 36.19800 39.28100
H  -4.61500 44.46800 40.11900
H  -5.16300 45.91200 40.80800
H  -5.49000 45.74200 39.22500
H  -10.34600 47.11200 40.77600
H  -9.46500 48.52700 41.13300
H  -9.64000 47.25900 42.42500
H  -13.06700 43.94000 42.32500
H  -13.07700 42.24200 44.76500
H  -11.65200 45.08700 44.47100
H  -13.21100 44.35900 45.09100
H  -13.15400 45.59600 43.81800
H  -14.38500 41.00500 42.40100
H  -14.71700 42.70700 42.54900
H  -16.33600 42.33500 44.13900
H  -15.11200 41.42300 45.21000
H  -15.89000 40.59900 43.97900
H  -12.25200 35.68600 43.13100
H  -13.16400 36.81100 42.12800
H  -13.01900 37.06300 43.95600
H  -8.04000 35.97300 40.05400
H  -5.37000 33.71500 42.57800
H  -6.51800 32.65700 41.67500
H  -6.96900 33.49900 43.26600

