158

Mg 41.97600 40.60800 27.00400
C  41.28000 42.93400 29.32300
C  43.17300 38.40700 29.38900
C  42.17000 38.32300 24.57000
C  41.46200 43.03400 24.51300
N  42.13000 40.61000 29.10400
C  41.71600 41.68900 29.85900
C  41.85800 41.30800 31.35200
C  42.66500 39.93900 31.38300
C  42.73500 39.64000 29.87600
C  44.03100 39.92200 32.21800
C  40.50800 41.22200 32.10900
C  40.18000 42.15300 33.22800
H  39.74000 41.71500 34.61900
N  42.53900 38.62000 26.94700
C  42.98800 37.86600 28.05500
C  43.18600 36.51700 27.62100
C  42.92900 36.44500 26.26500
C  42.52100 37.82500 25.85800
C  43.62800 35.46100 28.52500
C  43.10500 35.26300 25.18300
O  42.81500 35.36700 23.95300
C  43.49500 33.90500 25.61600
N  41.98600 40.73000 24.79300
C  41.90200 39.62600 24.05200
C  41.55100 39.92500 22.60000
C  41.34700 41.39100 22.58400
C  41.63800 41.77200 24.01400
C  42.57500 39.38600 21.60400
C  40.02800 41.99500 21.96000
C  40.27600 43.11600 20.89800
N  41.52700 42.56700 26.87900
C  41.30300 43.41400 25.80900
C  40.96400 44.72800 26.30500
C  40.87200 44.58300 27.71700
C  41.27700 43.32600 27.99700
C  40.72500 45.95900 25.54500
C  40.49500 45.27600 28.95400
O  40.09200 46.42200 29.18000
C  40.83800 44.24300 30.04300
C  41.81400 44.71200 31.05700
O  42.99300 44.76800 30.89700
O  41.12600 45.24400 32.09400
C  41.80600 45.55500 33.35100
H  43.39600 37.76200 30.24200
H  42.12000 37.65500 23.70800
H  41.17300 43.68800 23.68700
H  42.40200 42.16000 31.75900
H  42.01000 39.15700 31.76700
H  43.74400 39.20400 32.98700
H  44.30400 40.86900 32.68500
H  44.86300 39.62400 31.57900
H  40.29000 40.19200 32.38800
H  39.83100 41.42800 31.28000
H  39.22000 42.54800 32.89400
H  40.82800 43.02800 33.27100
H  42.96000 34.61700 28.35300
H  43.65800 35.65900 29.59600
H  44.63500 35.17200 28.22500
H  42.70200 33.60300 26.30000
H  44.51100 33.87900 26.00800
H  43.43600 33.25900 24.74000
H  40.57500 39.49300 22.37900
H  42.12700 41.82800 21.96000
H  43.27600 38.71300 22.09900
H  43.08500 40.21900 21.11900
H  41.97000 38.89200 20.84400
H  39.42800 42.32900 22.80700
H  39.46100 41.22200 21.44300
H  39.94100 42.81800 19.90400
H  41.34100 43.32300 20.78800
H  39.53400 43.85700 21.19300
H  39.70000 45.92200 25.17600
H  41.47900 45.96800 24.75900
H  40.80500 46.87200 26.13600
H  39.92500 44.08000 30.61700
H  42.32900 46.51100 33.36800
H  42.45000 44.71800 33.62300
H  40.94000 45.53900 34.01200
Mg 0.11500 43.03900 26.63000
C  2.18600 42.86400 29.47500
C  -2.65700 42.44400 28.91400
C  -1.88100 42.33200 24.01900
C  2.96400 43.19200 24.61600
N  -0.25200 42.57100 28.91300
C  0.82500 42.73600 29.80900
C  0.28500 42.90700 31.24200
C  -1.17500 42.63200 31.05500
C  -1.39300 42.54600 29.52400
C  -1.75900 41.36600 31.80400
C  0.55300 44.38600 31.63200
C  1.04600 44.61400 33.07600
H  1.07500 43.43500 34.09900
N  -2.03500 42.51000 26.50500
C  -2.92800 42.44800 27.55200
C  -4.18800 42.42900 26.94800
C  -4.02600 42.38900 25.54200
C  -2.62800 42.38000 25.26200
C  -5.46600 42.34700 27.78100
C  -5.11900 42.34800 24.43100
O  -4.90100 42.23300 23.22500
C  -6.60300 42.32400 24.83700
N  0.45500 42.90000 24.68000
C  -0.48300 42.47600 23.79100
C  0.11100 42.37900 22.35900
C  1.48600 42.96600 22.52600
C  1.68600 43.03900 24.04900
C  -0.00100 40.92700 21.96900
C  1.64200 44.43900 21.97300
C  2.51300 44.61200 20.67300
N  2.07600 43.08700 26.95400
C  3.17500 43.13900 26.02000
C  4.43900 43.22900 26.71100
C  4.08600 43.09200 27.97500
C  2.62900 42.94300 28.16500
C  5.77900 43.34600 26.06900
C  4.60600 43.01400 29.31400
O  5.77500 42.96100 29.71700
C  3.42800 42.89400 30.30600
C  3.64900 41.61500 31.08500
O  3.15500 40.48300 30.98800
O  4.40200 42.13000 32.13500
C  4.50400 41.04700 33.13100
H  -3.47300 42.29800 29.62500
H  -2.46600 42.40600 23.10000
H  3.80500 43.10700 23.92400
H  0.87900 42.26400 31.89100
H  -1.83200 43.43300 31.39200
H  -1.32800 41.28800 32.80200
H  -1.39400 40.49800 31.25500
H  -2.83600 41.20000 31.83000
H  -0.38400 44.90500 31.43000
H  1.28200 44.81100 30.94300
H  0.53400 45.54300 33.32900
H  2.09700 44.87200 33.20800
H  -5.85400 43.34800 27.96600
H  -5.23300 41.88500 28.74100
H  -6.19500 41.71900 27.27000
H  -6.87700 41.34000 25.21800
H  -7.10300 42.52200 23.88900
H  -6.83400 43.12200 25.54200
H  -0.62500 42.90300 21.74800
H  2.25000 42.34500 22.05900
H  -0.31900 40.27900 22.78600
H  0.93300 40.48000 21.62800
H  -0.78500 40.92500 21.21200
H  2.01600 45.01100 22.82300
H  0.69800 44.91300 21.70400
H  3.49200 44.88500 21.06700
H  2.11200 45.42000 20.06200
H  2.66200 43.68300 20.12300
H  5.83500 42.56000 25.31700
H  6.66600 43.24300 26.69500
H  5.80500 44.27300 25.49600
H  3.38400 43.74700 30.98500
H  5.31600 40.34500 32.94000
H  3.59900 40.61000 33.55400
H  4.91300 41.56900 33.99600

