158

Mg 34.73700 2.65900 29.37500
C  32.72400 3.71600 32.07600
C  37.47200 2.57400 31.48600
C  36.80300 2.46000 26.70700
C  32.11300 3.44400 27.17100
N  34.99900 3.27100 31.56000
C  34.05400 3.53200 32.48400
C  34.64700 3.38300 33.91000
C  36.17500 3.18100 33.68600
C  36.27100 3.03600 32.13000
C  37.06800 4.31800 34.28000
C  33.87100 2.24700 34.73800
C  33.58100 2.35800 36.27200
H  34.20300 3.53000 37.07500
N  36.81100 2.42600 29.11500
C  37.77000 2.37700 30.15100
C  39.08000 2.17000 29.54200
C  38.91700 2.02700 28.13200
C  37.47200 2.22000 27.91200
C  40.35100 2.12700 30.34900
C  39.93200 1.69800 27.06200
O  39.55700 1.60500 25.90300
C  41.38000 1.40500 27.37500
N  34.44800 2.90100 27.23400
C  35.47900 2.76800 26.32400
C  35.05300 3.03800 24.86900
C  33.48900 3.13000 25.08700
C  33.28900 3.11700 26.56500
C  35.70100 4.27500 24.25000
C  32.62200 2.04800 24.41800
C  31.16500 2.35200 24.16100
N  32.75700 3.16900 29.53600
C  31.83500 3.45400 28.54600
C  30.55200 3.91200 29.15100
C  30.92300 3.95700 30.52900
C  32.25600 3.55200 30.76500
C  29.21500 4.21700 28.44800
C  30.32100 4.31400 31.83800
O  29.18800 4.79000 32.13800
C  31.51300 4.13700 32.85400
C  31.69000 5.50000 33.58000
O  32.10200 6.58700 33.16300
O  31.23200 5.31500 34.80800
C  31.00700 6.51200 35.61600
H  38.33300 2.45800 32.14800
H  37.47300 2.47700 25.84400
H  31.27100 3.68600 26.52000
H  34.59700 4.27000 34.54300
H  36.53700 2.21500 34.03700
H  37.83100 3.88800 34.92900
H  36.66100 5.12800 34.88600
H  37.62600 4.78400 33.46800
H  34.48900 1.38200 34.49700
H  32.95300 1.96000 34.22600
H  33.82700 1.39800 36.72500
H  32.51100 2.55800 36.33400
H  40.21400 2.77100 31.21800
H  41.16900 2.56200 29.77600
H  40.58000 1.12000 30.69900
H  41.52200 0.78000 28.25700
H  41.87300 2.32100 27.69900
H  41.82800 0.97500 26.47900
H  35.11200 2.12400 24.27700
H  33.10100 4.07400 24.70400
H  36.49000 4.68000 24.88400
H  34.97900 5.05300 24.00200
H  36.32900 3.94400 23.42300
H  32.81200 1.14500 24.99800
H  32.94700 1.88800 23.39000
H  30.94300 2.12200 23.11900
H  30.82400 3.35100 24.43500
H  30.59600 1.66200 24.78300
H  28.43600 4.57900 29.11900
H  28.87700 3.22600 28.14500
H  29.30100 4.78000 27.51800
H  31.35700 3.30700 33.54300
H  29.97600 6.86300 35.56700
H  31.72200 7.33300 35.56900
H  31.11600 6.08500 36.61300
Mg 36.41200 49.28100 24.47400
C  36.53500 47.39400 27.42500
C  35.04600 51.76700 26.13900
C  35.95100 50.75600 21.47700
C  37.50900 46.33600 22.70700
N  35.79300 49.51800 26.54700
C  36.02900 48.66400 27.60400
C  35.70500 49.35400 28.94700
C  35.02200 50.67000 28.42100
C  35.25500 50.63600 26.89800
C  33.55600 50.94700 28.87300
C  36.92600 49.56400 29.88800
C  36.84400 49.30400 31.41600
H  35.45400 49.35800 32.07500
N  35.73800 51.08200 23.89300
C  35.19200 51.95800 24.76000
C  34.84500 53.12400 24.03700
C  35.21500 52.86800 22.67700
C  35.64100 51.53800 22.62300
C  34.17800 54.27800 24.69700
C  34.92000 53.80200 21.52000
O  35.12000 53.42800 20.34700
C  34.44300 55.19700 21.70400
N  36.48900 48.52600 22.36900
C  36.40600 49.48400 21.40000
C  36.90200 48.90700 20.05200
C  37.42200 47.48200 20.40300
C  37.19300 47.46400 21.92900
C  35.82900 48.87700 18.96600
C  38.89900 47.14600 19.98700
C  39.95700 48.15500 20.50400
N  36.82200 47.23900 24.91900
C  37.42600 46.27300 24.15700
C  37.66800 45.14000 24.98800
C  37.30000 45.55700 26.26800
C  36.81800 46.87700 26.18900
C  38.15500 43.77400 24.62100
C  37.11100 45.14800 27.65000
O  37.27300 44.05100 28.16700
C  36.69400 46.41200 28.48300
C  35.39300 46.07800 29.23500
O  34.23500 46.41100 28.93500
O  35.72800 45.31600 30.32200
C  34.56300 44.88200 31.05400
H  34.55400 52.55100 26.71900
H  36.00500 51.29900 20.53100
H  37.96700 45.55100 22.10000
H  34.93700 48.79600 29.48400
H  35.57500 51.53100 28.79700
H  33.54200 51.89300 29.41500
H  33.23600 50.17100 29.56900
H  32.87100 51.12000 28.04300
H  37.36200 50.56300 29.86000
H  37.75300 48.99200 29.46800
H  37.37100 50.10100 31.94200
H  37.40500 48.37900 31.54400
H  34.65900 55.18800 24.33900
H  34.24400 54.41900 25.77600
H  33.13000 54.20500 24.40800
H  33.59400 55.33100 22.37500
H  34.33300 55.76300 20.78000
H  35.23500 55.58400 22.34500
H  37.66600 49.51600 19.57000
H  36.95600 46.60000 19.96300
H  34.83400 49.06500 19.36900
H  35.99500 47.95900 18.40300
H  35.97900 49.79700 18.40000
H  39.02800 47.26700 18.91200
H  39.18600 46.12000 20.21900
H  39.52300 48.60700 21.39600
H  40.22600 48.89200 19.74800
H  40.82100 47.56300 20.80700
H  38.21600 43.17000 25.52600
H  39.04100 43.75100 23.98700
H  37.37300 43.38500 23.96800
H  37.48800 46.52200 29.22100
H  34.90500 44.33300 31.93100
H  33.90600 44.18200 30.53600
H  33.93000 45.71000 31.37500

