158

Mg 8.56500 5.01600 27.58700
C  9.86500 3.29900 30.35300
C  6.60500 6.91200 29.59900
C  7.49400 6.63400 24.85100
C  10.09600 2.59400 25.49400
N  8.06400 4.91500 29.75500
C  8.84900 4.23900 30.65800
C  8.41000 4.67700 32.04300
C  7.45700 5.89600 31.80800
C  7.38700 5.95200 30.27100
C  5.96300 5.81100 32.43600
C  9.42700 4.89600 33.12900
C  8.82700 4.80200 34.52800
H  9.76200 5.00600 35.76900
N  7.28600 6.61500 27.29400
C  6.47200 7.12000 28.22700
C  5.48400 8.16700 27.55400
C  5.96200 8.24200 26.16800
C  6.99800 7.19300 26.06200
C  4.34200 8.98800 28.35900
C  5.52900 9.12600 25.05300
O  6.00900 9.06600 23.91900
C  4.46300 10.12000 25.32400
N  8.81500 4.73500 25.46300
C  8.31200 5.58000 24.57100
C  8.65100 5.16300 23.14300
C  9.48100 3.85700 23.24600
C  9.49400 3.68700 24.79600
C  7.39000 4.98100 22.19200
C  10.98000 3.86200 22.68100
C  11.28400 2.68300 21.75100
N  9.81600 3.29300 27.79600
C  10.29400 2.36700 26.89800
C  11.03100 1.30000 27.58300
C  10.97400 1.68400 28.91700
C  10.19900 2.89000 29.00800
C  11.56400 0.07600 26.95300
C  11.38500 1.38300 30.33200
O  12.13700 0.50800 30.71400
C  10.72900 2.46000 31.24600
C  9.93700 1.53500 32.16000
O  8.82800 1.03100 32.00100
O  10.51800 1.65400 33.38100
C  9.98500 0.85500 34.49000
H  6.06700 7.59600 30.25900
H  7.00800 7.10300 23.99200
H  10.59600 1.88800 24.82800
H  7.83400 3.78800 32.29900
H  7.98000 6.74300 32.25300
H  6.01800 4.99200 33.15300
H  5.27500 5.68800 31.60000
H  5.75900 6.70700 33.02300
H  10.06300 5.75500 32.91700
H  10.10900 4.04600 33.15800
H  8.65100 3.74100 34.70600
H  7.91200 5.38800 34.60800
H  3.38700 9.16500 27.86300
H  4.60200 10.03000 28.55100
H  4.17000 8.67200 29.38800
H  4.76200 10.64300 26.23300
H  3.47800 9.66000 25.40200
H  4.50700 10.87800 24.54200
H  9.24400 5.98300 22.73700
H  8.86200 3.00100 22.97600
H  7.49000 4.13000 21.51800
H  7.40100 5.84600 21.53000
H  6.39800 4.95500 22.64400
H  11.68300 3.91200 23.51300
H  11.19300 4.72100 22.04500
H  11.42400 2.93100 20.69900
H  10.47300 1.95600 21.79000
H  12.15000 2.12900 22.11200
H  11.93800 -0.49600 27.80200
H  12.27800 0.55800 26.28500
H  10.79600 -0.35800 26.31200
H  11.55400 2.84100 31.84800
H  9.53200 1.46800 35.26900
H  10.90200 0.45600 34.92400
H  9.33000 0.03600 34.19200
Mg 24.12000 -4.42400 45.46700
C  26.64700 -2.41900 43.86400
C  21.81000 -3.22300 43.18900
C  21.97800 -7.00800 46.16400
C  26.56200 -5.90400 47.30000
N  24.21600 -2.97900 43.75600
C  25.33600 -2.27500 43.28000
C  24.89900 -1.31000 42.09900
C  23.29200 -1.35800 42.18900
C  23.09600 -2.58200 43.15900
C  22.78900 -0.06200 42.80700
C  25.38500 -1.85700 40.67600
C  25.90100 -0.73000 39.75500
H  25.40600 -0.76200 38.33300
N  22.11200 -4.92300 44.89700
C  21.36200 -4.29400 43.94300
C  20.03700 -4.94400 43.90400
C  20.00400 -6.04600 44.76300
C  21.36300 -6.00000 45.34700
C  18.92600 -4.38300 42.92500
C  18.85600 -7.01200 45.09200
O  17.78700 -6.81500 44.53400
C  18.92300 -8.00500 46.13500
N  24.22100 -6.24400 46.52500
C  23.19000 -7.08500 46.77300
C  23.65800 -8.28300 47.58800
C  25.03000 -7.72500 48.23100
C  25.31300 -6.49700 47.30500
C  22.54700 -8.52400 48.63100
C  26.16600 -8.85900 48.37200
C  26.82200 -9.00500 49.83000
N  26.15100 -4.23700 45.64300
C  27.03000 -4.89000 46.52100
C  28.34800 -4.27000 46.42800
C  28.21600 -3.34100 45.37200
C  26.86800 -3.33300 44.96600
C  29.50700 -4.51200 47.33200
C  28.89700 -2.30700 44.68700
O  30.08300 -2.10500 44.78700
C  27.97400 -1.71400 43.57600
C  27.87300 -0.19100 43.77900
O  27.11800 0.35300 44.64600
O  28.66100 0.48800 42.91500
C  28.90600 1.93200 43.27700
H  21.08600 -2.79100 42.49500
H  21.34600 -7.87400 46.37300
H  27.33400 -6.50500 47.78600
H  25.42600 -0.37900 42.30600
H  22.79200 -1.58200 41.24600
H  21.94900 0.27200 42.19700
H  23.54500 0.71700 42.71100
H  22.43700 -0.16900 43.83300
H  24.54100 -2.29600 40.14300
H  26.18600 -2.58100 40.82200
H  26.93600 -0.98600 39.52700
H  25.79700 0.23000 40.26000
H  19.02200 -5.18800 42.19600
H  19.13600 -3.34000 42.68500
H  17.90200 -4.47600 43.28500
H  19.35500 -7.59800 47.04900
H  19.57700 -8.78200 45.73900
H  17.89800 -8.34800 46.28000
H  23.93200 -9.16000 47.00200
H  24.75700 -7.31100 49.20100
H  22.03400 -9.44600 48.35400
H  21.85300 -7.68800 48.70700
H  22.99000 -8.68500 49.61300
H  26.98900 -8.77600 47.66100
H  25.65900 -9.78300 48.09400
H  27.88400 -9.23600 49.91000
H  26.29100 -9.88400 50.19700
H  26.48500 -8.08200 50.30200
H  29.20000 -5.24700 48.07500
H  29.77500 -3.52700 47.71600
H  30.46200 -4.74300 46.86000
H  28.35800 -1.98100 42.59200
H  28.53500 2.58000 42.48300
H  29.97600 2.14200 43.29600
H  28.49200 2.28600 44.22000

