158

Mg 48.51700 45.52200 42.64300
C  45.10100 45.80700 41.94100
C  48.48800 42.22600 41.51800
C  51.86700 45.57700 42.41700
C  48.56400 48.93800 43.28800
N  47.04900 44.26700 41.85800
C  45.70700 44.58800 41.58200
C  45.03100 43.42400 40.89600
C  45.94700 42.23400 41.23600
C  47.26500 42.95200 41.47000
C  45.75000 41.17200 42.29500
C  44.65100 43.57800 39.44200
C  43.35800 42.79300 38.98200
H  43.49100 41.78600 37.90900
N  50.00200 44.01500 42.21100
C  49.79500 42.70400 41.78200
C  51.07000 42.14800 41.59300
C  52.05800 43.04600 42.01200
C  51.32000 44.26600 42.32300
C  51.26800 40.72500 41.12400
C  53.54300 42.74300 42.07000
O  53.98000 41.66100 41.64700
C  54.51800 43.70700 42.69100
N  49.95600 47.06100 42.66500
C  51.28600 46.82600 42.63000
C  52.09900 48.08800 42.93600
C  51.10200 49.17300 43.27100
C  49.81800 48.39100 43.04200
C  53.33900 47.87600 43.86000
C  51.20500 50.47400 42.43800
C  51.46700 51.70000 43.25200
N  47.15400 47.01800 42.75600
C  47.28800 48.35000 43.06600
C  46.01300 49.03500 43.04000
C  45.14500 48.07400 42.64900
C  45.88300 46.87200 42.46900
C  45.65100 50.45400 43.44100
C  43.78700 47.74900 42.35800
O  42.78200 48.44200 42.41900
C  43.72800 46.38100 41.72000
C  42.60100 45.50200 42.14300
O  41.99100 44.89300 41.32300
O  42.37500 45.48200 43.43900
C  41.40900 44.36700 43.78600
H  48.37600 41.16300 41.29400
H  52.94500 45.60200 42.24900
H  48.57700 49.98000 43.61600
H  44.08800 43.30500 41.43100
H  46.11600 41.68200 40.31100
H  46.46000 41.32200 43.10800
H  45.84000 40.14600 41.93800
H  44.79600 41.35300 42.79100
H  45.46500 43.33100 38.75900
H  44.41900 44.63300 39.30300
H  42.56400 43.49500 38.72600
H  42.99300 42.11800 39.75700
H  51.90700 40.74600 40.24100
H  50.29700 40.31000 40.85600
H  51.62300 40.13000 41.96500
H  55.30500 43.11300 43.15600
H  53.87700 44.00500 43.52100
H  54.90500 44.38400 41.92900
H  52.40100 48.28000 41.90600
H  51.06500 49.50000 44.31000
H  54.12100 47.62900 43.14300
H  53.10800 47.16700 44.65500
H  53.64500 48.84400 44.25700
H  50.30100 50.64100 41.85200
H  52.07700 50.39900 41.78900
H  50.62700 51.55600 43.93100
H  51.29800 52.68000 42.80500
H  52.43400 51.73700 43.75300
H  45.53200 51.11000 42.57900
H  46.34000 50.91400 44.14800
H  44.66800 50.53700 43.90600
H  43.60400 46.58200 40.65600
H  41.81700 43.38300 43.55500
H  40.45100 44.55000 43.29700
H  41.37200 44.45300 44.87200
Mg -2.14100 34.87800 26.36100
C  -3.76900 32.88200 28.73800
C  -0.52100 36.49900 28.94900
C  -0.95600 36.86800 24.06400
C  -3.75200 32.97400 23.86700
N  -2.18300 34.68700 28.61600
C  -2.89900 33.80900 29.36900
C  -2.74900 34.14600 30.82400
C  -1.70600 35.35500 30.84400
C  -1.51100 35.54000 29.35900
C  -2.26100 36.61800 31.56500
C  -2.22700 32.88000 31.67800
C  -2.98500 32.50000 32.98500
H  -2.23900 32.40900 34.36100
N  -0.94900 36.58500 26.48400
C  -0.29500 37.02400 27.61400
C  0.68700 38.00800 27.21100
C  0.56000 38.09300 25.77700
C  -0.52100 37.21700 25.40700
C  1.40100 38.89400 28.14000
C  1.37700 39.03600 24.81100
O  1.09700 39.18300 23.59600
C  2.56200 39.75400 25.35600
N  -2.43400 35.06300 24.28600
C  -1.83100 35.98800 23.51400
C  -2.07000 35.70400 22.05100
C  -2.52600 34.24200 22.06100
C  -2.91600 34.05600 23.51400
C  -3.08400 36.67600 21.38800
C  -1.53600 33.12800 21.54400
C  -0.06900 33.24600 21.93200
N  -3.58100 33.19000 26.26100
C  -4.17000 32.58100 25.13000
C  -5.00200 31.51900 25.63000
C  -4.95900 31.58800 27.04100
C  -4.06500 32.62800 27.39000
C  -5.79000 30.46800 24.84800
C  -5.43500 31.08600 28.27300
O  -6.19300 30.17100 28.55400
C  -4.71700 31.99000 29.46200
C  -5.76900 32.71500 30.14300
O  -6.34000 33.69800 29.73700
O  -5.96000 32.09200 31.38200
C  -6.92800 32.70400 32.33300
H  0.06000 36.90700 29.77900
H  -0.50700 37.39100 23.21700
H  -4.12600 32.36200 23.04400
H  -3.73400 34.48200 31.14700
H  -0.76600 35.04300 31.29800
H  -3.19700 36.40300 32.08000
H  -2.55600 37.28800 30.75800
H  -1.54300 37.09400 32.23300
H  -1.17400 33.01500 31.92700
H  -2.21700 31.91200 31.17600
H  -3.34200 31.49700 32.75100
H  -3.70600 33.30600 33.12700
H  2.41300 38.51500 28.28300
H  0.88200 38.95300 29.09700
H  1.45000 39.90900 27.74500
H  2.13700 40.64300 25.82200
H  3.09000 39.94300 24.42200
H  3.09000 39.01500 25.95900
H  -1.12100 35.76100 21.51800
H  -3.50900 34.17600 21.59400
H  -4.05900 36.24600 21.16100
H  -2.60900 36.98100 20.45500
H  -3.27900 37.48200 22.09600
H  -1.56600 33.09700 20.45500
H  -1.95500 32.21800 21.97100
H  0.58200 33.26000 21.05800
H  0.23200 32.35900 22.49100
H  0.13800 34.08200 22.60000
H  -5.61100 29.45500 25.20700
H  -5.41800 30.52900 23.82500
H  -6.87000 30.61500 24.85000
H  -4.24900 31.25600 30.11800
H  -6.40700 32.87700 33.27500
H  -7.77200 32.04300 32.52800
H  -7.24100 33.67000 31.93800

