158

Mg -2.73900 16.61900 26.15400
C  -3.32000 14.45800 28.91600
C  -3.63800 19.22900 28.19900
C  -2.42600 18.64000 23.53000
C  -2.58600 13.78800 24.12300
N  -3.15200 16.85700 28.36600
C  -3.40700 15.79800 29.24000
C  -3.78900 16.39500 30.64700
C  -3.91000 17.94200 30.36400
C  -3.61400 18.03400 28.87400
C  -5.31400 18.55600 30.73500
C  -2.89900 16.06100 31.91500
C  -2.92600 16.88900 33.17600
H  -2.64500 16.22000 34.51000
N  -2.98600 18.66000 25.83600
C  -3.29700 19.57300 26.81200
C  -3.22100 20.92800 26.24700
C  -2.82200 20.74800 24.82200
C  -2.79700 19.31100 24.64300
C  -3.67300 22.19200 26.91900
C  -2.62300 21.70600 23.77000
O  -2.36800 21.38700 22.63400
C  -2.52400 23.17300 24.09400
N  -2.80200 16.32100 24.08400
C  -2.36900 17.26400 23.23800
C  -2.03200 16.73300 21.83500
C  -1.94800 15.15800 22.07800
C  -2.46300 15.07900 23.55400
C  -3.06100 17.22700 20.74500
C  -0.59400 14.46400 21.94700
C  -0.48200 13.01600 21.44200
N  -2.82900 14.54100 26.44300
C  -2.75000 13.56100 25.51200
C  -2.88500 12.30500 26.19300
C  -3.02600 12.55600 27.55100
C  -3.05900 13.96900 27.56700
C  -2.81200 10.94900 25.46700
C  -3.10200 11.99500 28.85800
O  -3.10700 10.85200 29.25700
C  -3.35100 13.20400 29.79200
C  -2.15800 13.15800 30.61200
O  -1.08400 13.59700 30.35300
O  -2.45800 12.53100 31.79000
C  -1.48700 12.63200 32.85800
H  -3.79400 20.19500 28.68300
H  -2.02500 19.17700 22.66800
H  -2.50600 12.89000 23.50700
H  -4.77000 16.03500 30.95800
H  -3.20100 18.64800 30.79900
H  -5.49400 18.71100 31.79800
H  -6.11200 17.89500 30.39600
H  -5.42900 19.47800 30.16500
H  -1.84600 15.99700 31.64200
H  -3.26900 15.09300 32.25400
H  -3.83800 17.47400 33.05800
H  -2.12800 17.62100 33.05400
H  -4.40100 22.66800 26.26200
H  -2.76500 22.78700 27.02000
H  -4.01100 22.09800 27.95100
H  -3.50600 23.54300 24.38600
H  -2.21600 23.67200 23.17500
H  -1.69200 23.30400 24.78600
H  -1.04700 17.10900 21.55900
H  -2.64400 14.58700 21.46300
H  -2.73600 16.68100 19.85900
H  -2.80700 18.28400 20.67100
H  -4.06500 17.08500 21.14400
H  -0.17700 14.35000 22.94700
H  0.21500 14.98200 21.43200
H  0.33900 12.48500 21.92300
H  -0.14200 13.08200 20.40800
H  -1.46100 12.54300 21.51600
H  -2.68100 10.17800 26.22700
H  -1.87400 10.99700 24.91300
H  -3.67400 10.64300 24.87500
H  -4.17000 13.12600 30.50700
H  -0.71400 11.86300 32.85900
H  -2.08100 12.57100 33.77000
H  -0.97200 13.59100 32.88900
Mg 36.91300 49.78700 25.32800
C  36.69300 47.93400 28.36200
C  36.22800 52.69700 27.02300
C  36.45100 51.26400 22.35200
C  37.24500 46.60200 23.67700
N  36.49800 50.22200 27.46300
C  36.52400 49.28700 28.49200
C  36.27600 50.06400 29.82000
C  35.82500 51.56200 29.31100
C  36.26500 51.50500 27.85200
C  34.35300 52.07600 29.58700
C  37.48700 50.04100 30.80500
C  37.23700 49.51900 32.23400
H  35.86000 49.78400 32.90300
N  36.56400 51.72900 24.77800
C  36.39600 52.81100 25.60400
C  36.43300 54.03700 24.82300
C  36.36400 53.59300 23.43400
C  36.41400 52.12000 23.49300
C  36.43700 55.39400 25.42300
C  36.27000 54.41300 22.08700
O  36.24000 53.91600 20.95500
C  36.30600 56.01700 22.22500
N  36.71300 49.07300 23.27100
C  36.61700 49.91600 22.23500
C  36.73500 49.06400 20.88200
C  37.19100 47.66800 21.38400
C  37.10400 47.79500 22.85800
C  35.49000 49.12100 19.97100
C  38.66500 47.30100 20.91400
C  38.73200 45.99000 20.28700
N  36.98900 47.70400 25.84500
C  37.11800 46.54700 25.07000
C  37.28900 45.45900 25.92800
C  37.07100 45.97200 27.23500
C  36.82600 47.31600 27.08700
C  37.63900 44.09400 25.53700
C  37.07300 45.59200 28.63100
O  37.39200 44.50700 29.19100
C  36.77600 46.84900 29.35700
C  35.55400 46.56200 30.08200
O  34.44800 46.72600 29.63800
O  35.83300 46.04300 31.29600
C  34.70600 45.67800 32.17600
H  36.02800 53.55900 27.66200
H  36.34800 51.80100 21.40600
H  37.51900 45.66600 23.18800
H  35.38100 49.62500 30.26200
H  36.51800 52.26000 29.78000
H  34.02800 52.37700 28.59200
H  34.51700 52.95200 30.21500
H  33.63700 51.38700 30.03600
H  37.93600 51.03500 30.80600
H  38.15500 49.29500 30.37500
H  37.96100 49.96500 32.91700
H  37.40000 48.44400 32.15600
H  37.49500 55.62200 25.55000
H  36.03200 55.52600 26.42600
H  35.89900 56.11400 24.80600
H  35.36800 56.33700 22.67900
H  36.19700 56.27500 21.17200
H  37.14700 56.56200 22.65300
H  37.46200 49.46100 20.17200
H  36.45500 46.91300 21.10800
H  35.17700 50.13600 19.72400
H  34.63900 48.72900 20.52800
H  35.72500 48.51000 19.10000
H  39.39400 47.22300 21.72000
H  39.07500 47.99900 20.18400
H  39.39700 45.21900 20.67700
H  39.08700 46.24000 19.28700
H  37.75000 45.55700 20.10000
H  36.83000 43.71300 24.91400
H  37.95100 43.54700 26.42700
H  38.48500 44.11900 24.85000
H  37.50000 47.01800 30.15500
H  33.79800 45.62800 31.57500
H  34.61600 46.45400 32.93600
H  34.79000 44.69600 32.64000

