158

Mg 24.42400 -5.67200 45.61800
C  26.35600 -3.18500 44.17300
C  21.91200 -4.74800 43.47600
C  22.82000 -8.63000 46.25400
C  27.28100 -6.87400 47.30300
N  24.19000 -4.12900 43.94300
C  25.05100 -3.12200 43.72100
C  24.46600 -2.00100 42.78200
C  22.97500 -2.49200 42.63800
C  22.99400 -3.92000 43.42400
C  21.83700 -1.54900 43.21300
C  25.33800 -1.72100 41.47100
C  25.44900 -0.30800 40.81000
H  24.79800 -0.16300 39.42500
N  22.54500 -6.53000 45.01300
C  21.68300 -5.94800 44.18900
C  20.48000 -6.74200 44.11700
C  20.63300 -7.82600 45.08200
C  22.05200 -7.70400 45.53700
C  19.34700 -6.31200 43.33400
C  19.53200 -8.75200 45.52000
O  18.34400 -8.52000 45.20800
C  19.89900 -9.79000 46.54700
N  24.90600 -7.47100 46.63500
C  24.07000 -8.56400 46.78600
C  24.81400 -9.77500 47.43100
C  26.09600 -9.08500 47.95800
C  26.11900 -7.68200 47.29100
C  23.92200 -10.46400 48.46100
C  27.32800 -9.97700 47.66300
C  28.19300 -10.08300 48.93000
N  26.39200 -5.12600 45.84600
C  27.40500 -5.61400 46.65000
C  28.64700 -4.90800 46.41700
C  28.24600 -3.90300 45.49900
C  26.87100 -4.08200 45.16000
C  29.98600 -5.18000 47.10100
C  28.72200 -2.72700 44.75600
O  29.86200 -2.29800 44.66500
C  27.57700 -2.22800 43.87500
C  27.33700 -0.84500 44.40700
O  26.54000 -0.54800 45.28100
O  27.92600 0.08000 43.61900
C  27.39800 1.48500 43.64600
H  21.09600 -4.43100 42.82400
H  22.41000 -9.58500 46.59100
H  28.21600 -7.21800 47.75000
H  24.41100 -1.14300 43.45300
H  22.74600 -2.83900 41.63000
H  22.38600 -0.62700 43.40500
H  21.36400 -1.91100 44.12600
H  21.00500 -1.37500 42.53000
H  24.75800 -2.23800 40.70600
H  26.30100 -2.20600 41.62700
H  26.46400 0.06200 40.66500
H  24.81100 0.29300 41.45800
H  18.64600 -7.09400 43.04200
H  19.66000 -5.80800 42.41900
H  18.88800 -5.51100 43.91400
H  19.06400 -10.26600 47.06000
H  20.49900 -9.52800 47.41900
H  20.51500 -10.56000 46.08300
H  25.11000 -10.50200 46.67400
H  26.04400 -8.95400 49.03900
H  22.94700 -9.98200 48.52300
H  24.20700 -10.56700 49.50800
H  23.62500 -11.47000 48.16300
H  27.94000 -9.45700 46.92600
H  27.03800 -10.97000 47.32100
H  28.47500 -9.06500 49.19700
H  29.15800 -10.51300 48.66200
H  27.68100 -10.64000 49.71400
H  30.63900 -4.30800 47.09000
H  30.54000 -6.08800 46.86400
H  29.75000 -5.45100 48.13000
H  27.95600 -2.24400 42.85300
H  28.24500 2.10300 43.94500
H  26.68900 1.70600 44.44400
H  27.07200 1.78000 42.64900
Mg 10.98100 46.82000 25.74800
C  8.95600 46.85700 28.67100
C  13.57200 47.89800 27.50600
C  12.70300 47.08000 22.92700
C  7.96000 46.42500 23.90000
N  11.20300 47.31900 27.84400
C  10.26300 47.23000 28.83400
C  11.00700 47.57400 30.18500
C  12.26200 48.32900 29.68800
C  12.37700 47.80900 28.22000
C  12.20600 49.84500 29.75800
C  11.34900 46.42000 31.21800
C  10.90000 46.51400 32.70800
H  10.93200 45.28500 33.56300
N  12.91800 47.19500 25.31300
C  13.91000 47.50200 26.23500
C  15.19300 47.30300 25.61100
C  14.95100 47.10500 24.15200
C  13.45300 47.13900 24.08000
C  16.43000 47.41400 26.40000
C  15.98600 46.82200 23.04000
O  15.65700 46.57400 21.89200
C  17.47400 46.85300 23.46700
N  10.38200 46.94300 23.70100
C  11.30400 47.05400 22.66900
C  10.69100 46.75100 21.38600
C  9.20500 46.46500 21.70700
C  9.15200 46.64300 23.17500
C  11.05800 47.78900 20.21100
C  8.63100 45.08400 21.22500
C  9.12600 44.57300 19.83600
N  8.77800 46.72500 26.15300
C  7.72500 46.43100 25.32300
C  6.52900 46.24400 26.14000
C  6.99700 46.37700 27.50600
C  8.36400 46.72100 27.41000
C  5.11300 45.96300 25.60100
C  6.62100 46.47000 28.89200
O  5.45400 46.37500 29.25600
C  7.89000 46.59200 29.75400
C  8.13000 45.42700 30.51100
O  8.75700 44.46000 30.12100
O  7.50900 45.47100 31.74800
C  7.61600 44.24200 32.62100
H  14.30600 48.32300 28.19300
H  13.36600 46.82900 22.09600
H  7.01500 46.24400 23.38400
H  10.32800 48.21700 30.74400
H  13.16100 48.01000 30.21400
H  13.17200 50.33000 29.90200
H  11.43600 50.08100 30.49200
H  11.81500 50.32600 28.86200
H  12.41900 46.27300 31.07100
H  10.89700 45.48200 30.89600
H  9.85700 46.83000 32.73500
H  11.48700 47.36800 33.04700
H  17.03400 48.24600 26.03800
H  17.10300 46.55800 26.43600
H  16.22600 47.73700 27.42100
H  17.64200 45.90900 23.98700
H  17.72500 47.71200 24.08900
H  18.03000 46.89800 22.53000
H  11.20700 45.81200 21.18600
H  8.62500 47.24200 21.21000
H  11.47500 48.72600 20.58000
H  10.26800 48.06700 19.51300
H  11.76800 47.27700 19.56200
H  7.54300 45.14900 21.22500
H  8.99800 44.30500 21.89400
H  8.24000 44.18800 19.33100
H  9.88100 43.79100 19.91900
H  9.54900 45.35900 19.21100
H  4.42900 46.41600 26.31800
H  4.89000 44.90600 25.74300
H  4.88000 46.29100 24.58800
H  7.78400 47.34100 30.53800
H  7.52100 44.54700 33.66300
H  8.59800 43.77800 32.53200
H  6.81300 43.53100 32.42400

