158

Mg 8.04900 2.92700 27.68900
C  9.48200 1.30400 30.54600
C  6.42100 4.92800 29.85200
C  6.73300 4.28100 25.04800
C  9.86000 0.59300 25.73000
N  7.88700 3.04800 30.00200
C  8.67600 2.36200 30.94600
C  8.46300 2.93200 32.34800
C  7.37400 4.03100 32.11000
C  7.14000 3.94500 30.55900
C  6.07400 3.78600 32.85600
C  9.81900 3.35300 33.09300
C  9.59900 4.35400 34.28900
H  10.49100 4.38600 35.51800
N  6.66700 4.34700 27.48300
C  6.11300 5.06800 28.45300
C  5.35400 6.20600 27.88400
C  5.46100 6.00500 26.48000
C  6.25800 4.78200 26.24400
C  4.62500 7.26800 28.68200
C  4.92100 6.98900 25.44100
O  5.13000 6.83000 24.23500
C  3.97000 8.23800 25.76800
N  8.10200 2.29300 25.69800
C  7.60200 3.14300 24.79000
C  7.98000 2.85000 23.38000
C  8.99200 1.72400 23.55800
C  9.01200 1.53200 25.06500
C  6.71900 2.44500 22.61900
C  10.36900 1.93900 22.94000
C  10.99700 0.68300 22.24200
N  9.27900 1.19500 28.04400
C  10.01100 0.37200 27.14900
C  10.90700 -0.50400 27.81600
C  10.63100 -0.15300 29.15200
C  9.69500 0.88900 29.24400
C  11.97800 -1.34100 27.21600
C  11.04900 -0.55100 30.45900
O  11.84300 -1.39400 30.91100
C  10.29100 0.46200 31.37000
C  9.58300 -0.32400 32.43100
O  8.49500 -0.85800 32.24300
O  10.41000 -0.45300 33.55000
C  9.72700 -1.07800 34.68400
H  6.00600 5.76600 30.41600
H  6.46100 4.87100 24.17100
H  10.50200 0.11600 24.98600
H  7.97700 2.18700 32.97900
H  7.80000 5.03200 32.17900
H  5.45500 3.03000 32.37400
H  5.49700 4.71000 32.81900
H  6.22300 3.36800 33.85200
H  10.42000 3.83400 32.32100
H  10.43400 2.59200 33.57400
H  8.54600 4.31600 34.56600
H  9.71100 5.32400 33.80500
H  5.08300 8.24700 28.54500
H  4.46900 7.15700 29.75500
H  3.62500 7.23400 28.24800
H  4.46500 8.92200 26.45700
H  3.03500 7.86600 26.18600
H  3.80100 8.82900 24.86800
H  8.44100 3.72200 22.91600
H  8.53700 0.76700 23.30400
H  5.79000 2.71400 23.12200
H  6.70100 1.42800 22.22500
H  6.63600 3.06100 21.72400
H  11.05300 2.27400 23.72100
H  10.41700 2.75200 22.21500
H  11.15800 0.82000 21.17300
H  10.34900 -0.16400 22.46900
H  12.00400 0.49700 22.61500
H  12.81400 -1.23200 27.90700
H  12.23200 -1.01800 26.20700
H  11.59200 -2.36000 27.19600
H  11.00900 1.08800 31.89900
H  9.08100 -1.91400 34.41300
H  9.14700 -0.31800 35.20700
H  10.53800 -1.54000 35.24700
Mg 34.88100 3.68500 30.38300
C  32.76200 4.80500 32.91700
C  37.47000 3.87200 32.72200
C  37.02800 2.98200 28.03200
C  32.35500 4.02300 28.06700
N  34.98700 4.17800 32.56500
C  34.03100 4.57800 33.40200
C  34.47500 4.60400 34.81400
C  36.04900 4.58600 34.72300
C  36.18200 4.24500 33.24800
C  36.74700 5.90400 35.09400
C  33.88100 3.40000 35.56200
C  33.74500 3.51200 37.09400
H  34.32400 4.61900 37.94100
N  36.88700 3.24500 30.39600
C  37.74300 3.35600 31.44700
C  39.03400 2.82900 31.04700
C  38.96500 2.46800 29.68100
C  37.58900 2.94600 29.27600
C  40.30300 2.72800 31.91900
C  39.92300 1.71100 28.78500
O  39.62800 1.44700 27.60800
C  41.35300 1.46500 29.16200
N  34.71800 3.79100 28.34500
C  35.81900 3.42500 27.60600
C  35.46000 3.55700 26.05800
C  33.91600 3.66000 26.13400
C  33.61300 3.78800 27.59600
C  36.05600 4.83000 25.32200
C  33.23100 2.45100 25.39600
C  32.90600 1.18300 26.22600
N  32.92300 4.36500 30.45300
C  31.94400 4.38300 29.45300
C  30.59100 4.73200 30.05700
C  30.88500 4.93200 31.44200
C  32.31800 4.75300 31.62200
C  29.37100 4.96300 29.33200
C  30.35100 5.35000 32.67500
O  29.26700 5.72300 33.02600
C  31.48400 5.18500 33.69800
C  31.69900 6.38500 34.58400
O  32.39500 7.34500 34.32600
O  30.99600 6.22600 35.77600
C  30.75000 7.38600 36.60300
H  38.23300 4.10800 33.46800
H  37.71800 2.88100 27.19200
H  31.64100 4.18500 27.25600
H  34.09100 5.48200 35.33500
H  36.37700 3.79800 35.40100
H  37.24000 5.82400 36.06300
H  35.96400 6.65500 35.19100
H  37.42600 6.22400 34.30300
H  34.54500 2.53800 35.49500
H  32.94100 3.06300 35.12500
H  34.11200 2.59800 37.56100
H  32.67400 3.56000 37.29000
H  40.68600 1.72200 32.09300
H  40.21200 2.98000 32.97600
H  41.01000 3.34300 31.36100
H  41.82800 0.89900 28.36100
H  41.42800 0.79900 30.02100
H  41.85700 2.41700 29.32600
H  35.73400 2.73000 25.40300
H  33.58600 4.59800 25.68800
H  36.40500 5.61400 25.99300
H  35.32900 5.29000 24.65200
H  36.91400 4.42900 24.78300
H  33.84000 2.17100 24.53600
H  32.33000 2.83600 24.92000
H  31.83700 0.97000 26.23900
H  33.31100 1.16300 27.23800
H  33.40100 0.43300 25.60900
H  28.90100 5.70700 29.97600
H  28.74500 4.09500 29.12300
H  29.56300 5.36700 28.33800
H  31.18600 4.36000 34.34500
H  29.81000 7.13000 37.09200
H  30.62900 8.26800 35.97400
H  31.57300 7.52500 37.30300

