158

Mg 23.90000 -6.64600 46.06800
C  26.27900 -4.29300 44.85500
C  21.56500 -5.05100 44.11600
C  21.98900 -9.25100 46.62700
C  26.53400 -8.12100 47.81500
N  23.99600 -4.87000 44.58800
C  25.06800 -4.14700 44.24800
C  24.70100 -3.29700 42.99900
C  23.13800 -3.31100 43.03700
C  22.86300 -4.45300 43.99600
C  22.48400 -1.98700 43.49700
C  25.31800 -3.91000 41.69000
C  25.87600 -3.00600 40.58900
H  25.25100 -3.04800 39.19500
N  21.97100 -7.11500 45.43000
C  21.12500 -6.31700 44.68300
C  19.79100 -6.87300 44.67400
C  19.89100 -8.07100 45.45900
C  21.31100 -8.18100 45.87700
C  18.60600 -6.31700 44.12300
C  18.74600 -8.99900 45.68600
O  17.69800 -8.85300 45.08700
C  18.88300 -10.27800 46.58100
N  24.21300 -8.38000 47.14900
C  23.23800 -9.33600 47.30400
C  23.67700 -10.50700 48.12200
C  25.13800 -10.11900 48.57200
C  25.30300 -8.71800 47.89400
C  22.64400 -10.95200 49.27800
C  26.32600 -11.07400 48.17800
C  27.33800 -11.47600 49.26100
N  26.00900 -6.34600 46.34000
C  26.96400 -6.96100 47.10700
C  28.27300 -6.29500 46.99400
C  28.06700 -5.27800 46.02600
C  26.65000 -5.31700 45.75400
C  29.48200 -6.76900 47.65000
C  28.71700 -4.20400 45.33500
O  29.86400 -3.74300 45.28200
C  27.50400 -3.41700 44.60900
C  27.35600 -2.05500 45.22100
O  26.69600 -1.16400 44.78600
O  28.00900 -1.98500 46.40900
C  27.96200 -0.66600 47.01600
H  20.83100 -4.48300 43.54100
H  21.33500 -10.10900 46.79200
H  27.30600 -8.72600 48.29500
H  25.13600 -2.29800 43.02300
H  22.65000 -3.55800 42.09400
H  22.15500 -2.01900 44.53600
H  21.57400 -1.96300 42.89800
H  23.12200 -1.13100 43.27900
H  24.52300 -4.50100 41.23600
H  26.14800 -4.56000 41.96700
H  26.94900 -3.18700 40.52600
H  25.77300 -1.96500 40.89700
H  18.48100 -6.88200 43.19900
H  18.67600 -5.23000 44.08800
H  17.83600 -6.58900 44.84600
H  19.26600 -9.97200 47.55400
H  19.59300 -10.87200 46.00500
H  17.98600 -10.87500 46.74200
H  23.73000 -11.33500 47.41500
H  25.15800 -10.06700 49.66100
H  21.77700 -10.29500 49.35700
H  23.02100 -11.10700 50.28900
H  22.15900 -11.87200 48.95200
H  26.83800 -10.70400 47.29000
H  25.86900 -12.03800 47.95800
H  27.63100 -12.51400 49.10400
H  26.86900 -11.42100 50.24300
H  28.19600 -10.80600 49.20900
H  30.29800 -6.73700 46.92800
H  29.22100 -7.79300 47.91600
H  29.78400 -6.24500 48.55700
H  27.77500 -3.14000 43.59000
H  26.96800 -0.27000 47.22100
H  28.56400 -0.06000 46.33900
H  28.46900 -0.82100 47.96800
Mg -5.59600 25.29900 26.92800
C  -3.85200 27.10000 29.29600
C  -6.74500 23.21400 29.29800
C  -6.46700 23.06500 24.42700
C  -3.88200 27.03100 24.48300
N  -5.21900 25.06000 29.07400
C  -4.56000 25.98100 29.85600
C  -4.84100 25.73800 31.34600
C  -5.46400 24.29400 31.33000
C  -5.86200 24.18200 29.79500
C  -4.53500 23.19100 31.94400
C  -5.64600 26.83300 31.99400
C  -5.15700 27.24700 33.42800
H  -6.01100 26.84800 34.67900
N  -6.66000 23.45600 26.84000
C  -7.12800 22.78700 27.96600
C  -7.78000 21.61500 27.58200
C  -7.63400 21.52100 26.15300
C  -6.88700 22.72800 25.74700
C  -8.50500 20.69000 28.47800
C  -8.17800 20.40400 25.28500
O  -8.04900 20.38100 24.06800
C  -8.98900 19.22500 25.80900
N  -5.22000 25.04900 24.83900
C  -5.72500 24.08900 24.04000
C  -5.24900 24.25400 22.51800
C  -4.62100 25.60900 22.59100
C  -4.59000 25.95300 24.08200
C  -4.32800 23.12500 22.03900
C  -5.38200 26.78700 21.72500
C  -4.98400 26.94200 20.25000
N  -4.37100 26.96400 26.80600
C  -3.76100 27.58100 25.79000
C  -3.02300 28.77000 26.20500
C  -3.00400 28.61900 27.61800
C  -3.80500 27.45300 27.94800
C  -2.32800 29.75600 25.28500
C  -2.52000 29.19000 28.84100
O  -1.87500 30.20300 29.10100
C  -3.05500 28.21500 29.96500
C  -1.93100 27.82300 30.83000
O  -1.29600 26.77200 30.67500
O  -1.91200 28.61300 31.97300
C  -0.90300 28.12500 32.97000
H  -7.09300 22.52400 30.07000
H  -6.82600 22.35500 23.67800
H  -3.41500 27.62400 23.69400
H  -3.91900 25.62000 31.91400
H  -6.32000 24.33800 32.00400
H  -3.46800 23.40000 31.87500
H  -4.76200 22.31600 31.33400
H  -4.82200 22.95300 32.96800
H  -6.67500 26.53300 32.19000
H  -5.70500 27.66400 31.29200
H  -4.94500 28.31200 33.32800
H  -4.12400 26.93400 33.58700
H  -8.69200 21.25800 29.38900
H  -7.92900 19.80000 28.73200
H  -9.47500 20.53700 28.00500
H  -9.95600 19.58500 26.16100
H  -8.43700 18.55700 26.47000
H  -9.37200 18.61700 24.99000
H  -6.13600 24.40200 21.90300
H  -3.62600 25.58300 22.14700
H  -4.21700 22.39300 22.83900
H  -3.29900 23.40600 21.81300
H  -4.78900 22.70300 21.14600
H  -5.43800 27.80400 22.11300
H  -6.42900 26.49300 21.78800
H  -4.24800 27.73900 20.14000
H  -5.88800 27.07600 19.65500
H  -4.51700 26.04300 19.84800
H  -2.61000 29.67300 24.23500
H  -1.26200 29.90500 25.45700
H  -2.76200 30.71000 25.58400
H  -3.71200 28.65400 30.71600
H  -1.28000 27.21200 33.43100
H  -0.77800 28.90200 33.72300
H  0.06100 27.93300 32.49800

