158

Mg 2.61200 -1.52900 43.81600
C  6.12700 -0.72800 43.32100
C  1.85300 1.16600 41.87700
C  -0.55200 -2.56600 43.80600
C  3.78700 -4.57500 45.15000
N  3.87900 -0.04800 42.71600
C  5.25700 0.16200 42.67200
C  5.63800 1.47100 42.01200
C  4.26300 2.12700 41.74100
C  3.22700 1.01000 42.08100
C  4.15600 3.61500 42.46500
C  6.43300 1.22400 40.69900
C  7.76500 1.94300 40.51500
H  8.32200 2.23100 39.16100
N  0.87600 -0.72400 43.07300
C  0.79600 0.33600 42.30100
C  -0.63000 0.68000 42.07400
C  -1.38200 -0.39500 42.70300
C  -0.34200 -1.31000 43.20500
C  -1.08100 1.87500 41.27300
C  -2.92800 -0.47900 42.68500
O  -3.69700 0.43600 42.45200
C  -3.63900 -1.74500 43.02500
N  1.76200 -3.42300 44.15800
C  0.43000 -3.45000 44.27500
C  0.08800 -4.91200 44.95100
C  1.48000 -5.48600 45.43300
C  2.36400 -4.36600 44.93200
C  -1.10100 -5.13100 45.94200
C  1.77000 -6.85400 44.73800
C  2.41400 -7.96000 45.69600
N  4.56700 -2.49800 44.27900
C  4.82700 -3.71300 44.89100
C  6.25600 -3.88100 45.04100
C  6.81100 -2.72500 44.44800
C  5.72100 -1.94600 43.95700
C  6.99900 -5.02300 45.61400
C  8.07800 -2.00700 44.11000
O  9.22400 -2.37000 44.30600
C  7.67200 -0.65400 43.45000
C  7.99500 0.42200 44.33900
O  8.04500 0.36600 45.57000
O  8.36100 1.54700 43.58500
C  8.79700 2.78100 44.40900
H  1.59000 2.02000 41.24900
H  -1.53300 -3.00100 44.01100
H  3.92800 -5.52900 45.66300
H  6.23300 2.00000 42.75600
H  4.13200 2.26000 40.66700
H  4.15900 4.39800 41.70700
H  4.97500 3.90200 43.12500
H  3.23200 3.61100 43.04400
H  5.89400 1.32300 39.75700
H  6.68300 0.16500 40.64500
H  8.46700 1.23700 40.96000
H  7.72100 2.86600 41.09400
H  -0.74100 1.78100 40.24200
H  -0.59800 2.78200 41.63700
H  -2.15400 2.05300 41.34200
H  -4.70600 -1.72700 42.80500
H  -3.44000 -1.99600 44.06700
H  -3.29900 -2.54000 42.36100
H  -0.18900 -5.43900 44.03800
H  1.43500 -5.39500 46.51800
H  -0.64700 -5.74500 46.72000
H  -1.98500 -5.56100 45.47200
H  -1.38400 -4.19500 46.42600
H  2.47700 -6.66000 43.93200
H  0.86500 -7.30500 44.33200
H  2.76600 -7.35400 46.53100
H  3.36200 -8.32400 45.30000
H  1.71900 -8.77500 45.89800
H  7.97100 -4.91700 45.13200
H  6.50100 -5.95500 45.34600
H  7.00600 -4.78100 46.67700
H  8.17700 -0.58300 42.48700
H  7.93800 3.42200 44.60800
H  9.55100 3.31900 43.83500
H  9.30200 2.44600 45.31500
Mg 47.97800 24.58800 28.17300
C  48.71100 26.97600 30.60300
C  46.65700 22.42900 30.43100
C  47.68300 22.26200 25.67000
C  49.81600 26.57800 25.91200
N  47.74800 24.77000 30.27700
C  48.11600 25.76200 31.10400
C  47.80800 25.35100 32.55500
C  47.33900 23.88600 32.47400
C  47.17500 23.65500 30.96500
C  48.12500 22.72400 33.18500
C  46.78600 26.35300 33.27500
C  47.23800 26.81200 34.72400
H  47.00800 25.90700 35.89400
N  47.21200 22.58800 28.08500
C  46.62400 21.93000 29.13800
C  45.94900 20.69600 28.60700
C  46.26400 20.60700 27.18800
C  47.04800 21.84700 26.91000
C  45.25500 19.75700 29.47900
C  45.82600 19.58800 26.10700
O  46.03800 19.78400 24.88100
C  45.03100 18.38600 26.54800
N  48.70000 24.39100 26.14700
C  48.43900 23.37000 25.26500
C  49.09600 23.61800 23.87500
C  49.70700 25.01700 24.03200
C  49.35800 25.41900 25.47700
C  50.15800 22.54900 23.52500
C  49.06100 26.02700 22.98200
C  47.54500 26.30400 22.98500
N  49.01600 26.44900 28.13700
C  49.76400 27.06000 27.16900
C  50.40000 28.28100 27.71200
C  49.88000 28.35400 29.05500
C  49.12700 27.17000 29.26500
C  51.22300 29.29800 26.94900
C  49.82400 29.14000 30.24100
O  50.20100 30.24100 30.38900
C  49.16200 28.23600 31.30200
C  50.21800 27.95700 32.33300
O  51.26900 27.26900 32.17900
O  49.98100 28.74200 33.39600
C  50.87000 28.96700 34.54500
H  46.28600 21.75900 31.20900
H  47.57200 21.57100 24.83100
H  50.39500 27.16200 25.19300
H  48.73700 25.33000 33.12600
H  46.32500 23.76900 32.85700
H  48.83100 22.22300 32.52300
H  47.41800 21.99200 33.57500
H  48.66300 23.13600 34.03900
H  45.85800 25.80200 33.42500
H  46.55400 27.20300 32.63300
H  46.74300 27.71500 35.07900
H  48.27900 27.13400 34.74100
H  44.16900 19.74100 29.38100
H  45.42000 20.01100 30.52600
H  45.66100 18.78700 29.19200
H  44.08600 18.82800 26.86700
H  45.53900 17.81500 27.32500
H  44.85500 17.73300 25.69400
H  48.33900 23.62000 23.09000
H  50.78700 24.87600 24.06900
H  50.61000 22.18300 24.44700
H  50.83900 23.18400 22.95700
H  49.62300 21.80100 22.93900
H  49.31100 25.46500 22.08200
H  49.68500 26.91400 22.88000
H  47.06600 26.18900 22.01300
H  47.42800 27.33400 23.32100
H  46.97400 25.59100 23.57900
H  50.88800 29.37200 25.91400
H  52.21100 28.83700 26.94100
H  51.31500 30.21900 27.52400
H  48.37700 28.82300 31.77900
H  51.79600 28.41800 34.37300
H  50.47400 28.52500 35.45900
H  51.13300 30.01100 34.71600

