158

Mg 24.19800 -5.12600 46.60300
C  26.42100 -2.92500 45.00900
C  21.74200 -4.10700 44.50100
C  22.49000 -7.69300 47.70500
C  27.11700 -6.41600 48.31400
N  24.12300 -3.66900 44.86500
C  25.13600 -2.88500 44.40500
C  24.60800 -2.00500 43.23600
C  23.06200 -2.36500 43.15500
C  22.92700 -3.40600 44.25500
C  22.09000 -1.08100 43.38600
C  25.34100 -2.24600 41.92000
C  26.10300 -1.05400 41.25600
H  25.87000 -0.92400 39.71400
N  22.34300 -5.83900 46.09300
C  21.45800 -5.28500 45.28400
C  20.17100 -6.03000 45.38400
C  20.35900 -7.11900 46.35300
C  21.76700 -6.91900 46.76300
C  18.94500 -5.62000 44.59500
C  19.31000 -8.15200 46.77300
O  18.15600 -8.10500 46.32100
C  19.60400 -9.28200 47.72800
N  24.78100 -6.91900 47.73500
C  23.82300 -7.80100 48.09700
C  24.48600 -9.01300 48.81400
C  25.91100 -8.46200 49.17800
C  25.95300 -7.16100 48.35300
C  23.68000 -9.69500 49.99800
C  27.11300 -9.39000 48.87500
C  27.60600 -9.54800 47.43500
N  26.33000 -4.75300 46.74700
C  27.34000 -5.32100 47.49400
C  28.54900 -4.59700 47.28000
C  28.28400 -3.56700 46.32300
C  26.91700 -3.79500 45.99200
C  29.76800 -4.92700 48.00200
C  28.77300 -2.40400 45.64900
O  29.84400 -1.80400 45.73800
C  27.57400 -1.98900 44.71700
C  27.16400 -0.56200 44.95200
O  26.54000 -0.14500 45.92400
O  27.50700 0.20200 43.84700
C  27.20200 1.62900 43.80200
H  20.90400 -3.59300 44.02500
H  21.99300 -8.61400 48.01700
H  28.08100 -6.71500 48.72900
H  24.78300 -1.00100 43.62200
H  22.70000 -2.79300 42.22000
H  21.48000 -1.21000 44.28000
H  21.42700 -0.88600 42.54300
H  22.86800 -0.33100 43.52800
H  24.59400 -2.61500 41.21600
H  26.14600 -2.95900 42.09500
H  27.16300 -1.26400 41.40100
H  25.76700 -0.17300 41.80100
H  19.18900 -4.89700 43.81700
H  18.22500 -5.12600 45.24800
H  18.51300 -6.48100 44.08400
H  19.69100 -8.96400 48.76700
H  20.47300 -9.76300 47.27800
H  18.84300 -10.05900 47.65500
H  24.68800 -9.75500 48.04100
H  25.94100 -8.11300 50.21000
H  24.16800 -9.68200 50.97300
H  23.68800 -10.75200 49.73100
H  22.69600 -9.23100 50.05900
H  26.81900 -10.37900 49.22500
H  27.90400 -9.17500 49.59400
H  27.74500 -10.61500 47.26000
H  28.61800 -9.14300 47.43200
H  26.99100 -9.05600 46.68300
H  30.40900 -5.75700 47.70600
H  29.56100 -5.17000 49.04500
H  30.45600 -4.08300 48.03300
H  27.90700 -2.15700 43.69300
H  27.52000 2.11600 44.72400
H  26.16700 1.81400 43.51600
H  27.69100 2.14500 42.97600
Mg 44.59900 5.33300 47.49200
C  42.46400 8.17200 47.28100
C  41.77800 3.40100 47.01600
C  46.51500 2.72100 47.07400
C  47.34800 7.47100 47.57700
N  42.30900 5.74900 47.27200
C  41.73900 6.95700 47.12600
C  40.19300 6.86900 47.03300
C  40.00500 5.32100 46.92100
C  41.42700 4.72400 47.12300
C  39.02300 4.68300 47.90500
C  39.57900 7.62700 45.84400
C  40.23200 7.19100 44.53400
H  40.65000 8.16900 43.33100
N  44.22600 3.25800 47.14100
C  42.99200 2.66500 47.00300
C  43.19100 1.23700 46.91200
C  44.58600 1.03600 46.85400
C  45.17900 2.35600 47.01700
C  42.04900 0.22900 46.73600
C  45.33500 -0.31300 46.75700
O  44.67900 -1.34200 46.73900
C  46.70700 -0.55700 46.95800
N  46.64200 5.13200 47.30800
C  47.20600 3.93300 47.19400
C  48.78500 4.01100 47.39300
C  48.92600 5.57000 47.59200
C  47.53600 6.12400 47.50800
C  49.29200 3.16300 48.57100
C  49.95200 6.23600 46.59400
C  50.99800 7.11700 47.23600
N  44.90100 7.38300 47.42900
C  46.07900 8.12100 47.45500
C  45.79900 9.45400 47.36500
C  44.37700 9.53700 47.42400
C  43.84100 8.27700 47.34600
C  46.84500 10.55500 47.19600
C  43.25900 10.45200 47.27100
O  43.22000 11.61700 47.00500
C  41.97300 9.62600 47.18600
C  41.11100 9.84200 48.31800
O  41.00900 9.08800 49.28300
O  40.28000 10.88200 48.04900
C  39.14700 11.07600 48.95000
H  40.87100 2.82300 46.82100
H  47.24800 1.93000 46.90400
H  48.07400 8.27400 47.72100
H  39.73300 7.21400 47.95900
H  39.66000 4.99400 45.94000
H  38.33100 5.37100 48.39100
H  39.55400 4.16900 48.70600
H  38.28800 4.08900 47.36200
H  39.58800 8.71300 45.94400
H  38.53500 7.33400 45.73700
H  39.43500 6.52000 44.21300
H  41.15900 6.62700 44.63100
H  41.23000 0.83200 46.34500
H  41.80500 -0.19100 47.71200
H  42.24900 -0.58300 46.03700
H  47.33800 -0.01700 46.25200
H  46.97700 -1.61100 46.88800
H  46.99800 -0.16200 47.93200
H  49.34600 3.70800 46.50900
H  49.26100 5.72800 48.61700
H  48.44000 2.52400 48.79800
H  49.56200 3.79900 49.41400
H  50.15500 2.62000 48.18500
H  49.40500 6.76000 45.81000
H  50.50000 5.51300 45.98800
H  51.59200 6.44100 47.85100
H  50.53600 7.92400 47.80500
H  51.52100 7.59600 46.40900
H  47.67800 10.51600 47.89800
H  46.36400 11.53300 47.18200
H  47.33400 10.37400 46.23900
H  41.48900 9.82300 46.23000
H  39.17000 12.07800 49.37800
H  39.19300 10.42800 49.82400
H  38.27700 10.95300 48.30500

