158

Mg 43.76400 3.77600 46.68100
C  41.50200 6.70500 46.48800
C  40.98700 1.78100 46.40100
C  45.80000 1.21400 46.14200
C  46.37700 6.01400 46.77100
N  41.52600 4.28800 46.36000
C  40.80500 5.48200 46.49200
C  39.31500 5.20100 46.61100
C  39.26100 3.63400 46.78300
C  40.70500 3.15400 46.51800
C  38.71900 3.00800 48.08100
C  38.38400 5.75200 45.43100
C  38.83700 5.25500 44.01300
H  39.17100 6.39500 42.96700
N  43.44000 1.71800 46.19900
C  42.23400 1.11200 46.14600
C  42.50600 -0.29800 45.99900
C  43.81600 -0.52400 45.72300
C  44.44300 0.82900 45.95500
C  41.37100 -1.38300 45.90000
C  44.47000 -1.85500 45.27000
O  43.81900 -2.89200 45.22100
C  45.91200 -1.93600 44.89400
N  45.84200 3.59600 46.25500
C  46.43000 2.39400 46.38700
C  47.97200 2.52200 46.70600
C  48.09100 4.12000 46.83400
C  46.71600 4.66600 46.60300
C  48.44200 1.77500 47.94400
C  49.16000 4.74400 46.08100
C  50.56100 4.99900 46.68500
N  43.96400 5.93700 46.47100
C  45.08100 6.65100 46.61700
C  44.78500 8.05500 46.56200
C  43.37100 8.15500 46.58500
C  42.91000 6.83000 46.44700
C  45.77800 9.15700 46.72300
C  42.21400 9.04900 46.60000
O  42.12100 10.30100 46.57300
C  40.91000 8.08900 46.64000
C  40.30900 8.31700 47.90200
O  40.65500 7.69400 48.91200
O  39.28300 9.23400 47.76700
C  38.51300 9.28900 49.04500
H  40.05900 1.20500 46.40100
H  46.56100 0.44800 45.98100
H  47.24800 6.65900 46.90800
H  39.03700 5.65600 47.56200
H  38.64200 3.29500 45.95200
H  38.22500 3.77700 48.67500
H  39.48700 2.53000 48.69100
H  37.96500 2.25900 47.84000
H  38.28200 6.83100 45.54500
H  37.37700 5.42200 45.68700
H  38.06600 4.57800 43.64400
H  39.70800 4.60500 44.09500
H  41.21500 -1.38900 44.82200
H  40.44100 -1.06400 46.37000
H  41.68200 -2.38400 46.20000
H  46.60600 -2.06200 45.72500
H  46.09500 -0.96100 44.44200
H  46.09500 -2.69900 44.13800
H  48.57000 2.25300 45.83500
H  48.38700 4.29900 47.86800
H  49.02300 0.90100 47.65100
H  47.56400 1.34000 48.42300
H  49.04300 2.33700 48.65900
H  48.70300 5.66600 45.72300
H  49.31900 4.14900 45.18100
H  50.78200 4.15800 47.34300
H  50.61300 5.88400 47.31900
H  51.36300 5.09900 45.95400
H  46.59500 9.04200 46.01000
H  46.27100 8.94200 47.67100
H  45.49000 10.19600 46.56100
H  40.40200 8.23900 45.68700
H  39.08300 9.23700 49.97200
H  37.69300 8.57400 49.11700
H  37.91800 10.19000 49.19300
Mg 35.84400 1.65900 29.13700
C  33.72500 2.79400 31.78700
C  38.37300 1.64400 31.34300
C  37.75200 0.92500 26.51300
C  33.11500 2.26000 26.92800
N  35.95600 1.98400 31.32900
C  34.97700 2.48000 32.18400
C  35.50500 2.56900 33.61700
C  37.04800 2.23400 33.43500
C  37.14300 1.86400 31.97800
C  37.92400 3.53000 33.71600
C  34.75500 1.49300 34.51500
C  34.42800 1.97200 35.93500
H  35.26900 3.01600 36.66800
N  37.82400 1.28800 28.93800
C  38.67300 1.31300 29.99800
C  39.94500 0.87200 29.52700
C  39.89600 0.82600 28.11200
C  38.46100 1.02500 27.73700
C  41.08300 0.68000 30.48100
C  40.96100 0.63100 27.16800
O  40.72400 0.55900 25.98600
C  42.37800 0.50100 27.55000
N  35.42200 1.56700 26.94500
C  36.39500 1.11200 26.07600
C  35.86200 1.27200 24.60900
C  34.34600 1.54400 24.81900
C  34.25400 1.79100 26.35100
C  36.61200 2.30500 23.82700
C  33.38400 0.50000 24.19300
C  32.97400 -0.78200 24.92200
N  33.90500 2.39100 29.29500
C  32.91200 2.56000 28.33200
C  31.68400 2.96500 28.92600
C  31.93900 3.11600 30.32000
C  33.26100 2.73000 30.44400
C  30.33800 3.15300 28.22100
C  31.37900 3.53800 31.63000
O  30.28400 4.04000 31.88600
C  32.55400 3.26100 32.62600
C  32.59400 4.52600 33.46800
O  33.15000 5.59000 33.18400
O  31.80200 4.41600 34.57900
C  31.55100 5.64200 35.33600
H  39.25000 1.73500 31.98700
H  38.31200 0.66400 25.61200
H  32.23300 2.43100 26.30800
H  35.26600 3.57900 33.94900
H  37.49100 1.49500 34.10300
H  38.46900 3.89200 32.84400
H  38.69800 3.20800 34.41300
H  37.44000 4.37600 34.20400
H  35.29000 0.54800 34.61400
H  33.81200 1.26900 34.01600
H  34.39600 1.15300 36.65400
H  33.45300 2.45900 35.92300
H  41.66600 -0.20700 30.23000
H  40.99700 0.70800 31.56700
H  41.68500 1.58600 30.42100
H  43.05500 0.29500 26.72100
H  42.42800 -0.32900 28.25500
H  42.66500 1.41800 28.06400
H  36.01500 0.30900 24.12200
H  34.09200 2.48000 24.32200
H  36.04400 3.20200 23.57600
H  36.97300 1.81500 22.92300
H  37.53800 2.59200 24.32400
H  33.70800 0.21900 23.19000
H  32.43900 1.00300 23.98900
H  33.58400 -0.99800 25.79900
H  33.21000 -1.65500 24.31300
H  31.97500 -0.72700 25.35200
H  30.10100 2.20700 27.73500
H  30.49300 3.81200 27.36600
H  29.62000 3.52400 28.95300
H  32.11300 2.50800 33.27800
H  30.47900 5.73000 35.51000
H  31.87500 6.58000 34.88400
H  32.01400 5.49600 36.31200

