158

Mg 47.11300 17.40900 28.02100
C  45.34200 16.93200 30.91700
C  49.38600 19.21600 29.85000
C  48.68700 18.17300 25.22200
C  44.69000 15.66000 26.28300
N  47.20800 18.06400 30.13900
C  46.49900 17.68300 31.18000
C  47.03800 18.21600 32.50200
C  48.17500 19.16800 32.00300
C  48.30500 18.75700 30.55400
C  47.83500 20.65300 32.26200
C  47.46800 17.19800 33.62800
C  46.57000 17.16700 34.90000
H  46.16400 18.52800 35.51200
N  48.85800 18.44400 27.60800
C  49.63900 19.11200 28.47800
C  50.87600 19.54500 27.82900
C  50.73100 19.11600 26.46900
C  49.37200 18.66400 26.36200
C  51.98400 20.21500 28.61100
C  51.67900 19.20300 25.30100
O  51.44800 18.90100 24.15100
C  52.89100 19.93800 25.53400
N  46.76000 16.84400 26.10700
C  47.50000 17.48300 25.06100
C  47.00700 17.08400 23.70300
C  45.99700 15.97400 24.09400
C  45.81600 16.08600 25.62100
C  46.41900 18.21500 22.67500
C  46.25500 14.53600 23.52500
C  45.25500 14.00200 22.49300
N  45.39200 16.32500 28.44800
C  44.39300 15.77000 27.66000
C  43.27000 15.38100 28.47600
C  43.66300 15.73500 29.77200
C  44.86700 16.37500 29.64500
C  41.99900 14.79400 28.02700
C  43.18600 15.70300 31.10600
O  42.12600 15.29300 31.52600
C  44.31500 16.46100 31.96800
C  43.65500 17.58500 32.70800
O  43.47400 18.71100 32.30800
O  43.01500 17.04200 33.84400
C  42.07200 17.94400 34.49000
H  49.99900 19.89700 30.44400
H  49.06900 18.60900 24.29700
H  43.93300 15.17000 25.66700
H  46.18600 18.79400 32.85800
H  49.07600 18.91600 32.56200
H  46.93300 20.84200 32.84300
H  47.66000 21.17100 31.31900
H  48.62300 21.15100 32.82700
H  48.52100 17.32500 33.88000
H  47.54200 16.18300 33.23800
H  47.04600 16.49200 35.61100
H  45.70900 16.59700 34.55200
H  52.31000 21.03200 27.96700
H  52.83200 19.56700 28.83700
H  51.68000 20.76600 29.50000
H  52.63500 20.88100 26.01600
H  53.14600 20.26900 24.52700
H  53.73000 19.38000 25.94900
H  47.80900 16.54600 23.19800
H  45.02500 16.25800 23.69100
H  46.99600 18.31500 21.75500
H  46.34700 19.21400 23.10400
H  45.44700 17.89200 22.30300
H  46.37400 13.84300 24.35800
H  47.21500 14.44900 23.01500
H  44.43000 14.71400 22.47600
H  44.77200 13.12200 22.91700
H  45.72700 13.76300 21.54000
H  42.14000 13.93300 27.37300
H  41.43900 15.55400 27.48100
H  41.29800 14.53300 28.82000
H  44.72600 15.75400 32.68900
H  42.51800 18.77400 35.03700
H  41.44000 17.31200 35.11400
H  41.37800 18.33500 33.74600
Mg -12.21200 37.45100 42.89000
C  -9.58100 35.19800 42.65600
C  -10.01700 39.88600 41.87800
C  -14.80100 39.52600 42.62800
C  -14.33600 34.75800 43.66500
N  -9.98100 37.57100 42.46300
C  -9.14200 36.51400 42.40100
C  -7.77200 36.89700 41.82500
C  -7.88800 38.49200 41.91400
C  -9.37200 38.67900 42.10900
C  -6.92200 39.14100 42.93500
C  -7.57900 36.40400 40.34200
C  -6.48600 35.35000 40.13600
H  -6.87000 34.42100 38.97400
N  -12.43700 39.40800 42.26700
C  -11.35400 40.27000 41.96900
C  -11.88600 41.55200 41.68500
C  -13.25000 41.50900 41.86100
C  -13.56900 40.13700 42.31700
C  -10.99300 42.72600 41.22400
C  -14.21100 42.70000 41.67500
O  -13.70200 43.80200 41.40900
C  -15.77500 42.58700 41.70600
N  -14.31100 37.13100 43.07100
C  -15.22800 38.19200 42.96800
C  -16.60800 37.74700 43.45700
C  -16.42200 36.27600 43.83000
C  -14.92800 36.03900 43.52900
C  -17.25700 38.58100 44.54500
C  -17.27700 35.33000 42.88800
C  -16.80600 34.86600 41.45700
N  -12.08400 35.39800 43.02300
C  -13.02100 34.41800 43.29500
C  -12.44200 33.13100 43.29100
C  -11.13500 33.35800 42.95700
C  -10.93300 34.76600 42.85900
C  -13.17000 31.87100 43.56800
C  -9.88300 32.73700 42.84100
O  -9.55600 31.55400 43.01700
C  -8.81100 33.85600 42.60700
C  -7.91300 33.83200 43.89700
O  -7.90900 34.61400 44.77800
O  -6.95300 32.88100 43.78900
C  -5.98900 32.74800 44.90400
H  -9.30200 40.68400 41.66600
H  -15.68100 40.14400 42.82000
H  -15.01000 33.98100 44.03000
H  -6.99200 36.50600 42.47800
H  -7.71800 38.92500 40.92800
H  -6.19300 38.44200 43.34600
H  -7.36400 39.57100 43.83400
H  -6.34600 39.92700 42.44800
H  -7.48300 37.22500 39.63100
H  -8.42800 35.76800 40.09300
H  -6.30000 34.72700 41.01100
H  -5.57200 35.91800 39.96300
H  -11.53800 43.28300 40.46200
H  -10.11700 42.36100 40.69000
H  -10.65100 43.37100 42.03400
H  -15.99700 41.72400 41.07800
H  -16.23100 43.48000 41.27700
H  -16.08300 42.44100 42.74100
H  -17.26600 37.80300 42.58900
H  -16.64600 36.13200 44.88700
H  -17.78900 38.03600 45.32400
H  -17.96900 39.19600 43.99300
H  -16.48800 39.25700 44.91800
H  -18.29500 35.69900 42.76300
H  -17.26300 34.45900 43.54400
H  -16.84000 33.77700 41.47600
H  -15.77800 35.09500 41.17400
H  -17.43200 35.27700 40.66500
H  -13.05600 31.76300 44.64600
H  -12.80000 31.00100 43.02600
H  -14.23200 31.98900 43.35400
H  -8.23900 33.58200 41.72100
H  -5.76900 31.68200 44.95300
H  -6.36400 33.18800 45.82800
H  -5.11200 33.25900 44.50700

