158

Mg 0.82900 7.73600 25.49400
C  1.49500 9.52900 28.30800
C  0.94100 4.87100 27.31700
C  0.48200 5.94900 22.55300
C  1.14700 10.58800 23.45700
N  1.12300 7.26900 27.56400
C  1.36700 8.14600 28.56800
C  1.49700 7.44900 29.99300
C  1.49900 5.99500 29.55100
C  1.11400 6.01400 28.07000
C  2.85700 5.14100 29.87200
C  0.32600 7.84900 30.99000
C  0.67300 7.87000 32.45400
H  1.92000 7.07100 32.94000
N  0.73700 5.69900 24.99600
C  0.72100 4.64600 25.86800
C  0.33700 3.40200 25.19100
C  0.20300 3.75100 23.82100
C  0.51700 5.17600 23.68700
C  0.14500 2.11700 25.93800
C  -0.15800 2.83300 22.71100
O  -0.28700 3.31300 21.58300
C  -0.50700 1.42400 22.85300
N  0.92600 8.21400 23.22600
C  0.63300 7.29700 22.28500
C  0.52300 7.93100 20.86600
C  0.68100 9.45900 21.17200
C  0.88500 9.44900 22.70800
C  1.74300 7.37300 19.94000
C  -0.65300 10.26800 20.86500
C  -0.56200 11.77600 20.36800
N  1.23700 9.66100 25.73700
C  1.28900 10.72100 24.82900
C  1.51500 11.96100 25.54100
C  1.58600 11.55000 26.90200
C  1.40600 10.17400 27.00700
C  1.57400 13.32300 24.88600
C  1.76000 12.06900 28.31300
O  2.11400 13.20800 28.57700
C  1.56000 10.79900 29.25600
C  2.68500 10.70300 30.22400
O  3.77700 10.32700 29.88900
O  2.35600 11.39900 31.39400
C  3.35200 11.28600 32.47200
H  1.12100 3.98000 27.92300
H  0.26700 5.46400 21.59800
H  1.10400 11.55000 22.94300
H  2.47600 7.73500 30.38000
H  0.62600 5.50900 29.98700
H  2.73500 4.13900 30.28500
H  3.55400 5.69200 30.50300
H  3.35500 5.12500 28.90200
H  -0.60900 7.29200 30.92800
H  0.04200 8.85100 30.67000
H  -0.27000 7.77500 32.99100
H  1.02800 8.89000 32.60200
H  -0.93000 1.94900 25.86300
H  0.45700 2.14000 26.98200
H  0.73100 1.29000 25.53800
H  -0.97000 1.09200 21.92400
H  -1.18800 1.20700 23.67700
H  0.35600 0.77900 23.01900
H  -0.37000 7.53400 20.38300
H  1.53100 9.99300 20.74700
H  1.44900 7.57200 18.91000
H  1.97900 6.31400 20.04600
H  2.67400 7.91500 20.10500
H  -1.29900 10.15000 21.73500
H  -1.29100 9.70500 20.18300
H  -1.20200 11.87600 19.49100
H  0.45700 12.00700 20.05900
H  -0.85000 12.48000 21.14900
H  2.44400 13.45800 24.24400
H  1.55700 14.15600 25.58900
H  0.70900 13.47500 24.24100
H  0.66700 11.12000 29.79200
H  3.73500 10.26900 32.55800
H  3.01100 11.64800 33.44200
H  4.17900 11.92200 32.15600
Mg 25.27300 -6.85500 48.44900
C  27.47300 -4.68600 46.94000
C  22.90200 -6.12800 46.14300
C  23.79700 -9.74100 49.31000
C  28.13100 -8.03000 50.36000
N  25.27700 -5.55100 46.65800
C  26.23300 -4.67400 46.27500
C  25.77500 -3.86100 45.07700
C  24.23600 -4.12300 45.04000
C  24.09200 -5.31800 46.06600
C  23.30400 -2.93400 45.34000
C  26.49600 -4.27200 43.79400
C  27.00500 -3.06300 42.96300
H  26.19200 -2.61400 41.76600
N  23.49300 -7.80700 47.83900
C  22.64600 -7.29100 46.91400
C  21.50200 -8.25700 46.86200
C  21.74700 -9.33500 47.77300
C  23.06100 -9.04500 48.34000
C  20.40300 -8.08600 45.89600
C  20.82600 -10.44200 48.00800
O  19.73000 -10.46100 47.47900
C  21.20900 -11.68000 48.83600
N  25.87600 -8.56800 49.75300
C  24.96700 -9.54400 50.04000
C  25.41200 -10.48500 51.22000
C  26.96900 -10.06700 51.28500
C  27.01400 -8.79500 50.42100
C  24.64800 -10.22400 52.57500
C  27.90400 -11.25300 50.89700
C  28.97400 -11.73200 51.88400
N  27.27400 -6.26400 48.88500
C  28.28200 -6.80800 49.71100
C  29.48800 -6.10400 49.53700
C  29.17400 -5.21500 48.48700
C  27.84900 -5.41500 48.07400
C  30.81900 -6.35600 50.21000
C  29.76300 -4.18800 47.66700
O  30.87800 -3.75300 47.63400
C  28.73000 -3.86700 46.58600
C  28.49400 -2.38400 46.66800
O  28.65000 -1.51900 45.81600
O  27.71400 -2.21900 47.84300
C  27.05100 -0.90600 47.95900
H  22.11800 -5.87700 45.42500
H  23.39200 -10.69400 49.65600
H  28.98200 -8.40500 50.93200
H  25.94500 -2.83100 45.39200
H  23.95400 -4.33000 44.00800
H  22.84900 -2.59400 44.41000
H  23.74200 -2.10000 45.88800
H  22.40900 -3.14700 45.92500
H  25.80800 -4.77300 43.11400
H  27.28700 -5.00900 43.93000
H  27.99600 -3.42600 42.69000
H  27.20900 -2.18200 43.57200
H  20.65500 -8.45400 44.90200
H  20.22400 -7.01400 45.80900
H  19.40700 -8.41100 46.19600
H  22.24700 -11.93000 48.61900
H  20.57800 -12.47400 48.43600
H  20.99700 -11.44200 49.87800
H  25.30900 -11.53100 50.93200
H  27.31500 -9.77100 52.27600
H  23.57300 -10.37000 52.47300
H  24.69500 -9.15900 52.79900
H  24.97000 -10.79200 53.44800
H  28.41000 -10.87700 50.00700
H  27.30300 -12.13000 50.65700
H  29.05000 -12.81800 51.93700
H  28.89600 -11.36100 52.90600
H  29.95700 -11.43200 51.52000
H  30.89200 -7.40000 50.51500
H  30.91600 -5.68900 51.06700
H  31.73200 -6.14200 49.65500
H  29.04000 -4.08600 45.56400
H  25.98400 -1.09100 48.07700
H  27.22600 -0.25200 47.10500
H  27.36800 -0.34500 48.83800

