158

Mg 25.97700 0.16900 29.79300
C  27.82300 -0.09200 32.73600
C  23.13100 0.65600 31.54300
C  24.29100 -0.06300 26.92100
C  28.97300 -0.73100 27.93300
N  25.55900 0.08300 31.92600
C  26.47200 0.14900 33.01600
C  25.78300 0.38600 34.35000
C  24.23700 0.50600 33.98800
C  24.30000 0.45000 32.36100
C  23.44300 -0.67300 34.57600
C  26.42200 1.62300 35.13500
C  26.85200 1.29100 36.55500
H  26.76400 2.34700 37.56900
N  23.99700 0.20600 29.31300
C  22.95600 0.44500 30.14700
C  21.69500 0.39700 29.42600
C  22.06300 0.26400 28.02600
C  23.52200 0.11200 28.06100
C  20.34900 0.79300 30.00600
C  21.13300 0.26200 26.81500
O  21.52900 0.30200 25.62800
C  19.61800 0.36100 27.00100
N  26.48000 -0.41700 27.72900
C  25.66000 -0.20400 26.74600
C  26.20500 -0.32300 25.35100
C  27.73100 -0.42400 25.66900
C  27.75000 -0.53000 27.16800
C  25.67800 -1.60700 24.61200
C  28.49400 0.80900 25.10900
C  29.84200 0.59700 24.43900
N  28.05000 -0.20100 30.15600
C  29.08400 -0.55700 29.33100
C  30.22900 -0.74700 30.19800
C  29.82300 -0.49500 31.47700
C  28.47400 -0.22500 31.45300
C  31.64100 -1.25900 29.89200
C  30.34100 -0.38200 32.87100
O  31.45800 -0.57100 33.33700
C  29.01100 -0.13900 33.75200
C  28.78300 -1.27000 34.71700
O  27.87900 -2.12200 34.62000
O  29.60100 -1.12600 35.82600
C  29.19100 -2.02200 37.02400
H  22.21300 0.84900 32.10200
H  23.72600 -0.04200 25.98700
H  29.95000 -0.90100 27.47700
H  25.77700 -0.53900 34.92700
H  23.84300 1.46400 34.33000
H  23.45700 -1.47700 33.84000
H  22.41300 -0.33300 34.68500
H  23.83900 -1.11800 35.48800
H  25.67100 2.41200 35.15000
H  27.24400 2.00100 34.52700
H  27.91300 1.04300 36.51700
H  26.45900 0.35700 36.95700
H  20.08700 1.69200 29.45000
H  20.27700 0.98700 31.07600
H  19.64800 -0.00700 29.76500
H  19.05700 0.29900 26.06900
H  19.35900 1.25600 27.56700
H  19.26800 -0.47500 27.60800
H  25.91100 0.62700 24.90600
H  28.11700 -1.37000 25.28900
H  25.03000 -2.18100 25.27500
H  26.46300 -2.29500 24.29900
H  25.22000 -1.40000 23.64500
H  28.53400 1.59400 25.86300
H  27.83000 1.23100 24.35400
H  30.54000 1.38000 24.73300
H  29.63800 0.58300 23.36900
H  30.21100 -0.39500 24.69900
H  32.35500 -0.50800 29.55400
H  31.51700 -1.97300 29.07800
H  31.99300 -1.78300 30.78100
H  29.17600 0.70400 34.42300
H  28.61700 -2.92500 36.81300
H  28.65500 -1.46100 37.79000
H  30.11200 -2.25700 37.55800
Mg 35.58700 1.56800 30.15500
C  33.19100 2.68300 32.58500
C  37.98000 1.76600 32.52100
C  37.88800 1.03800 27.75800
C  33.08300 2.06600 27.73000
N  35.46600 2.05200 32.29200
C  34.42800 2.44900 33.11200
C  34.91100 2.48400 34.54100
C  36.47300 2.42600 34.45800
C  36.65500 2.11600 32.94700
C  37.15800 3.82800 34.75000
C  34.24000 1.39200 35.40300
C  34.08700 1.71100 36.96800
H  34.99100 2.76400 37.65900
N  37.62300 1.25100 30.22600
C  38.46400 1.40500 31.24800
C  39.80400 1.13800 30.87000
C  39.74500 0.83900 29.48800
C  38.34300 0.99900 29.09500
C  40.88400 1.03600 31.91600
C  40.87500 0.44300 28.53800
O  40.71700 0.24000 27.33900
C  42.28100 0.21400 29.05900
N  35.53000 1.50200 28.15300
C  36.58800 1.33300 27.29200
C  36.23800 1.36400 25.81700
C  34.69100 1.24800 25.90600
C  34.38700 1.65300 27.36900
C  36.67900 2.67100 25.10700
C  34.02000 -0.03200 25.50900
C  33.68700 -0.12200 23.99700
N  33.55300 2.23100 30.10600
C  32.72400 2.39100 29.04300
C  31.42800 2.88100 29.50700
C  31.51600 2.92300 30.94500
C  32.82400 2.56200 31.23400
C  30.22300 3.06700 28.66700
C  30.84400 3.22000 32.14500
O  29.66200 3.52700 32.23900
C  31.93700 3.11000 33.31200
C  31.90100 4.46100 33.98100
O  32.13400 5.52300 33.46800
O  31.50000 4.31600 35.31500
C  31.31900 5.61800 36.01000
H  38.74300 1.65500 33.29400
H  38.65200 0.90500 26.98900
H  32.33300 2.16900 26.94200
H  34.71200 3.50300 34.87000
H  36.95700 1.60100 34.98200
H  36.50800 4.40600 35.40700
H  37.41300 4.31500 33.80800
H  38.06200 3.52800 35.27900
H  34.75900 0.43500 35.35100
H  33.21100 1.23600 35.07800
H  34.04600 0.73200 37.44500
H  33.06500 2.09000 36.98900
H  41.67800 0.38900 31.54300
H  40.47500 0.59000 32.82300
H  41.23700 2.01000 32.25300
H  42.51500 0.97600 29.80200
H  42.88800 0.32100 28.16000
H  42.32500 -0.82700 29.38000
H  36.84700 0.54100 25.44100
H  34.27200 1.96100 25.19600
H  37.05600 3.36700 25.85600
H  35.84000 3.21400 24.67300
H  37.46700 2.57300 24.36000
H  33.10300 -0.35900 26.00000
H  34.75000 -0.80400 25.75300
H  32.63400 -0.38100 23.88400
H  34.22200 -0.89800 23.44900
H  33.84300 0.77300 23.39500
H  29.35700 2.56400 29.09700
H  30.27200 2.60100 27.68300
H  30.00500 4.12800 28.54700
H  31.68200 2.35200 34.05200
H  30.81100 6.36200 35.39700
H  32.25800 6.03000 36.38100
H  30.63600 5.48400 36.84800

