158

Mg 24.16000 -4.70500 45.79100
C  26.09900 -2.39300 44.15000
C  21.49700 -3.79000 43.75700
C  22.54600 -7.36700 46.82100
C  27.09100 -5.94500 47.45900
N  23.86200 -3.23000 44.16600
C  24.77400 -2.36100 43.69700
C  24.10400 -1.29100 42.70400
C  22.59500 -1.63100 42.91500
C  22.61300 -2.96900 43.65200
C  21.82000 -0.54300 43.60700
C  24.70200 -1.54700 41.26000
C  25.08400 -0.27900 40.52600
H  24.69200 -0.09500 39.05100
N  22.27400 -5.46900 45.39000
C  21.34200 -4.95700 44.50700
C  20.15300 -5.73900 44.68300
C  20.32600 -6.81300 45.59100
C  21.74100 -6.61400 45.95900
C  18.93400 -5.24300 43.95400
C  19.32300 -7.87600 45.97100
O  18.16200 -7.96200 45.50300
C  19.61500 -8.81400 47.23000
N  24.81900 -6.55100 46.92100
C  23.83700 -7.38200 47.29700
C  24.41800 -8.52700 48.22000
C  25.88200 -8.02600 48.43300
C  25.96200 -6.73800 47.64500
C  23.41700 -8.93100 49.30600
C  26.98200 -9.03600 48.24800
C  27.53000 -9.26700 46.86100
N  26.18500 -4.26600 45.84000
C  27.23800 -4.81000 46.62400
C  28.40400 -4.04400 46.43100
C  28.04000 -3.13800 45.46700
C  26.66900 -3.26100 45.15800
C  29.75500 -4.27300 47.09700
C  28.47900 -2.07000 44.68100
O  29.59600 -1.57300 44.72100
C  27.27400 -1.52500 43.77400
C  27.07700 -0.07700 44.06200
O  26.33200 0.38800 44.94000
O  27.93400 0.67800 43.28000
C  27.83900 2.07700 43.46700
H  20.68100 -3.54800 43.07300
H  22.03000 -8.25900 47.18200
H  27.91200 -6.34500 48.05700
H  24.43400 -0.30600 43.03400
H  22.08800 -1.74700 41.95700
H  21.70000 -0.71700 44.67600
H  20.80100 -0.47700 43.22400
H  22.28600 0.43800 43.51000
H  23.96400 -2.01300 40.60700
H  25.48600 -2.30400 41.28900
H  26.15600 -0.16600 40.68400
H  24.77400 0.60000 41.09100
H  19.13000 -5.33400 42.88600
H  18.65500 -4.22200 44.21300
H  18.08700 -5.80800 44.34500
H  18.72000 -9.17500 47.73700
H  20.14400 -8.19000 47.95000
H  20.26800 -9.65400 46.99400
H  24.37000 -9.30600 47.46000
H  25.92800 -7.83300 49.50500
H  23.91600 -8.69700 50.24700
H  23.21200 -9.99000 49.14900
H  22.48900 -8.35900 49.28800
H  26.41200 -9.93300 48.49100
H  27.75300 -8.91700 49.00900
H  28.46300 -8.70500 46.89400
H  27.01100 -8.83000 46.00800
H  27.60900 -10.35400 46.85200
H  29.91700 -5.35000 47.07300
H  29.77500 -4.06600 48.16700
H  30.54100 -3.77200 46.53100
H  27.57400 -1.52300 42.72600
H  28.81600 2.48000 43.20100
H  27.57800 2.49900 44.43700
H  27.06100 2.41500 42.78200
Mg 49.97600 47.61700 43.45200
C  46.67900 47.83300 42.37300
C  50.13100 44.56800 41.88700
C  53.26500 47.49900 44.13400
C  49.89100 51.00300 44.48800
N  48.37500 46.19800 42.42100
C  47.15200 46.60400 42.01000
C  46.52900 45.51600 41.11800
C  47.55800 44.34000 41.19200
C  48.80300 45.07200 41.77800
C  47.22200 43.11300 42.07700
C  46.17100 45.92000 39.66400
C  44.79200 45.44700 39.16100
H  44.84600 44.44500 37.95100
N  51.47300 46.24700 43.02700
C  51.28300 45.04600 42.38300
C  52.61400 44.44400 42.24900
C  53.62700 45.33200 42.71800
C  52.76400 46.41700 43.34600
C  52.82500 43.04200 41.68000
C  55.15600 45.25800 42.69500
O  55.62700 44.29900 42.18400
C  56.08300 46.26200 43.33200
N  51.37000 49.16200 43.98100
C  52.57700 48.72100 44.47100
C  53.26600 49.89800 45.28700
C  52.15600 51.02500 45.36000
C  51.07500 50.39100 44.50700
C  53.82100 49.62500 46.68200
C  52.65500 52.49000 45.08900
C  52.67500 53.03500 43.71200
N  48.59100 49.20900 43.46100
C  48.69000 50.48400 43.84500
C  47.32600 51.11300 43.70200
C  46.57000 50.14800 43.07400
C  47.38700 48.97900 42.96100
C  46.94200 52.56100 44.17300
C  45.30700 49.85700 42.57800
O  44.29000 50.51100 42.46600
C  45.35000 48.40100 42.02600
C  44.35000 47.64600 42.79400
O  44.17400 47.56100 43.97300
O  43.53600 47.06200 41.85100
C  42.34500 46.40800 42.37100
H  50.26700 43.66600 41.28600
H  54.24500 47.43700 44.61100
H  49.82300 51.93000 45.06100
H  45.55400 45.26100 41.53300
H  47.83400 44.01400 40.18900
H  47.26800 42.27500 41.38100
H  46.16300 43.07000 42.33400
H  47.77300 43.01800 43.01300
H  46.97700 45.54100 39.03500
H  46.16700 47.00900 39.62400
H  44.30400 46.38800 38.90700
H  44.13700 45.02300 39.92200
H  53.20400 42.97300 40.66000
H  51.90400 42.46000 41.71700
H  53.62400 42.48700 42.17100
H  55.96300 46.34000 44.41300
H  55.85300 47.24700 42.92400
H  57.07100 45.88100 43.07300
H  53.96100 50.34100 44.57300
H  51.76500 51.11300 46.37400
H  53.24400 49.79700 47.59100
H  54.69000 50.22300 46.95700
H  54.15000 48.58700 46.66700
H  53.61400 52.64000 45.58500
H  51.93700 53.11800 45.61500
H  53.68200 53.43600 43.60400
H  51.99000 53.87300 43.58300
H  52.49600 52.31600 42.91200
H  46.98100 52.54000 45.26300
H  45.94500 52.83600 43.83100
H  47.69400 53.30300 43.90300
H  45.12200 48.29800 40.96500
H  42.49400 45.44500 42.86000
H  41.67000 46.23800 41.53100
H  41.72400 47.08800 42.95400

