158

Mg 25.39400 -7.26800 47.94600
C  27.54200 -4.95300 46.51300
C  23.10700 -6.67600 45.47700
C  23.60800 -10.09300 48.83700
C  28.11000 -8.40700 49.88000
N  25.52900 -6.05100 46.10800
C  26.36800 -5.02800 45.83700
C  25.85300 -4.09000 44.77100
C  24.34100 -4.64100 44.57100
C  24.33700 -5.96700 45.35700
C  23.25400 -3.72500 45.19600
C  26.70600 -4.13700 43.49400
C  26.80900 -2.75200 42.79500
H  26.41600 -2.72700 41.31300
N  23.51800 -8.14700 47.41100
C  22.68900 -7.62700 46.42800
C  21.46100 -8.30300 46.40700
C  21.54200 -9.40000 47.28400
C  22.96300 -9.26500 47.92700
C  20.34800 -7.93000 45.44700
C  20.57700 -10.42900 47.49900
O  19.53900 -10.38700 46.89600
C  20.61600 -11.55300 48.49300
N  25.82800 -8.99400 49.20600
C  24.87200 -9.94200 49.46700
C  25.34200 -10.93100 50.50700
C  26.76700 -10.39600 50.91000
C  26.97000 -9.22000 49.91300
C  24.28300 -11.12600 51.67800
C  27.85300 -11.53300 50.72500
C  28.34500 -11.82200 49.30000
N  27.37000 -6.71100 48.33800
C  28.33300 -7.20900 49.16000
C  29.47300 -6.32700 49.16900
C  29.12000 -5.38300 48.19100
C  27.89700 -5.72000 47.65200
C  30.71000 -6.47500 50.04400
C  29.60200 -4.16400 47.48000
O  30.63300 -3.51800 47.70600
C  28.64600 -3.90700 46.32800
C  28.17800 -2.48700 46.49700
O  28.65500 -1.52800 45.86600
O  27.14100 -2.31600 47.38100
C  26.57900 -0.94700 47.52000
H  22.32400 -6.31800 44.80500
H  22.93700 -10.86800 49.21400
H  28.94900 -8.78500 50.46700
H  25.83300 -3.09200 45.20900
H  24.15900 -4.78300 43.50600
H  23.56700 -2.68100 45.17500
H  22.90800 -3.92400 46.21000
H  22.34900 -3.95500 44.63500
H  26.32900 -4.84900 42.76000
H  27.73300 -4.31600 43.81400
H  27.85000 -2.44100 42.88200
H  26.22600 -2.04800 43.38900
H  19.40400 -8.41600 45.69300
H  20.62800 -8.13800 44.41400
H  20.12000 -6.86600 45.50200
H  21.44900 -12.25000 48.40100
H  19.73000 -12.11400 48.19500
H  20.58700 -11.16400 49.51100
H  25.46300 -11.96400 50.18200
H  26.71500 -10.06500 51.94700
H  24.64700 -11.08000 52.70500
H  23.69800 -12.01300 51.43700
H  23.56800 -10.30400 51.63200
H  27.36700 -12.46200 51.02300
H  28.64800 -11.15700 51.37000
H  29.43300 -11.79700 49.23900
H  27.92400 -11.11300 48.58700
H  28.06200 -12.85800 49.11700
H  30.60600 -5.79300 50.88800
H  31.36100 -6.15700 49.23000
H  30.99400 -7.51500 50.20400
H  29.15900 -4.00000 45.37100
H  25.63100 -0.94700 46.98100
H  27.28500 -0.17200 47.22200
H  26.28700 -0.76600 48.55400
Mg 48.20700 34.70300 27.37100
C  45.99200 33.38100 29.76900
C  48.35600 37.40400 29.27200
C  49.44500 36.29900 24.78700
C  47.24900 31.89700 25.21500
N  47.46800 35.17800 29.44600
C  46.60500 34.53000 30.16100
C  46.69000 35.08800 31.59700
C  46.96300 36.55900 31.27400
C  47.57800 36.44400 29.84100
C  45.78000 37.65100 31.36100
C  47.83600 34.49700 32.40600
C  48.39500 35.10100 33.71100
H  47.38500 35.65900 34.68300
N  49.05700 36.55400 27.14200
C  49.10100 37.53400 28.07000
C  49.96400 38.63100 27.59500
C  50.09300 38.41600 26.22400
C  49.55100 37.05100 25.98700
C  50.33500 39.87700 28.43500
C  50.72700 39.29000 25.13600
O  50.84900 38.81900 23.98500
C  51.34300 40.67900 25.49400
N  48.10400 34.22800 25.26300
C  48.89200 35.08100 24.46800
C  49.27400 34.36100 23.11600
C  48.58400 32.93800 23.29300
C  47.99700 32.94300 24.67600
C  48.95000 35.11900 21.78400
C  49.44000 31.67400 23.01800
C  50.74900 31.59500 23.86600
N  46.97500 32.91800 27.45900
C  46.63500 31.91700 26.52800
C  45.84300 30.93000 27.14500
C  45.43600 31.50400 28.37100
C  46.20500 32.73500 28.51800
C  45.27600 29.71100 26.39100
C  44.72600 31.25900 29.61700
O  44.01700 30.31800 29.99000
C  44.95900 32.56100 30.53900
C  45.04600 32.06400 31.92200
O  45.80700 31.18700 32.39500
O  43.90000 32.49500 32.60000
C  43.78800 31.98300 34.03000
H  48.37100 38.32300 29.86100
H  49.90200 36.77800 23.91800
H  47.19300 31.00800 24.58400
H  45.78200 34.90900 32.17200
H  47.78800 37.04600 31.79400
H  44.86600 37.14500 31.67100
H  45.69700 38.16400 30.40300
H  46.01200 38.41000 32.10900
H  48.64400 34.18000 31.74700
H  47.44000 33.53300 32.72500
H  49.19300 35.82400 33.54600
H  48.83700 34.27400 34.26700
H  51.41100 40.04400 28.47300
H  50.03200 39.69000 29.46500
H  49.79000 40.72600 28.02300
H  51.59200 41.18100 24.55900
H  52.23200 40.49300 26.09700
H  50.54200 41.22700 25.98900
H  50.35800 34.25300 23.06900
H  47.73300 32.89600 22.61400
H  48.44500 36.02500 22.12100
H  48.31200 34.60000 21.06900
H  49.90400 35.38800 21.32900
H  49.62900 31.55500 21.95100
H  48.85600 30.81300 23.33900
H  50.56000 30.73700 24.51100
H  50.76500 32.48700 24.49200
H  51.73000 31.31800 23.48100
H  46.02400 28.94400 26.19000
H  44.95200 30.02900 25.40000
H  44.43500 29.31400 26.95900
H  44.02700 33.12000 30.62100
H  42.99700 31.31300 34.36700
H  43.73800 32.85200 34.68500
H  44.65000 31.38200 34.32100

