158

Mg 45.51700 3.68700 47.48800
C  43.21800 6.16600 46.88200
C  43.02700 1.32900 47.01900
C  47.92100 1.32400 46.98000
C  48.05200 6.04900 47.19700
N  43.43400 3.76500 46.83700
C  42.62300 4.92100 46.67300
C  41.17600 4.64000 46.53500
C  41.12400 3.04500 46.81000
C  42.60100 2.65000 46.94900
C  40.14800 2.58000 47.96700
C  40.60700 5.01300 45.15100
C  39.54900 6.10100 45.13400
H  39.67000 7.18800 44.05500
N  45.53200 1.71300 47.22900
C  44.35100 0.93100 47.06500
C  44.80800 -0.46100 47.10900
C  46.19500 -0.48300 47.00700
C  46.60200 0.89200 47.09700
C  43.85500 -1.61600 47.03700
C  46.97300 -1.80000 46.73200
O  46.38500 -2.86600 46.74100
C  48.47700 -1.86100 46.36300
N  47.74200 3.69300 47.10500
C  48.47200 2.58600 46.91100
C  49.93500 2.88300 46.58900
C  50.06400 4.39800 46.85000
C  48.54500 4.74700 47.03600
C  51.05900 1.98800 47.27900
C  50.80000 5.15500 45.74500
C  52.33400 5.22500 45.79300
N  45.67800 5.71000 47.31300
C  46.77700 6.53900 47.40800
C  46.35400 7.94600 47.36200
C  44.89500 7.81700 47.12800
C  44.60100 6.46800 47.15000
C  47.18900 9.08600 47.49000
C  43.65000 8.56500 47.01100
O  43.49400 9.77400 47.13500
C  42.54600 7.53800 46.73200
C  41.56400 7.76100 47.74400
O  41.64100 7.39800 48.94800
O  40.47900 8.36900 47.20000
C  39.34800 8.63500 48.10200
H  42.30900 0.50700 46.99500
H  48.58300 0.47100 47.14300
H  48.90100 6.73100 47.12500
H  40.68000 5.27600 47.26800
H  40.87700 2.57200 45.85900
H  39.62200 1.73000 47.53200
H  39.47400 3.43000 48.06200
H  40.65600 2.29600 48.88900
H  40.15500 4.11500 44.73100
H  41.44700 5.32300 44.53000
H  39.40100 6.50800 46.13400
H  38.64900 5.51000 44.96300
H  42.80900 -1.31200 47.07000
H  44.09900 -2.36100 47.79500
H  44.00300 -2.07200 46.05800
H  48.69700 -2.78600 45.82900
H  48.98200 -1.76600 47.32400
H  48.72800 -1.03100 45.70200
H  50.02100 2.75800 45.51000
H  50.47600 4.52800 47.85100
H  51.67700 1.40500 46.59700
H  50.67900 1.28900 48.02300
H  51.79500 2.60900 47.78800
H  50.54700 6.21500 45.76000
H  50.50700 4.78000 44.76500
H  52.80400 4.51800 45.11000
H  52.73100 4.96400 46.77400
H  52.68300 6.21000 45.48300
H  46.68900 9.90400 46.97300
H  48.14300 8.87700 47.00500
H  47.36300 9.37800 48.52500
H  42.20500 7.77300 45.72300
H  38.78000 9.43700 47.63000
H  39.59500 8.85800 49.14000
H  38.69900 7.76200 48.02800
Mg 16.50000 53.02500 26.24700
C  18.59700 51.82200 28.83200
C  14.17100 53.73400 28.57800
C  14.59200 54.49400 23.77800
C  18.77900 51.99400 23.85500
N  16.41200 52.83600 28.43700
C  17.38000 52.37200 29.30700
C  16.95400 52.50700 30.81400
C  15.43400 52.82000 30.62300
C  15.27900 53.13900 29.10700
C  14.49400 51.63300 31.13600
C  17.90100 53.52600 31.57000
C  17.33100 54.13700 32.85100
H  16.45500 53.25100 33.72000
N  14.71100 54.08200 26.24900
C  13.80000 54.22000 27.29900
C  12.61200 54.91800 26.87600
C  12.75700 55.12500 25.49500
C  14.07800 54.56800 25.09200
C  11.41300 55.06300 27.77700
C  11.82900 55.90600 24.59700
O  12.15500 56.30300 23.46200
C  10.42600 56.38500 25.13700
N  16.79500 53.44700 24.16800
C  15.76200 53.93300 23.34900
C  16.13300 53.81500 21.89700
C  17.44800 53.00100 21.77900
C  17.70000 52.74000 23.35200
C  14.99800 53.38400 20.86600
C  18.56200 53.58700 20.95400
C  19.15800 54.92600 21.41900
N  18.19800 51.94000 26.29200
C  19.07200 51.61000 25.20600
C  20.25200 50.94100 25.75500
C  20.07200 50.99400 27.12300
C  18.88500 51.66700 27.41900
C  21.35100 50.28500 24.94600
C  20.69900 50.65700 28.43800
O  21.74600 50.00800 28.64500
C  19.77800 51.16000 29.62600
C  19.39700 50.02300 30.52700
O  18.91500 48.98200 30.18100
O  19.51400 50.47500 31.83300
C  19.13900 49.55600 32.92600
H  13.44600 53.95400 29.36500
H  14.04800 55.01400 22.98600
H  19.54500 51.61000 23.17800
H  17.02300 51.58000 31.38300
H  15.22600 53.74500 31.16000
H  15.11600 50.91800 31.67300
H  14.00800 51.12700 30.30100
H  13.75200 52.12800 31.76300
H  18.05100 54.26300 30.78100
H  18.87900 53.09600 31.78300
H  16.71900 55.00800 32.61500
H  18.15700 54.41300 33.50600
H  10.99700 56.07000 27.79300
H  11.56000 54.79400 28.82400
H  10.60500 54.47400 27.34300
H  9.87500 56.83100 24.30800
H  10.42300 57.17500 25.88800
H  9.75900 55.58600 25.45800
H  16.51100 54.83400 21.81200
H  17.15600 52.05700 21.31800
H  15.47900 52.95200 19.98800
H  14.52600 54.24400 20.39000
H  14.21000 52.78800 21.32600
H  18.11200 53.78200 19.98000
H  19.37500 52.86100 20.94100
H  18.84700 55.18000 22.43300
H  18.85000 55.71300 20.73100
H  20.22700 54.97400 21.21500
H  22.28600 50.33300 25.50500
H  21.56100 50.84600 24.03600
H  21.17400 49.21900 24.80300
H  20.29300 51.92000 30.21400
H  18.09500 49.24800 32.88100
H  19.13200 50.12700 33.85400
H  19.93500 48.82400 33.06200

