158

Mg 34.25200 3.60400 30.08300
C  31.92200 4.56300 32.54900
C  36.64100 3.63400 32.46000
C  36.38700 2.69000 27.74300
C  31.52800 3.53400 27.64600
N  34.29100 4.12700 32.17300
C  33.19900 4.43700 33.02600
C  33.58300 4.39300 34.50600
C  35.11600 4.69700 34.35400
C  35.39800 4.06300 32.92400
C  35.51800 6.11300 34.28800
C  33.26500 2.99300 35.12000
C  32.94600 3.00300 36.65500
H  33.53300 4.14800 37.50100
N  36.24000 3.09700 30.15100
C  37.05200 3.20500 31.22900
C  38.34700 2.81500 30.86000
C  38.27100 2.41700 29.47600
C  36.92400 2.76900 29.01800
C  39.47300 2.62000 31.90100
C  39.39300 1.75600 28.63500
O  39.29800 1.62500 27.39900
C  40.75400 1.51300 29.23700
N  34.03300 3.31700 27.93700
C  35.09000 2.91800 27.21000
C  34.67500 2.55500 25.75400
C  33.15300 2.53000 25.83700
C  32.83500 3.17100 27.20400
C  35.17100 3.69500 24.77700
C  32.56600 1.07300 25.76600
C  31.86000 0.86700 24.41500
N  32.23100 3.95700 29.99200
C  31.23800 3.90700 28.97200
C  29.91500 4.22300 29.56700
C  30.15500 4.56600 30.84000
C  31.56000 4.30700 31.14600
C  28.57600 4.23400 28.88600
C  29.51000 4.95600 32.07000
O  28.31500 5.28100 32.18000
C  30.58900 5.06100 33.20500
C  30.64000 6.36800 33.86200
O  31.16700 7.36000 33.37000
O  30.19600 6.19700 35.13100
C  30.49400 7.22700 36.09800
H  37.35400 3.74300 33.28100
H  37.07400 2.43700 26.93300
H  30.70500 3.48500 26.92900
H  33.07500 5.10500 35.15700
H  35.63400 4.18400 35.16400
H  35.93800 6.39700 35.25400
H  34.67100 6.79800 34.26300
H  36.17000 6.38700 33.45900
H  34.06000 2.25600 35.00300
H  32.30100 2.60800 34.78600
H  33.38500 2.11100 37.10200
H  31.88900 2.93400 36.91200
H  40.51800 2.60000 31.59100
H  39.37100 1.72000 32.50700
H  39.46800 3.58700 32.40500
H  40.78600 0.80100 30.06100
H  41.31700 2.36700 29.61300
H  41.40700 1.05300 28.49500
H  35.16300 1.64400 25.40900
H  32.71200 3.19200 25.09200
H  35.47600 4.58400 25.33000
H  34.45400 3.99000 24.01100
H  36.03500 3.30200 24.24100
H  31.87600 0.80600 26.56600
H  33.45100 0.44400 25.85200
H  30.93500 0.34200 24.65200
H  32.50300 0.23400 23.80400
H  31.62500 1.74200 23.80900
H  28.59600 3.91600 27.84400
H  28.15100 5.23800 28.91100
H  27.92200 3.61800 29.50400
H  30.18600 4.40100 33.97300
H  30.81300 6.87700 37.08000
H  29.57400 7.74700 36.36500
H  31.19800 7.97200 35.72600
Mg 1.04200 43.38500 26.20200
C  2.60700 43.59400 29.38200
C  -1.84400 42.32200 27.80300
C  -0.18300 42.78900 23.21200
C  4.15600 43.85700 24.73800
N  0.45200 43.12100 28.39600
C  1.23300 43.34600 29.48600
C  0.40900 43.20400 30.72400
C  -0.93200 42.54000 30.24600
C  -0.79800 42.60300 28.68400
C  -1.23900 41.08000 30.70500
C  0.23400 44.61400 31.46300
C  0.58800 44.67100 33.00400
H  -0.26200 43.94100 34.00900
N  -0.77700 42.71700 25.61000
C  -1.81700 42.39600 26.36200
C  -2.90200 42.05700 25.49600
C  -2.47800 42.06700 24.13200
C  -1.08100 42.55000 24.27000
C  -4.27100 41.73700 26.08500
C  -3.20200 41.75800 22.87800
O  -2.71400 41.84600 21.73700
C  -4.54200 41.21300 22.84100
N  1.92400 43.14400 24.23500
C  1.18800 42.96100 23.16500
C  1.89000 43.11500 21.81200
C  3.17500 43.88300 22.36200
C  3.16300 43.59100 23.84500
C  2.13400 41.89600 21.00200
C  3.23100 45.47900 22.02500
C  4.30400 46.00000 21.04800
N  2.93600 43.80200 26.87600
C  4.10900 43.99400 26.15000
C  5.25500 44.10800 27.02000
C  4.68500 43.99300 28.33900
C  3.28400 43.73000 28.19500
C  6.62100 44.54500 26.61900
C  4.96400 43.92500 29.78000
O  5.97500 44.07800 30.46700
C  3.58800 43.76800 30.51800
C  3.64700 42.63000 31.43400
O  3.36900 41.50000 31.11700
O  3.82600 43.13200 32.68800
C  3.68800 42.11600 33.68500
H  -2.78300 42.09300 28.31100
H  -0.60500 42.71700 22.20800
H  5.09100 44.17600 24.27400
H  0.91900 42.50700 31.38900
H  -1.70000 43.25300 30.54600
H  -0.53900 40.92000 31.52500
H  -1.10800 40.29900 29.95600
H  -2.29800 40.99000 30.94800
H  -0.81600 44.87600 31.59200
H  0.75900 45.47700 31.05400
H  0.64900 45.71700 33.30700
H  1.62200 44.33000 33.05800
H  -4.39400 42.35500 26.97400
H  -4.39100 40.71200 26.43400
H  -4.96900 42.01600 25.29600
H  -5.27300 42.01400 22.73500
H  -4.74700 40.57100 23.69800
H  -4.51400 40.57500 21.95800
H  1.33400 43.86100 21.24300
H  4.13300 43.50700 22.00300
H  3.06900 41.44300 21.33200
H  2.34300 42.24300 19.99100
H  1.32500 41.16800 21.05800
H  3.27500 45.98700 22.98900
H  2.27600 45.65400 21.53000
H  4.83200 46.84300 21.49400
H  3.74200 46.32000 20.17000
H  5.00100 45.19000 20.83700
H  7.39900 44.04100 27.19200
H  6.61800 45.49600 27.15000
H  6.73400 44.60300 25.53600
H  3.49200 44.70600 31.06600
H  4.22900 42.66800 34.45300
H  4.20600 41.18300 33.46100
H  2.69700 41.86800 34.06600

