158

Mg 47.75600 25.08100 28.20300
C  48.96700 27.28600 30.74600
C  46.79800 22.96100 30.62600
C  47.27000 22.86300 25.71600
C  49.17800 27.30200 25.80300
N  47.93400 25.07800 30.45800
C  48.25600 26.19800 31.27600
C  47.97600 25.91200 32.69400
C  47.43800 24.48200 32.73600
C  47.30200 24.18000 31.23800
C  48.28200 23.36800 33.41400
C  47.00300 27.06300 33.26500
C  46.15100 26.76900 34.48400
H  45.95400 27.80800 35.59000
N  47.19800 23.22200 28.17500
C  46.85300 22.47200 29.29500
C  46.39800 21.15700 28.92200
C  46.60200 21.08300 27.49700
C  47.08000 22.44300 27.04600
C  45.73600 20.15100 29.88300
C  46.18300 19.96600 26.54100
O  46.57000 19.92900 25.40200
C  45.28400 18.87200 27.01400
N  48.16900 25.08700 26.06900
C  47.88800 24.05000 25.28900
C  48.26200 24.26600 23.80000
C  48.67900 25.79600 23.80200
C  48.72200 26.10100 25.30300
C  49.32100 23.29200 23.17000
C  47.78200 26.76600 23.04700
C  48.33200 28.00900 22.41400
N  48.81800 26.90600 28.19100
C  49.35300 27.64000 27.17900
C  49.98200 28.76200 27.73900
C  49.90800 28.70600 29.13700
C  49.18000 27.50600 29.35000
C  50.58800 29.84700 26.94400
C  50.23300 29.36100 30.38700
O  50.83300 30.44700 30.52400
C  49.60900 28.45100 31.47600
C  50.63600 28.16100 32.48300
O  51.29900 27.17300 32.39100
O  50.72000 29.11600 33.38700
C  51.84100 28.83000 34.31000
H  46.37600 22.42000 31.47500
H  47.10400 22.18300 24.87800
H  49.72100 28.05000 25.22100
H  48.94700 25.95400 33.18800
H  46.43400 24.37500 33.14800
H  47.69900 22.70100 34.04900
H  48.99000 23.84700 34.09000
H  48.68900 22.72600 32.63300
H  46.29600 27.39100 32.50300
H  47.78500 27.77800 33.52200
H  46.44900 25.86200 35.01000
H  45.17500 26.57600 34.04000
H  46.41500 19.31300 30.03800
H  44.80600 19.72800 29.50300
H  45.58100 20.60900 30.86000
H  45.73500 18.24300 27.78100
H  45.05300 18.22200 26.17000
H  44.30600 19.20900 27.35600
H  47.34500 24.31400 23.21300
H  49.68800 25.89400 23.40200
H  49.82600 22.68900 23.92400
H  50.08600 23.76800 22.55600
H  48.73500 22.63400 22.52900
H  47.04000 27.12200 23.76300
H  47.32000 26.14400 22.28000
H  47.76700 28.15900 21.49400
H  49.40100 27.95800 22.20900
H  48.19200 28.86100 23.07900
H  49.86700 30.13700 26.17900
H  51.45400 29.38800 26.46800
H  50.83900 30.64900 27.63700
H  49.00700 29.12600 32.08400
H  52.78400 28.84600 33.76300
H  51.77100 27.97900 34.98700
H  51.88800 29.74700 34.89700
Mg -13.77000 16.64400 42.14700
C  -10.72700 15.01200 41.34400
C  -12.42100 19.43900 40.59100
C  -16.79500 17.92400 41.96500
C  -15.06200 13.59000 42.90100
N  -11.66200 17.18700 41.17400
C  -10.64100 16.37700 40.97900
C  -9.48200 17.17200 40.38600
C  -9.93600 18.62400 40.51200
C  -11.46600 18.40500 40.73600
C  -9.18400 19.48600 41.60300
C  -9.07900 16.69600 38.94100
C  -7.62200 16.12000 38.76400
H  -6.82400 16.47700 37.46000
N  -14.50300 18.47500 41.50200
C  -13.80800 19.50800 40.90500
C  -14.64600 20.60300 40.64300
C  -15.88900 20.25200 41.14800
C  -15.77400 18.83400 41.59700
C  -14.31200 21.94800 40.03200
C  -17.15100 21.14300 41.24800
O  -17.23600 22.22700 40.71900
C  -18.22300 20.81600 42.29300
N  -15.67100 15.91900 42.43900
C  -16.77700 16.62500 42.40300
C  -17.99600 15.80800 42.63200
C  -17.36700 14.49700 43.17500
C  -15.93200 14.64800 42.82400
C  -19.09300 16.42100 43.54000
C  -17.97000 13.15400 42.70400
C  -18.34700 12.14000 43.75200
N  -13.02500 14.64700 42.27800
C  -13.69300 13.49500 42.54800
C  -12.79700 12.39000 42.51300
C  -11.56600 12.96600 42.00300
C  -11.81500 14.31700 41.89700
C  -12.94100 10.95500 42.88900
C  -10.17100 12.68600 41.74600
O  -9.66200 11.59600 41.85800
C  -9.57500 14.00300 41.15900
C  -8.51900 14.36300 42.13300
O  -8.69300 14.90400 43.22300
O  -7.30700 14.30600 41.57000
C  -6.16700 14.94400 42.28500
H  -12.07500 20.32600 40.05800
H  -17.75100 18.44500 41.89100
H  -15.49500 12.60100 43.06600
H  -8.60400 17.01900 41.01200
H  -9.79300 19.14800 39.56700
H  -8.40300 18.81200 41.95700
H  -9.96300 19.81000 42.29200
H  -8.71100 20.36300 41.16200
H  -9.29200 17.38400 38.12300
H  -9.71000 15.83000 38.74000
H  -7.79300 15.04300 38.77500
H  -7.07400 16.42000 39.65700
H  -14.36600 22.74700 40.77200
H  -15.00800 22.18100 39.22700
H  -13.25700 22.02100 39.76400
H  -18.96100 20.27700 41.69900
H  -18.57000 21.76400 42.70400
H  -17.90500 20.22900 43.15400
H  -18.46900 15.50900 41.69600
H  -17.46100 14.59300 44.25700
H  -19.36700 15.80700 44.39700
H  -19.92100 16.58700 42.85100
H  -18.81700 17.37100 43.99800
H  -17.42200 12.70300 41.87700
H  -18.80000 13.43600 42.05700
H  -18.56500 11.12800 43.41200
H  -19.28500 12.58100 44.09000
H  -17.73300 12.16700 44.65200
H  -11.92600 10.57200 42.98600
H  -13.32700 10.29400 42.11400
H  -13.47800 10.92600 43.83700
H  -9.25700 13.82000 40.13300
H  -5.47900 15.15000 41.46500
H  -5.83200 14.15700 42.96000
H  -6.56000 15.83800 42.76900

