158

Mg 29.42300 58.88600 40.07800
C  26.88400 56.70200 38.78600
C  31.85200 56.40300 39.00200
C  31.83000 61.25800 40.34700
C  26.89100 61.29900 40.33900
N  29.42800 56.84200 38.88200
C  28.17300 56.14200 38.58200
C  28.56800 54.77700 37.96400
C  30.08200 54.66500 38.29700
C  30.50600 56.05200 38.76600
C  30.43700 53.61900 39.40100
C  28.30200 54.88000 36.38500
C  27.04000 54.08600 36.00500
H  26.22700 54.58800 34.80400
N  31.56100 58.80000 39.82300
C  32.33500 57.71000 39.37800
C  33.65900 58.18400 39.47500
C  33.79000 59.52200 39.99900
C  32.36300 59.94400 40.06600
C  34.74100 57.20800 38.98400
C  35.07900 60.30300 40.35900
O  36.23000 59.93800 40.11400
C  35.04800 61.63900 40.99400
N  29.33500 60.92200 40.19300
C  30.47800 61.68700 40.33000
C  30.08400 63.16700 40.57100
C  28.55700 63.24500 40.59500
C  28.22200 61.69500 40.39400
C  30.79700 63.75700 41.85500
C  27.88300 64.20200 39.59800
C  27.39900 65.61600 39.98400
N  27.34100 58.95400 39.84500
C  26.49700 59.99300 40.05400
C  25.08800 59.53300 40.00600
C  25.23600 58.27300 39.48300
C  26.55900 57.97700 39.39000
C  23.84100 60.31800 40.34200
C  24.47200 57.10400 39.02300
O  23.23300 56.96800 38.86300
C  25.51200 56.05800 38.58700
C  25.28900 54.85400 39.48600
O  25.57400 54.86900 40.67800
O  24.62600 53.85300 38.80100
C  24.31200 52.57900 39.40900
H  32.53300 55.58700 38.75000
H  32.52300 62.08600 40.51100
H  26.11500 62.04800 40.51100
H  28.04900 53.98400 38.50200
H  30.66900 54.37200 37.42700
H  31.04800 52.84900 38.93000
H  29.56600 53.04500 39.71500
H  30.95700 54.01800 40.27200
H  29.08900 54.56600 35.69800
H  28.05700 55.89500 36.07400
H  26.44600 53.86500 36.89200
H  27.33100 53.05300 35.82000
H  35.09000 56.46700 39.70300
H  35.64900 57.80100 38.87100
H  34.45700 56.63400 38.10200
H  34.61800 62.43200 40.38300
H  36.09500 61.82700 41.23600
H  34.45900 61.51000 41.90200
H  30.48500 63.75500 39.74600
H  28.25100 63.65800 41.55600
H  30.52400 63.37200 42.83800
H  30.58100 64.82400 41.80500
H  31.87300 63.64500 41.72300
H  27.09800 63.68300 39.04600
H  28.52200 64.36700 38.73100
H  27.82500 66.28400 39.23500
H  27.73900 65.79600 41.00400
H  26.31200 65.64200 39.90700
H  23.14600 59.63600 40.83200
H  23.29500 60.64600 39.45800
H  24.08900 61.13800 41.01600
H  25.34700 55.60900 37.60800
H  23.42100 52.24600 38.87600
H  24.09900 52.61500 40.47700
H  25.14800 51.91000 39.20300
Mg 0.16100 43.32300 26.96900
C  2.70200 43.17900 29.07000
C  -2.08100 42.66900 29.39700
C  -2.37100 43.33100 24.54100
C  2.38600 44.05800 24.34900
N  0.28300 42.90100 29.04900
C  1.44000 42.95500 29.74700
C  1.16900 42.89800 31.25100
C  -0.24900 42.21100 31.30800
C  -0.77500 42.68800 29.86300
C  -0.23500 40.66300 31.58500
C  1.51500 44.34300 31.95400
C  1.87600 44.44800 33.43400
H  1.64500 43.25400 34.32400
N  -2.01800 43.17800 27.01100
C  -2.67700 42.91400 28.12100
C  -4.10200 42.70500 27.76400
C  -4.18200 42.70600 26.30200
C  -2.82000 43.06400 25.87500
C  -5.19100 42.43400 28.80100
C  -5.22700 42.41000 25.32900
O  -5.04400 42.39100 24.10300
C  -6.65900 42.07800 25.86200
N  -0.02000 43.74500 24.86900
C  -1.11500 43.55200 24.09600
C  -0.80900 43.64600 22.61100
C  0.62600 44.20500 22.58000
C  1.01500 44.05100 24.00000
C  -1.09900 42.32100 21.75500
C  0.77900 45.72500 22.11700
C  0.03100 46.13200 20.86100
N  2.12900 43.44200 26.68500
C  2.91200 43.76100 25.61000
C  4.33100 43.75400 25.99600
C  4.27300 43.43300 27.35800
C  2.92400 43.33400 27.72600
C  5.48300 44.07900 25.07700
C  5.13200 43.31300 28.53700
O  6.35800 43.21900 28.70600
C  4.10200 43.36400 29.66300
C  4.32700 42.20800 30.46100
O  4.51800 41.02600 30.16700
O  4.45800 42.65600 31.73600
C  5.05900 41.65000 32.67700
H  -2.71900 42.31500 30.21000
H  -2.99400 43.15500 23.66100
H  3.11700 44.32300 23.58200
H  1.93200 42.25700 31.69400
H  -0.86200 42.57300 32.13300
H  -1.17200 40.29800 31.16500
H  -0.12900 40.46200 32.65100
H  0.63700 40.20900 31.11600
H  0.75800 45.09400 31.72800
H  2.37000 44.69700 31.37900
H  1.37000 45.36200 33.74600
H  2.94400 44.66300 33.47500
H  -6.11700 43.00400 28.72300
H  -4.73800 42.54300 29.78700
H  -5.44100 41.38500 28.64500
H  -7.29300 41.79600 25.02100
H  -7.02400 42.93800 26.42400
H  -6.61600 41.18600 26.48700
H  -1.39700 44.45000 22.16900
H  1.23800 43.58900 21.92100
H  -1.44000 41.58200 22.48000
H  -0.11500 42.01000 21.40400
H  -1.79600 42.48200 20.93300
H  1.83300 45.80100 21.85000
H  0.52900 46.37000 22.95900
H  0.06600 45.16300 20.36300
H  0.45000 46.98500 20.32800
H  -0.99600 46.36100 21.14500
H  5.17200 43.96000 24.03900
H  6.31700 43.39700 25.24200
H  5.90200 45.07700 25.20200
H  4.09000 44.28200 30.25100
H  6.14000 41.70300 32.54800
H  4.81800 40.58700 32.67800
H  4.82000 41.96100 33.69300

