158

Mg 24.68100 -4.80800 45.91900
C  26.34300 -2.34300 43.80700
C  21.87500 -4.04700 44.03100
C  23.47600 -7.73300 46.87400
C  27.84500 -5.71600 47.07100
N  24.18500 -3.31100 44.14900
C  25.00000 -2.44800 43.55800
C  24.23400 -1.68600 42.44900
C  22.71200 -2.06300 42.75800
C  22.95200 -3.24300 43.69800
C  21.98900 -0.92700 43.50500
C  24.79100 -2.17600 41.06800
C  25.37100 -1.17100 40.10300
H  25.58400 -1.59100 38.60200
N  22.96100 -5.66500 45.61400
C  21.90300 -5.24500 44.83800
C  20.80400 -6.13000 44.99000
C  21.20000 -7.20300 45.87200
C  22.62000 -6.91100 46.15600
C  19.50700 -5.97500 44.17900
C  20.38800 -8.46700 46.18000
O  19.29000 -8.63300 45.75000
C  20.83000 -9.46700 47.18900
N  25.50800 -6.36600 46.96100
C  24.80800 -7.54000 47.20600
C  25.67800 -8.57000 47.84600
C  27.00200 -7.91400 48.07800
C  26.77800 -6.53000 47.43100
C  25.05500 -9.50100 48.92300
C  28.25400 -8.68800 47.72000
C  29.32000 -8.67800 48.82600
N  26.65200 -4.15600 45.71000
C  27.80300 -4.61300 46.25900
C  28.94500 -3.79600 45.77800
C  28.34800 -2.92200 44.91600
C  27.01100 -3.22400 44.80300
C  30.35200 -3.75800 46.17800
C  28.77300 -1.85700 43.98000
O  29.88500 -1.44000 43.75800
C  27.46400 -1.46900 43.22300
C  27.24100 -0.06000 43.62700
O  26.58300 0.27500 44.57700
O  27.79100 0.83400 42.73700
C  27.63200 2.28200 42.99900
H  20.91700 -3.78700 43.57400
H  23.11100 -8.74500 47.05900
H  28.86600 -6.03900 47.28300
H  24.32500 -0.60900 42.58600
H  22.07400 -2.43200 41.95500
H  22.34200 0.07900 43.27900
H  22.12000 -0.94400 44.58700
H  20.91300 -1.06500 43.40000
H  23.95800 -2.64800 40.54700
H  25.56300 -2.94300 41.13800
H  26.24200 -0.71200 40.57200
H  24.58100 -0.42800 40.20900
H  19.76400 -6.16700 43.13700
H  19.08100 -4.97300 44.22900
H  18.73100 -6.68200 44.47400
H  19.87800 -9.92800 47.45400
H  21.22900 -8.86100 48.00300
H  21.54200 -10.19500 46.80000
H  25.66200 -9.30400 47.04100
H  27.08600 -7.71700 49.14700
H  24.10600 -9.12500 49.30400
H  25.78900 -9.40300 49.72400
H  24.98700 -10.55600 48.65500
H  28.78300 -8.31700 46.84300
H  27.90900 -9.70400 47.52800
H  30.29500 -8.24700 48.59800
H  29.53200 -9.70800 49.11500
H  28.93700 -8.22800 49.74100
H  31.04800 -4.08000 45.40400
H  30.41100 -4.29100 47.12700
H  30.60800 -2.73800 46.46500
H  27.65200 -1.58600 42.15600
H  28.40100 2.62100 43.69300
H  26.69900 2.60100 43.46400
H  27.92400 2.94600 42.18600
Mg 9.61600 47.87300 26.27500
C  7.63300 47.89700 29.20800
C  12.23900 49.05600 28.09600
C  11.36100 47.44100 23.52100
C  6.63000 46.96800 24.46900
N  9.78500 48.48200 28.44000
C  8.95200 48.28300 29.49400
C  9.59900 48.58400 30.80300
C  10.80900 49.38400 30.30900
C  11.03100 48.97500 28.83800
C  10.69900 50.94100 30.42900
C  10.09500 47.33100 31.57800
C  10.82300 47.61300 32.85700
H  10.57900 46.60000 33.99600
N  11.52500 48.35200 25.89500
C  12.52500 48.81400 26.75000
C  13.78700 48.86800 26.00700
C  13.50700 48.45200 24.68500
C  12.11100 47.99400 24.68500
C  15.04200 49.40400 26.56400
C  14.45800 48.42900 23.58700
O  14.02300 47.96100 22.56800
C  15.84800 48.85400 23.67500
N  8.99600 47.32900 24.20900
C  10.01200 47.19200 23.33700
C  9.53800 46.61500 21.99700
C  7.94500 46.43800 22.22100
C  7.82900 46.89300 23.75500
C  9.94000 47.43600 20.76000
C  7.49300 44.93000 21.91100
C  7.62900 43.96900 23.01200
N  7.52700 47.57100 26.64300
C  6.44600 47.27600 25.82200
C  5.23700 47.24400 26.63000
C  5.70500 47.39800 27.96600
C  7.06300 47.66300 27.91500
C  3.79800 46.88800 26.16600
C  5.35200 47.35500 29.35800
O  4.35800 47.05500 29.90900
C  6.55300 47.73500 30.14700
C  6.76200 46.57700 31.07100
O  6.87800 45.42000 30.78600
O  6.68500 47.04600 32.32000
C  6.21900 46.11900 33.34500
H  13.06700 49.28400 28.77200
H  11.92600 47.11600 22.64600
H  5.71400 46.75700 23.91300
H  8.89200 49.13900 31.41900
H  11.76600 49.15000 30.77600
H  9.95000 51.34000 31.11400
H  10.45600 51.41700 29.47900
H  11.70300 51.23400 30.73700
H  10.74900 46.78600 30.89700
H  9.31600 46.58600 31.73900
H  10.27600 48.49400 33.19000
H  11.84300 47.99100 32.79300
H  14.99900 49.58000 27.63900
H  15.44400 50.31500 26.12000
H  15.89300 48.73100 26.45900
H  16.47100 48.35800 24.42000
H  15.99300 49.91800 23.86200
H  16.34900 48.55400 22.75500
H  10.00700 45.64700 21.82000
H  7.36700 47.11400 21.59000
H  9.08400 48.08400 20.57500
H  10.08300 46.76100 19.91500
H  10.75000 48.13300 20.97400
H  8.14300 44.59700 21.10300
H  6.47000 45.01400 21.54400
H  8.34200 44.34800 23.74400
H  8.15700 43.09300 22.63500
H  6.62700 43.76600 23.39200
H  3.74300 47.32900 25.17000
H  3.00300 47.33000 26.76700
H  3.63700 45.81000 26.17800
H  6.41700 48.63500 30.74700
H  5.48600 46.69600 33.90900
H  7.07100 45.99300 34.01300
H  5.88400 45.13600 33.01200

