158

Mg 9.15600 4.38000 28.06600
C  10.50300 2.83600 30.77800
C  7.39200 6.42900 30.05400
C  7.80800 5.84200 25.30200
C  10.76800 2.02600 26.02500
N  8.87400 4.46700 30.10600
C  9.61100 3.86500 31.05600
C  9.34000 4.34900 32.44900
C  8.29000 5.43300 32.16700
C  8.16000 5.43600 30.69100
C  6.95800 5.21200 32.95300
C  10.68700 4.80600 33.15400
C  10.47800 5.86600 34.24100
H  11.19500 5.66100 35.59300
N  7.76400 5.85600 27.73300
C  7.17400 6.59600 28.66200
C  6.21900 7.56200 28.04800
C  6.41300 7.50400 26.66900
C  7.30700 6.32400 26.46100
C  5.31400 8.42400 28.78800
C  5.90500 8.34100 25.55000
O  6.06500 7.96800 24.39900
C  5.30300 9.68400 25.87300
N  9.18000 3.96100 26.02200
C  8.61700 4.75700 25.08500
C  8.92200 4.27100 23.65500
C  9.78700 2.97500 23.88300
C  9.96200 2.98900 25.43300
C  7.69200 4.00900 22.69600
C  11.21000 2.98700 23.16900
C  11.32500 1.98400 21.97900
N  10.43600 2.74900 28.29100
C  10.92900 1.82200 27.40600
C  11.77000 0.85600 28.12800
C  11.70200 1.29100 29.47500
C  10.85200 2.38200 29.49100
C  12.37600 -0.39800 27.52600
C  12.10200 1.04400 30.83000
O  12.83200 0.15200 31.17400
C  11.36000 2.03200 31.73100
C  10.62400 1.36600 32.87000
O  9.40300 1.15700 32.85700
O  11.51300 1.33100 33.92200
C  11.13400 0.81700 35.19600
H  6.75900 7.05500 30.68700
H  7.49100 6.33800 24.38300
H  11.34400 1.34100 25.40000
H  8.83900 3.55400 33.00200
H  8.75100 6.41200 32.29800
H  6.79700 6.17000 33.44700
H  6.87300 4.37200 33.64100
H  6.10300 5.10400 32.28500
H  11.38700 5.21200 32.42400
H  11.11600 3.88800 33.55700
H  9.43900 5.87400 34.57100
H  10.76300 6.86800 33.91900
H  5.73300 9.41000 28.99000
H  5.11400 7.91700 29.73200
H  4.34000 8.51700 28.30700
H  6.10700 10.15300 26.44100
H  4.40300 9.52500 26.46700
H  5.14200 10.28000 24.97500
H  9.48200 5.09400 23.21000
H  9.22100 2.07300 23.65400
H  6.81900 3.95600 23.34700
H  7.83700 3.12200 22.07900
H  7.74800 4.85100 22.00700
H  12.09500 2.70900 23.74200
H  11.47400 3.88200 22.60500
H  10.43800 1.45700 21.62700
H  12.00400 1.20800 22.33100
H  11.77300 2.43700 21.09400
H  13.46400 -0.33200 27.49800
H  12.00700 -0.57100 26.51600
H  11.98200 -1.27500 28.04000
H  12.21800 2.61700 32.06300
H  10.77200 1.58500 35.88000
H  11.96700 0.28100 35.65000
H  10.34300 0.06900 35.13500
Mg 23.91800 -5.35300 46.34600
C  26.31700 -3.30700 44.62300
C  21.56500 -4.00400 44.10500
C  21.99000 -8.08000 46.85700
C  26.65200 -6.99900 47.90800
N  24.00000 -3.84600 44.50100
C  25.03300 -3.02800 44.14000
C  24.57100 -2.12500 42.99900
C  23.00700 -2.15300 43.08800
C  22.82700 -3.41800 43.96600
C  22.35400 -0.87500 43.65900
C  25.17000 -2.58600 41.60800
C  26.10400 -1.67100 40.89700
H  26.04000 -1.48600 39.42000
N  22.00100 -5.85700 45.75800
C  21.23400 -5.15300 44.87000
C  19.96400 -5.80800 44.85100
C  20.07500 -7.04600 45.54100
C  21.42900 -7.08100 46.04400
C  18.75200 -5.26700 44.15600
C  18.89700 -8.00300 45.64900
O  17.72900 -7.75100 45.33500
C  19.16100 -9.36200 46.13100
N  24.26700 -7.23100 47.36500
C  23.24100 -8.16600 47.45600
C  23.74900 -9.40000 48.26000
C  25.25900 -9.04100 48.68300
C  25.47000 -7.73600 47.93500
C  22.82900 -9.79600 49.47600
C  26.31400 -10.10100 48.19200
C  27.36700 -10.69200 49.12100
N  26.02700 -5.14600 46.39200
C  26.98300 -5.84400 47.11900
C  28.25300 -5.26300 46.91000
C  28.07700 -4.25500 45.93000
C  26.68800 -4.30700 45.56500
C  29.58500 -5.56800 47.59100
C  28.69700 -3.23700 45.13900
O  29.89200 -2.81400 45.09500
C  27.65800 -2.65800 44.15400
C  27.60600 -1.15200 44.39000
O  27.20600 -0.59200 45.41500
O  28.15900 -0.50300 43.33800
C  28.01200 0.92200 43.25000
H  20.78500 -3.40000 43.63600
H  21.44900 -9.00900 47.05000
H  27.51500 -7.48600 48.36800
H  25.01500 -1.16800 43.27500
H  22.52300 -2.35000 42.13100
H  22.00200 -0.87400 44.69100
H  21.52200 -0.58600 43.01600
H  23.02400 -0.04200 43.44900
H  24.33200 -2.80000 40.94600
H  25.67300 -3.54300 41.75100
H  27.11500 -1.92900 41.21200
H  26.03800 -0.64900 41.27100
H  18.00800 -5.47300 44.92600
H  18.55300 -5.62900 43.14800
H  18.77400 -4.18000 44.08000
H  19.26300 -9.23800 47.20900
H  20.07100 -9.66700 45.61500
H  18.37500 -10.06900 45.86500
H  23.78400 -10.28500 47.62500
H  25.38900 -8.79800 49.73700
H  21.96200 -9.13700 49.51900
H  23.45800 -9.65600 50.35500
H  22.54900 -10.84700 49.41300
H  26.75400 -9.82900 47.23200
H  25.61800 -10.92800 48.05500
H  27.28500 -11.74000 49.41100
H  27.68000 -10.06000 49.95300
H  28.27800 -10.76000 48.52700
H  30.23900 -4.73700 47.32500
H  29.94600 -6.51500 47.19100
H  29.47700 -5.71800 48.66500
H  27.83100 -2.92900 43.11200
H  29.03200 1.28700 43.12700
H  27.34900 1.37300 43.98900
H  27.58900 1.17300 42.27700

