158

Mg 1.90400 7.71800 26.55100
C  2.49100 9.51000 29.45900
C  2.01200 4.85100 28.37700
C  2.07100 6.20800 23.67400
C  2.39400 10.83100 24.71600
N  2.03000 7.25900 28.82000
C  2.35200 8.13700 29.81100
C  2.35200 7.39700 31.18900
C  2.27600 5.91100 30.68500
C  2.08900 5.99700 29.18600
C  3.49800 5.00900 31.02900
C  1.09900 7.88600 32.05900
C  1.39800 7.97900 33.57600
H  2.36000 7.06100 34.09700
N  1.94400 5.77600 26.09200
C  1.89300 4.72200 26.96000
C  1.98800 3.54600 26.15100
C  1.86200 3.90500 24.81600
C  1.98900 5.38400 24.79500
C  2.06400 2.17700 26.77300
C  1.77100 2.99900 23.64400
O  1.71200 3.46600 22.53500
C  1.91800 1.45500 23.78800
N  1.89900 8.42100 24.40400
C  2.00900 7.53100 23.45200
C  2.34700 8.21500 22.08100
C  2.08800 9.69700 22.39900
C  2.10600 9.69500 23.93400
C  3.76300 7.86600 21.60900
C  0.71900 10.36000 21.95300
C  0.93800 11.76200 21.33600
N  2.38200 9.68500 26.89200
C  2.50200 10.86900 26.11000
C  2.80800 11.99800 26.94600
C  2.88500 11.53700 28.22700
C  2.54400 10.14700 28.20000
C  2.83000 13.54400 26.57500
C  3.10000 11.92800 29.59700
O  3.56600 12.98400 30.04800
C  2.68800 10.66100 30.47800
C  3.81100 10.40300 31.37600
O  4.63800 9.55500 31.17700
O  3.79500 11.36800 32.40400
C  4.94500 11.40500 33.36300
H  2.07400 3.88600 28.88400
H  2.27600 5.62000 22.77700
H  2.54200 11.74400 24.13400
H  3.29300 7.61400 31.69400
H  1.47400 5.39000 31.20900
H  4.30500 5.58900 31.47600
H  3.92200 4.37400 30.25100
H  3.18500 4.37100 31.85600
H  0.22400 7.28800 31.80700
H  0.82100 8.89200 31.74500
H  0.48600 7.88400 34.16500
H  1.77500 8.96400 33.85000
H  2.23400 2.23400 27.84800
H  2.80300 1.47300 26.38900
H  1.04700 1.78900 26.71900
H  2.89400 1.12700 24.14500
H  1.71200 1.09200 22.78100
H  1.02500 1.14400 24.33000
H  1.66600 7.96300 21.26800
H  2.87400 10.24100 21.87500
H  3.97600 6.79800 21.57200
H  4.47300 8.32400 22.29800
H  3.84900 8.30900 20.61700
H  0.00800 10.55500 22.75600
H  0.22400 9.79500 21.16300
H  1.12500 11.60500 20.27400
H  1.83700 12.26800 21.68700
H  0.10600 12.45100 21.48000
H  3.01300 13.57600 25.50100
H  3.72700 13.95300 27.04100
H  1.94600 14.13600 26.81100
H  1.73300 10.82200 30.97900
H  4.79900 10.85400 34.29300
H  5.03900 12.45700 33.63400
H  5.83800 11.08000 32.83000
Mg -2.01900 34.13800 26.35800
C  -3.31100 32.49300 29.21100
C  -0.78100 36.55200 28.42600
C  -1.43400 36.10700 23.55700
C  -4.02900 32.01700 24.36700
N  -1.94200 34.43700 28.67100
C  -2.50200 33.60200 29.59700
C  -2.14900 34.11300 31.01400
C  -1.46900 35.47400 30.66700
C  -1.34200 35.42300 29.15200
C  -1.99500 36.75700 31.29900
C  -1.26700 32.98100 31.66800
C  -1.89500 32.38100 32.89600
H  -1.17700 32.54300 34.18700
N  -1.11600 36.00200 26.06800
C  -0.65700 36.83300 27.03700
C  -0.08100 38.00200 26.46200
C  -0.14800 37.89800 25.05400
C  -0.89700 36.59800 24.81800
C  0.62500 39.08600 27.30300
C  0.35700 38.83100 23.94500
O  0.14800 38.60400 22.75500
C  1.10300 40.06100 24.24600
N  -2.65800 34.04900 24.27700
C  -2.25300 34.96100 23.34500
C  -2.85200 34.58900 21.94800
C  -3.65300 33.29000 22.22600
C  -3.41800 33.07900 23.72000
C  -3.75200 35.67000 21.31400
C  -3.13900 32.15200 21.30500
C  -2.17400 31.13500 21.84000
N  -3.27000 32.50000 26.64600
C  -3.98300 31.68800 25.78500
C  -4.55100 30.61900 26.50600
C  -4.37300 30.92500 27.84600
C  -3.62100 32.10300 27.87300
C  -5.29100 29.45300 25.99500
C  -4.83100 30.58600 29.19900
O  -5.55700 29.73300 29.65900
C  -4.03500 31.53600 30.13500
C  -5.07000 32.29700 30.97600
O  -5.72500 33.25700 30.66900
O  -5.19000 31.51600 32.10100
C  -5.87500 32.21000 33.17700
H  -0.33700 37.36100 29.00800
H  -1.30700 36.60200 22.59300
H  -4.58900 31.31700 23.74300
H  -3.08500 34.25300 31.55600
H  -0.44800 35.40100 31.04200
H  -2.90900 36.51000 31.84000
H  -2.34200 37.43900 30.52200
H  -1.27100 37.25200 31.94500
H  -0.25300 33.33500 31.85600
H  -1.25000 32.10600 31.01900
H  -1.94100 31.29500 32.81500
H  -2.92300 32.70000 33.06900
H  1.69400 38.92300 27.16200
H  0.29000 39.16400 28.33800
H  0.41400 39.98100 26.71800
H  1.55700 40.43000 23.32600
H  1.95300 39.88300 24.90400
H  0.45600 40.84600 24.63600
H  -1.94600 34.38700 21.37700
H  -4.73500 33.40200 22.17100
H  -3.09200 36.12500 20.57400
H  -3.96400 36.44900 22.04600
H  -4.62900 35.20500 20.86500
H  -2.66600 32.72900 20.51000
H  -4.00100 31.65600 20.85800
H  -2.58300 30.12900 21.94000
H  -1.85700 31.36600 22.85700
H  -1.19900 31.05700 21.36000
H  -4.79000 28.52200 25.73100
H  -5.85300 29.87300 25.16000
H  -6.06800 29.12900 26.68800
H  -3.44300 30.94200 30.83100
H  -6.74400 32.74500 32.79300
H  -5.23700 32.81400 33.82100
H  -6.29300 31.42200 33.80500

