158

Mg 17.09100 -2.32600 27.17900
C  16.17700 -0.36700 29.85900
C  18.94200 -4.26200 29.31600
C  18.36000 -3.90400 24.48500
C  15.73100 0.02300 25.00100
N  17.43800 -2.34200 29.44600
C  16.97100 -1.45100 30.31400
C  17.35000 -1.84700 31.69100
C  18.51000 -2.97400 31.49900
C  18.28900 -3.22200 30.02700
C  19.96600 -2.58000 31.98200
C  16.20600 -2.30700 32.59500
C  16.19800 -1.66000 33.99400
H  17.40300 -1.05600 34.63900
N  18.29800 -3.93400 26.92500
C  18.99400 -4.61300 27.93100
C  19.83100 -5.70200 27.31000
C  19.56700 -5.62700 25.89400
C  18.69300 -4.47000 25.71100
C  20.62900 -6.66100 28.09900
C  20.17600 -6.54200 24.76100
O  19.99300 -6.29300 23.54600
C  21.08700 -7.73700 25.15200
N  16.85500 -2.11200 25.03400
C  17.59100 -2.82000 24.14300
C  17.74300 -2.14100 22.79000
C  16.55900 -1.09600 22.87700
C  16.31800 -1.04300 24.37800
C  19.13800 -1.50100 22.44800
C  15.24700 -1.46600 22.14600
C  14.93100 -0.49200 21.02100
N  15.93600 -0.59400 27.27800
C  15.52600 0.31900 26.36100
C  14.86000 1.41800 27.00900
C  15.10100 1.23900 28.35600
C  15.74100 -0.04400 28.47600
C  14.23900 2.64700 26.30400
C  14.89400 1.83200 29.68300
O  14.25200 2.82000 29.99000
C  15.52600 0.81700 30.64100
C  16.41800 1.52900 31.56500
O  17.62200 1.64000 31.32500
O  15.81000 2.06000 32.65000
C  16.72300 2.96800 33.44300
H  19.56800 -4.84600 29.99400
H  18.78300 -4.36100 23.58800
H  15.37700 0.76700 24.28400
H  17.80000 -0.91600 32.03700
H  18.23800 -3.86800 32.06000
H  19.97400 -1.56900 32.38900
H  20.73600 -2.83200 31.25400
H  20.07000 -3.16600 32.89600
H  16.22900 -3.38100 32.78300
H  15.30400 -1.98900 32.07300
H  15.94100 -2.43600 34.71500
H  15.36600 -0.96000 34.06000
H  20.82200 -6.25800 29.09300
H  21.56200 -6.92600 27.60200
H  20.00900 -7.55100 28.20700
H  20.37500 -8.33200 25.72400
H  22.00300 -7.51600 25.70000
H  21.43800 -8.30200 24.28800
H  17.44400 -2.98000 22.16200
H  16.92400 -0.12800 22.53400
H  20.03500 -2.05100 22.73100
H  19.30800 -0.55000 22.95300
H  19.07200 -1.58700 21.36300
H  14.37800 -1.57000 22.79600
H  15.37700 -2.45800 21.71300
H  13.98000 -0.01800 21.26300
H  14.70700 -1.13400 20.16900
H  15.69200 0.26200 20.82000
H  13.23500 2.35100 25.99900
H  14.85100 2.91600 25.44300
H  14.07300 3.43700 27.03600
H  14.84600 0.37400 31.36700
H  16.22600 3.14600 34.39700
H  16.71800 3.88800 32.85900
H  17.74800 2.61400 33.55600
Mg 40.79500 40.98900 26.69900
C  40.38500 43.38000 29.18100
C  41.58000 38.71900 29.09400
C  41.58000 38.78200 24.32800
C  40.28600 43.43100 24.32900
N  41.09700 41.13400 28.90200
C  40.58300 42.09100 29.74800
C  40.57400 41.70000 31.27600
C  41.06800 40.23700 31.10300
C  41.25100 40.01300 29.56500
C  42.34500 39.96200 31.94100
C  39.11500 41.89600 31.93300
C  39.00000 41.26200 33.31300
H  39.19100 42.22600 34.48900
N  41.59700 39.02000 26.73200
C  41.83100 38.24700 27.80100
C  42.26700 36.95800 27.40200
C  42.35900 36.90700 26.01100
C  41.87100 38.30400 25.62700
C  42.58900 35.89900 28.48500
C  42.86200 35.87400 25.05500
O  42.75900 35.92600 23.77200
C  43.46500 34.66700 25.71200
N  40.85200 41.08500 24.64100
C  41.23200 40.00500 23.82600
C  41.07400 40.34700 22.30100
C  40.47100 41.85100 22.36000
C  40.49500 42.14700 23.83800
C  42.29500 40.17400 21.37400
C  39.12300 42.06100 21.58000
C  39.26400 42.15400 20.04700
N  40.37600 42.98900 26.67600
C  40.19600 43.86700 25.64000
C  40.00400 45.17800 26.12500
C  40.08000 45.03500 27.46400
C  40.28500 43.67800 27.79600
C  40.04300 46.38000 25.29700
C  39.92300 45.76100 28.70900
O  39.65900 46.91200 29.01400
C  40.06100 44.68100 29.87700
C  41.15900 45.19400 30.80800
O  42.32200 45.34400 30.47400
O  40.76600 45.45400 32.10400
C  41.76200 45.98300 33.06400
H  41.55200 38.00900 29.92400
H  41.63300 37.98600 23.58300
H  40.06000 44.15800 23.54600
H  41.26300 42.35900 31.80400
H  40.33100 39.51800 31.46100
H  42.45900 40.64300 32.78400
H  43.24300 40.11800 31.34300
H  42.24700 38.96700 32.37500
H  38.29500 41.54000 31.30900
H  38.99300 42.97200 32.06100
H  39.65100 40.41100 33.51500
H  38.02000 40.80600 33.17700
H  42.05000 35.05700 28.05200
H  42.10900 36.01700 29.45600
H  43.65700 35.68100 28.48600
H  42.69900 34.04400 26.17300
H  44.29900 35.02400 26.31700
H  43.92000 34.03400 24.95100
H  40.25900 39.74700 21.89800
H  41.16700 42.57500 21.93600
H  41.99600 39.48100 20.58800
H  43.02900 39.53800 21.86900
H  42.74400 40.99200 20.81100
H  38.58200 42.95100 21.90400
H  38.57400 41.14200 21.78700
H  38.63000 42.97300 19.70800
H  38.93300 41.23200 19.56900
H  40.25800 42.24900 19.60900
H  40.58000 47.08500 25.93300
H  39.10200 46.84100 24.99800
H  40.68400 46.28900 24.42000
H  39.15600 44.40900 30.42000
H  41.46100 45.44900 33.96500
H  41.71000 47.03800 33.33500
H  42.79600 45.75900 32.80500

