158

Mg 48.87100 34.82400 26.52500
C  46.79700 33.23000 28.89200
C  48.97800 37.56100 28.52800
C  50.58000 36.42300 24.08700
C  48.16100 32.18000 24.23900
N  48.00600 35.21900 28.64100
C  47.24600 34.44100 29.39800
C  47.05700 35.11900 30.77600
C  47.41000 36.65300 30.39900
C  48.23100 36.47400 29.13600
C  46.24000 37.69500 30.35600
C  47.90100 34.41300 31.95800
C  48.58400 35.30000 33.04300
H  47.62900 36.09100 34.03300
N  49.65900 36.67900 26.35600
C  49.66100 37.68400 27.30400
C  50.44200 38.85100 26.78600
C  51.03700 38.44200 25.55900
C  50.47500 37.09700 25.31000
C  50.47700 40.25200 27.39500
C  52.06800 39.12800 24.61800
O  52.44400 38.70000 23.51400
C  52.63700 40.42500 25.10800
N  49.02100 34.52900 24.39300
C  49.92400 35.27200 23.63700
C  50.14100 34.78100 22.18000
C  49.55900 33.30400 22.37900
C  48.91600 33.27900 23.76000
C  49.46800 35.63700 21.00300
C  50.50200 32.14600 22.06400
C  50.46100 31.67200 20.61600
N  47.71700 33.02600 26.61400
C  47.53400 32.11800 25.55000
C  46.56500 31.14300 26.05200
C  46.21700 31.55400 27.36400
C  46.99500 32.66200 27.64200
C  46.12100 29.96100 25.32500
C  45.38700 31.20400 28.53200
O  44.53600 30.32700 28.72200
C  45.69900 32.31900 29.54700
C  46.15200 31.63000 30.82300
O  47.28200 31.19500 31.04200
O  45.14200 31.72100 31.72600
C  45.41400 31.58200 33.19200
H  48.94100 38.44100 29.17300
H  51.03900 36.92300 23.23100
H  48.05200 31.23900 23.69500
H  46.00100 35.00800 31.02100
H  48.06700 37.03300 31.18100
H  46.60200 38.66200 30.70500
H  45.30000 37.50500 30.87500
H  46.06100 37.96200 29.31400
H  48.77900 33.95700 31.49900
H  47.31100 33.65400 32.47200
H  49.28200 35.94000 32.50300
H  49.28500 34.75100 33.67100
H  49.70700 40.32300 28.16400
H  50.25500 41.03100 26.66600
H  51.50100 40.48000 27.68900
H  53.30100 40.68200 24.28300
H  53.22800 40.18600 25.99200
H  51.86100 41.18900 25.15900
H  51.21100 34.74400 21.97200
H  48.77700 33.34600 21.62100
H  49.97800 36.59700 21.08500
H  48.40900 35.84600 21.15500
H  49.65700 35.05200 20.10200
H  50.23800 31.37300 22.78600
H  51.50600 32.53100 22.24200
H  50.08900 30.64800 20.62500
H  51.43000 31.67300 20.11700
H  49.74300 32.20100 19.98900
H  46.05600 30.20100 24.26400
H  45.10400 29.71200 25.62800
H  46.82000 29.15500 25.55200
H  44.77900 32.90200 29.59600
H  46.38900 31.14200 33.39900
H  44.69600 30.91000 33.66300
H  45.42300 32.48400 33.80400
Mg 35.92300 48.46100 24.97200
C  35.46700 46.53100 27.83300
C  34.63900 51.23600 26.81900
C  35.68000 50.23000 22.21600
C  36.78300 45.70200 23.20800
N  35.07700 48.70200 27.05000
C  35.23100 47.87100 28.13200
C  35.04600 48.56100 29.51000
C  34.67800 50.03800 29.06000
C  34.82300 50.02100 27.52900
C  33.27000 50.54500 29.57000
C  36.34400 48.56200 30.39600
C  36.16800 48.42900 31.98400
H  34.77000 48.66300 32.59600
N  35.17500 50.43400 24.59100
C  34.71200 51.38800 25.43300
C  34.38800 52.60200 24.69500
C  34.46400 52.28900 23.29200
C  35.10800 50.90100 23.31500
C  33.75600 53.83700 25.31800
C  34.04900 52.99900 22.04600
O  34.28500 52.54300 20.90600
C  33.46400 54.37300 22.05900
N  36.02900 48.04100 22.93300
C  36.12700 49.00400 22.03500
C  36.45300 48.44400 20.70000
C  37.16200 47.03700 21.06200
C  36.63200 46.87500 22.51800
C  35.25000 48.35400 19.73200
C  38.73900 47.00200 21.08600
C  39.49100 46.98100 19.76500
N  36.05100 46.51200 25.37200
C  36.49100 45.48700 24.57600
C  36.64900 44.23700 25.28600
C  36.22000 44.61200 26.58300
C  35.78500 45.95800 26.55500
C  37.11900 42.91300 24.80200
C  36.07600 44.11200 27.97900
O  36.16600 42.96300 28.43200
C  35.69600 45.42800 28.82900
C  34.60000 45.04100 29.78600
O  33.38700 44.97000 29.56500
O  35.18000 44.87300 31.04800
C  34.23000 44.44000 32.10100
H  34.45500 52.14000 27.40400
H  35.74100 50.88100 21.34200
H  37.28900 44.91400 22.64600
H  34.19800 48.11300 30.02800
H  35.39900 50.75100 29.45900
H  32.65000 51.04700 28.82700
H  33.54500 51.19600 30.40000
H  32.66700 49.73700 29.98500
H  36.86000 49.51300 30.27300
H  37.10500 47.82300 30.14500
H  36.80800 49.11000 32.54600
H  36.46400 47.38700 32.10400
H  32.67200 53.72400 25.27400
H  34.07900 54.77400 24.86500
H  33.94100 53.88400 26.39200
H  32.62000 54.30600 22.74600
H  33.22300 54.79300 21.08300
H  34.21700 55.02200 22.50700
H  37.09600 49.22500 20.29300
H  36.80400 46.28800 20.35700
H  35.35500 47.44300 19.14300
H  35.16600 49.17100 19.01600
H  34.31400 48.26300 20.28300
H  39.03200 46.08100 21.59000
H  39.17800 47.82600 21.64900
H  40.22700 47.78000 19.85400
H  38.79400 47.07400 18.93200
H  39.89200 45.97900 19.61200
H  37.09000 42.79000 23.71900
H  36.43800 42.19200 25.25400
H  38.17800 42.77700 25.02300
H  36.55300 45.76800 29.40900
H  34.40300 43.49700 32.61900
H  33.16700 44.43500 31.85900
H  34.21500 45.15900 32.92100

