158

Mg 48.16100 34.54200 26.50300
C  45.94200 33.67900 29.22000
C  48.61400 37.63500 27.97500
C  49.62300 35.46900 23.71400
C  47.02000 31.60700 24.80700
N  47.29900 35.57400 28.42600
C  46.57100 34.94700 29.42000
C  46.36700 35.95500 30.58200
C  46.80100 37.33700 29.97300
C  47.61800 36.86900 28.70100
C  45.55700 38.20200 29.62900
C  47.35000 35.49400 31.81000
C  46.67500 35.61100 33.19400
H  46.09500 36.94300 33.68500
N  49.10700 36.26600 25.98800
C  49.34300 37.36000 26.79300
C  50.23700 38.23400 26.09500
C  50.56200 37.66300 24.81800
C  49.74500 36.36700 24.75600
C  50.66600 39.55800 26.72500
C  51.55400 38.15900 23.71800
O  51.72400 37.54000 22.65400
C  52.37200 39.46200 23.96100
N  48.03500 33.72400 24.47900
C  48.84200 34.31500 23.57300
C  49.10600 33.40300 22.28400
C  48.36900 32.12200 22.68700
C  47.76400 32.46100 24.03700
C  48.66100 34.05000 20.90700
C  49.35900 30.88700 22.93200
C  48.62400 29.49600 22.75100
N  46.78400 33.02700 26.86800
C  46.49200 31.92400 26.10900
C  45.51600 31.14400 26.77600
C  45.37800 31.69700 28.02100
C  46.11700 32.89900 28.04400
C  44.81500 29.89900 26.28500
C  44.67900 31.55200 29.34200
O  43.85400 30.70200 29.70500
C  44.99500 32.89900 30.18500
C  45.62000 32.49600 31.45500
O  46.76000 32.03800 31.51300
O  44.67100 32.60700 32.50000
C  45.07800 31.92400 33.70300
H  48.69500 38.64200 28.38900
H  50.17800 35.72200 22.80800
H  46.92700 30.57700 24.45800
H  45.34300 35.97600 30.95600
H  47.46100 37.89100 30.64100
H  45.38300 38.35200 28.56300
H  45.73400 39.20900 30.00600
H  44.67200 37.77700 30.10400
H  48.27100 36.07100 31.73200
H  47.66900 34.45500 31.72600
H  47.39800 35.21800 33.90800
H  45.86900 34.87700 33.20100
H  50.43500 40.37800 26.04500
H  51.72100 39.53200 26.99700
H  50.32800 39.68300 27.75300
H  51.60800 40.20900 24.17800
H  52.93200 39.65400 23.04600
H  53.09800 39.27600 24.75200
H  50.18000 33.25700 22.16800
H  47.62700 31.87300 21.92900
H  47.78200 33.69000 20.37100
H  49.56700 33.94700 20.30900
H  48.51000 35.12600 20.99800
H  49.73900 30.89400 23.95400
H  50.24300 30.99200 22.30400
H  47.62700 29.45600 22.31300
H  48.68800 28.88100 23.64800
H  49.15200 28.94600 21.97200
H  45.07900 29.66000 25.25500
H  43.76600 30.19500 26.30100
H  45.08700 29.09800 26.97300
H  44.03200 33.36700 30.38500
H  44.85100 32.45400 34.62800
H  46.12000 31.60700 33.65900
H  44.50500 31.01300 33.87500
Mg -4.60900 25.51400 26.57100
C  -3.16900 26.63700 29.64000
C  -6.64200 23.50100 28.33000
C  -5.38100 24.02200 23.63400
C  -2.27500 27.60200 24.90100
N  -4.64900 24.98000 28.74000
C  -4.15800 25.62200 29.82700
C  -4.91700 25.20600 31.08900
C  -5.79100 24.03300 30.65000
C  -5.73500 24.14100 29.12400
C  -5.23500 22.63700 31.06100
C  -5.59300 26.41700 31.80200
C  -5.32800 26.50700 33.32000
H  -4.64600 25.34200 34.07400
N  -5.94700 24.03800 26.02200
C  -6.71800 23.30600 26.92600
C  -7.64600 22.37800 26.19300
C  -7.27900 22.56700 24.81300
C  -6.15600 23.52600 24.76800
C  -8.69200 21.60500 26.75700
C  -7.93800 21.88200 23.58400
O  -7.47600 22.05100 22.46900
C  -9.25700 21.19900 23.74400
N  -3.88400 25.71700 24.50300
C  -4.34700 25.00000 23.50800
C  -3.64600 25.37400 22.16000
C  -2.88400 26.66000 22.57300
C  -3.04700 26.72300 24.08500
C  -2.84600 24.25500 21.49700
C  -3.44300 27.92400 21.89100
C  -2.73400 28.35500 20.56800
N  -3.14800 26.89800 27.09100
C  -2.28700 27.68800 26.30200
C  -1.50900 28.52000 27.14000
C  -1.83900 28.14600 28.45000
C  -2.80200 27.13300 28.39200
C  -0.52800 29.41700 26.78900
C  -1.55500 28.37200 29.81600
O  -0.69800 29.09900 30.36800
C  -2.44400 27.43800 30.65700
C  -1.54800 26.60400 31.51100
O  -0.69700 25.80700 31.15700
O  -1.56300 27.20000 32.78400
C  -0.49400 26.90100 33.71800
H  -7.28100 22.77300 28.83400
H  -5.44900 23.43700 22.71500
H  -1.64700 28.24800 24.28400
H  -4.21000 24.75700 31.78600
H  -6.80200 24.20500 31.02000
H  -4.89000 22.55300 32.09100
H  -4.31500 22.49000 30.49500
H  -6.02400 21.93100 30.80200
H  -6.66900 26.37900 31.63100
H  -5.26500 27.28900 31.23600
H  -6.26100 26.60100 33.87600
H  -4.71300 27.36200 33.60100
H  -8.55900 21.46900 27.83100
H  -8.71100 20.55600 26.46300
H  -9.63900 22.12800 26.62500
H  -9.83800 21.08100 22.83000
H  -9.92200 21.82900 24.33600
H  -9.02200 20.23500 24.19400
H  -4.41400 25.68200 21.45100
H  -1.81400 26.58300 22.37800
H  -1.79000 24.52500 21.49400
H  -3.19800 24.14700 20.47100
H  -3.00300 23.28400 21.96600
H  -3.50000 28.73000 22.62300
H  -4.46900 27.72500 21.58100
H  -1.89100 27.66600 20.49800
H  -2.42600 29.39800 20.63500
H  -3.46200 28.26600 19.76200
H  -0.37000 29.64900 25.73600
H  0.41500 29.00400 27.14800
H  -0.74400 30.35800 27.29400
H  -3.10900 28.05100 31.26600
H  -0.65800 25.83200 33.85500
H  -0.72700 27.43600 34.63800
H  0.43700 27.06500 33.17500

