158

Mg 1.70900 -1.40900 44.45400
C  5.07200 -0.53300 43.83500
C  0.89700 1.76000 42.95500
C  -1.51400 -2.36200 43.96400
C  2.74300 -4.47000 45.38700
N  2.87100 0.42200 43.41900
C  4.25000 0.46400 43.36900
C  4.75300 1.82400 42.79200
C  3.39400 2.65800 42.73900
C  2.31300 1.59000 42.98600
C  3.16900 3.72800 43.76600
C  5.47100 1.63600 41.45900
C  6.67700 2.58800 41.09900
H  6.92900 2.86000 39.63800
N  -0.10400 -0.40500 43.62800
C  -0.17200 0.83300 43.11200
C  -1.57200 1.14900 42.80500
C  -2.36900 -0.00000 43.12600
C  -1.35200 -1.01800 43.59900
C  -2.10500 2.47200 42.27800
C  -3.90300 -0.15700 43.04100
O  -4.59800 0.73200 42.59400
C  -4.57700 -1.40200 43.43200
N  0.77500 -3.11600 44.56500
C  -0.57000 -3.31400 44.46200
C  -0.94700 -4.81500 44.79300
C  0.43200 -5.42400 45.22000
C  1.41600 -4.29700 45.02300
C  -2.17500 -5.09000 45.65700
C  0.81300 -6.85500 44.54400
C  1.61900 -7.87600 45.46200
N  3.55200 -2.36800 44.56700
C  3.80000 -3.61600 45.05200
C  5.25400 -3.78300 45.12800
C  5.83800 -2.59200 44.69700
C  4.72800 -1.78500 44.30300
C  5.94600 -4.95600 45.58300
C  7.06700 -1.87000 44.50200
O  8.24100 -2.17700 44.72200
C  6.60300 -0.52900 43.90800
C  7.09600 0.63200 44.71300
O  6.55500 0.96900 45.74900
O  8.22500 1.23100 44.16900
C  8.48400 2.52100 44.70100
H  0.53700 2.72400 42.59100
H  -2.44100 -2.91800 43.81200
H  3.07600 -5.39700 45.85700
H  5.53300 2.32600 43.36300
H  3.15100 3.13900 41.79200
H  2.33400 3.49300 44.42700
H  2.91500 4.64400 43.23200
H  4.09900 3.99900 44.26500
H  4.81900 1.84500 40.61100
H  5.76900 0.59300 41.35900
H  7.59500 2.17300 41.51600
H  6.52100 3.53800 41.61000
H  -3.11500 2.53700 41.87500
H  -1.47100 2.66700 41.41200
H  -1.76000 3.32000 42.87000
H  -5.64700 -1.33400 43.23100
H  -4.45200 -1.52500 44.50800
H  -4.11500 -2.28700 42.99500
H  -1.24800 -5.18600 43.81300
H  0.44800 -5.54000 46.30400
H  -2.62100 -4.12700 45.90600
H  -2.00400 -5.48200 46.66000
H  -2.86000 -5.78500 45.17100
H  1.52600 -6.53500 43.78400
H  0.00400 -7.34900 44.00600
H  0.77300 -8.26100 46.03200
H  2.48800 -7.39600 45.91100
H  2.02800 -8.70900 44.89100
H  7.00500 -4.71200 45.49600
H  5.74400 -5.85300 44.99700
H  5.51200 -5.14600 46.56400
H  7.05700 -0.51300 42.91700
H  7.66400 3.09500 45.13300
H  8.82500 3.27900 43.99600
H  9.35600 2.43500 45.35000
Mg -5.93900 25.49300 26.23300
C  -4.04100 26.95500 28.82000
C  -7.23200 23.33300 28.51000
C  -7.15700 23.80500 23.59900
C  -4.21000 27.71500 24.06700
N  -5.58700 25.18100 28.41000
C  -5.06000 26.10500 29.27800
C  -5.52600 25.87500 30.72100
C  -6.29900 24.54700 30.55500
C  -6.42300 24.29600 29.07600
C  -5.89800 23.27900 31.31900
C  -6.26800 27.08200 31.35600
C  -6.82300 26.83800 32.72300
H  -6.14800 25.82200 33.62700
N  -7.13500 23.84900 26.05100
C  -7.56900 23.09600 27.12100
C  -8.36900 22.00800 26.60200
C  -8.40900 22.17300 25.18700
C  -7.53700 23.27600 24.84200
C  -9.06500 21.11500 27.53700
C  -9.25500 21.44600 24.15400
O  -9.36900 21.82700 22.97900
C  -10.18500 20.36600 24.61500
N  -5.67500 25.62300 24.13500
C  -6.22900 24.79900 23.23800
C  -5.98800 25.25300 21.77600
C  -5.21700 26.56600 21.91700
C  -5.00800 26.70900 23.50100
C  -5.39100 24.14800 20.86300
C  -5.77300 27.84400 21.24200
C  -5.05600 28.47800 20.06200
N  -4.42100 27.00600 26.36800
C  -3.80100 27.79100 25.38600
C  -2.81700 28.66500 25.94700
C  -2.84000 28.28400 27.32800
C  -3.79600 27.28500 27.49000
C  -1.98200 29.70300 25.23700
C  -2.30900 28.56100 28.63500
O  -1.45300 29.42200 28.92400
C  -3.06900 27.69700 29.65600
C  -2.15000 27.09800 30.72100
O  -1.47100 26.10800 30.55500
O  -2.27400 27.82800 31.88900
C  -1.87600 27.21600 33.11500
H  -7.68000 22.67200 29.25600
H  -7.31700 23.21100 22.69600
H  -3.75000 28.43500 23.38700
H  -4.68700 25.69400 31.39400
H  -7.31200 24.79800 30.87000
H  -5.04300 23.38700 31.98600
H  -5.57200 22.44600 30.69600
H  -6.73900 23.02600 31.96500
H  -7.10700 27.19200 30.67000
H  -5.60500 27.94800 31.37900
H  -7.86900 26.57700 32.56400
H  -6.76500 27.74400 33.32700
H  -10.07900 21.51400 27.56500
H  -8.64300 21.21700 28.53600
H  -9.09600 20.05800 27.27400
H  -10.74300 20.00800 23.75000
H  -10.98800 20.72400 25.25800
H  -9.54800 19.61600 25.08300
H  -6.95600 25.52700 21.35700
H  -4.17600 26.49500 21.60200
H  -5.53200 23.13300 21.23600
H  -4.31200 24.29800 20.84200
H  -5.86700 24.17400 19.88300
H  -5.84900 28.58200 22.04000
H  -6.77000 27.64600 20.84900
H  -4.44600 29.31700 20.39800
H  -5.82400 28.92600 19.43100
H  -4.48900 27.75700 19.47300
H  -2.03800 29.73400 24.14900
H  -0.94000 29.70300 25.55900
H  -2.33100 30.64000 25.67100
H  -3.69100 28.50300 30.04500
H  -1.27100 28.00200 33.56700
H  -1.35500 26.26300 33.03000
H  -2.74600 27.17900 33.77100

