158

Mg 45.51700 3.68700 47.48800
C  43.21800 6.16600 46.88200
C  43.02700 1.32900 47.01900
C  47.92100 1.32400 46.98000
C  48.05200 6.04900 47.19700
N  43.43400 3.76500 46.83700
C  42.62300 4.92100 46.67300
C  41.17600 4.64000 46.53500
C  41.12400 3.04500 46.81000
C  42.60100 2.65000 46.94900
C  40.14800 2.58000 47.96700
C  40.60700 5.01300 45.15100
C  39.54900 6.10100 45.13400
H  39.67000 7.18800 44.05500
N  45.53200 1.71300 47.22900
C  44.35100 0.93100 47.06500
C  44.80800 -0.46100 47.10900
C  46.19500 -0.48300 47.00700
C  46.60200 0.89200 47.09700
C  43.85500 -1.61600 47.03700
C  46.97300 -1.80000 46.73200
O  46.38500 -2.86600 46.74100
C  48.47700 -1.86100 46.36300
N  47.74200 3.69300 47.10500
C  48.47200 2.58600 46.91100
C  49.93500 2.88300 46.58900
C  50.06400 4.39800 46.85000
C  48.54500 4.74700 47.03600
C  51.05900 1.98800 47.27900
C  50.80000 5.15500 45.74500
C  52.33400 5.22500 45.79300
N  45.67800 5.71000 47.31300
C  46.77700 6.53900 47.40800
C  46.35400 7.94600 47.36200
C  44.89500 7.81700 47.12800
C  44.60100 6.46800 47.15000
C  47.18900 9.08600 47.49000
C  43.65000 8.56500 47.01100
O  43.49400 9.77400 47.13500
C  42.54600 7.53800 46.73200
C  41.56400 7.76100 47.74400
O  41.64100 7.39800 48.94800
O  40.47900 8.36900 47.20000
C  39.34800 8.63500 48.10200
H  42.30900 0.50700 46.99500
H  48.58300 0.47100 47.14300
H  48.90100 6.73100 47.12500
H  40.68000 5.27600 47.26800
H  40.87700 2.57200 45.85900
H  39.62200 1.73000 47.53200
H  39.47400 3.43000 48.06200
H  40.65600 2.29600 48.88900
H  40.15500 4.11500 44.73100
H  41.44700 5.32300 44.53000
H  39.40100 6.50800 46.13400
H  38.64900 5.51000 44.96300
H  42.80900 -1.31200 47.07000
H  44.09900 -2.36100 47.79500
H  44.00300 -2.07200 46.05800
H  48.69700 -2.78600 45.82900
H  48.98200 -1.76600 47.32400
H  48.72800 -1.03100 45.70200
H  50.02100 2.75800 45.51000
H  50.47600 4.52800 47.85100
H  51.67700 1.40500 46.59700
H  50.67900 1.28900 48.02300
H  51.79500 2.60900 47.78800
H  50.54700 6.21500 45.76000
H  50.50700 4.78000 44.76500
H  52.80400 4.51800 45.11000
H  52.73100 4.96400 46.77400
H  52.68300 6.21000 45.48300
H  46.68900 9.90400 46.97300
H  48.14300 8.87700 47.00500
H  47.36300 9.37800 48.52500
H  42.20500 7.77300 45.72300
H  38.78000 9.43700 47.63000
H  39.59500 8.85800 49.14000
H  38.69900 7.76200 48.02800
Mg 46.67500 24.81800 28.22600
C  47.23900 27.27800 30.59300
C  45.90400 22.59800 30.87900
C  46.19600 22.58800 25.87400
C  47.49700 27.15700 25.69000
N  46.48400 25.02800 30.56600
C  46.78300 26.10000 31.23000
C  46.64000 25.86600 32.72100
C  46.42600 24.27600 32.86100
C  46.24100 23.91700 31.35700
C  47.55600 23.49100 33.58600
C  45.46700 26.70000 33.34700
C  44.81700 26.27100 34.68800
H  44.83700 27.08200 35.99500
N  46.17600 22.88400 28.29600
C  45.84000 22.15000 29.51700
C  45.54700 20.77900 29.05000
C  45.52400 20.78600 27.62600
C  46.03000 22.10400 27.22400
C  45.27300 19.64400 30.01900
C  45.12400 19.75500 26.67900
O  45.47300 19.75900 25.48600
C  44.45300 18.42000 27.13000
N  46.84600 24.91900 26.08100
C  46.56100 23.78000 25.35700
C  46.67700 24.07500 23.84100
C  46.82200 25.61100 23.79100
C  47.00400 25.94600 25.25000
C  47.85700 23.34800 23.21800
C  45.54200 26.38000 23.24400
C  45.67800 27.07400 21.90500
N  47.24900 26.75600 28.12300
C  47.65800 27.54100 27.01500
C  48.32800 28.77200 27.52700
C  48.05800 28.75700 28.91400
C  47.46900 27.48400 29.21700
C  48.92100 29.89400 26.80700
C  48.26900 29.53000 30.13100
O  48.75700 30.60500 30.42400
C  47.75000 28.54000 31.32500
C  48.91200 28.14400 32.29400
O  50.01900 27.83000 32.00800
O  48.60300 28.56400 33.50500
C  49.59700 28.52600 34.56100
H  45.58800 21.95000 31.69900
H  45.86900 21.96500 25.03800
H  47.64800 27.89700 24.90200
H  47.51600 26.22100 33.26400
H  45.48700 24.03400 33.36100
H  47.79100 22.61100 32.98800
H  47.20000 23.14200 34.55600
H  48.41000 24.15700 33.70100
H  44.60800 26.73900 32.67800
H  45.89200 27.64800 33.67700
H  45.43300 25.40300 34.92200
H  43.81000 25.90700 34.48400
H  44.20000 19.45100 30.02500
H  45.68700 19.95900 30.97700
H  45.82700 18.73200 29.80000
H  44.02700 17.96000 26.23800
H  43.77500 18.51700 27.97800
H  45.31000 17.84800 27.48600
H  45.73000 23.77900 23.39100
H  47.75500 25.91900 23.31900
H  48.03600 22.41600 23.75400
H  48.83100 23.82100 23.33600
H  47.71800 23.13600 22.15800
H  45.31500 27.20500 23.91900
H  44.71400 25.67400 23.30200
H  45.41000 28.12400 22.01700
H  44.97300 26.60600 21.21800
H  46.71400 27.07800 21.56600
H  49.16900 29.61400 25.78300
H  49.86100 30.18900 27.27500
H  48.23600 30.72300 26.98500
H  46.98800 29.12800 31.83600
H  49.19700 28.71700 35.55700
H  50.30200 29.32200 34.31900
H  50.13100 27.57600 34.55000

