158

Mg 0.84100 43.00300 24.82400
C  2.98200 42.39400 27.65700
C  -1.89300 42.24200 26.92300
C  -1.26800 42.90500 22.21200
C  3.57400 43.21500 22.88500
N  0.67400 42.40500 27.05300
C  1.61500 42.40000 28.02200
C  0.93600 42.25500 29.43700
C  -0.56500 42.04100 29.09400
C  -0.62900 42.28000 27.55400
C  -1.05200 40.57800 29.45500
C  1.28400 43.46400 30.39400
C  1.82700 43.07200 31.84300
H  0.84600 43.03800 33.01600
N  -1.33500 42.81400 24.65200
C  -2.18500 42.35900 25.59100
C  -3.47900 42.01600 24.95000
C  -3.36800 42.36700 23.59100
C  -1.96300 42.71600 23.44700
C  -4.58400 41.39400 25.71900
C  -4.44200 42.22200 22.50300
O  -4.23800 42.46900 21.32200
C  -5.87700 41.82600 22.86700
N  1.09200 43.07700 22.83700
C  0.13100 43.08200 21.92900
C  0.75100 43.11600 20.49400
C  2.19300 43.58800 20.79900
C  2.31700 43.28600 22.27400
C  0.63300 41.87700 19.57200
C  2.56000 44.99200 20.36600
C  2.85100 45.10400 18.90900
N  2.82800 42.82800 25.14500
C  3.84800 42.97200 24.26700
C  5.20300 42.80000 24.90000
C  4.87600 42.57100 26.27600
C  3.48700 42.62400 26.34800
C  6.45100 42.77900 24.19400
C  5.52800 42.27800 27.58500
O  6.69900 42.28100 27.94900
C  4.25000 42.15200 28.57200
C  4.25200 40.98500 29.39300
O  3.85000 39.93500 28.96000
O  4.57100 41.23200 30.73400
C  4.36800 40.00500 31.58500
H  -2.79200 42.19900 27.54100
H  -1.87000 42.71000 21.32100
H  4.41500 43.38100 22.20900
H  1.37800 41.35000 29.85400
H  -1.21800 42.74100 29.61500
H  -1.36000 39.97800 28.59900
H  -1.98000 40.66000 30.02000
H  -0.26100 40.06300 30.00100
H  0.35900 44.01600 30.55900
H  1.86900 44.19600 29.83700
H  2.44200 43.91600 32.15400
H  2.42200 42.15900 31.80700
H  -4.25400 41.05800 26.70200
H  -5.07800 40.50800 25.32200
H  -5.36600 42.12800 25.91500
H  -5.86000 40.78200 23.18000
H  -6.48800 41.94300 21.97200
H  -6.32900 42.50800 23.58700
H  0.32900 43.98300 19.98600
H  2.83800 42.93300 20.21300
H  -0.39500 41.61600 19.31700
H  1.04600 41.01800 20.09900
H  1.20900 42.08800 18.67100
H  3.45600 45.17000 20.96000
H  1.75300 45.67800 20.62500
H  3.86800 45.33600 18.59300
H  2.18200 45.91200 18.61100
H  2.48300 44.30500 18.26500
H  7.28800 43.20600 24.74600
H  6.37300 43.36900 23.28100
H  6.66600 41.75600 23.88500
H  4.30800 43.02700 29.22000
H  4.53100 40.39000 32.59200
H  5.10100 39.25400 31.29100
H  3.31100 39.75800 31.48500
Mg -12.34700 16.73100 41.60200
C  -9.41700 14.79200 41.34200
C  -10.82300 19.25800 39.96700
C  -15.32000 18.15300 41.22900
C  -13.93900 13.62300 42.63700
N  -10.44600 16.94000 40.53300
C  -9.38800 16.08400 40.73400
C  -8.10400 16.66500 40.00400
C  -8.54000 18.11200 39.68400
C  -10.02000 18.11500 40.19100
C  -7.65800 19.27600 40.26100
C  -7.62500 15.84900 38.79500
C  -6.13700 16.16100 38.34600
H  -6.03000 16.55700 36.87500
N  -13.00200 18.58000 40.91900
C  -12.21500 19.49100 40.24500
C  -12.93400 20.66000 39.93100
C  -14.27400 20.37400 40.31500
C  -14.21800 19.01700 40.87400
C  -12.38100 21.97000 39.41200
C  -15.48300 21.29100 40.14200
O  -15.39200 22.45700 39.78600
C  -16.81200 20.81900 40.60100
N  -14.26800 15.91600 41.92100
C  -15.33700 16.81200 41.76200
C  -16.70300 16.11700 41.87500
C  -16.26500 14.72500 42.22900
C  -14.72700 14.72900 42.24500
C  -17.52900 16.87900 43.00400
C  -16.90100 13.59100 41.38100
C  -17.99500 12.80600 42.11500
N  -11.80300 14.63000 42.04300
C  -12.52200 13.54900 42.43600
C  -11.69500 12.39800 42.57600
C  -10.40000 12.84100 42.19800
C  -10.51200 14.23300 41.88500
C  -12.13100 10.99400 43.12200
C  -9.06600 12.46100 42.02400
O  -8.55000 11.41500 42.23600
C  -8.31800 13.65000 41.42900
C  -7.12900 14.03200 42.23400
O  -7.13900 14.42100 43.42300
O  -5.92700 13.85800 41.46900
C  -4.70200 14.30700 42.17800
H  -10.31200 20.12300 39.53800
H  -16.32700 18.44400 40.92300
H  -14.43800 12.66500 42.79800
H  -7.20600 16.64400 40.62200
H  -8.70000 18.29500 38.62100
H  -6.74400 18.87100 40.69500
H  -8.06800 19.77500 41.13800
H  -7.36800 20.03200 39.53100
H  -8.11900 16.11100 37.85900
H  -7.79500 14.78400 38.94800
H  -5.53900 15.26500 38.51000
H  -5.65400 16.82500 39.06400
H  -13.08800 22.49600 38.77100
H  -11.49000 21.68300 38.85500
H  -12.12700 22.67600 40.20200
H  -16.62000 20.54000 41.63700
H  -17.10100 19.96300 39.99200
H  -17.71900 21.41300 40.70800
H  -17.17900 16.16400 40.89600
H  -16.47800 14.56400 43.28600
H  -17.82600 16.21300 43.81400
H  -18.42900 17.11100 42.43300
H  -17.07800 17.74700 43.48300
H  -16.06000 12.91400 41.22900
H  -17.31400 13.89400 40.41800
H  -17.67300 11.82100 42.45400
H  -18.95300 12.74400 41.59800
H  -18.38600 13.27700 43.01600
H  -11.74500 10.28000 42.39400
H  -13.21500 10.97300 43.22900
H  -11.61600 10.78100 44.05900
H  -7.98400 13.22600 40.48200
H  -4.31700 13.46700 42.75600
H  -4.78800 15.23500 42.74200
H  -3.98000 14.47700 41.38000

