158

Mg 23.92000 -5.55400 45.57400
C  25.93000 -2.99600 44.47000
C  21.34100 -4.00400 43.67300
C  22.19800 -8.26400 45.92900
C  26.59700 -7.02000 47.13000
N  23.70500 -3.75200 44.15600
C  24.70300 -2.93700 43.83700
C  24.37100 -1.90800 42.77700
C  22.83000 -1.96500 42.69400
C  22.60200 -3.37900 43.50900
C  22.05400 -0.86200 43.39600
C  25.16200 -2.01500 41.44500
C  25.43500 -0.64700 40.72300
H  25.17600 -0.57600 39.25000
N  22.01900 -6.08900 44.85300
C  21.06100 -5.28700 44.25200
C  19.78100 -5.96700 44.23700
C  19.96400 -7.29600 44.79500
C  21.36800 -7.20800 45.30400
C  18.47100 -5.40600 43.62800
C  18.92900 -8.38100 44.88700
O  17.77100 -8.16300 44.49800
C  19.30400 -9.83900 45.35100
N  24.39300 -7.53200 46.19200
C  23.50600 -8.48900 46.31500
C  23.99600 -9.63600 47.23500
C  25.40500 -9.22600 47.54400
C  25.46500 -7.86500 46.93500
C  23.11100 -9.99100 48.49200
C  26.47500 -10.21100 46.99800
C  26.85500 -11.29300 47.92000
N  25.88500 -5.11300 45.84600
C  26.83200 -5.74500 46.60600
C  28.03300 -4.91200 46.56800
C  27.66300 -3.87200 45.74600
C  26.37300 -4.02800 45.30700
C  29.38800 -5.21700 47.04600
C  28.23000 -2.65000 45.15200
O  29.30600 -2.12500 45.38500
C  27.12200 -2.04900 44.28000
C  26.75900 -0.71200 44.80700
O  26.02500 -0.48900 45.77400
O  27.46800 0.21300 44.11800
C  27.25600 1.59600 44.35500
H  20.52600 -3.52200 43.12800
H  21.59600 -9.09500 46.30400
H  27.43400 -7.48400 47.65700
H  24.66700 -0.95300 43.21200
H  22.45500 -2.00300 41.67100
H  22.09200 -0.01600 42.71000
H  22.68900 -0.68500 44.26500
H  21.06800 -1.19300 43.72100
H  24.74500 -2.64600 40.66000
H  26.18200 -2.34800 41.63500
H  26.49100 -0.37500 40.73800
H  24.86600 0.17700 41.15400
H  18.55700 -4.54500 42.96500
H  17.95100 -5.16300 44.55400
H  17.94900 -6.17800 43.06200
H  18.37600 -10.35600 45.10600
H  19.24200 -9.75400 46.43600
H  20.25500 -10.27100 45.04000
H  23.91500 -10.33400 46.40200
H  25.59700 -9.13700 48.61400
H  23.79100 -10.39600 49.24300
H  22.36700 -10.66600 48.07000
H  22.41100 -9.21700 48.80500
H  27.36800 -9.68600 46.65700
H  26.13800 -10.73800 46.10500
H  26.14100 -11.22200 48.74000
H  27.88000 -11.20200 48.28200
H  26.59200 -12.26500 47.50400
H  29.86900 -6.00900 46.47100
H  29.28300 -5.54600 48.07900
H  29.99900 -4.31500 47.00200
H  27.47900 -1.94600 43.25600
H  26.68500 2.13600 43.60000
H  28.20200 2.13800 44.34700
H  26.89000 1.75300 45.37000
Mg 48.52700 34.39000 27.12800
C  46.67700 33.23400 29.95700
C  48.98500 37.30000 29.06200
C  49.96400 35.81700 24.46300
C  47.53600 31.71300 25.38700
N  47.92000 35.13000 29.34800
C  47.35900 34.43000 30.33000
C  47.56500 35.10400 31.73100
C  47.70900 36.58800 31.30300
C  48.24000 36.36700 29.82800
C  46.34600 37.36000 31.43400
C  48.77600 34.47000 32.44300
C  48.65700 34.16900 33.96000
H  47.69500 35.06900 34.75700
N  49.33000 36.29700 26.79900
C  49.45700 37.35000 27.73400
C  50.24500 38.44800 27.18400
C  50.54100 38.00800 25.76800
C  49.96000 36.65600 25.60400
C  50.78900 39.56900 27.92900
C  51.35100 38.75800 24.72200
O  51.50600 38.27100 23.62900
C  52.03000 40.02300 25.00000
N  48.63100 33.88300 25.13400
C  49.40800 34.51800 24.28900
C  49.50500 33.73000 22.98000
C  48.73100 32.41200 23.29700
C  48.27100 32.68700 24.73300
C  48.92900 34.39100 21.76900
C  49.63500 31.15200 23.22100
C  50.72500 31.06200 24.38300
N  47.25600 32.88900 27.49900
C  47.06300 31.79300 26.72100
C  46.29600 30.79300 27.49500
C  46.07500 31.38300 28.71700
C  46.69200 32.65300 28.70400
C  45.88600 29.45300 26.99000
C  45.47600 31.16100 30.01200
O  44.87700 30.22400 30.44600
C  45.65400 32.43600 30.79400
C  46.01500 32.02500 32.19000
O  47.12200 31.59300 32.50500
O  44.98900 32.28500 33.08100
C  45.06400 32.00900 34.49000
H  49.29200 38.21600 29.57100
H  50.36000 36.25900 23.54700
H  47.44400 30.82700 24.75600
H  46.60100 34.88100 32.18800
H  48.56600 37.02400 31.81600
H  45.64400 36.89000 32.12300
H  45.94400 37.55800 30.44100
H  46.51300 38.35400 31.84900
H  49.65800 35.07400 32.23100
H  48.96800 33.52900 31.92800
H  49.69700 34.18800 34.28800
H  48.29200 33.17000 34.19900
H  50.47900 39.74300 28.96000
H  50.68800 40.45900 27.30800
H  51.86700 39.41000 27.95800
H  52.56000 40.34600 24.10400
H  52.74600 39.95500 25.81900
H  51.19200 40.66900 25.26500
H  50.48700 33.28300 22.82400
H  47.78200 32.28200 22.77600
H  48.91100 35.46400 21.96400
H  48.01300 33.97700 21.34600
H  49.66700 34.16100 21.00100
H  50.11800 31.23700 22.24800
H  48.98800 30.27800 23.29700
H  50.38400 30.29400 25.07800
H  50.90700 31.91700 25.03500
H  51.62500 30.70800 23.88100
H  46.32200 29.22600 26.01700
H  44.82000 29.56000 26.79400
H  46.19300 28.67900 27.69300
H  44.62600 32.79300 30.85400
H  44.16500 31.53300 34.88300
H  45.27200 32.95600 34.99000
H  45.91200 31.35500 34.69400

