158

Mg 28.53800 57.40100 41.76600
C  25.87000 55.39900 40.50700
C  30.69600 55.40500 40.08600
C  30.77500 59.71100 42.19000
C  25.96400 59.68200 42.69200
N  28.33100 55.64600 40.53300
C  27.19800 54.96100 40.15400
C  27.50500 53.85200 39.20900
C  29.00300 53.57000 39.45900
C  29.41300 54.95500 40.14500
C  29.43800 52.52400 40.40400
C  27.10300 54.26100 37.72000
C  26.46300 53.25300 36.81300
H  26.91500 53.22300 35.36600
N  30.56700 57.47100 41.32200
C  31.25000 56.55400 40.57400
C  32.69700 56.94100 40.54400
C  32.73900 58.21900 41.17400
C  31.36900 58.52600 41.64500
C  33.73900 56.03200 39.90500
C  34.03200 58.98600 41.36800
O  35.02900 58.56800 40.86400
C  34.05500 60.19500 42.20400
N  28.36100 59.39100 42.28700
C  29.46000 60.12400 42.50300
C  29.16000 61.52900 42.87000
C  27.61400 61.54300 43.00200
C  27.26700 60.08300 42.72600
C  29.80000 62.02700 44.19700
C  26.86200 62.55900 42.13300
C  25.72700 63.33700 42.74800
N  26.34400 57.45600 41.84100
C  25.50000 58.41400 42.27500
C  24.11500 57.96800 42.15600
C  24.21800 56.73900 41.46200
C  25.58500 56.54300 41.28100
C  22.81400 58.60000 42.72400
C  23.48000 55.69600 40.84900
O  22.28800 55.52300 40.70500
C  24.51600 54.74800 40.13800
C  24.37400 53.42500 40.74200
O  24.75500 53.07800 41.83400
O  23.75000 52.53500 39.85700
C  23.62000 51.08600 40.22800
H  31.41500 54.86100 39.47000
H  31.48400 60.54100 42.23400
H  25.14700 60.34200 42.99300
H  27.02300 52.92100 39.50800
H  29.56300 53.35700 38.54900
H  29.83800 52.88000 41.35300
H  30.14400 51.85100 39.91700
H  28.64700 51.81100 40.63500
H  28.04800 54.44700 37.20900
H  26.54200 55.19500 37.67800
H  25.37700 53.28200 36.90100
H  26.53400 52.29700 37.33100
H  33.74800 56.03500 38.81500
H  33.57000 54.97600 40.11600
H  34.72300 56.17300 40.35100
H  33.76500 60.99700 41.52500
H  35.00000 60.58900 42.57700
H  33.40100 59.93300 43.03500
H  29.47300 62.08200 41.98500
H  27.41400 61.70300 44.06100
H  30.68700 62.57300 43.87800
H  30.10600 61.21000 44.85100
H  29.23800 62.78000 44.74900
H  26.60300 62.15900 41.15200
H  27.65100 63.26600 41.87700
H  26.08000 64.36700 42.78900
H  25.41200 63.06800 43.75600
H  24.87700 63.40100 42.06800
H  22.67800 58.33500 43.77200
H  21.92800 58.24800 42.19500
H  22.76100 59.68300 42.61500
H  24.45000 54.78200 39.05100
H  24.39400 50.59200 40.81600
H  23.57200 50.50700 39.30600
H  22.70900 51.11100 40.82800
Mg -2.09800 34.50300 26.50400
C  -3.36100 32.80900 29.31100
C  -0.41200 36.60100 28.54200
C  -0.91400 36.14400 23.71800
C  -4.06000 32.43000 24.46600
N  -1.97600 34.62700 28.63400
C  -2.54100 33.89500 29.63600
C  -2.14700 34.34800 30.98100
C  -1.24600 35.59200 30.75200
C  -1.26100 35.65700 29.18500
C  -1.51000 37.02500 31.43200
C  -1.60200 33.16600 31.82200
C  -0.66300 33.46200 33.06400
H  -1.08600 32.95700 34.48900
N  -0.82300 36.15300 26.16800
C  -0.14800 36.88600 27.15700
C  0.64600 37.92700 26.49700
C  0.43000 37.86400 25.13600
C  -0.45600 36.68500 24.94300
C  1.54400 38.84200 27.28200
C  0.95400 38.79800 24.01600
O  0.71000 38.64400 22.85700
C  1.78200 39.91500 24.36500
N  -2.45100 34.32500 24.43400
C  -1.83100 35.09800 23.47300
C  -2.16100 34.54700 22.05800
C  -3.19100 33.45200 22.26400
C  -3.24700 33.40600 23.82700
C  -2.49200 35.60800 20.87700
C  -2.83900 32.16800 21.45800
C  -1.81800 31.13500 22.07800
N  -3.44600 32.84700 26.75900
C  -4.09300 32.10500 25.84700
C  -4.72000 30.98800 26.56700
C  -4.48100 31.22400 27.91800
C  -3.71600 32.41400 27.99900
C  -5.49800 29.91900 25.97900
C  -4.90500 30.81500 29.26400
O  -5.58100 29.87300 29.75900
C  -4.17300 31.85500 30.22300
C  -5.30900 32.71000 30.91500
O  -6.17000 33.33500 30.37200
O  -5.11800 32.73400 32.27200
C  -6.00000 33.45000 33.18500
H  0.09200 37.29600 29.21700
H  -0.51600 36.74100 22.89500
H  -4.49600 31.69700 23.78500
H  -3.10100 34.61100 31.44000
H  -0.26100 35.39900 31.17600
H  -1.88200 37.68100 30.64500
H  -0.63500 37.41100 31.95300
H  -2.25700 36.99100 32.22600
H  -1.16900 32.31900 31.29100
H  -2.46900 32.66000 32.24700
H  -0.41600 34.52300 33.08100
H  0.25700 32.93500 32.80800
H  1.48200 38.65900 28.35500
H  1.28200 39.88200 27.08800
H  2.59500 38.70300 27.02900
H  2.09000 40.34500 23.41200
H  2.68000 39.80500 24.97300
H  1.08500 40.66600 24.73900
H  -1.23400 34.01500 21.84400
H  -4.08600 34.00100 21.97000
H  -2.86300 36.55200 21.27500
H  -3.08600 35.14400 20.09000
H  -1.52500 35.73500 20.39000
H  -2.39300 32.50100 20.52100
H  -3.81800 31.77700 21.17900
H  -1.25600 31.59800 22.88900
H  -1.11100 30.80600 21.31700
H  -2.39800 30.26900 22.39700
H  -6.52500 30.27000 25.87500
H  -5.54100 29.09500 26.69100
H  -5.05600 29.68100 25.01200
H  -3.47100 31.23400 30.77800
H  -6.87800 33.77800 32.62800
H  -5.41900 34.29300 33.55900
H  -6.21300 32.75200 33.99500

