158

Mg 47.38700 24.92100 28.66500
C  48.22400 27.17700 31.18800
C  46.29600 22.74900 30.98900
C  46.84800 22.75500 26.20400
C  48.72400 27.25500 26.25100
N  47.31100 24.98900 30.77600
C  47.64700 25.99800 31.66400
C  47.25600 25.68200 33.11900
C  46.91300 24.19100 32.98400
C  46.91100 23.89900 31.46000
C  47.93000 23.25200 33.73500
C  46.00000 26.60200 33.59100
C  45.92100 27.02300 35.10700
H  46.92900 26.40600 36.10600
N  46.69300 22.97800 28.59800
C  46.25300 22.26700 29.68500
C  45.69500 20.94700 29.22200
C  45.96000 20.94700 27.80400
C  46.53000 22.21600 27.47100
C  45.02800 19.94800 30.22700
C  45.63900 19.86900 26.82900
O  45.86600 19.82700 25.61100
C  45.00800 18.56200 27.34000
N  47.98900 24.94300 26.57800
C  47.52300 23.90600 25.83500
C  47.91800 24.12500 24.28600
C  48.50600 25.60600 24.29000
C  48.39700 25.99900 25.79100
C  48.92900 23.06300 23.74500
C  47.68000 26.57700 23.37800
C  48.42100 27.20100 22.21500
N  48.15300 26.82200 28.64000
C  48.66700 27.60600 27.60800
C  48.94000 28.96700 28.13400
C  48.76800 28.91400 29.52300
C  48.32700 27.56300 29.77900
C  49.51500 30.04400 27.23200
C  48.97000 29.61400 30.83900
O  49.34400 30.73100 31.16300
C  48.62700 28.51000 31.90400
C  49.84200 28.35300 32.86300
O  51.01400 28.14300 32.54600
O  49.42600 28.71500 34.09500
C  50.48900 29.11600 35.03700
H  45.84300 22.10900 31.74800
H  46.44300 22.10000 25.43000
H  49.02600 27.93400 25.45200
H  48.19000 25.89300 33.64000
H  45.94500 24.04200 33.46300
H  48.30900 23.81100 34.59100
H  48.69900 23.08600 32.98100
H  47.33500 22.42700 34.12700
H  45.12000 26.01200 33.33400
H  46.11300 27.48000 32.95500
H  44.89000 26.98300 35.45700
H  46.22000 28.07100 35.10300
H  45.33500 20.01200 31.27100
H  45.24300 18.89000 30.07700
H  43.97000 20.07900 29.99800
H  44.75700 17.88600 26.52200
H  44.16800 18.79300 27.99500
H  45.72000 18.00200 27.94600
H  46.97600 24.09000 23.73800
H  49.57200 25.58900 24.06200
H  48.41200 22.28500 23.18300
H  49.52500 22.75900 24.60500
H  49.59400 23.52200 23.01400
H  47.50000 27.51200 23.90900
H  46.72900 26.19200 23.01300
H  48.06900 26.74500 21.29000
H  49.47300 26.93300 22.11300
H  48.36500 28.28900 22.25400
H  49.51200 30.96700 27.81200
H  48.80500 30.16300 26.41300
H  50.51200 29.75800 26.89900
H  47.80000 29.02200 32.39600
H  50.12600 29.90500 35.69500
H  51.44900 29.32800 34.56600
H  50.54000 28.17200 35.58000
Mg -11.98500 38.37700 41.66300
C  -9.89800 35.69800 40.54700
C  -9.70300 40.52400 39.93200
C  -14.10800 41.01900 42.18800
C  -14.28600 36.12900 42.88700
N  -10.07700 38.07900 40.40800
C  -9.40800 36.89800 40.09800
C  -8.08300 37.10200 39.44900
C  -7.93600 38.65900 39.50500
C  -9.30900 39.12800 39.89100
C  -6.81600 39.21500 40.40600
C  -7.98400 36.55500 37.98300
C  -6.79700 35.56400 37.74800
H  -5.68100 36.02100 36.78100
N  -11.92200 40.48400 41.13700
C  -10.93200 41.14000 40.44500
C  -11.20600 42.57300 40.44300
C  -12.39800 42.77500 41.17700
C  -12.89800 41.40900 41.51700
C  -10.19800 43.60800 40.01200
C  -12.93900 44.17900 41.53000
O  -12.51600 45.23900 41.03100
C  -14.12100 44.31500 42.38600
N  -13.92700 38.49400 42.30300
C  -14.60500 39.74500 42.46700
C  -16.07300 39.44900 42.89200
C  -16.15600 37.88400 43.07400
C  -14.76800 37.44400 42.61300
C  -16.59100 40.23900 44.11900
C  -17.21400 37.15600 42.16200
C  -18.63300 37.05900 42.66600
N  -12.10600 36.29500 41.82900
C  -13.05900 35.49800 42.47000
C  -12.58800 34.13400 42.51900
C  -11.42200 34.18400 41.66600
C  -11.10900 35.46900 41.36400
C  -13.23600 32.92500 43.10700
C  -10.42200 33.29600 41.04600
O  -10.32000 32.08900 40.97100
C  -9.42100 34.23000 40.29500
C  -8.00100 34.00600 40.87800
O  -7.48200 34.55500 41.84500
O  -7.29600 32.99400 40.18500
C  -5.93000 32.64800 40.50000
H  -8.90000 41.18500 39.60100
H  -14.79800 41.85700 42.30100
H  -14.99100 35.44100 43.35900
H  -7.46400 36.52500 40.13700
H  -7.72900 39.06300 38.51400
H  -7.06500 39.18200 41.46700
H  -6.51200 40.21600 40.10000
H  -5.97700 38.51800 40.38600
H  -7.81300 37.39300 37.30800
H  -8.86700 35.93300 37.83300
H  -7.11800 34.64700 37.25300
H  -6.37700 35.32700 38.72600
H  -9.23900 43.26000 40.39600
H  -10.32700 44.61600 40.40700
H  -10.12100 43.73200 38.93200
H  -15.10600 44.37000 41.92100
H  -14.05900 45.31000 42.82600
H  -14.06200 43.50500 43.11400
H  -16.64000 39.80600 42.03200
H  -16.35300 37.53300 44.08700
H  -17.13500 41.14000 43.83600
H  -15.76500 40.36400 44.81900
H  -17.27600 39.48600 44.51000
H  -16.87400 36.12300 42.09700
H  -17.26500 37.57100 41.15600
H  -18.99100 37.99200 43.10100
H  -18.94100 36.17700 43.22800
H  -19.34100 36.89600 41.85300
H  -12.68900 32.45000 43.92200
H  -13.43600 32.23400 42.28800
H  -14.17000 33.27800 43.54400
H  -9.29600 33.91200 39.26000
H  -5.27200 33.50100 40.33200
H  -5.67400 31.73000 39.97000
H  -5.81200 32.27600 41.51800

