158

Mg 16.60800 51.64700 24.87300
C  18.37000 50.53600 27.70000
C  14.10100 52.65500 26.95500
C  14.60000 52.18300 22.29600
C  18.95600 50.06200 22.83600
N  16.31700 51.49700 27.06400
C  17.24900 51.20700 27.97800
C  16.83000 51.63300 29.40100
C  15.32100 52.09700 29.12400
C  15.23400 52.14400 27.60900
C  14.28300 51.18900 29.89500
C  17.70400 52.84000 29.93600
C  17.93300 52.87400 31.51800
H  17.20800 52.03000 32.41500
N  14.67900 52.45600 24.67100
C  13.81400 52.85800 25.63900
C  12.64500 53.41300 25.02600
C  12.74300 53.26200 23.67800
C  14.06300 52.69400 23.47300
C  11.47000 54.05200 25.77800
C  11.71200 53.57500 22.64700
O  11.89600 53.36700 21.47400
C  10.33500 53.93400 23.04300
N  16.71400 51.29600 22.88700
C  15.81500 51.60600 21.97100
C  16.24900 51.33800 20.55600
C  17.70200 50.66200 20.73500
C  17.79500 50.70500 22.27500
C  15.22000 50.59000 19.66200
C  18.92000 51.40800 20.04600
C  19.88900 50.54100 19.15100
N  18.28400 50.47700 25.19500
C  19.24300 50.03400 24.22800
C  20.34000 49.40900 24.97100
C  20.04600 49.58100 26.33800
C  18.78100 50.28200 26.38000
C  21.62000 48.79800 24.35600
C  20.54200 49.40200 27.65600
O  21.62100 48.99900 28.02200
C  19.41600 49.94900 28.58400
C  18.91500 48.71700 29.33700
O  18.11800 47.89000 28.91400
O  19.34200 48.77600 30.68100
C  18.66100 47.85400 31.63400
H  13.40400 53.16100 27.62600
H  13.94500 52.30500 21.43100
H  19.73600 49.67100 22.17900
H  16.80400 50.74400 30.03000
H  15.21200 53.10800 29.51500
H  13.79300 50.71100 29.04600
H  13.63900 51.84900 30.47700
H  14.82200 50.57200 30.61300
H  17.17500 53.77600 29.75900
H  18.59100 52.68600 29.32100
H  17.94400 53.91900 31.82500
H  18.99900 52.68900 31.65400
H  10.64700 53.35000 25.90900
H  11.04300 54.96300 25.35800
H  11.81800 54.32200 26.77500
H  10.27200 54.96000 23.40700
H  9.99500 53.16500 23.73700
H  9.68500 53.94500 22.16800
H  16.33100 52.29200 20.03600
H  17.74400 49.61400 20.44200
H  14.74200 51.37200 19.07200
H  14.40400 50.08500 20.18100
H  15.72400 49.90000 18.98500
H  19.49100 52.00600 20.75700
H  18.61500 52.06400 19.23100
H  19.87900 50.92000 18.13000
H  19.57600 49.49800 19.19100
H  20.87200 50.78800 19.55300
H  22.15000 49.52700 23.74300
H  21.26000 47.96600 23.75100
H  22.30900 48.39500 25.09900
H  19.73300 50.73600 29.26800
H  18.42100 46.90100 31.16400
H  17.89400 48.31800 32.25500
H  19.45400 47.50300 32.29500
Mg -10.53700 18.01900 43.50300
C  -7.07700 18.44100 43.42500
C  -10.93100 21.46000 43.31900
C  -13.62400 17.44700 42.66600
C  -9.82100 14.51800 43.21200
N  -9.14100 19.74200 43.30900
C  -7.77200 19.66900 43.26800
C  -7.18100 21.12300 43.14400
C  -8.38300 21.93800 43.59700
C  -9.59300 21.02000 43.37600
C  -8.23600 22.52000 45.02900
C  -6.56000 21.42500 41.72600
C  -5.02600 21.61200 41.61000
H  -4.40700 22.13100 40.33800
N  -12.12600 19.31500 43.13100
C  -12.13300 20.69400 43.10200
C  -13.47600 21.09300 42.91200
C  -14.32000 19.93600 42.75900
C  -13.39900 18.85500 42.85100
C  -13.91100 22.57800 42.93000
C  -15.76900 19.94200 42.37300
O  -16.35500 21.02000 42.26800
C  -16.49100 18.75500 42.02000
N  -11.58100 16.18400 42.97600
C  -12.83900 16.24600 42.69900
C  -13.47100 14.83500 42.63500
C  -12.24800 13.90000 42.63400
C  -11.14000 14.89900 42.99400
C  -14.72100 14.55300 43.62200
C  -11.96000 13.09300 41.34600
C  -11.65400 11.55300 41.44500
N  -8.84600 16.66300 43.40300
C  -8.74900 15.30900 43.36700
C  -7.40000 14.86100 43.64300
C  -6.66700 16.11400 43.61200
C  -7.61600 17.15500 43.53200
C  -6.90500 13.45500 43.79100
C  -5.34000 16.74100 43.77400
O  -4.24000 16.23300 44.00000
C  -5.59100 18.31700 43.68700
C  -5.15500 19.01100 44.97100
O  -5.70900 18.93500 46.05800
O  -4.15200 19.89400 44.63800
C  -3.62700 20.66900 45.71600
H  -11.00400 22.54900 43.28700
H  -14.64500 17.11200 42.47000
H  -9.60400 13.44900 43.16100
H  -6.45700 21.13500 43.95900
H  -8.58900 22.78900 42.94800
H  -7.28600 22.99900 45.26800
H  -8.32200 21.65400 45.68500
H  -9.00400 23.28200 45.16000
H  -6.99400 22.34400 41.33000
H  -6.83800 20.68400 40.97800
H  -4.74300 20.56200 41.67700
H  -4.77100 22.26900 42.44200
H  -14.69500 22.60700 43.68700
H  -14.34000 22.88700 41.97700
H  -13.11200 23.27500 43.18300
H  -15.93000 18.20800 41.26300
H  -17.46000 19.12100 41.68200
H  -16.41500 18.22600 42.97000
H  -13.95700 14.76000 41.66300
H  -12.31400 13.17600 43.44700
H  -14.46900 13.59500 44.07700
H  -15.58600 14.49300 42.96200
H  -14.90800 15.37300 44.31500
H  -11.02000 13.50900 40.98200
H  -12.67800 13.44200 40.60400
H  -10.90700 11.41000 40.66400
H  -12.51100 10.89000 41.32500
H  -11.17000 11.34500 42.39900
H  -7.21500 13.01900 44.74100
H  -5.82000 13.49000 43.69800
H  -7.41900 12.98500 42.95300
H  -4.89000 18.60600 42.90400
H  -3.34400 21.58900 45.20400
H  -2.68900 20.21900 46.04100
H  -4.27000 20.83700 46.58000

