158

Mg 1.77800 -2.20400 43.12600
C  5.15100 -1.50000 42.35000
C  0.98000 0.69200 41.45000
C  -1.40100 -3.11600 43.23200
C  2.77500 -5.48900 43.90700
N  3.00700 -0.66800 41.95100
C  4.31300 -0.53700 41.88800
C  4.71900 0.84000 41.20500
C  3.35200 1.57100 41.11300
C  2.38000 0.46400 41.50800
C  3.19100 2.88900 42.00500
C  5.48700 0.68500 39.86300
C  6.49100 1.76400 39.59900
H  6.62300 2.41900 38.18400
N  -0.00200 -1.23900 42.53300
C  -0.11500 -0.01700 41.93800
C  -1.51100 0.33800 41.86700
C  -2.21400 -0.81800 42.31900
C  -1.23100 -1.79700 42.77200
C  -1.92100 1.63800 41.20800
C  -3.75800 -0.96000 42.36200
O  -4.55500 -0.08300 42.00800
C  -4.42800 -2.12200 43.08000
N  0.81000 -4.06200 43.45300
C  -0.49800 -4.15400 43.53100
C  -0.94600 -5.49700 44.17600
C  0.41100 -6.32300 44.18600
C  1.37100 -5.28200 43.69600
C  -1.73400 -5.48300 45.44400
C  0.33200 -7.63300 43.35900
C  1.28700 -8.78200 43.73200
N  3.56300 -3.29400 43.24600
C  3.84100 -4.57100 43.63700
C  5.28400 -4.75600 43.81200
C  5.79900 -3.62800 43.27700
C  4.72200 -2.76100 42.87800
C  5.90200 -6.04200 44.40700
C  7.04400 -2.89200 42.97800
O  8.21900 -3.11900 43.13000
C  6.59500 -1.49300 42.39600
C  7.02400 -0.39200 43.30500
O  6.67800 -0.16800 44.43800
O  7.97600 0.35000 42.71800
C  8.60100 1.40500 43.56700
H  0.73800 1.65700 40.99900
H  -2.41600 -3.50300 43.34600
H  3.11700 -6.46200 44.26600
H  5.39600 1.38900 41.86000
H  3.00700 1.87500 40.12500
H  3.86800 2.85000 42.85800
H  2.19900 2.99600 42.44300
H  3.44800 3.75300 41.39200
H  4.80300 0.74900 39.01600
H  5.99100 -0.28000 39.82100
H  7.44900 1.28400 39.79800
H  6.34100 2.67500 40.18000
H  -1.77100 1.53700 40.13300
H  -1.24900 2.44500 41.49900
H  -2.94600 1.95600 41.39900
H  -5.47900 -1.86900 43.21400
H  -3.91200 -2.24800 44.03200
H  -4.35400 -3.04900 42.51100
H  -1.55000 -6.00800 43.42600
H  0.60400 -6.49100 45.24500
H  -1.60800 -4.52600 45.95100
H  -1.47800 -6.26400 46.15900
H  -2.80000 -5.59200 45.24200
H  0.57700 -7.51400 42.30400
H  -0.67400 -8.05200 43.33600
H  1.83600 -8.65500 44.66500
H  1.96400 -9.05400 42.92200
H  0.59300 -9.62100 43.78800
H  6.95300 -5.96600 44.68600
H  5.78900 -6.93900 43.79800
H  5.36600 -6.18100 45.34600
H  7.05500 -1.41400 41.41100
H  9.59100 1.49100 43.12100
H  8.55000 1.43700 44.65500
H  8.06800 2.32300 43.31800
Mg -9.99800 17.61900 41.42200
C  -6.56300 16.91500 41.55700
C  -9.03500 20.85200 40.57200
C  -13.10500 18.17900 40.53200
C  -10.69300 14.26600 41.67600
N  -8.01400 18.72100 40.96000
C  -6.75900 18.23800 41.14100
C  -5.72900 19.23200 40.74500
C  -6.49300 20.59200 40.79200
C  -7.94400 20.04400 40.86300
C  -6.21800 21.49900 42.07200
C  -5.19500 18.89600 39.32000
C  -3.71200 18.57700 39.13400
H  -3.38300 17.28900 38.36700
N  -10.96200 19.35600 40.76300
C  -10.44300 20.56200 40.54900
C  -11.46700 21.53500 40.18600
C  -12.66200 20.75700 40.20400
C  -12.31300 19.37000 40.50100
C  -11.13700 23.03000 39.93100
C  -14.04600 21.37700 39.91900
O  -14.18000 22.62200 39.83100
C  -15.38700 20.65300 39.67300
N  -11.69000 16.33200 41.06600
C  -12.93500 16.80300 40.85000
C  -13.98500 15.73000 40.77700
C  -13.16300 14.40800 41.06100
C  -11.79800 15.03800 41.32400
C  -15.26700 15.87800 41.67900
C  -13.13000 13.41400 39.89300
C  -12.11400 13.69000 38.71600
N  -8.83100 15.88000 41.75000
C  -9.30300 14.58700 41.79500
C  -8.15900 13.71300 41.77800
C  -7.02500 14.54500 41.80200
C  -7.52600 15.87200 41.81100
C  -8.16600 12.18100 41.74700
C  -5.53700 14.68300 41.70800
O  -4.67600 13.79500 41.67400
C  -5.22000 16.19300 41.69500
C  -4.38100 16.63000 42.84800
O  -3.34500 17.34100 42.75800
O  -4.72300 15.89900 44.02800
C  -3.96800 16.12100 45.20900
H  -8.79200 21.89000 40.33600
H  -14.12700 18.38800 40.20700
H  -10.86100 13.20600 41.88000
H  -4.88900 19.18600 41.43800
H  -6.37600 21.10800 39.83900
H  -6.98300 21.32200 42.82900
H  -6.23400 22.53700 41.74000
H  -5.24300 21.33100 42.53000
H  -5.38200 19.68300 38.59000
H  -5.80100 18.07200 38.94400
H  -3.30100 18.57300 40.14400
H  -3.27800 19.44300 38.63500
H  -10.38000 22.97900 39.14800
H  -10.79000 23.48500 40.85900
H  -11.98800 23.58200 39.53300
H  -15.72000 19.92400 40.41300
H  -15.34500 20.19800 38.68400
H  -16.15000 21.43000 39.65000
H  -14.29500 15.55200 39.74700
H  -13.42400 14.01700 42.04400
H  -16.19400 15.77700 41.11600
H  -15.27800 16.83600 42.20100
H  -15.15300 15.11900 42.45300
H  -14.09500 13.37800 39.38700
H  -12.95900 12.42200 40.31000
H  -11.75200 14.71700 38.74500
H  -12.55000 13.57700 37.72300
H  -11.26300 13.00900 38.74300
H  -9.12000 11.95000 42.22200
H  -7.42300 11.70900 42.39000
H  -8.20600 11.76900 40.73900
H  -4.57100 16.26500 40.82200
H  -3.23900 16.92900 45.14300
H  -3.49600 15.22200 45.60600
H  -4.77400 16.31500 45.91700

