158

Mg 9.02000 3.84800 27.07200
C  10.17600 2.08800 29.85600
C  7.00100 5.59000 29.18000
C  7.77700 5.48000 24.40000
C  10.49100 1.39800 25.00100
N  8.43500 3.63000 29.21400
C  9.18800 2.97600 30.19000
C  8.93100 3.41700 31.59300
C  7.77200 4.50100 31.35100
C  7.65000 4.54100 29.83100
C  6.56600 4.52000 32.27100
C  10.18200 4.02300 32.27000
C  10.26700 3.58500 33.79300
H  10.80900 4.54200 34.92300
N  7.63800 5.38200 26.83200
C  6.88500 5.95100 27.80000
C  6.06000 6.99900 27.29100
C  6.31000 7.03400 25.89900
C  7.28900 5.96900 25.62300
C  5.31600 7.96400 28.09700
C  5.86900 8.03200 24.80300
O  6.26300 7.94900 23.61300
C  4.83000 8.90700 25.22700
N  9.00000 3.39500 25.05200
C  8.50100 4.27800 24.14200
C  8.86300 3.81800 22.68100
C  9.82400 2.60600 22.86200
C  9.69300 2.40000 24.41300
C  7.65500 3.72900 21.73200
C  11.25600 2.92500 22.42400
C  12.21700 3.52600 23.35200
N  10.08700 2.04200 27.29600
C  10.61100 1.15100 26.39400
C  11.55400 0.30000 27.12800
C  11.38600 0.58200 28.49800
C  10.41200 1.62900 28.54100
C  12.51400 -0.57500 26.51900
C  11.84900 0.27700 29.81000
O  12.69000 -0.58900 30.12800
C  11.07000 1.26200 30.75300
C  10.31500 0.46200 31.67200
O  9.15500 0.00700 31.40700
O  10.87500 0.46500 32.92100
C  10.20700 -0.19600 33.99700
H  6.41700 6.21700 29.85700
H  7.40600 5.99100 23.51000
H  11.17400 0.76700 24.42800
H  8.49200 2.54600 32.08000
H  8.18600 5.50500 31.44000
H  6.87000 4.06800 33.21500
H  5.77700 3.93100 31.80400
H  6.21800 5.54500 32.40000
H  10.14000 5.11200 32.23700
H  11.11100 3.79000 31.74900
H  10.79300 2.63600 33.89800
H  9.25900 3.24300 34.02600
H  5.49800 9.01100 27.85200
H  5.53400 7.92900 29.16500
H  4.26000 7.78800 27.89500
H  4.03500 8.23000 25.53900
H  4.59200 9.44800 24.31100
H  5.06100 9.52800 26.09200
H  9.45800 4.64700 22.29800
H  9.35400 1.74200 22.39400
H  6.73600 4.03500 22.23100
H  7.45100 2.82800 21.15300
H  7.77600 4.40100 20.88200
H  11.25900 3.60700 21.57400
H  11.60600 2.00700 21.95300
H  12.70200 4.33800 22.81000
H  12.81200 2.67500 23.68500
H  11.67200 3.92900 24.20500
H  12.12300 -1.53000 26.16800
H  13.25900 -0.74800 27.29600
H  12.98800 -0.02600 25.70600
H  11.88500 1.72500 31.31000
H  9.47700 0.51700 34.38000
H  10.81100 -0.43000 34.87400
H  9.68300 -1.10100 33.68700
Mg 23.85700 -6.48600 44.96000
C  26.05900 -4.03900 43.66400
C  21.39000 -5.25800 42.83100
C  21.82500 -9.04000 45.85500
C  26.59100 -8.11900 46.36800
N  23.73900 -4.74400 43.56400
C  24.76300 -3.91300 43.10700
C  24.27900 -3.03900 41.93000
C  22.69300 -3.28600 41.93600
C  22.62100 -4.54300 42.77900
C  21.74600 -2.21300 42.61500
C  25.09000 -3.41000 40.60700
C  25.86800 -2.34400 39.90600
H  25.31400 -2.06500 38.47300
N  21.83900 -6.97100 44.53300
C  20.99100 -6.33900 43.60100
C  19.66300 -6.91500 43.67100
C  19.76700 -7.98400 44.61600
C  21.17800 -8.03600 45.02000
C  18.47900 -6.41300 42.95100
C  18.67800 -9.02000 44.88400
O  17.63900 -8.88400 44.27200
C  18.84900 -10.17500 45.80600
N  24.21300 -8.40000 45.92500
C  23.17500 -9.24500 46.17100
C  23.69400 -10.63300 46.71100
C  25.20400 -10.29100 47.04600
C  25.40100 -8.84900 46.35900
C  23.14400 -11.32900 48.03100
C  26.22300 -11.32400 46.54800
C  27.18400 -11.94200 47.53400
N  25.93300 -6.15700 45.03900
C  26.93400 -6.86700 45.72200
C  28.21900 -6.10900 45.65700
C  27.89400 -5.00700 44.81800
C  26.50400 -5.07600 44.52700
C  29.51400 -6.62300 46.26100
C  28.49500 -3.93100 44.13200
O  29.68600 -3.60800 44.05900
C  27.30100 -3.25600 43.35300
C  27.26200 -1.82800 43.69900
O  27.38200 -1.26700 44.82000
O  27.08700 -1.20500 42.58600
C  27.13200 0.26700 42.63100
H  20.53100 -4.87200 42.27800
H  21.29000 -9.97100 46.05200
H  27.47900 -8.54000 46.84300
H  24.43000 -1.96900 42.07400
H  22.42900 -3.59800 40.92500
H  21.71100 -2.44400 43.67900
H  20.74900 -2.11100 42.18600
H  22.19000 -1.22300 42.50800
H  24.36000 -3.79100 39.89300
H  25.77700 -4.25500 40.64800
H  26.90500 -2.67900 39.93900
H  25.75900 -1.41600 40.46700
H  18.43400 -7.02700 42.05100
H  18.69600 -5.35100 42.84000
H  17.60300 -6.58100 43.57800
H  17.89500 -10.67400 45.97300
H  19.15600 -9.71800 46.74700
H  19.54200 -10.91900 45.41300
H  23.71500 -11.34600 45.88800
H  25.46900 -10.02000 48.06800
H  22.69300 -12.29700 47.81300
H  22.44000 -10.66200 48.52800
H  23.97500 -11.40200 48.73300
H  26.88000 -10.97300 45.75200
H  25.64800 -12.16700 46.16400
H  27.10200 -11.50100 48.52700
H  28.19400 -11.80100 47.15000
H  26.96100 -12.99700 47.69700
H  30.12900 -7.09500 45.49500
H  29.30500 -7.39600 47.00200
H  30.03400 -5.75200 46.65800
H  27.54700 -3.31500 42.29200
H  27.60300 0.79600 43.46000
H  26.12100 0.63000 42.44700
H  27.65600 0.42400 41.68900

