158

Mg 1.63900 -1.57100 43.42500
C  5.01800 -0.67600 43.05700
C  0.85700 1.31200 41.80900
C  -1.49300 -2.76100 43.15900
C  2.65300 -4.62700 44.66100
N  2.87300 0.01500 42.33500
C  4.20400 0.23900 42.39900
C  4.64100 1.60700 41.82600
C  3.26200 2.27100 41.58000
C  2.23400 1.15100 41.91800
C  2.99200 3.45400 42.51900
C  5.51400 1.49900 40.55700
C  6.44600 2.70200 40.33900
H  6.42900 3.27000 38.97900
N  -0.07600 -0.82900 42.58900
C  -0.24900 0.42000 42.00200
C  -1.63700 0.71600 41.75900
C  -2.33800 -0.42000 42.19000
C  -1.35000 -1.46400 42.58300
C  -2.14200 1.96200 41.08500
C  -3.90000 -0.55300 42.20600
O  -4.68100 0.37200 41.92900
C  -4.60300 -1.84800 42.47900
N  0.79300 -3.53600 43.79100
C  -0.54400 -3.69800 43.67200
C  -1.02800 -5.08500 44.15600
C  0.30200 -5.70700 44.70400
C  1.28100 -4.58600 44.39600
C  -2.30000 -5.18700 45.08500
C  0.72200 -7.11400 44.02100
C  1.30300 -8.10100 44.96700
N  3.43500 -2.45100 43.80800
C  3.72600 -3.70900 44.35300
C  5.17500 -3.80600 44.58300
C  5.68400 -2.59500 44.12200
C  4.60400 -1.84800 43.64800
C  5.96600 -4.98000 45.28800
C  6.87000 -1.76800 44.11400
O  7.99800 -1.95200 44.58400
C  6.48500 -0.52000 43.25100
C  6.83900 0.75700 44.02300
O  6.36800 1.04300 45.14200
O  7.75900 1.48400 43.28200
C  8.05400 2.75100 43.92500
H  0.57500 2.27900 41.38700
H  -2.53400 -3.08200 43.08000
H  2.85000 -5.62400 45.06000
H  5.11300 2.22000 42.59400
H  3.13400 2.60500 40.55000
H  3.80700 3.71800 43.19400
H  2.13900 3.25500 43.16700
H  2.82700 4.33300 41.89500
H  4.98600 1.31200 39.62100
H  6.10600 0.58500 40.59200
H  7.40400 2.36200 40.73200
H  6.15800 3.52300 40.99600
H  -2.68000 2.59800 41.78700
H  -2.89900 1.69200 40.34800
H  -1.42300 2.52900 40.49400
H  -5.62600 -1.57800 42.21800
H  -4.59600 -1.95600 43.56400
H  -4.13300 -2.60700 41.85400
H  -1.28200 -5.62300 43.24300
H  0.24500 -5.90600 45.77400
H  -3.17500 -5.65900 44.63900
H  -2.56200 -4.15700 45.32800
H  -2.09100 -5.66300 46.04300
H  1.48100 -6.86700 43.27900
H  -0.09700 -7.54000 43.44100
H  0.57600 -8.80900 45.36400
H  1.80400 -7.53600 45.75300
H  2.12300 -8.63200 44.48500
H  7.03000 -4.76400 45.38300
H  5.98500 -5.90700 44.71600
H  5.55300 -5.19900 46.27300
H  7.11500 -0.47900 42.36300
H  8.91300 3.03400 43.31600
H  8.40300 2.56400 44.94100
H  7.16800 3.38500 43.91300
Mg -2.16100 34.70600 26.82600
C  -4.07700 33.31000 29.38600
C  -1.14200 37.12000 29.00700
C  -0.86500 36.22900 24.24900
C  -3.65500 32.28100 24.66500
N  -2.75200 35.22600 28.93100
C  -3.41700 34.48100 29.82100
C  -3.26100 34.97600 31.28900
C  -2.37900 36.24100 31.14200
C  -2.05400 36.21000 29.63300
C  -3.14600 37.57300 31.56500
C  -2.58500 33.88000 32.11300
C  -2.39000 34.33300 33.60900
H  -2.92100 33.51300 34.77700
N  -1.10100 36.38400 26.68200
C  -0.66700 37.21200 27.65700
C  0.17700 38.28400 27.13500
C  0.12600 38.12700 25.67600
C  -0.54100 36.85200 25.50100
C  0.65200 39.38600 28.00400
C  0.79400 38.98200 24.63400
O  0.63800 38.81500 23.41900
C  1.58400 40.11200 25.14500
N  -2.13400 34.16300 24.73500
C  -1.58900 35.08900 23.86100
C  -1.78900 34.53500 22.46700
C  -2.46700 33.12100 22.59000
C  -2.78200 33.16000 24.06600
C  -2.50300 35.46400 21.47200
C  -1.51200 31.96000 22.24200
C  -0.07700 31.80100 22.73700
N  -3.58800 33.17000 26.91800
C  -4.11900 32.29900 25.98700
C  -5.08700 31.38200 26.63200
C  -5.00800 31.67500 28.00000
C  -4.17500 32.81200 28.07900
C  -5.96500 30.30200 26.04900
C  -5.47700 31.27400 29.26400
O  -6.24400 30.37500 29.44400
C  -4.88300 32.32400 30.32500
C  -5.92000 32.90300 31.14900
O  -6.64100 33.79300 30.83000
O  -5.96600 32.29800 32.36400
C  -7.12000 32.57400 33.24700
H  -0.49400 37.61900 29.73100
H  -0.52100 36.57100 23.27100
H  -4.11900 31.46900 24.10200
H  -4.26800 35.13200 31.67700
H  -1.46700 36.15400 31.73300
H  -3.94100 37.51300 32.30700
H  -3.57000 38.06300 30.68800
H  -2.48700 38.28200 32.06700
H  -1.58500 33.72700 31.70600
H  -3.20700 32.98500 32.12800
H  -2.91800 35.27500 33.76200
H  -1.34500 34.62900 33.70300
H  1.73300 39.51100 27.94400
H  0.59800 39.10300 29.05600
H  0.05700 40.28400 27.84000
H  0.94700 40.77900 25.72500
H  2.13400 40.57700 24.32700
H  2.27100 39.73300 25.90200
H  -0.79100 34.36000 22.06600
H  -3.40300 33.13400 22.03100
H  -3.06300 36.17700 22.07600
H  -3.10700 35.00400 20.68900
H  -1.76600 35.99400 20.86900
H  -1.51200 31.88600 21.15400
H  -1.99800 31.04400 22.57600
H  0.08400 30.91000 23.34400
H  0.32900 32.69400 23.21300
H  0.49900 31.76900 21.81300
H  -5.96100 30.26800 24.95900
H  -6.97000 30.43500 26.45000
H  -5.54500 29.35900 26.40000
H  -4.23700 31.68000 30.92100
H  -7.94400 33.06900 32.73200
H  -7.03000 33.05800 34.21900
H  -7.50400 31.61400 33.59000

