158

Mg 6.76600 55.59700 40.89600
C  4.25000 53.19600 40.71700
C  8.98100 53.20400 40.08700
C  8.96700 58.10800 40.26100
C  4.28400 58.01700 41.61200
N  6.53700 53.57500 40.20600
C  5.46800 52.74600 40.24800
C  5.82300 51.31500 39.82200
C  7.32100 51.26300 40.09700
C  7.66800 52.74400 40.11700
C  7.69700 50.54700 41.46700
C  5.40500 51.19100 38.31500
C  4.56500 50.01400 37.95800
H  5.05500 49.23800 36.69500
N  8.69700 55.69800 40.23400
C  9.47900 54.54800 40.03900
C  10.79900 54.98700 39.71600
C  10.82200 56.38300 39.64300
C  9.46100 56.74800 40.00400
C  11.88500 54.00900 39.32200
C  12.05100 57.21300 39.22400
O  13.14900 56.70900 39.23000
C  11.84600 58.67900 38.78000
N  6.55100 57.76000 40.80400
C  7.66100 58.56000 40.50600
C  7.34100 60.04100 40.73300
C  5.88900 60.08100 41.15200
C  5.52300 58.52900 41.24200
C  8.20900 60.79800 41.74900
C  4.86200 60.82100 40.23100
C  3.90200 61.69500 40.99400
N  4.69600 55.68800 41.15000
C  3.85800 56.64300 41.54000
C  2.47600 56.12400 41.73100
C  2.63300 54.75200 41.53500
C  3.98700 54.55700 41.09700
C  1.23700 56.93700 42.07700
C  1.89600 53.48600 41.58400
O  0.71900 53.28000 41.86400
C  2.94100 52.42700 40.95000
C  2.32300 51.79900 39.76500
O  2.22100 52.26700 38.61800
O  1.81800 50.56400 40.18000
C  1.31000 49.70700 39.15600
H  9.74400 52.42800 39.99500
H  9.73900 58.88000 40.25900
H  3.55400 58.75400 41.95300
H  5.32400 50.66100 40.53700
H  7.83100 50.79200 39.25700
H  8.33400 49.70300 41.20500
H  6.83400 50.17400 42.02000
H  8.27300 51.24200 42.07800
H  6.29700 51.10600 37.69400
H  4.98500 52.13600 37.97000
H  3.52300 50.31900 37.85500
H  4.58500 49.34300 38.81600
H  12.30100 54.50100 38.44300
H  11.55200 53.00800 39.04800
H  12.58400 54.02200 40.15900
H  12.44800 58.94400 37.91100
H  12.23900 59.35500 39.53900
H  10.80900 58.90600 38.52900
H  7.50500 60.53500 39.77600
H  5.84100 60.48500 42.16300
H  7.81000 61.04600 42.73300
H  8.64400 61.71300 41.34900
H  8.91400 60.08100 42.17100
H  4.23200 60.07900 39.73900
H  5.37000 61.37900 39.44400
H  4.26200 61.87500 42.00700
H  2.89200 61.29000 40.94200
H  3.91000 62.59200 40.37500
H  0.95900 57.62400 41.27800
H  1.42200 57.55200 42.95800
H  0.49100 56.15400 42.21400
H  3.11700 51.66800 41.71200
H  1.07500 50.22700 38.22700
H  0.39100 49.21000 39.46600
H  2.08100 48.96000 38.97000
Mg -1.87900 34.65100 27.41700
C  -3.81300 33.00100 29.76200
C  -0.51900 36.53900 29.57500
C  -0.50100 36.45400 24.81500
C  -3.48200 32.74300 24.80100
N  -2.14900 34.62600 29.43600
C  -3.02500 34.00900 30.26000
C  -2.89400 34.39100 31.69500
C  -2.00800 35.70700 31.58000
C  -1.52000 35.62700 30.09700
C  -2.76400 37.02100 31.93000
C  -2.31100 33.23500 32.62200
C  -3.03800 32.76000 33.84500
H  -2.27300 32.62900 35.12300
N  -0.61600 36.25800 27.23900
C  -0.05600 36.82500 28.33200
C  0.97300 37.77000 27.92800
C  0.94100 37.81900 26.49700
C  -0.05800 36.77700 26.09500
C  1.82000 38.60900 28.91500
C  1.75900 38.64200 25.54100
O  1.38200 38.87200 24.43700
C  2.85100 39.52400 25.96900
N  -2.05400 34.72900 25.14100
C  -1.42600 35.60200 24.36200
C  -1.88800 35.44800 22.86600
C  -2.57600 33.96600 22.80500
C  -2.70100 33.80400 24.36600
C  -2.78200 36.67700 22.52000
C  -1.95800 32.92200 22.01500
C  -1.00400 33.26900 20.87000
N  -3.26200 33.12100 27.22800
C  -3.73600 32.39200 26.14900
C  -4.69500 31.37600 26.57200
C  -4.69100 31.51700 27.93700
C  -3.84000 32.61000 28.38000
C  -5.62900 30.50000 25.81100
C  -5.40100 31.12400 29.17600
O  -6.29900 30.29000 29.32400
C  -4.69600 32.02300 30.41500
C  -5.75300 32.60200 31.30500
O  -6.45700 33.59400 31.07600
O  -5.89400 31.83500 32.50400
C  -6.89400 32.35200 33.48500
H  0.01400 37.00700 30.40400
H  -0.03300 37.06800 24.04300
H  -4.08900 32.30400 24.00700
H  -3.89600 34.54100 32.09900
H  -1.15500 35.71600 32.25800
H  -3.22200 36.95200 32.91700
H  -3.51600 37.19500 31.16000
H  -1.99000 37.78700 31.96600
H  -1.28700 33.51400 32.87000
H  -2.14400 32.29500 32.09500
H  -3.68500 31.89200 33.71500
H  -3.85300 33.47900 33.92600
H  1.59400 38.46700 29.97200
H  1.61800 39.63100 28.59400
H  2.88500 38.44000 28.75900
H  3.36700 39.08000 26.82000
H  2.25700 40.34100 26.37700
H  3.53400 39.83800 25.17900
H  -0.97500 35.50000 22.27300
H  -3.60500 34.06600 22.46100
H  -3.12000 37.25000 23.38300
H  -3.74900 36.39400 22.10200
H  -2.25900 37.39000 21.88300
H  -2.78600 32.38100 21.55700
H  -1.42800 32.19900 22.63300
H  -1.16300 32.58000 20.04000
H  0.03600 33.06800 21.12800
H  -1.10700 34.27000 20.45200
H  -5.64100 29.48700 26.21200
H  -5.31600 30.48500 24.76700
H  -6.63100 30.92900 25.84000
H  -4.09300 31.35000 31.02400
H  -7.39500 31.42500 33.76600
H  -7.61900 33.05100 33.06800
H  -6.36900 32.79600 34.33100

