158

Mg 8.48200 3.39500 27.78500
C  9.96200 1.95100 30.72200
C  6.48200 5.09800 30.17400
C  7.06200 4.68700 25.28600
C  10.40300 1.33900 25.84500
N  8.13200 3.30200 30.29300
C  8.92200 2.73300 31.22100
C  8.44800 3.02700 32.63100
C  7.34200 4.10800 32.34000
C  7.28300 4.11400 30.85600
C  5.86100 3.71300 32.94500
C  9.55800 3.39100 33.60800
C  9.26900 4.53400 34.60400
H  9.97000 4.29800 35.96100
N  6.94200 4.66600 27.70500
C  6.27300 5.27300 28.78500
C  5.31500 6.27000 28.19100
C  5.57500 6.27800 26.80100
C  6.55600 5.14100 26.58000
C  4.29400 7.12700 28.96700
C  5.04900 7.15100 25.72400
O  5.49700 7.18300 24.54300
C  3.88100 7.98600 26.01600
N  8.59500 2.95400 25.74900
C  7.93500 3.70000 24.88600
C  8.34800 3.36400 23.45900
C  9.58600 2.47000 23.70500
C  9.49300 2.17200 25.19500
C  7.20400 2.56500 22.66500
C  10.88700 3.14100 23.32600
C  11.72300 3.92100 24.32400
N  9.81700 1.90700 28.12600
C  10.49500 1.11400 27.21400
C  11.43000 0.26600 27.83600
C  11.28300 0.57500 29.21700
C  10.28900 1.58800 29.37500
C  12.30700 -0.83900 27.26100
C  11.77900 0.21000 30.52200
O  12.72700 -0.50900 30.77400
C  10.91300 1.10500 31.53600
C  10.09000 0.16700 32.30200
O  9.17800 -0.45800 31.89600
O  10.49900 0.18200 33.61000
C  9.82200 -0.67100 34.58100
H  5.87100 5.78500 30.76400
H  6.64800 5.12800 24.37800
H  11.16400 0.86200 25.22400
H  8.10200 2.02200 32.87300
H  7.58100 5.11600 32.67900
H  5.18500 3.21900 32.24700
H  5.44600 4.66100 33.28700
H  5.91800 3.09000 33.83700
H  10.42800 3.53900 32.96900
H  9.65300 2.53500 34.27700
H  8.18900 4.64700 34.70100
H  9.69000 5.47400 34.24700
H  3.33800 6.60800 28.90000
H  4.30700 8.15000 28.59300
H  4.52200 7.24700 30.02700
H  3.58800 8.40200 25.05200
H  4.27600 8.81400 26.60500
H  3.11400 7.44800 26.57400
H  8.54000 4.20600 22.79400
H  9.66300 1.52800 23.16200
H  6.40800 2.59000 23.40900
H  7.31800 1.51400 22.39900
H  6.86200 3.17900 21.83200
H  10.69800 3.85400 22.52400
H  11.53700 2.39600 22.86600
H  11.15500 4.35800 25.14400
H  12.30100 4.71000 23.84400
H  12.38100 3.09500 24.59500
H  12.20600 -1.64700 27.98600
H  13.35500 -0.57600 27.39900
H  12.06300 -1.18400 26.25600
H  11.58900 1.64300 32.20100
H  9.53900 -0.01900 35.40700
H  10.48200 -1.34900 35.12200
H  8.93500 -1.08400 34.09900
Mg 49.19200 45.33200 42.71200
C  45.94400 45.86200 41.57600
C  49.07100 42.04300 41.28300
C  52.51600 45.27000 42.89300
C  49.27900 48.86200 43.66500
N  47.76800 44.19800 41.33000
C  46.49700 44.66200 41.10500
C  45.72900 43.53600 40.38000
C  46.55500 42.25900 40.65400
C  47.90400 42.84300 41.06000
C  46.00700 41.35100 41.81100
C  45.54600 43.78200 38.89500
C  44.15100 43.47900 38.39000
H  44.08000 42.29100 37.36900
N  50.54800 43.81200 42.23800
C  50.34100 42.49400 41.74300
C  51.60400 41.80700 41.77500
C  52.61600 42.71600 42.23800
C  51.90100 44.02700 42.49500
C  51.69200 40.39400 41.29100
C  54.02000 42.38200 42.41600
O  54.47700 41.23700 42.18700
C  54.99100 43.38800 42.91500
N  50.64400 46.88200 43.26500
C  51.98800 46.50800 43.28600
C  52.87100 47.71300 43.66000
C  51.75100 48.72300 44.19300
C  50.47300 48.12600 43.71200
C  53.97600 47.47900 44.73200
C  52.00400 50.23900 44.01600
C  53.54700 50.73000 43.91400
N  47.86100 47.03700 42.72900
C  48.02600 48.36700 43.14200
C  46.82500 49.11100 42.95500
C  45.90500 48.14100 42.36800
C  46.59700 46.92200 42.19800
C  46.53400 50.49500 43.50900
C  44.54300 47.85200 41.90400
O  43.55200 48.54000 42.00800
C  44.54700 46.36400 41.27700
C  43.45100 45.64100 41.90900
O  43.32600 45.48000 43.08700
O  42.46200 45.38500 40.96400
C  41.18900 44.87900 41.46800
H  49.02000 40.95900 41.15900
H  53.60700 45.30800 42.87400
H  49.39600 49.82200 44.17000
H  44.76200 43.30900 40.82700
H  46.71700 41.60600 39.79700
H  46.72200 41.26300 42.62900
H  45.64200 40.38000 41.47600
H  45.10300 41.86700 42.13300
H  46.35500 43.14600 38.53600
H  45.84000 44.80800 38.67300
H  43.85500 44.38900 37.86700
H  43.53900 43.29200 39.27200
H  51.86400 40.35300 40.21600
H  50.74900 39.95200 41.61300
H  52.45600 39.81700 41.81200
H  54.63400 43.84200 43.84000
H  55.16000 44.10600 42.11300
H  55.94800 42.96300 43.21700
H  53.30200 48.00600 42.70300
H  51.60600 48.44300 45.23600
H  54.88500 48.07500 44.81200
H  54.27700 46.44200 44.58300
H  53.53400 47.66800 45.71100
H  51.61400 50.72500 44.91000
H  51.38500 50.58400 43.18800
H  53.73400 51.34200 44.79600
H  53.69500 51.45000 43.10900
H  54.25900 49.92400 43.73400
H  47.20100 51.29500 43.18600
H  46.41400 50.31700 44.57700
H  45.58900 50.88400 43.13100
H  44.32500 46.46000 40.21400
H  41.24100 43.87500 41.88700
H  40.47800 44.80800 40.64500
H  40.67200 45.60600 42.09500

