158

Mg 34.94900 1.23900 30.10700
C  32.72900 2.10900 32.68300
C  37.48200 1.14900 32.35100
C  36.97400 0.46000 27.59800
C  32.29200 1.85100 27.79000
N  35.09800 1.74200 32.28300
C  34.06700 1.91000 33.18000
C  34.58400 1.96100 34.66400
C  36.13700 1.97700 34.45200
C  36.30100 1.65700 32.93100
C  36.99400 3.22500 34.90800
C  33.97500 0.89700 35.56600
C  33.65800 1.40900 37.01300
H  34.57600 2.56800 37.65400
N  36.97700 0.88700 29.97200
C  37.87200 0.84000 30.99400
C  39.19600 0.46700 30.48600
C  39.03600 0.21300 29.12300
C  37.63700 0.52600 28.81600
C  40.47800 0.64500 31.21400
C  40.04100 -0.35500 28.16000
O  39.83200 -0.39600 26.93600
C  41.47100 -0.70100 28.60800
N  34.66000 1.24500 28.00100
C  35.68800 0.77800 27.23400
C  35.20500 0.65600 25.73100
C  33.74600 1.23200 25.73300
C  33.52500 1.46400 27.20100
C  36.07700 1.48800 24.72700
C  32.70600 0.27100 24.99300
C  31.98400 0.89200 23.83700
N  32.94700 1.69300 30.20400
C  32.03000 2.03100 29.16500
C  30.80100 2.45000 29.80200
C  31.05200 2.46300 31.13900
C  32.31200 1.92800 31.38700
C  29.55000 2.94100 29.15600
C  30.41300 2.67200 32.35100
O  29.32800 3.08400 32.59600
C  31.48400 2.40600 33.48100
C  31.55300 3.68300 34.24300
O  31.99500 4.73000 33.84900
O  30.88900 3.49100 35.43500
C  31.04000 4.55300 36.41400
H  38.20700 0.82400 33.10000
H  37.59200 0.03100 26.80800
H  31.59000 2.16100 27.01300
H  34.36900 2.94300 35.08400
H  36.62600 1.10800 34.89300
H  36.21500 3.95700 35.12100
H  37.68300 3.54700 34.12700
H  37.65300 2.91700 35.72000
H  34.77100 0.15300 35.57100
H  33.12100 0.35300 35.16200
H  33.32600 0.61200 37.67900
H  32.69800 1.89800 36.84300
H  41.22100 1.09500 30.55400
H  40.84800 -0.32100 31.55700
H  40.34300 1.33300 32.04800
H  41.38100 -1.30900 29.50800
H  42.06800 0.20400 28.72400
H  41.88400 -1.22300 27.74500
H  35.22100 -0.38200 25.39700
H  33.68700 2.22300 25.28300
H  36.15100 1.09600 23.71300
H  37.09100 1.48100 25.12700
H  35.89100 2.56000 24.65700
H  31.98100 -0.02000 25.75300
H  33.13100 -0.70200 24.74600
H  32.13000 0.17200 23.03300
H  32.31400 1.91200 23.63600
H  30.94400 1.07000 24.11200
H  29.78100 3.37700 28.18300
H  29.19300 3.73100 29.81700
H  28.83400 2.13500 28.99700
H  31.14400 1.56600 34.08700
H  30.17500 4.53900 37.07800
H  31.15800 5.52900 35.94400
H  31.94600 4.38800 36.99700
Mg -9.77500 40.15700 42.16900
C  -8.61700 36.82000 41.02000
C  -6.88300 41.43300 40.85800
C  -11.39600 43.08400 42.21500
C  -12.89000 38.41700 42.78100
N  -7.94900 39.20000 41.01800
C  -7.67600 37.85200 40.76800
C  -6.24700 37.72100 40.08700
C  -5.68900 39.17700 40.23300
C  -6.89300 40.01700 40.68300
C  -4.50400 39.31300 41.19500
C  -6.45100 37.08900 38.67200
C  -5.50000 35.90800 38.34300
H  -4.55600 36.25900 37.09300
N  -9.16100 41.99400 41.80600
C  -7.96600 42.31900 41.31200
C  -7.95400 43.77100 41.22100
C  -9.16000 44.27600 41.73000
C  -9.94600 43.12900 42.00600
C  -6.76600 44.52000 40.65200
C  -9.56300 45.75500 41.94400
O  -8.84100 46.70500 41.52800
C  -10.73600 46.12200 42.62500
N  -11.82300 40.62400 42.32800
C  -12.21500 41.90200 42.33900
C  -13.75700 42.04100 42.44300
C  -14.22800 40.53700 42.63100
C  -12.88700 39.79300 42.57200
C  -14.19900 43.05200 43.59400
C  -15.22600 40.02000 41.59200
C  -16.47200 39.24100 42.27600
N  -10.54700 38.09600 42.07900
C  -11.80700 37.64700 42.44600
C  -11.82300 36.17700 42.35300
C  -10.56100 35.86100 41.77800
C  -9.88000 37.03800 41.54400
C  -12.84400 35.25400 42.85000
C  -9.80700 34.73600 41.26400
O  -9.97900 33.47300 41.28200
C  -8.52900 35.34100 40.76600
C  -7.36800 34.67600 41.60400
O  -7.15800 34.63700 42.79900
O  -6.56200 34.06500 40.66000
C  -5.27300 33.53600 41.25300
H  -5.98800 41.99400 40.58200
H  -12.06100 43.95000 42.18900
H  -13.77800 37.81900 43.00100
H  -5.74100 36.97200 40.69700
H  -5.32400 39.33900 39.21800
H  -4.05200 38.35000 41.43200
H  -4.86600 39.82500 42.08600
H  -3.68200 39.92500 40.82300
H  -6.36700 37.90300 37.95200
H  -7.44600 36.66400 38.54200
H  -6.14300 35.10300 37.98900
H  -4.91900 35.67400 39.23500
H  -7.21100 45.37900 40.15000
H  -6.19500 43.84900 40.01100
H  -6.14000 44.81500 41.49400
H  -10.66200 47.10400 43.09300
H  -11.08900 45.40800 43.36900
H  -11.48400 46.23900 41.84100
H  -14.15400 42.51500 41.54500
H  -14.68600 40.32300 43.59600
H  -13.34200 43.44100 44.14300
H  -14.91000 42.58700 44.27800
H  -14.71200 43.89500 43.13100
H  -14.80600 39.37900 40.81700
H  -15.55700 40.84700 40.96300
H  -16.46700 39.09200 43.35500
H  -16.61400 38.20100 41.98300
H  -17.42600 39.69300 42.00500
H  -13.44400 35.84900 43.53700
H  -12.37200 34.43100 43.38700
H  -13.51400 34.83800 42.09800
H  -8.52600 35.02700 39.72200
H  -4.75300 32.97700 40.47500
H  -5.55300 32.80000 42.00600
H  -4.62000 34.26900 41.72700

