158

Mg -8.35300 40.50200 42.54100
C  -7.42900 37.36100 41.35300
C  -5.79200 41.89300 40.87300
C  -9.99400 43.51600 42.73000
C  -11.27200 38.99000 43.71700
N  -6.90600 39.70400 41.24600
C  -6.56900 38.40300 40.92100
C  -5.22100 38.17800 40.27600
C  -4.57400 39.62100 40.44300
C  -5.84300 40.49700 40.88700
C  -3.47400 39.66400 41.57000
C  -5.29500 37.67000 38.77500
C  -4.48500 36.35100 38.61300
H  -3.23100 36.45500 37.68800
N  -7.83600 42.51500 42.14400
C  -6.71800 42.86700 41.41800
C  -6.55100 44.32300 41.46700
C  -7.77900 44.88600 42.02600
C  -8.62600 43.65000 42.27900
C  -5.25100 44.84100 40.97300
C  -8.10300 46.30100 42.29500
O  -7.32400 47.16200 41.89200
C  -9.33200 46.69300 42.98400
N  -10.44100 41.17200 43.00600
C  -10.76900 42.49200 43.14000
C  -12.20500 42.62000 43.68900
C  -12.48000 41.18100 44.17900
C  -11.40900 40.38900 43.49600
C  -12.40200 43.70400 44.79800
C  -13.91800 40.71400 44.08200
C  -14.25900 39.80100 42.86900
N  -9.24000 38.57500 42.61000
C  -10.40100 38.13000 43.12400
C  -10.40600 36.68200 43.05600
C  -9.26100 36.33100 42.40900
C  -8.60900 37.55600 42.09600
C  -11.45900 35.78400 43.68800
C  -8.41800 35.19900 41.89000
O  -8.57600 34.00700 41.96500
C  -7.22100 35.85700 41.12500
C  -5.96900 35.38500 41.83800
O  -5.56500 35.75200 42.89600
O  -5.40500 34.38600 41.09800
C  -4.10200 33.94800 41.56200
H  -4.85200 42.16600 40.38900
H  -10.54600 44.45600 42.80100
H  -12.03000 38.50600 44.33700
H  -4.69100 37.50200 40.94700
H  -4.16400 40.01400 39.51200
H  -3.85900 39.98900 42.53700
H  -2.74200 40.38400 41.20500
H  -3.07400 38.66800 41.75700
H  -4.85600 38.37300 38.06700
H  -6.32600 37.56200 38.43900
H  -5.23000 35.63500 38.26600
H  -4.12300 36.02100 39.58700
H  -5.22700 44.51900 39.93200
H  -4.35400 44.40600 41.41200
H  -5.16900 45.92800 40.98600
H  -9.09100 47.67400 43.39300
H  -9.51500 46.08600 43.87100
H  -10.13600 46.68100 42.24800
H  -12.88600 42.84400 42.86800
H  -12.35900 41.20300 45.26200
H  -12.67800 43.33700 45.78600
H  -13.28300 44.26100 44.48000
H  -11.48500 44.29200 44.82300
H  -14.57000 41.58600 44.03500
H  -14.27000 40.13600 44.93700
H  -14.43000 38.78300 43.22100
H  -13.41700 39.93000 42.18900
H  -15.16800 40.18700 42.40700
H  -12.29600 35.68400 42.99700
H  -11.65600 36.15300 44.69500
H  -11.08400 34.76500 43.78700
H  -7.30200 35.62400 40.06300
H  -3.44200 34.72800 41.94200
H  -3.53800 33.33500 40.85900
H  -4.24700 33.31200 42.43500
Mg -8.92700 18.46300 43.18600
C  -5.39900 18.24800 43.29900
C  -8.48900 21.95100 42.65900
C  -12.01500 18.71600 42.62900
C  -9.04400 14.92200 43.31100
N  -7.09100 19.92400 42.90800
C  -5.80900 19.51800 42.98700
C  -4.85100 20.74800 42.78900
C  -5.87200 21.98100 42.91300
C  -7.27100 21.27600 42.80900
C  -5.63200 22.93400 44.15600
C  -4.00900 20.66600 41.52600
C  -4.46500 19.69600 40.41900
H  -4.93700 20.45900 39.15000
N  -10.10900 20.12300 42.70900
C  -9.80400 21.46500 42.59700
C  -10.99500 22.18200 42.21600
C  -12.05200 21.22100 42.13600
C  -11.38900 19.97100 42.43600
C  -10.93900 23.55400 41.81900
C  -13.38100 21.47300 41.68900
O  -13.87900 22.59300 41.65300
C  -14.14700 20.35100 41.00200
N  -10.32100 16.99000 42.61100
C  -11.57900 17.34800 42.84300
C  -12.53100 16.09200 43.01500
C  -11.55800 14.92200 43.21700
C  -10.22700 15.65800 42.99000
C  -13.76900 16.17900 43.95000
C  -11.84000 13.68000 42.31700
C  -12.76900 12.72200 43.02200
N  -7.50600 16.85800 43.27900
C  -7.75300 15.49700 43.35100
C  -6.47300 14.81200 43.40300
C  -5.56400 15.85500 43.42800
C  -6.26000 17.09700 43.34600
C  -6.32700 13.36300 43.41200
C  -4.14600 16.14700 43.52000
O  -3.16200 15.45600 43.64100
C  -4.00200 17.70200 43.31400
C  -3.28300 18.20500 44.52700
O  -2.10800 18.58300 44.52600
O  -4.01600 18.13700 45.71400
C  -3.39000 18.70800 46.96400
H  -8.31900 23.02500 42.56500
H  -13.10700 18.71400 42.64400
H  -9.17400 13.94200 43.77600
H  -4.26500 20.71900 43.70800
H  -5.79200 22.48800 41.95100
H  -5.44000 23.95800 43.83700
H  -4.78600 22.67100 44.79200
H  -6.50200 22.97200 44.81200
H  -3.00400 20.42600 41.87200
H  -3.97200 21.63100 41.02200
H  -5.25100 19.02800 40.77100
H  -3.73300 18.95300 40.10300
H  -11.38000 24.22500 42.55700
H  -11.57700 23.59600 40.93600
H  -9.90800 23.86900 41.65900
H  -14.96600 19.85400 41.52200
H  -13.50900 19.63700 40.48100
H  -14.79700 20.85000 40.28200
H  -13.10200 15.86800 42.11400
H  -11.44300 14.63100 44.26100
H  -13.58900 15.56700 44.83400
H  -14.67600 15.81900 43.46600
H  -13.99800 17.20800 44.22600
H  -10.99900 13.06800 41.99300
H  -12.33600 14.07100 41.42800
H  -12.52400 11.66000 42.98900
H  -13.69000 12.75200 42.44000
H  -12.84100 13.03200 44.06400
H  -6.39000 12.90500 44.39900
H  -5.36700 12.95700 43.09300
H  -7.03900 12.89000 42.73600
H  -3.44000 17.94400 42.41200
H  -4.21100 18.74900 47.68000
H  -2.93000 19.69300 46.87600
H  -2.72000 17.97700 47.41700

