158

Mg 43.83200 3.84400 48.18400
C  41.59500 6.43500 47.38100
C  41.24300 1.56300 47.77100
C  46.06900 1.28400 48.62500
C  46.43400 6.13300 47.98100
N  41.63600 4.03300 47.61000
C  40.94500 5.20800 47.33600
C  39.54300 4.84800 46.99900
C  39.39000 3.31200 47.33400
C  40.81100 2.92200 47.50100
C  38.53700 3.02400 48.53200
C  39.21200 5.37700 45.53700
C  38.05200 6.40300 45.58400
H  37.26700 6.38500 44.21600
N  43.70000 1.76900 48.25300
C  42.52000 1.04300 48.12500
C  42.77700 -0.41400 48.25700
C  44.21400 -0.50800 48.42100
C  44.76700 0.88800 48.44100
C  41.69300 -1.49500 48.30100
C  44.87600 -1.80200 48.61400
O  44.14800 -2.79500 48.73800
C  46.44800 -1.92300 48.36100
N  46.02000 3.73800 48.19100
C  46.69400 2.58400 48.49200
C  48.23700 2.86900 48.47600
C  48.30800 4.41000 48.20600
C  46.79200 4.79600 47.99400
C  48.95900 2.41500 49.85700
C  49.13900 4.82500 46.97400
C  50.72100 4.65100 47.18200
N  44.06200 5.86600 47.85800
C  45.17800 6.70000 47.94600
C  44.79000 8.10200 47.76600
C  43.39900 8.00300 47.47000
C  42.98900 6.63200 47.59700
C  45.68500 9.26300 47.49500
C  42.25600 8.79100 47.10700
O  42.17500 10.01700 46.89600
C  41.04100 7.83400 47.06100
C  40.03200 8.45700 48.02800
O  39.85400 8.17100 49.20000
O  39.27100 9.37000 47.40200
C  38.40700 10.19300 48.21300
H  40.42000 0.84600 47.76000
H  46.83500 0.52300 48.78800
H  47.28100 6.81600 48.06900
H  38.90800 5.39200 47.69800
H  38.92200 2.82000 46.48100
H  39.24100 2.97100 49.36300
H  37.87200 2.16100 48.52000
H  37.86700 3.86700 48.70200
H  38.96400 4.54200 44.88200
H  39.99200 5.94600 45.03100
H  38.28000 7.45900 45.73200
H  37.37000 6.09200 46.37500
H  41.72100 -2.04000 47.35800
H  40.65500 -1.17300 48.38000
H  41.86700 -2.05700 49.21900
H  46.74000 -1.41000 47.44500
H  46.60800 -2.97400 48.12300
H  47.17400 -1.55700 49.08700
H  48.70300 2.37200 47.62500
H  48.86400 4.85100 49.03300
H  49.80700 3.05700 50.09800
H  49.35700 1.42000 49.66000
H  48.22500 2.41200 50.66200
H  49.03000 5.90200 46.84700
H  48.86000 4.25500 46.08800
H  51.18500 4.25500 46.27800
H  50.90100 4.09300 48.10100
H  51.27000 5.57100 47.38300
H  46.65600 8.91100 47.14800
H  45.92200 9.72000 48.45600
H  45.23600 9.95500 46.78200
H  40.56300 7.84600 46.08200
H  37.91900 9.71200 49.06100
H  37.57300 10.62200 47.65700
H  38.98400 11.01000 48.64600
Mg -11.59600 17.44400 42.63700
C  -8.15700 17.57900 42.77300
C  -11.92100 20.73400 42.35200
C  -14.91700 16.93800 42.18600
C  -11.26300 13.78700 42.34800
N  -10.17600 18.99500 42.47600
C  -8.81500 18.86200 42.53300
C  -8.20900 20.27000 42.65600
C  -9.49500 21.20200 42.82400
C  -10.60400 20.27600 42.52700
C  -9.76300 22.04100 44.15400
C  -7.25200 20.61000 41.45000
C  -5.66100 20.64700 41.53000
H  -4.80600 19.88800 40.51100
N  -13.20700 18.69500 42.32900
C  -13.14900 20.05500 42.26400
C  -14.45200 20.66300 42.22400
C  -15.36100 19.57700 42.16700
C  -14.55200 18.36000 42.11300
C  -14.66500 22.17000 42.12700
C  -16.88000 19.69500 42.09900
O  -17.46600 20.77400 42.25900
C  -17.67600 18.46700 41.96400
N  -12.80200 15.64200 42.15800
C  -14.16200 15.77700 42.07700
C  -14.76500 14.44800 42.01200
C  -13.64600 13.44300 41.70300
C  -12.46900 14.33000 42.09300
C  -15.42400 14.18300 43.42100
C  -13.59900 13.12600 40.19600
C  -14.05600 11.73100 39.88800
N  -10.11200 15.96400 42.73400
C  -10.11900 14.55600 42.68500
C  -8.76500 14.05300 42.81000
C  -7.98500 15.17800 42.96700
C  -8.80200 16.28500 42.80300
C  -8.33800 12.56600 42.80600
C  -6.61700 15.66800 43.06900
O  -5.61100 15.01100 43.11900
C  -6.67800 17.32300 42.94900
C  -6.27200 17.64500 44.42000
O  -7.14400 17.87600 45.25700
O  -4.90900 17.63700 44.61600
C  -4.54400 17.63700 46.04800
H  -11.95100 21.82600 42.34000
H  -15.96100 16.61900 42.22300
H  -11.30000 12.71400 42.14400
H  -7.60200 20.27300 43.56100
H  -9.37300 22.03800 42.13400
H  -9.79200 23.10900 43.94100
H  -8.98700 21.90000 44.90600
H  -10.72000 21.71900 44.56500
H  -7.56800 21.57500 41.05500
H  -7.47300 19.86700 40.68400
H  -5.38700 20.33800 42.53900
H  -5.32700 21.65900 41.30400
H  -14.81600 22.53700 41.11200
H  -13.83400 22.77300 42.49400
H  -15.49100 22.33100 42.82100
H  -18.70400 18.77500 41.77500
H  -17.72800 17.93400 42.91400
H  -17.39900 17.84700 41.11100
H  -15.54900 14.48600 41.25500
H  -13.64800 12.55500 42.33500
H  -16.50000 14.08100 43.28000
H  -15.32400 14.92000 44.21700
H  -15.17300 13.21500 43.85500
H  -12.55700 13.02900 39.89000
H  -14.13800 13.88300 39.62600
H  -14.74900 11.45400 40.68300
H  -13.24600 11.00400 39.83300
H  -14.64400 11.73600 38.96900
H  -8.51200 12.06700 43.75900
H  -7.26100 12.56200 42.63800
H  -8.83900 12.02800 42.00100
H  -5.93800 17.75500 42.27500
H  -3.51800 17.27400 46.10200
H  -5.21500 16.95000 46.56300
H  -4.68600 18.64200 46.44400

