158

Mg 1.15200 8.29500 25.57300
C  1.88800 10.28900 28.36000
C  1.84100 5.60900 27.49100
C  0.90100 6.45800 22.79400
C  1.22500 11.13800 23.67200
N  1.98800 8.03000 27.71800
C  1.86700 8.90500 28.71600
C  1.85400 8.28000 30.07400
C  2.08000 6.76100 29.68600
C  1.94700 6.79000 28.23200
C  3.37900 6.05600 30.16400
C  0.55800 8.56700 30.80000
C  0.64600 8.76000 32.28100
H  1.71600 7.91200 33.01200
N  1.17800 6.33500 25.21600
C  1.42800 5.34000 26.17600
C  1.26100 4.06400 25.50200
C  0.82300 4.34000 24.17900
C  0.99600 5.80600 24.00100
C  1.24000 2.76000 26.28400
C  0.23600 3.39000 23.15300
O  -0.27800 3.73400 22.09100
C  0.14300 1.84900 23.38600
N  0.86200 8.81400 23.45500
C  0.85700 7.81300 22.53300
C  0.78400 8.48500 21.11400
C  0.66600 9.99000 21.43900
C  0.83900 10.00400 22.93100
C  2.03400 8.09000 20.11900
C  -0.57800 10.67500 20.95600
C  -0.52900 12.17100 20.49200
N  1.62000 10.20100 25.85500
C  1.55300 11.28000 25.01300
C  1.71000 12.52100 25.72300
C  1.83200 12.20400 27.00800
C  1.88900 10.77900 27.07400
C  1.60100 13.93500 25.12600
C  2.02800 12.66800 28.44000
O  2.13700 13.80000 28.86600
C  1.95000 11.45800 29.33000
C  3.14300 11.59400 30.25600
O  4.33400 11.47500 29.97200
O  2.75500 11.80300 31.59000
C  3.91100 12.01800 32.46300
H  1.91600 4.71100 28.10700
H  0.84400 5.71100 21.99900
H  1.35100 12.02100 23.04200
H  2.72900 8.65500 30.60500
H  1.27800 6.10700 30.02800
H  4.01000 6.77300 30.68900
H  4.08400 5.81200 29.36900
H  3.04600 5.25200 30.82100
H  -0.16700 7.75600 30.74200
H  0.04200 9.44700 30.41500
H  -0.27500 8.48200 32.79400
H  0.92700 9.80700 32.39300
H  1.90100 2.00500 25.85800
H  0.24000 2.34100 26.17000
H  1.32000 2.84500 27.36800
H  1.11100 1.53100 23.77400
H  -0.22200 1.49200 22.42300
H  -0.57400 1.71100 24.19500
H  -0.13600 8.04000 20.73400
H  1.58100 10.45500 21.07400
H  2.75200 7.51100 20.69900
H  2.59900 9.00400 19.94000
H  1.65900 7.57400 19.23500
H  -1.34500 10.48100 21.70600
H  -0.86400 10.05100 20.11000
H  -1.19200 12.17100 19.62700
H  0.50000 12.49200 20.33200
H  -0.90500 12.72700 21.35100
H  1.18600 13.88300 24.11900
H  2.52800 14.50200 25.04100
H  0.96600 14.47200 25.83200
H  1.01700 11.57600 29.88000
H  4.64600 12.72900 32.08600
H  4.24000 10.99600 32.65100
H  3.53400 12.26900 33.45500
Mg -5.89000 24.86600 26.24000
C  -4.37600 26.57000 28.98400
C  -7.14100 22.64600 28.70500
C  -7.44200 23.42400 23.84900
C  -4.10700 27.02200 24.00800
N  -5.81400 24.63800 28.58300
C  -5.27100 25.57800 29.43200
C  -5.51400 25.19600 30.93300
C  -6.16200 23.70200 30.80500
C  -6.46100 23.63800 29.27500
C  -5.22700 22.56400 31.14800
C  -6.15300 26.28400 31.82100
C  -7.25600 25.79100 32.77100
H  -6.91800 24.81600 33.98800
N  -7.09800 23.21900 26.24200
C  -7.47500 22.42600 27.32400
C  -8.25100 21.33000 26.84200
C  -8.51200 21.58900 25.45400
C  -7.63500 22.75700 25.09600
C  -8.78300 20.20400 27.78700
C  -9.41800 20.90700 24.56500
O  -9.54300 21.11500 23.37000
C  -10.33600 19.77400 25.16200
N  -5.76500 25.16600 24.22200
C  -6.53100 24.40600 23.42300
C  -6.39700 24.96700 21.95300
C  -5.60900 26.28500 22.07300
C  -5.10700 26.14000 23.51300
C  -5.86800 23.92800 20.91900
C  -6.52400 27.56000 21.91800
C  -6.96500 27.95700 20.51100
N  -4.49000 26.46600 26.42200
C  -3.83900 27.17200 25.41000
C  -2.88300 27.98400 26.02500
C  -3.04900 27.86500 27.41600
C  -4.01200 26.85900 27.62200
C  -2.02300 28.97900 25.38600
C  -2.62800 28.37700 28.69100
O  -1.85500 29.32200 28.90600
C  -3.48500 27.56000 29.76600
C  -2.52900 26.82600 30.71500
O  -2.00100 25.80600 30.33600
O  -2.47600 27.45400 31.95800
C  -1.95400 26.62500 33.04700
H  -7.53200 21.93500 29.43600
H  -8.04100 22.94800 23.07000
H  -3.66400 27.81800 23.40500
H  -4.51300 25.06600 31.34400
H  -7.12700 23.53400 31.28200
H  -4.36100 22.78000 31.77300
H  -4.95000 21.94100 30.29800
H  -5.85000 21.93100 31.78000
H  -6.64700 27.03500 31.20400
H  -5.40700 26.83400 32.39500
H  -8.06500 25.34700 32.19300
H  -7.65300 26.69300 33.23700
H  -9.76400 20.52200 28.13700
H  -8.14200 20.24600 28.66800
H  -8.72400 19.23500 27.29000
H  -9.65900 18.92100 25.21000
H  -11.11800 19.75200 24.40200
H  -10.72800 20.10000 26.12500
H  -7.37900 25.28700 21.60500
H  -4.73400 26.49500 21.45700
H  -4.77800 23.94800 20.89900
H  -6.33600 24.01600 19.93800
H  -6.11100 22.92200 21.25900
H  -5.92800 28.41300 22.24100
H  -7.42700 27.46900 22.52000
H  -8.01400 27.72200 20.33500
H  -6.37600 27.50600 19.71200
H  -6.90800 29.04300 20.43200
H  -2.60400 29.72600 24.84400
H  -1.38300 28.35800 24.75900
H  -1.21800 29.45600 25.94500
H  -4.07800 28.33200 30.25600
H  -2.01100 25.54100 32.95200
H  -2.53500 26.83300 33.94600
H  -0.91000 26.85800 33.25400

