158

Mg 47.58100 44.23600 41.61900
C  44.00400 43.86400 41.75700
C  47.78700 40.88800 41.61200
C  50.82200 44.64500 41.21700
C  47.13000 47.70700 41.36300
N  46.06800 42.61700 41.59300
C  44.68900 42.63900 41.62800
C  44.09400 41.21700 41.70600
C  45.36200 40.23100 41.85700
C  46.45900 41.30700 41.74600
C  45.36000 39.36000 43.08700
C  43.24900 40.83300 40.42100
C  43.56100 41.56400 39.06800
H  43.63800 40.69600 37.85400
N  49.11300 42.95400 41.44300
C  49.03900 41.56400 41.47200
C  50.35900 40.98100 41.29600
C  51.28300 42.06600 41.27700
C  50.44100 43.33500 41.36200
C  50.72800 39.46400 41.30700
C  52.81400 41.97500 41.22000
O  53.46000 40.93500 41.18400
C  53.65700 43.19000 41.23100
N  48.77200 45.93300 41.07400
C  50.08300 45.82700 41.17600
C  50.75800 47.19000 40.93600
C  49.60800 48.13600 40.91400
C  48.38100 47.24800 41.15800
C  51.88000 47.48500 42.00200
C  49.39600 48.96900 39.66900
C  49.22900 50.48800 39.88900
N  45.93200 45.57200 41.59000
C  45.92300 46.97200 41.42700
C  44.55800 47.39800 41.55600
C  43.78900 46.20200 41.71200
C  44.63000 45.12900 41.68300
C  44.00400 48.75700 41.44200
C  42.42000 45.61000 41.90700
O  41.37000 46.12300 42.15500
C  42.50400 44.08800 41.88300
C  41.83200 43.33100 43.01800
O  41.19800 42.31400 42.91300
O  42.17900 43.95100 44.14600
C  41.42500 43.46400 45.34700
H  48.03700 39.82700 41.55400
H  51.85500 44.98500 41.11900
H  47.06100 48.78700 41.51100
H  43.47200 41.18700 42.60000
H  45.44000 39.52900 41.02600
H  44.40600 38.83300 43.09000
H  45.33600 39.96600 43.99200
H  46.05300 38.51900 43.11600
H  42.19000 40.90700 40.66500
H  43.42800 39.76900 40.26800
H  44.53100 42.02900 39.24400
H  42.74700 42.25300 38.84200
H  50.99700 39.02700 40.34500
H  49.84400 38.86200 41.51700
H  51.53900 39.31600 42.02100
H  53.32700 43.72700 40.34200
H  54.71100 42.96700 41.06300
H  53.41000 43.76000 42.12700
H  51.32600 47.16300 40.00600
H  49.67000 48.71400 41.83600
H  51.76000 46.79100 42.83400
H  51.70700 48.49900 42.36000
H  52.84000 47.40000 41.49300
H  48.50500 48.74800 39.08200
H  50.24900 48.88900 38.99500
H  48.14800 50.59100 39.79100
H  49.96000 51.08400 39.34200
H  49.45900 50.80800 40.90500
H  43.51900 48.99800 40.49600
H  44.71800 49.57500 41.54100
H  43.25800 48.97800 42.20500
H  42.04200 43.84000 40.92700
H  40.41200 43.86100 45.41000
H  41.97800 43.64700 46.26800
H  41.45400 42.37500 45.32200
Mg 8.74900 47.59700 29.13600
C  7.09600 46.56300 32.07300
C  11.71700 47.66800 30.95400
C  10.44100 48.66800 26.41600
C  5.70600 48.19400 27.60500
N  9.33200 47.05400 31.30600
C  8.47000 46.75200 32.32400
C  9.16900 46.70900 33.65200
C  10.62300 47.21000 33.27500
C  10.63100 47.32200 31.75400
C  11.11000 48.49300 34.03700
C  9.19100 45.38300 34.40600
C  8.60600 45.57800 35.81800
H  9.02300 44.58700 36.90400
N  10.83500 47.82400 28.65500
C  11.85300 47.82900 29.55700
C  13.12900 48.01800 28.85800
C  12.76800 48.15900 27.41600
C  11.28300 48.16600 27.42700
C  14.49700 48.19300 29.50500
C  13.68100 48.31400 26.21800
O  13.31200 48.41700 25.02000
C  15.24800 48.38900 26.42800
N  8.21800 48.36400 27.39600
C  9.05200 48.82300 26.35800
C  8.26100 49.61300 25.27400
C  6.76700 49.04500 25.52600
C  6.90400 48.42600 26.91400
C  8.29700 51.15100 25.46300
C  6.26500 47.96500 24.60900
C  7.35400 47.06000 24.05600
N  6.72000 47.51600 29.62100
C  5.58200 47.65800 28.89900
C  4.41900 47.20600 29.73200
C  5.00000 46.71700 30.94700
C  6.39200 46.94800 30.85300
C  2.96500 47.33200 29.21000
C  4.70900 46.18300 32.27100
O  3.66800 45.98400 32.81000
C  6.04400 46.11300 33.04100
C  6.01200 44.71700 33.57300
O  6.49800 43.68700 33.10400
O  5.40000 44.77600 34.82900
C  5.48600 43.50700 35.66000
H  12.61900 47.84600 31.54300
H  11.07000 49.07400 25.62000
H  4.75900 48.27700 27.06900
H  8.67300 47.49600 34.22000
H  11.34300 46.41300 33.46000
H  12.16500 48.44700 34.30900
H  10.48200 48.64800 34.91400
H  11.11000 49.36500 33.38300
H  10.16000 44.88500 34.44700
H  8.61400 44.72000 33.76100
H  7.51900 45.61600 35.74600
H  8.86600 46.58200 36.15300
H  14.42700 48.14200 30.59100
H  15.02800 49.10100 29.21700
H  15.06400 47.29000 29.28000
H  15.38100 49.41000 26.78400
H  15.63500 48.10900 25.44800
H  15.61600 47.75500 27.23500
H  8.56500 49.33700 24.26400
H  6.06800 49.88000 25.58100
H  9.07300 51.23400 26.22400
H  7.44500 51.69300 25.87300
H  8.64600 51.58800 24.52700
H  5.86800 48.49600 23.74300
H  5.54400 47.30500 25.09000
H  8.34400 47.09700 24.50900
H  7.56700 47.19400 22.99600
H  6.92800 46.07000 24.22200
H  2.33100 47.19700 30.08600
H  2.84000 46.46700 28.55800
H  2.81600 48.31600 28.76500
H  6.12100 46.80800 33.87700
H  4.96300 42.70300 35.14100
H  4.91100 43.64500 36.57600
H  6.48900 43.17000 35.92400

