158

Mg 1.91200 8.08600 26.36200
C  2.18000 10.16400 29.28800
C  2.37800 5.36300 28.63800
C  2.36900 5.98100 23.74500
C  2.10300 10.73000 24.29700
N  2.17600 7.85100 28.78900
C  2.12800 8.81100 29.69600
C  2.11000 8.21600 31.11300
C  2.46200 6.66100 30.84600
C  2.36400 6.58000 29.33800
C  3.80300 6.04800 31.53800
C  0.85900 8.41600 31.86000
C  0.67500 7.53400 33.12700
H  1.87500 7.30400 34.08700
N  2.17700 5.95500 26.24400
C  2.45300 5.06700 27.23700
C  2.77800 3.71000 26.72500
C  2.60900 3.80300 25.31400
C  2.34000 5.24700 25.02900
C  3.07800 2.56700 27.69400
C  2.71500 2.71000 24.27300
O  2.43600 2.94800 23.10100
C  3.19300 1.28600 24.64900
N  2.00300 8.27600 24.35600
C  2.09000 7.32200 23.38500
C  1.82600 7.87700 21.91000
C  1.59400 9.39800 22.20200
C  1.89200 9.44700 23.68200
C  3.00900 7.52000 21.00100
C  0.13900 9.92100 21.88000
C  0.17300 10.87800 20.67500
N  2.06500 10.01200 26.66200
C  2.14000 11.02100 25.71600
C  2.20700 12.36600 26.41100
C  2.28100 12.09500 27.75500
C  2.08400 10.62500 27.87700
C  2.08600 13.68400 25.83400
C  2.35500 12.67400 29.06800
O  2.51300 13.87600 29.41100
C  2.24400 11.43600 30.10400
C  3.40200 11.45900 31.09500
O  4.60700 11.23200 30.85400
O  2.99300 11.97000 32.24600
C  3.91700 11.92500 33.39800
H  2.62300 4.65600 29.43400
H  2.49900 5.32700 22.87900
H  2.15400 11.60300 23.64300
H  2.85800 8.63400 31.78700
H  1.57500 6.10000 31.14000
H  4.06900 6.71000 32.36200
H  4.59100 5.87400 30.80500
H  3.57100 5.07100 31.96100
H  0.01500 8.10800 31.24300
H  0.72200 9.45300 32.16800
H  0.24900 6.55300 32.91600
H  -0.01800 8.12600 33.72500
H  2.11400 2.07600 27.83100
H  3.54600 2.90100 28.62000
H  3.69500 1.83400 27.17400
H  2.77700 0.94000 25.59500
H  4.26900 1.45900 24.66600
H  3.00500 0.56500 23.85300
H  0.88300 7.40800 21.62900
H  2.40800 9.91400 21.69200
H  3.77200 7.07100 21.63600
H  3.41800 8.38300 20.47600
H  2.80100 6.69300 20.32100
H  -0.23100 10.45500 22.75500
H  -0.46100 9.02200 21.74200
H  1.19100 11.05700 20.32800
H  -0.23900 11.84400 20.96500
H  -0.33200 10.44200 19.81200
H  1.49400 13.41100 24.96000
H  3.03800 14.14700 25.57500
H  1.37500 14.31700 26.36400
H  1.32300 11.40600 30.68600
H  4.51000 11.01100 33.43000
H  3.30500 11.82200 34.29300
H  4.54300 12.81000 33.50600
Mg 47.32900 16.53100 28.28600
C  45.47300 15.44700 31.01000
C  48.92900 18.71300 30.36500
C  49.01500 17.59800 25.52800
C  45.24800 14.58600 26.22600
N  47.39600 16.84500 30.47100
C  46.57400 16.27600 31.35900
C  46.98300 16.64400 32.81300
C  47.85300 17.89900 32.54300
C  48.12100 17.80700 31.04300
C  47.35400 19.32500 33.17600
C  47.53200 15.40400 33.63800
C  47.21500 15.28800 35.09700
H  48.29600 15.08600 36.15100
N  48.77000 17.92900 28.03100
C  49.25200 18.80900 29.02900
C  50.07900 19.81200 28.38100
C  50.13900 19.48800 26.99800
C  49.32200 18.26500 26.77600
C  50.73700 20.88100 29.23200
C  50.83000 20.22500 25.86600
O  50.59200 19.94600 24.72300
C  51.88400 21.26200 26.11400
N  47.12300 16.21200 26.15400
C  48.14700 16.58600 25.25600
C  48.08400 15.63300 23.98300
C  46.81700 14.72800 24.22100
C  46.38700 15.17600 25.63400
C  48.10300 16.24700 22.60200
C  47.10600 13.16000 24.09700
C  46.27900 12.36700 23.18600
N  45.62900 15.33500 28.52500
C  44.90500 14.61300 27.60200
C  43.81500 13.95400 28.28300
C  43.95400 14.27000 29.61000
C  45.10300 15.06800 29.72100
C  42.86300 13.14900 27.59900
C  43.46200 14.16100 31.01300
O  42.43800 13.54100 31.38600
C  44.44800 14.88100 31.89300
C  43.66500 15.96900 32.59700
O  43.26000 17.02100 32.19000
O  43.41100 15.49500 33.87000
C  42.86300 16.44200 34.81900
H  49.45300 19.43800 30.99000
H  49.53000 17.83400 24.59500
H  44.74000 13.88300 25.56200
H  46.08500 16.96500 33.34000
H  48.75000 17.63700 33.10300
H  46.67000 19.00600 33.96200
H  46.90200 19.87600 32.35100
H  48.29700 19.81400 33.42000
H  48.62100 15.43200 33.66700
H  47.20800 14.45400 33.21200
H  46.56000 14.42800 35.23700
H  46.57200 16.14100 35.31200
H  51.53400 20.44100 29.83300
H  49.92500 21.27300 29.84400
H  51.10100 21.67200 28.57700
H  52.52900 21.50800 25.27100
H  52.54000 20.83800 26.87400
H  51.46100 22.21100 26.44500
H  48.97700 15.02800 24.13300
H  46.02200 14.87200 23.48900
H  48.83900 15.74700 21.97100
H  48.53500 17.24700 22.56900
H  47.18000 16.08200 22.04600
H  47.18700 12.68500 25.07500
H  48.13500 13.12800 23.73900
H  46.76300 12.12800 22.23900
H  45.34000 12.84500 22.90400
H  45.99000 11.38700 23.56400
H  42.50400 12.34400 28.24000
H  43.46700 12.76800 26.77600
H  41.96400 13.69500 27.31400
H  44.65300 14.13700 32.66300
H  41.90200 16.76400 34.41900
H  43.48400 17.31700 35.01500
H  42.57200 15.89900 35.71800

