158

Mg 25.05200 1.87300 29.34800
C  27.18300 1.45700 32.09900
C  22.42400 1.72000 31.56800
C  22.95600 1.95700 26.67700
C  27.75900 1.10400 27.27600
N  24.86300 1.92400 31.56900
C  25.89300 1.75200 32.52600
C  25.36400 1.81900 33.97900
C  23.81800 1.71100 33.78500
C  23.67900 1.66600 32.17000
C  23.08500 0.59000 34.50500
C  25.79700 3.13900 34.72400
C  26.44100 2.96400 36.00700
H  26.04200 3.93800 37.12800
N  22.90900 1.90500 29.12300
C  22.03900 1.76100 30.18500
C  20.65800 1.84000 29.55000
C  20.74500 1.86300 28.14800
C  22.25300 2.00000 27.90400
C  19.39600 1.97400 30.43400
C  19.63900 1.79700 27.07600
O  19.84300 1.89200 25.86800
C  18.28300 1.45800 27.53800
N  25.34800 1.75700 27.31800
C  24.32600 1.88100 26.37600
C  24.89800 1.64800 24.96000
C  26.48600 1.54400 25.17300
C  26.54100 1.41000 26.66300
C  24.32800 0.51900 24.13400
C  27.20200 2.82200 24.64600
C  26.69700 4.23600 25.28600
N  27.05400 1.45200 29.60900
C  28.04700 1.14600 28.68000
C  29.27400 0.76700 29.29800
C  29.01600 0.94000 30.65400
C  27.64300 1.32900 30.77000
C  30.50000 0.13200 28.63500
C  29.59300 0.78500 31.93400
O  30.69500 0.31500 32.31000
C  28.49400 1.24800 32.93700
C  28.34400 0.15700 34.00200
O  27.67900 -0.83100 33.86900
O  28.99800 0.51200 35.15600
C  28.65900 -0.27500 36.38700
H  21.61900 1.89100 32.28500
H  22.30500 2.13100 25.81800
H  28.56000 0.95500 26.54900
H  25.74200 0.90500 34.43700
H  23.29800 2.63000 34.05700
H  23.11500 -0.15300 33.70800
H  22.11600 1.03900 34.72200
H  23.51200 0.21600 35.43600
H  24.90500 3.71600 34.96500
H  26.42400 3.79400 34.11900
H  27.50500 3.16400 35.88300
H  26.28200 1.99200 36.47300
H  18.77600 2.77500 30.03200
H  19.58200 2.14700 31.49400
H  18.79900 1.06400 30.38200
H  18.35500 0.63100 28.24300
H  17.71600 1.04600 26.70300
H  17.73500 2.33000 27.89700
H  24.63500 2.58500 24.47100
H  26.98500 0.73600 24.63900
H  25.07100 0.15400 23.42500
H  23.51500 0.84700 23.48600
H  23.87200 -0.27800 24.72100
H  26.96900 2.83800 23.58100
H  28.27400 2.70000 24.80300
H  26.36000 4.85600 24.45600
H  27.54700 4.65100 25.82900
H  25.87900 4.17000 26.00400
H  31.35100 0.15000 29.31700
H  30.85600 0.66100 27.75100
H  30.18900 -0.89600 28.44700
H  28.75000 2.19100 33.41800
H  29.23600 0.06800 37.24500
H  28.95500 -1.31900 36.29100
H  27.57900 -0.15400 36.47900
Mg 10.07500 48.17000 26.21900
C  7.91200 47.78700 29.10400
C  12.35500 49.62600 28.13100
C  12.08600 48.05800 23.56200
C  7.38100 47.06400 24.30300
N  10.08800 48.70500 28.32800
C  9.17600 48.44200 29.36400
C  9.78400 48.88500 30.68200
C  10.95800 49.76300 30.28000
C  11.21400 49.31200 28.87400
C  10.80500 51.26500 30.54200
C  10.15400 47.69600 31.62000
C  9.55300 47.63300 32.98000
H  9.81900 46.37800 33.86600
N  11.94000 48.93100 25.86900
C  12.77300 49.37400 26.82100
C  14.09200 49.56600 26.22700
C  13.95200 49.15200 24.87500
C  12.59300 48.74200 24.67200
C  15.22800 50.03400 27.02900
C  14.98700 49.13500 23.89900
O  14.80800 48.92800 22.67800
C  16.39300 49.34800 24.29900
N  9.68200 48.00400 24.14700
C  10.75700 47.84700 23.27800
C  10.42100 47.02500 22.03100
C  8.96900 46.48400 22.30800
C  8.60300 47.29300 23.67600
C  10.75500 47.74900 20.69700
C  8.90200 44.91600 22.46300
C  8.77800 43.88800 21.26100
N  8.00800 47.58500 26.56100
C  7.07000 47.10100 25.67200
C  5.83300 46.85100 26.40200
C  6.15500 47.08300 27.79100
C  7.49200 47.44300 27.76900
C  4.56800 46.41300 25.82000
C  5.56600 47.22400 29.11200
O  4.39700 47.14900 29.47200
C  6.79500 47.32900 30.02800
C  6.99600 46.05800 30.81200
O  7.92500 45.22800 30.74300
O  6.00200 45.97500 31.82300
C  6.21500 44.85800 32.74400
H  13.03200 50.28800 28.67500
H  12.84100 47.63800 22.89400
H  6.69100 46.63600 23.57300
H  9.11100 49.49000 31.29100
H  11.85900 49.60500 30.87200
H  11.73400 51.67800 30.93600
H  10.00000 51.51100 31.23400
H  10.50700 51.73300 29.60400
H  11.23700 47.75700 31.72000
H  9.81300 46.79600 31.10800
H  8.49200 47.56700 32.74000
H  9.80400 48.55600 33.50300
H  14.86000 50.41300 27.98200
H  15.80400 50.82200 26.54300
H  15.81400 49.15900 27.31300
H  16.56700 50.33200 24.73300
H  17.03100 49.28400 23.41800
H  16.65800 48.62200 25.06800
H  11.09000 46.16500 22.05300
H  8.29100 46.89000 21.55700
H  11.65500 47.37200 20.21200
H  11.05400 48.75900 20.97900
H  10.11500 47.80000 19.81600
H  8.07300 44.79700 23.16000
H  9.84200 44.64800 22.94500
H  9.68600 43.36500 20.96200
H  8.37600 44.57900 20.52000
H  8.03800 43.11000 21.44800
H  4.33700 47.04200 24.96000
H  3.94300 46.54400 26.70400
H  4.58500 45.36600 25.51800
H  6.56300 48.11000 30.75300
H  7.13300 45.04200 33.30200
H  6.23400 43.88000 32.26300
H  5.37200 44.74600 33.42600

