158

Mg 35.46700 2.15300 30.60500
C  32.86300 2.94000 32.72300
C  37.60500 2.17900 33.31900
C  37.83500 1.35900 28.41200
C  33.09900 1.97000 27.99500
N  35.22100 2.55600 32.77700
C  34.05400 2.75400 33.43700
C  34.22200 2.86200 34.91100
C  35.82800 3.00400 34.98400
C  36.28700 2.54800 33.61700
C  36.32000 4.48100 35.40600
C  33.58800 1.60100 35.62200
C  33.23500 1.70200 37.14700
H  33.83400 2.84400 37.98500
N  37.40100 1.78600 30.81100
C  38.11100 1.76000 32.04600
C  39.40900 1.32300 31.76700
C  39.50400 0.94100 30.39300
C  38.22800 1.44800 29.81400
C  40.40600 0.98000 32.93000
C  40.70400 0.28800 29.67300
O  40.62300 -0.01000 28.49900
C  41.95600 -0.14100 30.34800
N  35.51300 1.79100 28.49000
C  36.60200 1.53700 27.78100
C  36.35800 1.26500 26.28000
C  34.80500 1.31400 26.26100
C  34.41900 1.62900 27.69300
C  37.14000 2.31500 25.36100
C  34.07000 -0.06200 25.96500
C  33.56300 -0.49700 24.55200
N  33.39600 2.66000 30.32700
C  32.61600 2.47000 29.22700
C  31.25200 2.96500 29.53700
C  31.31800 3.17700 30.95100
C  32.66500 2.88100 31.36700
C  30.07800 2.96800 28.64800
C  30.50100 3.37600 32.15100
O  29.34400 3.76200 32.23900
C  31.49900 3.34300 33.29300
C  31.42700 4.62900 34.02600
O  31.76100 5.73000 33.59000
O  30.78900 4.45500 35.24100
C  30.18800 5.58700 35.89500
H  38.15700 2.22100 34.26000
H  38.57300 1.17300 27.62900
H  32.32900 1.94900 27.22200
H  33.75000 3.77400 35.27700
H  36.20500 2.30000 35.72600
H  35.61100 4.98500 36.06300
H  36.49300 5.07800 34.51100
H  37.24700 4.31500 35.95600
H  34.25600 0.75300 35.46500
H  32.64700 1.42700 35.09900
H  33.43400 0.73300 37.60600
H  32.14500 1.73600 37.14400
H  41.40000 1.26600 32.58600
H  40.43400 -0.09300 33.12300
H  40.22000 1.57800 33.82200
H  42.61200 -0.68100 29.66500
H  41.66200 -0.88200 31.09200
H  42.54100 0.72800 30.64800
H  36.80000 0.30300 26.02100
H  34.38900 1.97900 25.50300
H  37.91700 1.86000 24.74600
H  37.70300 2.95700 26.04000
H  36.37400 2.85300 24.80100
H  33.30300 -0.36300 26.67900
H  34.81800 -0.82200 26.19200
H  33.72200 0.27500 23.79800
H  32.51800 -0.79300 24.64400
H  34.16600 -1.29800 24.12500
H  30.31200 3.38000 27.66700
H  29.37200 3.63600 29.14100
H  29.66000 1.96300 28.58300
H  31.02800 2.63500 33.97600
H  29.69200 6.09900 35.07000
H  30.85800 6.18800 36.51000
H  29.34200 5.20200 36.46500
Mg 16.39300 52.88300 26.51200
C  18.42400 51.34000 29.15300
C  14.12200 53.68300 28.98800
C  14.56400 54.02000 24.18000
C  18.69700 51.53900 24.23600
N  16.24300 52.45700 28.83200
C  17.25800 51.96700 29.61400
C  16.89500 52.31100 31.03100
C  15.36300 52.59200 30.90800
C  15.26200 52.98700 29.50200
C  14.44400 51.32400 31.25500
C  17.79900 53.44300 31.48400
C  17.87600 53.77300 33.01700
H  16.96100 53.01400 34.02800
N  14.63300 53.85300 26.59700
C  13.84700 54.11200 27.67800
C  12.66700 54.83500 27.26300
C  12.74900 54.92800 25.85600
C  13.99900 54.28600 25.43900
C  11.49200 55.19800 28.16800
C  11.68000 55.42000 24.81900
O  11.94000 55.46200 23.60900
C  10.25500 55.92000 25.30000
N  16.54700 52.68900 24.51000
C  15.63900 53.30300 23.76300
C  15.80100 53.01600 22.28900
C  17.28800 52.37700 22.29900
C  17.62300 52.25500 23.75000
C  14.72000 52.20700 21.69700
C  18.40200 53.16700 21.52900
C  19.29600 52.24200 20.73700
N  18.22000 51.71700 26.60400
C  19.04200 51.23100 25.59100
C  20.21300 50.62100 26.09700
C  20.00700 50.64400 27.48800
C  18.78400 51.30400 27.75300
C  21.36600 49.96300 25.36600
C  20.67500 50.26000 28.70900
O  21.78800 49.78000 28.85900
C  19.71800 50.80300 29.91000
C  19.35400 49.68100 30.84000
O  19.07700 48.53300 30.53400
O  19.49600 50.03000 32.16400
C  19.55300 48.92500 33.17600
H  13.32100 53.79300 29.72200
H  13.95200 54.42600 23.37100
H  19.51300 51.28300 23.55600
H  17.16900 51.51500 31.72400
H  15.02800 53.35700 31.60800
H  14.29900 51.22700 32.33100
H  15.03400 50.53500 30.78800
H  13.50800 51.42500 30.70500
H  17.53300 54.37200 30.97700
H  18.81800 53.35500 31.10900
H  17.49400 54.79400 33.01700
H  18.87900 53.84000 33.43800
H  10.76000 54.39200 28.22100
H  10.90600 56.05700 27.84100
H  11.98800 55.45100 29.10500
H  10.35300 56.88000 25.80700
H  9.95300 55.13000 25.98700
H  9.63800 56.12200 24.42400
H  15.85300 54.01100 21.84800
H  17.25200 51.34600 21.94700
H  15.23400 51.54300 21.00300
H  13.91500 52.74900 21.20000
H  14.21700 51.61600 22.46300
H  19.03700 53.80500 22.14500
H  17.91400 53.87700 20.86100
H  19.27000 51.20700 21.07700
H  20.34300 52.43700 20.96700
H  19.14500 52.37700 19.66600
H  22.30300 49.96300 25.92400
H  21.60200 50.49700 24.44600
H  21.18400 48.88800 25.33600
H  20.17600 51.59600 30.50000
H  19.54200 49.45300 34.13000
H  20.42600 48.28100 33.07500
H  18.62300 48.36800 33.06200

