158

Mg 35.20400 1.68500 29.38500
C  32.90000 2.94900 31.81100
C  37.62900 1.79300 31.66300
C  37.49100 1.09900 27.01900
C  32.71000 2.17200 26.98800
N  35.27800 2.38000 31.46700
C  34.18100 2.64300 32.29100
C  34.71700 2.69900 33.70700
C  36.27500 2.61900 33.58100
C  36.43600 2.26200 32.13800
C  37.04600 3.87800 33.84600
C  34.02000 1.61200 34.56500
C  33.71100 2.10300 35.97200
H  34.70600 2.96900 36.70100
N  37.16600 1.21400 29.46600
C  38.02600 1.31600 30.45800
C  39.29300 0.73300 30.12200
C  39.18700 0.40000 28.76300
C  37.90500 0.99000 28.35500
C  40.51500 0.52700 31.04000
C  40.23200 -0.27800 27.84200
O  40.09200 -0.33600 26.63400
C  41.46700 -0.90100 28.39300
N  35.10000 1.67600 27.36200
C  36.20100 1.45900 26.55800
C  35.76900 1.47700 25.08800
C  34.22100 1.60800 25.06700
C  33.98700 1.77000 26.59400
C  36.40100 2.55300 24.25000
C  33.45300 0.42700 24.41300
C  32.40000 0.71300 23.29900
N  33.12300 2.40000 29.32500
C  32.26100 2.58000 28.31500
C  30.95800 3.09300 28.77600
C  31.17300 3.19200 30.16200
C  32.51700 2.80200 30.44100
C  29.68400 3.35000 28.02100
C  30.63900 3.71900 31.44600
O  29.51000 4.20400 31.67700
C  31.62000 3.36000 32.53400
C  31.71700 4.48400 33.50900
O  32.40400 5.45700 33.30300
O  30.77800 4.32700 34.53300
C  30.98300 5.23200 35.67500
H  38.39200 1.63800 32.42800
H  38.17500 0.73200 26.25100
H  31.98600 2.27500 26.17700
H  34.41000 3.71300 33.96600
H  36.66000 1.78000 34.16100
H  37.93100 3.89600 33.21000
H  37.50800 4.03500 34.82100
H  36.42500 4.72600 33.55600
H  34.69000 0.75400 34.62000
H  33.12300 1.35100 34.00300
H  33.56700 1.20800 36.57800
H  32.80300 2.70500 35.96900
H  40.44200 1.03500 32.00200
H  41.37200 0.96200 30.52500
H  40.62100 -0.55400 31.13300
H  41.37500 -1.68100 29.14900
H  42.14500 -0.08100 28.63100
H  41.97700 -1.33700 27.53400
H  36.01300 0.48800 24.69900
H  33.80500 2.46900 24.54400
H  36.90800 3.17000 24.99100
H  35.68700 3.22900 23.78100
H  37.06300 2.26300 23.43400
H  32.99200 -0.25400 25.12900
H  34.04300 -0.28700 23.83900
H  31.69000 1.48500 23.59500
H  31.96400 -0.27200 23.13000
H  32.82800 0.86000 22.30800
H  28.94600 2.57200 28.21500
H  29.81400 3.31200 26.93900
H  29.40500 4.32200 28.42600
H  31.22500 2.57400 33.17800
H  30.30800 6.08700 35.64900
H  31.96700 5.70000 35.64000
H  30.80000 4.69300 36.60400
Mg 37.29100 50.21400 24.18400
C  36.79100 48.69500 27.46400
C  36.87400 53.19500 25.88100
C  37.37400 51.65600 21.17100
C  37.67400 47.10100 22.96600
N  36.65000 50.83200 26.44900
C  36.55300 50.05700 27.51800
C  36.57700 50.91500 28.88200
C  36.44900 52.38300 28.37000
C  36.64000 52.10800 26.81200
C  35.09900 53.10700 28.69200
C  37.83000 50.69100 29.84900
C  37.49800 50.20400 31.30600
H  36.12100 50.65600 31.86100
N  37.16900 52.16100 23.63000
C  37.06100 53.20400 24.44300
C  37.02900 54.33400 23.59500
C  37.14500 53.96300 22.25300
C  37.21300 52.53200 22.26600
C  36.78300 55.78000 24.11200
C  37.16500 54.84800 21.01500
O  37.29800 54.34500 19.84300
C  37.10100 56.34500 21.11700
N  37.17100 49.47700 22.32300
C  37.46400 50.25400 21.20500
C  37.62800 49.38900 19.91900
C  38.11800 48.05500 20.58300
C  37.58600 48.19900 22.03800
C  36.40500 49.25300 18.93000
C  39.66400 47.68500 20.38900
C  39.87500 46.32300 19.66400
N  37.15900 48.20800 24.90600
C  37.32700 47.02600 24.31300
C  37.31800 45.94400 25.29300
C  37.16700 46.56200 26.52200
C  37.03600 47.96800 26.25900
C  37.53500 44.52000 25.04700
C  37.02300 46.28700 27.90700
O  37.16500 45.25200 28.55400
C  36.76000 47.66000 28.62100
C  35.46900 47.56300 29.30800
O  34.40000 47.88800 28.81300
O  35.53300 47.00500 30.51900
C  34.29300 46.75400 31.29400
H  36.88100 54.18300 26.34600
H  37.40300 51.99900 20.13400
H  38.09100 46.19300 22.52700
H  35.68200 50.69100 29.46300
H  37.33800 52.94800 28.64900
H  35.38900 54.07000 29.11400
H  34.51800 52.63100 29.48200
H  34.42900 53.31800 27.85900
H  38.44500 51.59000 29.88700
H  38.50200 50.00100 29.33900
H  38.22000 50.58500 32.02800
H  37.48100 49.11400 31.33000
H  36.22900 55.81100 25.05100
H  36.05900 56.19300 23.41000
H  37.64300 56.44700 24.16800
H  36.15200 56.69800 21.52000
H  37.15000 56.71400 20.09200
H  37.98000 56.87900 21.47600
H  38.46700 49.75100 19.32600
H  37.59100 47.21400 20.13100
H  35.59300 49.94700 19.14900
H  35.99900 48.24400 18.86000
H  36.89000 49.59300 18.01600
H  40.05800 47.80700 21.39800
H  40.24200 48.35900 19.75800
H  39.89000 45.53000 20.41200
H  40.88300 46.31900 19.24900
H  39.16500 46.28500 18.83900
H  37.94600 44.36700 24.04900
H  36.53300 44.09300 25.00400
H  38.10400 44.26100 25.94000
H  37.69900 47.79600 29.15900
H  33.63900 47.61300 31.14000
H  34.50600 46.55200 32.34300
H  33.67000 45.99600 30.81900

