158

Mg 37.21500 50.49500 24.96400
C  37.57800 48.55000 27.94400
C  35.59000 52.88800 26.78900
C  36.26000 52.14000 22.01500
C  38.21100 47.73700 23.10900
N  36.57100 50.59000 27.09800
C  36.88700 49.79500 28.13400
C  36.64600 50.49200 29.47000
C  35.78300 51.66200 29.07200
C  35.92300 51.74400 27.53100
C  34.36100 51.60300 29.70400
C  37.98700 50.75700 30.14900
C  37.98700 50.25700 31.56100
H  36.75400 50.44400 32.42900
N  36.22300 52.33300 24.46300
C  35.65200 53.16300 25.38100
C  34.95500 54.25200 24.73100
C  35.21400 54.09100 23.33300
C  35.90100 52.82800 23.20900
C  34.16300 55.17900 25.47700
C  34.78900 54.96700 22.14800
O  35.17200 54.70600 21.00300
C  33.82900 56.20800 22.30600
N  37.17500 49.98200 22.87200
C  36.75800 50.80900 21.90500
C  37.03900 50.18200 20.53200
C  37.97800 48.93300 20.87800
C  37.73800 48.84300 22.39100
C  35.71900 49.98400 19.71900
C  39.48900 49.05000 20.54600
C  40.08200 47.87700 19.66300
N  37.96600 48.61800 25.35700
C  38.27800 47.57800 24.55400
C  38.58900 46.39600 25.24000
C  38.46000 46.77200 26.62700
C  37.95700 48.10800 26.69200
C  38.89400 45.11800 24.65200
C  38.44900 46.30100 27.96900
O  38.81300 45.19700 28.38000
C  38.10200 47.43800 28.95000
C  36.98400 46.86600 29.70200
O  35.79700 46.78100 29.35600
O  37.48400 46.48700 30.95200
C  36.54300 45.81300 31.86900
H  35.03600 53.63900 27.35600
H  36.06900 52.50500 21.00400
H  38.75800 47.01200 22.50300
H  36.07300 49.76400 30.04600
H  36.25500 52.51300 29.56300
H  33.70200 51.66100 28.83800
H  34.12700 52.51600 30.25200
H  34.09400 50.76100 30.34300
H  38.28600 51.79200 29.97700
H  38.68600 50.18800 29.53600
H  38.67300 50.90000 32.11300
H  38.21800 49.19100 31.54100
H  34.00600 56.07300 24.87400
H  34.66500 55.48900 26.39400
H  33.21100 54.75800 25.80100
H  33.51600 56.51800 21.30900
H  34.42300 57.05800 22.64200
H  33.00600 56.06600 23.00600
H  37.59700 50.91300 19.94600
H  37.48400 48.07000 20.43300
H  34.87400 49.94100 20.40600
H  35.77100 49.05900 19.14400
H  35.54300 50.79200 19.01000
H  40.10200 49.14300 21.44300
H  39.52700 49.89800 19.86200
H  41.08100 48.11800 19.30000
H  39.44700 47.87100 18.77700
H  40.21200 46.92300 20.17300
H  38.37100 44.27100 25.09400
H  39.95700 44.87700 24.67200
H  38.72800 45.06400 23.57600
H  38.88700 47.83300 29.59400
H  35.96700 45.11400 31.26200
H  36.00400 46.44500 32.57500
H  37.18300 45.12800 32.42500
Mg -1.54700 34.26000 26.70800
C  -3.32200 32.52800 29.15800
C  -0.24000 36.31600 29.12600
C  -0.17200 36.00100 24.27900
C  -3.32800 32.31000 24.25400
N  -1.95800 34.59000 28.88000
C  -2.46600 33.55500 29.65000
C  -2.26600 33.87300 31.15800
C  -1.33400 35.18600 31.05600
C  -1.22000 35.46400 29.62800
C  -1.74900 36.46000 31.84500
C  -1.69300 32.60300 31.83300
C  -2.53000 31.95700 32.99800
H  -1.72800 31.89500 34.38400
N  -0.17100 35.89300 26.74700
C  0.26000 36.58800 27.79500
C  1.19400 37.62900 27.36900
C  1.10700 37.55300 25.93600
C  0.16900 36.49400 25.58900
C  1.97100 38.51600 28.34900
C  1.83400 38.44600 24.88800
O  1.79900 38.32100 23.63000
C  2.64700 39.55200 25.45900
N  -1.86000 34.26500 24.60100
C  -1.03100 35.03600 23.80600
C  -1.23000 34.74100 22.27900
C  -1.83300 33.31400 22.40800
C  -2.46700 33.32700 23.84200
C  -2.09400 35.81500 21.52800
C  -0.87400 32.14600 21.99900
C  -0.05200 31.45600 23.09700
N  -2.99400 32.68700 26.66000
C  -3.56300 31.96600 25.60700
C  -4.30800 30.83200 26.15100
C  -4.27500 31.05200 27.54800
C  -3.46900 32.22400 27.81900
C  -5.07700 29.80100 25.43500
C  -4.73900 30.50300 28.75800
O  -5.42500 29.49600 28.95700
C  -4.11400 31.39400 29.89100
C  -5.17100 31.88600 30.75000
O  -5.92700 32.81600 30.34400
O  -5.43200 31.06000 31.80800
C  -6.48600 31.51900 32.71500
H  0.32000 36.73600 29.96400
H  0.14900 36.60300 23.42600
H  -3.68200 31.60600 23.49800
H  -3.26400 34.05200 31.55800
H  -0.34800 34.99900 31.48000
H  -2.65800 36.29300 32.42400
H  -1.88100 37.29400 31.15600
H  -0.98100 36.78700 32.54500
H  -0.67900 32.77800 32.19300
H  -1.49200 31.77100 31.15800
H  -2.74400 30.91400 32.76800
H  -3.40800 32.54700 33.26400
H  1.91100 39.57100 28.08300
H  3.03100 38.27000 28.29200
H  1.73800 38.32400 29.39700
H  1.96200 40.24400 25.94800
H  3.23800 39.97000 24.64400
H  3.32200 39.04200 26.14700
H  -0.28300 34.65200 21.74600
H  -2.78400 33.21200 21.88400
H  -2.12900 36.62700 22.25400
H  -3.05800 35.44500 21.18000
H  -1.60800 36.13100 20.60500
H  -0.14700 32.58400 21.31400
H  -1.38100 31.34400 21.46200
H  -0.35400 31.59700 24.13500
H  0.98800 31.76100 22.97700
H  -0.06300 30.38200 22.91200
H  -6.15400 29.96500 25.42400
H  -4.93900 28.79500 25.83100
H  -4.64400 29.74400 24.43600
H  -3.64700 30.67400 30.56400
H  -6.21800 32.50900 33.08500
H  -6.60800 30.90900 33.61000
H  -7.42300 31.71700 32.19500

