158

Mg 8.80500 2.95900 27.70300
C  10.35900 1.91000 30.57100
C  6.91500 5.13000 29.70000
C  7.39300 4.23500 25.00400
C  10.60500 0.72500 25.85100
N  8.45200 3.21500 29.94000
C  9.39300 2.90700 30.87800
C  8.95900 3.45900 32.31000
C  7.65800 4.25900 31.88200
C  7.65000 4.19700 30.36900
C  6.37500 3.55500 32.52800
C  10.07000 4.33100 32.94700
C  9.66600 5.32600 33.98900
H  10.51600 5.20700 35.18600
N  7.27100 4.43500 27.35200
C  6.65700 5.26700 28.31700
C  5.69000 6.21500 27.70200
C  5.91300 6.07400 26.29800
C  6.88300 4.87400 26.16000
C  4.66600 7.06000 28.49900
C  5.31600 6.87500 25.22700
O  5.65800 6.71500 24.08600
C  4.33400 8.06100 25.46800
N  8.87200 2.44300 25.76900
C  8.14900 3.08300 24.88500
C  8.33800 2.62100 23.41500
C  9.53400 1.57600 23.62800
C  9.62600 1.53900 25.16200
C  7.10000 1.88700 22.74400
C  10.87900 1.80700 22.86300
C  11.31200 0.77200 21.79500
N  10.16700 1.40600 28.11300
C  10.88900 0.63900 27.24200
C  11.89400 -0.11600 27.99800
C  11.73700 0.31900 29.32900
C  10.65700 1.27400 29.29000
C  12.78700 -1.18000 27.50400
C  12.24400 0.28800 30.69000
O  13.19600 -0.31000 31.11500
C  11.30900 1.29600 31.58400
C  10.66600 0.59600 32.69600
O  9.63500 -0.08000 32.55500
O  11.28400 0.94400 33.87600
C  10.39200 0.88700 35.08400
H  6.35000 5.82900 30.32000
H  6.90700 4.57200 24.08600
H  11.29100 0.17700 25.20100
H  8.65300 2.64100 32.96200
H  7.69500 5.33100 32.07700
H  6.07500 2.78700 31.81500
H  5.57300 4.24200 32.79900
H  6.60800 3.00600 33.44000
H  10.75500 4.85700 32.28200
H  10.70900 3.62900 33.48300
H  8.65500 5.07700 34.31100
H  9.66600 6.33100 33.56700
H  4.96700 8.10200 28.39000
H  4.79700 6.73600 29.53100
H  3.62000 6.97000 28.20600
H  5.01300 8.89400 25.64800
H  3.55800 7.81000 26.19200
H  3.76400 8.22200 24.55300
H  8.62600 3.42400 22.73600
H  9.23800 0.55800 23.37500
H  7.17800 0.80900 22.60200
H  6.78100 2.45100 21.86700
H  6.27000 2.10100 23.41700
H  11.65300 1.92900 23.62100
H  10.80500 2.79100 22.39900
H  11.52300 1.23500 20.83100
H  10.50700 0.05400 21.64000
H  12.22800 0.23400 22.04100
H  12.34500 -1.70100 26.65500
H  12.80500 -1.96800 28.25800
H  13.75500 -0.92500 27.07100
H  11.90100 2.11100 32.00200
H  9.58600 1.61600 35.00700
H  11.06300 1.09400 35.91800
H  9.98900 -0.09100 35.34500
Mg 6.76000 53.38000 41.24600
C  5.81100 49.98500 41.19700
C  9.94700 52.40300 40.32700
C  7.56000 56.59200 40.62700
C  3.34900 54.25100 41.58800
N  7.65900 51.43600 40.63500
C  7.16800 50.17100 40.82400
C  8.13600 49.07300 40.31300
C  9.51500 49.86000 40.61900
C  9.03300 51.34200 40.43100
C  10.18100 49.51500 41.99100
C  8.07200 48.64700 38.79400
C  7.30400 49.67300 37.85500
H  6.64300 49.06500 36.59200
N  8.54400 54.36700 40.60500
C  9.78400 53.78000 40.39400
C  10.76600 54.80400 40.22700
C  10.09400 56.05900 40.40300
C  8.66400 55.72000 40.55700
C  12.21400 54.53900 39.84400
C  10.70200 57.38400 40.38000
O  11.93600 57.45000 40.22000
C  9.96500 58.66000 40.66100
N  5.61600 55.12200 41.16200
C  6.18500 56.36000 40.87600
C  5.16900 57.44900 40.97300
C  3.85900 56.69500 41.17700
C  4.27800 55.26300 41.33400
C  5.56800 58.42600 42.08500
C  2.92200 56.85600 39.94100
C  1.46000 56.98600 40.24900
N  4.91200 52.37500 41.65100
C  3.65800 52.84200 41.78200
C  2.76800 51.74300 41.98800
C  3.59200 50.58900 41.98700
C  4.89300 51.02900 41.59000
C  1.22800 51.78400 42.01200
C  3.63900 49.13700 42.04700
O  2.79700 48.29100 42.27200
C  5.03700 48.67300 41.44200
C  4.78700 47.89200 40.14800
O  4.44100 48.49100 39.12100
O  4.94200 46.52100 40.22600
C  4.61800 45.70900 38.95400
H  10.98100 52.06300 40.23900
H  7.85200 57.64200 40.69400
H  2.28400 54.46700 41.69300
H  8.06700 48.13600 40.86500
H  10.32900 49.48300 40.00000
H  9.56400 48.81400 42.55400
H  10.28000 50.43800 42.56300
H  11.21300 49.17300 41.91900
H  7.63200 47.65000 38.76300
H  9.06000 48.47500 38.36800
H  8.02900 50.39700 37.48200
H  6.66000 50.37900 38.38000
H  12.90600 55.37900 39.77200
H  12.23100 54.12100 38.83800
H  12.54000 53.75100 40.52300
H  9.50100 59.04500 39.75200
H  10.67400 59.41000 41.01200
H  9.25800 58.69800 41.49000
H  5.26100 57.95400 40.01200
H  3.26600 56.90900 42.06600
H  6.55100 58.21700 42.50700
H  4.86700 58.31200 42.91200
H  5.61700 59.47300 41.78600
H  2.99400 55.97200 39.30600
H  3.23700 57.80500 39.50900
H  1.11500 58.00000 40.04600
H  1.21800 56.70300 41.27300
H  1.02300 56.30800 39.51400
H  0.74500 52.73500 42.23600
H  0.86800 51.01700 42.69700
H  0.85600 51.51700 41.02200
H  5.59000 48.06900 42.16100
H  5.43500 45.73100 38.23300
H  3.74200 46.08900 38.42900
H  4.56900 44.68500 39.32500

