158

Mg 48.10400 16.42200 29.61000
C  45.54700 16.10800 32.00800
C  50.01700 17.85500 32.06600
C  50.21700 16.78800 27.23100
C  45.79200 14.87000 27.31300
N  47.72100 17.04100 31.80500
C  46.72700 16.61400 32.54800
C  47.01200 16.81400 33.95300
C  48.41700 17.61900 34.01300
C  48.77100 17.52400 32.53900
C  48.39400 19.04300 34.53000
C  46.92200 15.56100 34.87800
C  47.78000 15.50900 36.10400
H  47.83500 16.65200 37.10900
N  49.89600 17.22900 29.62800
C  50.60500 17.65400 30.74700
C  51.96800 18.01500 30.27000
C  51.95300 17.89700 28.81000
C  50.63700 17.26800 28.50700
C  52.98400 18.52700 31.26800
C  53.04500 18.26900 27.80800
O  52.92700 18.18400 26.56400
C  54.31600 18.88600 28.32400
N  47.94100 16.12900 27.41500
C  49.04200 16.26000 26.71200
C  48.83600 15.70700 25.28500
C  47.47100 14.91900 25.37100
C  47.05500 15.29700 26.83700
C  48.81900 16.86300 24.20900
C  47.54200 13.33700 25.24700
C  46.91600 12.68500 23.94000
N  46.19700 15.52800 29.64600
C  45.39600 14.96400 28.64800
C  44.13300 14.51800 29.24900
C  44.17300 14.97500 30.56500
C  45.37200 15.63300 30.71900
C  43.02500 13.78600 28.49200
C  43.41100 14.90700 31.85800
O  42.34500 14.42100 32.18200
C  44.28000 15.69600 32.82100
C  43.62900 16.83300 33.63300
O  43.76600 18.04000 33.49400
O  43.02100 16.12600 34.64400
C  42.61600 16.99200 35.74000
H  50.77500 18.28500 32.72400
H  51.05700 16.64600 26.54800
H  45.28700 14.11700 26.70300
H  46.22800 17.51100 34.25000
H  49.18700 16.96600 34.42300
H  49.24900 19.27200 35.16500
H  47.53800 19.12300 35.20000
H  48.43600 19.83100 33.77900
H  47.12900 14.69900 34.24500
H  45.90000 15.52200 35.25600
H  48.73900 15.13200 35.74800
H  47.37600 14.65700 36.65100
H  53.48100 17.64300 31.66800
H  52.48700 18.99700 32.11700
H  53.68200 19.21900 30.79800
H  54.63600 18.23300 29.13700
H  54.12900 19.91600 28.62800
H  55.06400 18.83800 27.53300
H  49.62200 14.97300 25.10100
H  46.74800 15.26000 24.63000
H  49.45600 16.68700 23.34200
H  49.16700 17.77200 24.70000
H  47.81200 17.02700 23.82800
H  46.92300 12.91600 26.03900
H  48.55000 12.99400 25.48000
H  47.57000 12.05000 23.34200
H  46.69700 13.51900 23.27200
H  46.02500 12.09300 24.14700
H  43.02400 14.01300 27.42600
H  42.11900 14.20100 28.93500
H  43.14000 12.71000 28.61900
H  44.57500 14.96300 33.57100
H  41.89700 16.44100 36.34700
H  41.92000 17.80500 35.52900
H  43.42400 17.08800 36.46500
Mg 42.45600 41.06200 26.66900
C  41.73800 43.58700 29.02600
C  43.85200 39.21700 29.25000
C  43.21700 38.85200 24.39100
C  41.72400 43.41100 24.18000
N  42.77800 41.34300 28.94000
C  42.28500 42.43800 29.66100
C  42.39900 42.17100 31.17600
C  43.39900 40.91800 31.15200
C  43.38700 40.44800 29.66700
C  44.93500 41.18800 31.63000
C  40.92900 41.93000 31.80600
C  40.61000 42.90400 32.90700
H  39.98200 42.44700 34.28000
N  43.38500 39.24500 26.73800
C  43.84800 38.64300 27.92900
C  44.33800 37.27800 27.59500
C  44.07700 37.10400 26.19700
C  43.55700 38.43100 25.69400
C  45.03500 36.33500 28.57200
C  44.33500 35.84400 25.30700
O  44.21900 35.90100 24.09600
C  44.60500 34.59900 25.89400
N  42.50600 41.24200 24.62000
C  42.76300 40.09600 23.87400
C  42.53000 40.25500 22.37000
C  41.95800 41.68300 22.32900
C  42.13200 42.20400 23.76600
C  43.85000 40.03900 21.52300
C  40.48400 41.76300 21.79000
C  40.00200 43.18400 21.36200
N  41.68900 43.00700 26.60700
C  41.42500 43.87000 25.55200
C  40.99700 45.16800 25.97400
C  41.00300 45.05400 27.37900
C  41.52100 43.76100 27.65900
C  40.68900 46.36800 25.18700
C  40.61900 45.76400 28.68100
O  40.10300 46.83200 28.97500
C  41.17900 44.78100 29.74300
C  42.28500 45.51700 30.35500
O  43.23100 45.93500 29.75500
O  42.12400 45.69300 31.71700
C  43.10600 46.57400 32.46500
H  44.15100 38.56700 30.07600
H  43.22500 38.04800 23.65200
H  41.43500 44.15000 23.43000
H  42.96800 42.99900 31.59800
H  43.00800 40.06300 31.70200
H  44.85600 42.16100 32.11400
H  45.50900 41.18200 30.70300
H  45.27900 40.46200 32.36700
H  40.90200 40.96000 32.30200
H  40.05500 41.92500 31.15500
H  39.84600 43.58500 32.53000
H  41.46900 43.53500 33.13700
H  46.09700 36.47000 28.77800
H  44.86100 35.26700 28.44400
H  44.61800 36.55200 29.55600
H  43.89900 34.49100 26.71800
H  45.61300 34.53900 26.30300
H  44.34900 33.80600 25.19100
H  41.76400 39.56000 22.02700
H  42.57700 42.30300 21.68000
H  44.62300 40.80500 21.58900
H  43.51000 40.03600 20.48700
H  44.21200 39.04500 21.78500
H  39.94700 41.46800 22.69100
H  40.31900 40.96300 21.06800
H  39.40600 43.54700 22.19900
H  39.35800 43.28200 20.48900
H  40.92100 43.76800 21.30300
H  41.22100 47.20100 25.64600
H  39.63000 46.61300 25.26500
H  41.10400 46.26400 24.18500
H  40.45400 44.59100 30.53400
H  43.51700 45.93300 33.24500
H  42.71400 47.53500 32.79800
H  43.99900 46.81500 31.88800

