158

Mg -2.25400 17.36400 27.53400
C  -2.95800 15.11500 30.31100
C  -2.85600 19.93500 29.62300
C  -2.44200 19.39300 24.86800
C  -2.42800 14.62700 25.51700
N  -2.83300 17.47300 29.70800
C  -3.01400 16.50800 30.68300
C  -3.22600 17.09700 32.08200
C  -3.09800 18.61600 31.72600
C  -2.93800 18.70500 30.20500
C  -4.25800 19.53900 32.33600
C  -2.17400 16.54900 33.07600
C  -1.68700 17.43700 34.28800
H  -1.64700 16.83200 35.71300
N  -2.33700 19.40200 27.23800
C  -2.60200 20.32400 28.24100
C  -2.50000 21.64400 27.68600
C  -2.42600 21.51600 26.27700
C  -2.38200 20.05300 26.11000
C  -2.52200 22.91200 28.60700
C  -2.30400 22.53700 25.25300
O  -2.21700 22.28000 24.06100
C  -2.20700 24.03700 25.74200
N  -2.58100 17.07100 25.50200
C  -2.48000 18.07100 24.58400
C  -2.54400 17.52900 23.15300
C  -2.46200 15.98300 23.36900
C  -2.37900 15.88200 24.87700
C  -3.78400 17.96800 22.24100
C  -1.29900 15.32300 22.63500
C  0.18800 15.48100 23.22900
N  -2.54400 15.24500 27.85800
C  -2.49800 14.28000 26.89400
C  -2.59300 12.97400 27.49200
C  -2.79900 13.27100 28.85400
C  -2.83300 14.65200 28.98600
C  -2.40100 11.63400 26.91800
C  -3.00400 12.65900 30.13100
O  -3.03000 11.49800 30.46000
C  -3.15300 13.85500 31.09500
C  -2.04000 13.61800 32.03300
O  -0.87000 13.80700 31.76300
O  -2.52700 13.02300 33.11600
C  -1.49700 12.69300 34.12300
H  -2.88500 20.72500 30.37700
H  -2.25600 19.99000 23.97300
H  -2.41300 13.81600 24.78700
H  -4.23900 16.85800 32.40500
H  -2.11500 18.91500 32.09000
H  -3.85200 20.24700 33.05800
H  -5.07100 18.95400 32.76500
H  -4.82100 20.00600 31.52700
H  -1.24300 16.36400 32.54000
H  -2.57300 15.71500 33.65400
H  -2.11300 18.44000 34.25300
H  -0.63800 17.69600 34.14400
H  -2.63100 22.64300 29.65800
H  -3.38200 23.53200 28.35400
H  -1.66800 23.51300 28.29400
H  -2.13400 24.71100 24.88800
H  -1.26400 24.11000 26.28400
H  -3.18200 24.17300 26.20900
H  -1.58100 17.86300 22.76700
H  -3.39300 15.58500 22.96500
H  -4.43400 17.15700 21.91300
H  -3.46800 18.47300 21.32700
H  -4.43100 18.69200 22.73500
H  -1.42400 15.72800 21.63100
H  -1.63000 14.30200 22.44200
H  0.78500 15.92600 22.43300
H  0.48100 14.47200 23.51900
H  0.30300 16.13300 24.09400
H  -3.25800 10.96000 26.95500
H  -1.61500 11.24800 27.56700
H  -2.04400 11.78400 25.89900
H  -4.12200 13.76600 31.58600
H  -2.05300 12.70100 35.06000
H  -0.65300 13.36700 34.27200
H  -1.07900 11.69100 34.02100
Mg 29.36700 58.89400 41.26000
C  26.76300 56.91000 39.99600
C  31.56700 56.86600 39.84100
C  31.65800 61.37600 41.66200
C  26.83600 61.18700 42.38200
N  29.15000 57.17600 39.88600
C  28.05600 56.48100 39.62100
C  28.34000 55.34400 38.64300
C  29.87500 55.16300 38.85300
C  30.24400 56.45800 39.63200
C  30.25800 53.79500 39.67600
C  27.85300 55.77800 37.25700
C  26.99800 54.77100 36.45500
H  27.34400 54.50100 34.99000
N  31.32700 59.12100 40.73700
C  32.10600 58.13500 40.26700
C  33.46600 58.53500 40.22600
C  33.57300 59.85300 40.82100
C  32.17700 60.16300 41.12800
C  34.55000 57.75200 39.40700
C  34.77700 60.72500 41.07100
O  35.92600 60.31200 40.78200
C  34.68300 62.05700 41.60500
N  29.27200 60.96800 42.00600
C  30.36300 61.76000 42.08800
C  29.94000 63.12800 42.56300
C  28.45700 63.06700 42.82000
C  28.16600 61.67900 42.32600
C  30.70300 63.77100 43.65000
C  27.59400 64.24100 42.14400
C  26.54300 64.70600 43.15200
N  27.20000 58.92800 41.41900
C  26.34100 59.91300 41.91100
C  25.01900 59.41500 41.74500
C  25.09000 58.26500 41.02600
C  26.47700 58.08600 40.76600
C  23.68100 60.08800 42.17200
C  24.40200 57.16700 40.44100
O  23.23200 56.94900 40.46300
C  25.42000 56.27400 39.68900
C  25.26600 54.98600 40.27100
O  25.79300 54.63300 41.35400
O  24.60500 54.16500 39.36300
C  24.85700 52.71100 39.52700
H  32.22700 56.04600 39.55000
H  32.28700 62.25400 41.82200
H  26.08200 61.86300 42.79100
H  27.88100 54.44400 39.05300
H  30.34900 55.17500 37.87200
H  29.35400 53.29800 40.02700
H  30.77000 54.00000 40.61700
H  30.77700 53.09300 39.02300
H  28.72100 55.95200 36.62200
H  27.29400 56.69000 37.46400
H  25.98400 55.16900 36.46900
H  26.87500 53.83700 37.00400
H  34.63600 56.74500 39.81500
H  35.56700 58.14600 39.39700
H  34.26200 57.64600 38.36100
H  34.22900 62.74600 40.89400
H  35.72400 62.38000 41.64500
H  34.26100 62.08300 42.60900
H  30.01400 63.84000 41.74100
H  28.25600 63.01900 43.89100
H  31.69300 63.33200 43.77100
H  30.25800 63.53400 44.61600
H  30.85600 64.84300 43.52900
H  27.03700 63.95100 41.25300
H  28.17600 65.13200 41.90600
H  25.57100 64.51100 42.70000
H  26.68600 65.78500 43.22100
H  26.58400 64.29500 44.16100
H  22.91000 59.36700 41.89900
H  23.53800 60.94000 41.50800
H  23.52500 60.44400 43.19000
H  25.19700 56.29700 38.62300
H  24.06700 52.25600 40.12400
H  25.69400 52.51500 40.19700
H  25.07400 52.11500 38.64000

