158

Mg 8.61600 3.50000 26.95400
C  9.87500 2.38800 30.05100
C  6.47800 5.64200 28.71200
C  7.18500 4.40100 24.00600
C  10.23500 0.99700 25.31100
N  8.05800 3.87000 29.20100
C  8.92400 3.42000 30.20400
C  8.44100 4.09400 31.50000
C  7.47900 5.19100 31.04600
C  7.24900 4.84600 29.59700
C  6.22000 5.25800 31.96300
C  9.69200 4.65900 32.28500
C  9.34500 5.32400 33.69200
H  9.82800 4.69900 35.00500
N  7.21900 4.99300 26.43300
C  6.43500 5.68400 27.29900
C  5.71200 6.75600 26.51800
C  5.91800 6.36100 25.10400
C  6.80600 5.16500 25.13400
C  4.80800 7.85000 27.16500
C  5.31400 7.02700 23.83500
O  5.60100 6.74500 22.65200
C  4.46000 8.32900 23.96800
N  8.70900 2.79100 24.83500
C  7.98300 3.29200 23.82300
C  8.30100 2.61600 22.47600
C  9.37100 1.62700 22.93100
C  9.44900 1.77000 24.48100
C  7.17300 1.97900 21.77200
C  10.81100 1.79300 22.24200
C  11.70900 2.98100 22.76700
N  9.79700 1.97400 27.48600
C  10.45500 1.04600 26.71700
C  11.20300 0.13700 27.55700
C  11.08800 0.65200 28.82000
C  10.14100 1.74200 28.77000
C  11.96000 -1.03700 27.02600
C  11.46700 0.49300 30.26100
O  12.18300 -0.30400 30.85300
C  10.76100 1.54200 31.03000
C  10.04800 0.94100 32.09300
O  8.89500 0.50600 32.05500
O  10.87200 0.87200 33.15800
C  10.28200 0.31900 34.41900
H  5.95700 6.38700 29.31700
H  6.77000 4.80700 23.08100
H  10.78800 0.14100 24.91900
H  7.93600 3.30200 32.05200
H  7.85500 6.20000 31.21800
H  6.08600 6.26000 32.37100
H  6.29900 4.46800 32.71000
H  5.40900 5.06700 31.26000
H  10.24900 5.34800 31.65000
H  10.36000 3.84300 32.56300
H  8.26800 5.32500 33.85800
H  9.66400 6.36400 33.76700
H  3.78300 7.71100 26.82200
H  5.10100 8.88200 26.97000
H  4.72000 7.67000 28.23700
H  5.13900 9.07700 24.37700
H  3.59100 8.21900 24.61600
H  4.20700 8.63900 22.95400
H  8.73600 3.40500 21.86200
H  9.15300 0.56300 22.83200
H  6.23400 2.06700 22.31800
H  7.43100 0.92100 21.73100
H  7.00900 2.36200 20.76500
H  10.67000 1.80600 21.16100
H  11.35600 0.87200 22.45100
H  11.16000 3.53600 23.52700
H  11.89700 3.68600 21.95800
H  12.70400 2.74700 23.14500
H  12.24600 -1.51300 27.96400
H  12.88700 -0.66900 26.58700
H  11.42400 -1.70900 26.35600
H  11.55300 2.13800 31.48500
H  9.77000 -0.64200 34.37600
H  9.67100 1.07800 34.90900
H  11.19300 0.18800 35.00300
Mg 47.61100 25.11700 27.84600
C  48.41000 27.27000 30.46700
C  46.94600 22.70600 30.27100
C  47.31200 22.95900 25.35400
C  49.11400 27.38300 25.61200
N  47.34700 25.09000 30.11800
C  47.81000 26.10600 30.95500
C  47.55900 25.78400 32.41300
C  47.01600 24.34900 32.28600
C  47.09500 24.00200 30.82900
C  47.60200 23.21400 33.20200
C  46.41200 26.73000 32.90900
C  45.83900 26.30000 34.28300
H  45.47200 27.38300 35.34000
N  47.20300 23.12700 27.77500
C  46.89600 22.28900 28.88900
C  46.61800 20.92500 28.43300
C  46.73300 21.02400 26.97900
C  47.16900 22.40700 26.61200
C  46.17400 19.71400 29.26900
C  46.34800 20.02100 25.96700
O  46.50100 20.20300 24.78200
C  45.67500 18.66000 26.24200
N  48.19700 25.20600 25.84500
C  47.85700 24.17300 24.98900
C  48.03900 24.59900 23.50700
C  48.32200 26.09700 23.60700
C  48.63700 26.21200 25.07300
C  49.19200 23.78300 22.73100
C  47.07100 27.00500 23.16700
C  47.44200 28.00600 22.06200
N  48.54800 26.98800 27.94600
C  49.15600 27.80600 26.94000
C  49.69200 28.95100 27.61700
C  49.44800 28.84200 28.99200
C  48.68700 27.62100 29.14400
C  50.43500 30.04900 26.90800
C  49.69300 29.37300 30.26400
O  50.28800 30.41700 30.59400
C  49.11100 28.38700 31.23200
C  50.22700 27.93400 32.17000
O  50.87800 26.95900 31.92300
O  50.27100 28.68700 33.32500
C  51.41700 28.34800 34.16200
H  46.78200 21.82400 30.89400
H  47.04500 22.35100 24.48800
H  49.46100 28.00000 24.78100
H  48.45700 25.94900 33.00900
H  45.99000 24.27700 32.64500
H  47.93400 22.30100 32.70700
H  47.03800 22.89700 34.07900
H  48.58900 23.55600 33.51600
H  45.59000 26.75400 32.19300
H  46.74700 27.76200 33.01400
H  46.51000 25.62800 34.81600
H  44.89900 25.80300 34.04400
H  46.61900 18.77600 28.93600
H  45.09500 19.68400 29.12400
H  46.49000 19.83400 30.30500
H  45.27900 18.12600 25.37900
H  44.81700 18.81200 26.89700
H  46.49300 18.06400 26.64800
H  47.08700 24.46300 22.99400
H  49.19600 26.37700 23.01800
H  50.12300 24.34100 22.62900
H  48.89200 23.65600 21.69100
H  49.34800 22.82900 23.23600
H  46.70700 27.50500 24.06500
H  46.27900 26.34600 22.81200
H  47.00500 27.62400 21.13900
H  48.52600 28.04800 21.95700
H  47.13300 29.00300 22.37600
H  50.96900 30.67300 27.62500
H  49.76800 30.69800 26.34000
H  51.20600 29.65900 26.24300
H  48.43100 28.87500 31.93100
H  52.28700 28.37800 33.50800
H  51.27500 27.37700 34.63600
H  51.53600 29.02400 35.00900

