158

Mg 26.04600 -0.57600 28.66500
C  27.87900 -0.78500 31.70100
C  23.23000 -0.71900 30.56000
C  24.31900 -0.46400 25.85100
C  29.07800 -1.00300 27.04800
N  25.65200 -0.85300 30.91500
C  26.52500 -0.69600 31.91700
C  25.76800 -0.36200 33.20400
C  24.27600 -0.58900 32.84400
C  24.36400 -0.76300 31.31500
C  23.47100 -1.61000 33.63600
C  26.14600 0.96900 33.93100
C  26.81000 0.76000 35.26300
H  26.44200 1.74300 36.37600
N  24.08700 -0.61800 28.22100
C  23.00700 -0.60100 29.14700
C  21.70000 -0.38800 28.46600
C  22.03000 -0.28400 27.10700
C  23.56700 -0.39200 27.00900
C  20.40300 -0.19200 29.18300
C  21.14300 0.05600 25.99600
O  21.50400 0.09200 24.82900
C  19.65900 0.41500 26.22000
N  26.63600 -0.96100 26.78500
C  25.74200 -0.70800 25.78800
C  26.38400 -0.79000 24.42800
C  27.90800 -0.71300 24.76400
C  27.89400 -0.88400 26.29200
C  25.94900 -1.97000 23.60400
C  28.74800 0.50600 24.28300
C  28.25500 1.87200 24.78500
N  28.10600 -0.94800 29.20900
C  29.16800 -1.13300 28.46800
C  30.31700 -1.20500 29.25600
C  29.88700 -1.08400 30.55400
C  28.53000 -0.93000 30.48700
C  31.68300 -1.47200 28.78900
C  30.29300 -1.08900 31.96500
O  31.37400 -1.39700 32.39300
C  28.96500 -0.78400 32.76300
C  28.76700 -1.78300 33.78200
O  28.08300 -2.83100 33.63500
O  29.42500 -1.45100 34.95100
C  29.21900 -2.47200 35.95900
H  22.28000 -0.66600 31.09600
H  23.76300 -0.41800 24.91300
H  30.03700 -1.13700 26.54300
H  26.02000 -1.12800 33.93700
H  23.72000 0.34000 32.97200
H  22.64500 -0.97300 33.95400
H  23.97400 -2.12900 34.45200
H  23.09600 -2.39700 32.98100
H  25.26400 1.60900 33.96800
H  26.86100 1.44700 33.26200
H  27.89200 0.80000 35.14400
H  26.54300 -0.25600 35.55500
H  19.91900 0.70400 28.79500
H  20.61200 -0.08100 30.24700
H  19.90000 -1.13900 28.98500
H  19.23400 0.62700 25.23900
H  19.55400 1.27600 26.88100
H  19.20200 -0.51700 26.55200
H  26.05200 0.15900 24.00800
H  28.34100 -1.57400 24.25500
H  25.09700 -1.67400 22.99200
H  25.74900 -2.84600 24.22100
H  26.75000 -2.32100 22.95400
H  28.89200 0.38100 23.21000
H  29.76100 0.32700 24.64400
H  27.93000 1.79800 25.82300
H  27.51800 2.35800 24.14500
H  29.03900 2.62900 24.81300
H  31.53900 -2.18900 27.98100
H  32.34900 -1.92700 29.52200
H  32.18100 -0.61600 28.33200
H  29.07200 0.21400 33.18800
H  29.70000 -3.37400 35.58000
H  28.15500 -2.62400 36.14100
H  29.71200 -2.19700 36.89100
Mg 26.34200 51.69100 26.31700
C  23.94100 52.68400 28.79700
C  28.32000 50.43100 28.92000
C  28.60500 50.66200 24.04100
C  24.18200 52.82900 23.88600
N  26.15600 51.69500 28.62200
C  25.09400 52.13100 29.39200
C  25.29900 51.80200 30.87300
C  26.78600 51.21000 30.88900
C  27.13500 51.08000 29.39900
C  27.87100 52.03000 31.72500
C  24.29800 50.83200 31.55600
C  24.03800 51.04000 33.04400
H  24.22100 49.84300 33.93900
N  28.32000 50.77500 26.41700
C  28.91500 50.34700 27.61800
C  30.17700 49.73800 27.30500
C  30.28900 49.72900 25.83900
C  29.01700 50.44600 25.37200
C  31.08900 49.18100 28.31300
C  31.51000 49.27400 25.03400
O  31.63700 49.55900 23.85800
C  32.58200 48.43900 25.68400
N  26.47800 51.97000 24.14300
C  27.57900 51.41900 23.44500
C  27.26900 51.41900 21.99600
C  25.71900 51.83200 21.94500
C  25.38800 52.30800 23.32000
C  28.23500 52.26100 21.13000
C  24.75700 50.69600 21.35400
C  23.95300 50.92100 20.06400
N  24.51900 52.75600 26.30200
C  23.80300 53.15400 25.21500
C  22.66100 53.81400 25.65100
C  22.61900 53.66300 27.02300
C  23.78900 52.93100 27.38100
C  21.56900 54.20900 24.76900
C  21.86500 53.83000 28.29900
O  20.79500 54.38500 28.44900
C  22.68600 53.13000 29.47200
C  22.98700 54.15600 30.46200
O  23.46900 55.29800 30.30900
O  22.61200 53.67400 31.67600
C  22.54300 54.52700 32.85200
H  29.05700 50.11500 29.66200
H  29.27900 50.13200 23.36400
H  23.41300 52.98600 23.12600
H  25.25200 52.74900 31.41100
H  26.76400 50.16900 31.21000
H  28.75300 52.25000 31.12400
H  28.03300 51.45300 32.63500
H  27.37900 52.94700 32.04900
H  24.66100 49.80500 31.58200
H  23.32700 50.74800 31.06800
H  23.05400 51.50700 33.09500
H  24.65000 51.89900 33.32000
H  30.65700 49.30200 29.30700
H  32.00300 49.77300 28.34100
H  31.21300 48.12500 28.07400
H  33.33000 48.14600 24.94700
H  32.20800 47.55000 26.19200
H  32.91200 49.20600 26.38500
H  27.30400 50.38400 21.65600
H  25.66600 52.69800 21.28500
H  29.23500 51.91700 21.39600
H  28.15700 53.24900 21.58500
H  27.95700 52.33000 20.07800
H  24.20500 50.20500 22.15600
H  25.36900 49.84800 21.04800
H  24.06000 50.28400 19.18600
H  24.24900 51.87200 19.62100
H  22.94700 51.15200 20.41600
H  21.86400 55.18000 24.37200
H  20.60500 54.29700 25.27100
H  21.53000 53.41600 24.02200
H  22.05500 52.36900 29.93200
H  21.50600 54.79100 33.06200
H  23.05900 55.47800 32.72200
H  23.06500 54.10700 33.71200

