158

Mg 46.16700 24.99500 28.77400
C  47.11200 27.44100 31.28800
C  45.18100 22.89000 31.19500
C  46.08900 22.64400 26.46200
C  47.38900 27.28000 26.39800
N  46.25500 25.16300 30.99300
C  46.51900 26.25400 31.80900
C  45.92800 26.02400 33.23200
C  45.71000 24.41400 33.22400
C  45.68700 24.11700 31.69100
C  46.66700 23.35500 33.88400
C  44.65800 26.83700 33.57500
C  44.87900 27.92400 34.69500
H  43.93500 27.89000 35.88600
N  45.68200 23.09300 28.80200
C  45.15600 22.40200 29.88000
C  44.75200 21.11100 29.43100
C  45.03000 20.97200 28.04800
C  45.68900 22.24900 27.76300
C  44.23800 20.07600 30.52800
C  44.69700 19.85700 27.06500
O  45.08100 19.86400 25.86500
C  43.96900 18.62400 27.49300
N  46.47200 25.02900 26.68400
C  46.49700 23.88800 26.00000
C  46.96700 24.10700 24.51600
C  46.89100 25.68700 24.43100
C  46.88000 26.06200 25.91500
C  48.29500 23.47400 24.13000
C  45.64600 26.25500 23.68200
C  44.27100 25.91800 24.29600
N  47.11700 26.97100 28.75900
C  47.47400 27.76700 27.68800
C  48.08000 29.05300 28.20500
C  47.92000 28.97400 29.61200
C  47.34800 27.67200 29.91500
C  48.68500 30.08300 27.31300
C  48.09800 29.60900 30.90100
O  48.43700 30.76800 31.06700
C  47.59000 28.66600 31.98900
C  48.65600 28.31700 32.89000
O  49.48500 27.39900 32.65600
O  48.59000 29.02100 34.07400
C  49.62400 28.76100 35.04900
H  44.76600 22.17400 31.90700
H  46.12200 22.00100 25.58000
H  47.74400 28.06000 25.72200
H  46.68800 26.30600 33.96000
H  44.75800 24.15500 33.68800
H  46.98600 22.61500 33.14900
H  46.11600 22.80600 34.64700
H  47.55700 23.73800 34.38500
H  43.75900 26.28900 33.85500
H  44.39100 27.35900 32.65600
H  44.66700 28.85700 34.17200
H  45.90700 27.97800 35.05300
H  43.16500 20.08100 30.72300
H  44.80800 20.23900 31.44200
H  44.54300 19.09700 30.16000
H  43.30700 18.86900 28.32300
H  44.65700 17.81500 27.73900
H  43.37200 18.31000 26.63700
H  46.16600 23.69500 23.90300
H  47.79900 26.06400 23.96000
H  48.38000 22.58800 24.75800
H  49.08800 24.21100 24.25600
H  48.17600 23.11600 23.10700
H  45.69800 25.92500 22.64400
H  45.65900 27.33400 23.53100
H  43.63400 25.39300 23.58400
H  43.67600 26.80500 24.51500
H  44.26000 25.28600 25.18500
H  48.84700 29.70300 26.30400
H  49.59800 30.53700 27.69800
H  48.05100 30.96700 27.24400
H  46.74800 29.07500 32.54700
H  50.63400 28.58400 34.68100
H  49.37400 27.85500 35.60000
H  49.68500 29.62700 35.70900
Mg -8.53700 18.27100 42.87800
C  -5.07100 17.71700 42.74700
C  -8.07700 21.57000 41.48600
C  -11.79900 18.50700 42.23800
C  -8.96500 14.77900 43.04400
N  -6.80400 19.43900 42.20800
C  -5.42800 19.06000 42.26700
C  -4.54100 20.19600 41.92900
C  -5.54200 21.38200 41.57700
C  -6.91800 20.75000 41.72800
C  -5.31100 22.71100 42.34500
C  -3.39900 19.85700 40.88000
C  -3.73100 18.90200 39.65500
H  -3.42700 19.52100 38.31100
N  -9.86300 19.92200 42.21500
C  -9.44200 21.17000 41.69600
C  -10.66400 21.88400 41.36100
C  -11.80900 20.99600 41.66400
C  -11.16500 19.74700 42.04600
C  -10.60300 23.27700 40.76700
C  -13.28400 21.34400 41.39300
O  -13.51700 22.40600 40.87100
C  -14.36600 20.52200 41.74700
N  -10.15400 16.81000 42.64300
C  -11.47600 17.24000 42.58700
C  -12.46200 16.14000 42.89300
C  -11.53500 14.91000 42.99400
C  -10.13400 15.51500 42.98000
C  -13.50900 16.33200 44.03700
C  -11.66300 13.81800 41.86800
C  -11.79700 12.31900 42.28100
N  -7.21900 16.57000 43.06500
C  -7.59500 15.18700 43.14700
C  -6.39400 14.46800 43.42200
C  -5.37300 15.40700 43.26900
C  -5.91000 16.63000 43.03400
C  -6.18000 13.06200 43.76600
C  -3.93800 15.58400 43.32900
O  -3.04200 14.76400 43.48700
C  -3.66100 17.09200 43.02900
C  -2.78100 17.66700 44.11100
O  -1.57000 17.77500 43.97600
O  -3.53800 18.18300 45.14300
C  -2.88400 18.83300 46.29000
H  -7.98100 22.62500 41.22200
H  -12.87600 18.50200 42.05400
H  -9.06300 13.69100 43.03300
H  -3.97900 20.41900 42.83600
H  -5.39500 21.62500 40.52500
H  -6.21700 22.91800 42.91300
H  -5.11700 23.49300 41.61100
H  -4.49800 22.52400 43.04600
H  -2.50900 19.54600 41.42700
H  -3.09400 20.78300 40.39200
H  -4.76300 18.56700 39.75900
H  -3.15500 17.97700 39.70400
H  -9.94800 23.32000 39.89700
H  -10.23100 23.89000 41.58800
H  -11.54600 23.73100 40.46100
H  -14.01600 20.11300 42.69400
H  -14.49100 19.63900 41.12000
H  -15.27400 21.10800 41.88900
H  -12.94100 15.91300 41.94100
H  -11.93100 14.41600 43.88100
H  -14.42900 16.49500 43.47600
H  -13.26600 17.23200 44.60200
H  -13.74000 15.51100 44.71700
H  -10.80500 13.87400 41.19800
H  -12.53100 13.94400 41.22100
H  -12.71400 11.90300 41.86200
H  -11.84100 12.34200 43.37000
H  -10.96900 11.69300 41.95100
H  -5.61000 12.66200 42.92700
H  -7.13000 12.54200 43.88800
H  -5.56300 13.11200 44.66300
H  -3.04500 17.05500 42.13100
H  -3.31600 19.83400 46.30700
H  -1.80800 18.79100 46.12500
H  -3.14800 18.27100 47.18600

