158

Mg 40.38600 9.54900 29.64100
C  42.61300 10.67300 32.10900
C  38.25700 8.36000 32.08600
C  38.63800 8.00800 27.19600
C  42.94800 9.98600 27.28300
N  40.51400 9.48200 31.87800
C  41.47700 10.06400 32.65300
C  41.01500 10.07800 34.13200
C  39.72900 9.13800 34.10500
C  39.46600 8.90800 32.57900
C  39.80700 7.81900 34.87100
C  40.80700 11.59300 34.62900
C  40.13200 11.80000 36.02800
H  41.06400 12.27000 37.09800
N  38.62400 8.52600 29.62000
C  37.88800 8.11200 30.73200
C  36.64600 7.48000 30.29100
C  36.67100 7.46800 28.84900
C  38.01900 8.04300 28.50100
C  35.61700 6.89800 31.30000
C  35.70300 6.90100 27.93800
O  35.88000 6.81900 26.70800
C  34.42300 6.21900 28.31000
N  40.71800 9.04100 27.53800
C  39.83300 8.36600 26.77200
C  40.32800 8.09000 25.28100
C  41.70500 8.90800 25.36100
C  41.80500 9.29300 26.82900
C  40.55500 6.61400 24.85600
C  41.75200 10.07500 24.36600
C  41.11000 11.46000 24.80800
N  42.29000 10.21600 29.60700
C  43.20500 10.33500 28.59500
C  44.42800 10.87500 29.10500
C  44.18500 11.18800 30.42400
C  42.94400 10.68400 30.73900
C  45.73100 11.29100 28.30300
C  44.73300 11.81700 31.59600
O  45.76700 12.49500 31.72700
C  43.75200 11.61200 32.69600
C  44.33700 10.98600 33.90800
O  44.48300 9.75900 33.97400
O  44.69100 11.84700 34.91800
C  45.23700 11.30300 36.15600
H  37.45000 8.07300 32.76300
H  38.08900 7.41400 26.46200
H  43.63300 10.25100 26.47500
H  41.72200 9.66800 34.85300
H  38.85000 9.65200 34.49500
H  40.38500 8.01600 35.77400
H  40.30300 7.10800 34.21000
H  38.78200 7.49900 35.06200
H  40.33700 12.16400 33.82800
H  41.80000 12.03500 34.71400
H  39.86400 10.76800 36.25400
H  39.25800 12.45000 35.98200
H  35.28100 5.91300 30.97800
H  34.73200 7.52500 31.18800
H  35.96000 6.77200 32.32700
H  33.58000 6.46900 27.66600
H  34.03100 6.61100 29.24900
H  34.58600 5.17000 28.55800
H  39.64000 8.58500 24.59600
H  42.57600 8.27700 25.18100
H  41.60300 6.33400 24.96500
H  40.23500 6.43100 23.83000
H  40.04200 5.93100 25.53300
H  41.21100 9.84100 23.44900
H  42.81400 10.18700 24.14700
H  41.84800 12.22900 25.03600
H  40.35300 11.30000 25.57600
H  40.54800 11.86000 23.96400
H  45.38000 11.65800 27.33800
H  46.30000 10.37700 28.12800
H  46.22300 12.11900 28.81300
H  43.32800 12.56500 33.01600
H  46.18800 10.77000 36.14500
H  44.50700 10.65200 36.63600
H  45.29500 12.05100 36.94700
Mg -11.06200 38.76200 41.36100
C  -9.19800 36.10000 40.07800
C  -8.93800 40.87400 39.65900
C  -13.28600 41.32000 41.72700
C  -13.46300 36.50700 42.36300
N  -9.23300 38.49900 39.98300
C  -8.66000 37.33700 39.64500
C  -7.40700 37.52600 38.84700
C  -7.20500 39.12100 38.91700
C  -8.50700 39.53300 39.58500
C  -5.92300 39.62700 39.52100
C  -7.42700 36.88400 37.37800
C  -6.19400 35.98600 37.05200
H  -5.42100 36.21600 35.69700
N  -11.16900 40.74200 40.75300
C  -10.12000 41.45000 40.15800
C  -10.44600 42.81100 40.09300
C  -11.75100 42.96400 40.58500
C  -12.10700 41.66200 41.05300
C  -9.54100 43.95100 39.56500
C  -12.50900 44.30100 40.53500
O  -12.03300 45.33700 40.07500
C  -13.95700 44.32500 40.88100
N  -13.22500 38.86600 41.84900
C  -13.71200 40.09200 42.16800
C  -15.03000 39.93100 42.87900
C  -15.03400 38.41300 43.28500
C  -13.83100 37.87100 42.46900
C  -15.11700 41.07800 43.98100
C  -16.38800 37.68000 42.92900
C  -17.49300 37.63200 43.95900
N  -11.30400 36.62700 41.34600
C  -12.35800 35.88800 41.83900
C  -11.96500 34.55600 41.71300
C  -10.74700 34.58400 40.99600
C  -10.41500 35.88000 40.79100
C  -12.68100 33.35400 42.33300
C  -9.69200 33.68900 40.43600
O  -9.58100 32.48900 40.49300
C  -8.61800 34.65200 39.70900
C  -7.28700 34.46800 40.36800
O  -6.37700 33.87400 39.83700
O  -7.15900 35.02500 41.59800
C  -5.90700 34.80400 42.27400
H  -8.13600 41.46700 39.21600
H  -13.97400 42.10100 42.05800
H  -14.28200 35.92900 42.79700
H  -6.63200 37.09300 39.47900
H  -7.13500 39.35600 37.85500
H  -6.26100 39.85300 40.53200
H  -5.55400 40.53300 39.04000
H  -5.11800 38.90200 39.63800
H  -7.37700 37.58100 36.54100
H  -8.28000 36.21200 37.28900
H  -6.47300 34.93400 36.99500
H  -5.47200 36.03000 37.86800
H  -9.82900 44.30700 38.57500
H  -8.50400 43.62100 39.51200
H  -9.61800 44.77300 40.27600
H  -13.98000 44.31000 41.97100
H  -14.54800 43.54500 40.40300
H  -14.38500 45.27000 40.54500
H  -15.70400 40.17400 42.05800
H  -14.88100 38.36300 44.36300
H  -14.08100 41.19700 44.29900
H  -15.69900 40.81500 44.86400
H  -15.47100 42.03500 43.59900
H  -16.27100 36.64800 42.59900
H  -16.78300 38.14400 42.02500
H  -17.62400 36.58500 44.23000
H  -18.35500 38.07500 43.46000
H  -17.25900 38.14900 44.89000
H  -12.47800 32.50700 41.67700
H  -13.75700 33.50700 42.41800
H  -12.37700 33.11100 43.35200
H  -8.58700 34.54500 38.62500
H  -5.00400 34.69300 41.67400
H  -6.08900 33.88300 42.82900
H  -5.78900 35.55400 43.05600

