158

Mg 48.05300 44.93900 43.72800
C  44.58700 44.57400 42.86800
C  48.45900 41.37900 43.25000
C  51.33100 45.33800 43.94900
C  47.57600 48.34300 43.82900
N  46.68000 43.17300 42.93300
C  45.32600 43.34700 42.78900
C  44.70200 41.96400 42.61000
C  45.86500 40.96700 43.01800
C  47.11300 41.89800 43.00800
C  45.59700 40.32100 44.35600
C  44.01200 41.77900 41.14100
C  44.45000 42.53200 39.92100
H  43.83900 42.09600 38.56100
N  49.74300 43.59800 43.44600
C  49.65400 42.19300 43.34600
C  51.07100 41.76600 43.41200
C  51.93600 42.86000 43.44400
C  51.04000 43.98500 43.61300
C  51.46400 40.25400 43.25200
C  53.42200 42.91000 43.25400
O  54.06300 41.88500 43.16500
C  54.17400 44.23100 43.14800
N  49.28400 46.62200 43.82100
C  50.61300 46.53400 43.97500
C  51.29500 47.92500 44.11700
C  49.99800 48.84300 44.14500
C  48.86800 47.88300 43.88400
C  52.28600 48.16000 45.25900
C  49.99200 50.17100 43.24700
C  50.05700 51.44900 44.05400
N  46.48900 46.22400 43.46100
C  46.39300 47.63200 43.60100
C  45.01100 48.07300 43.42000
C  44.26500 46.87300 43.13500
C  45.19300 45.82800 43.14400
C  44.59600 49.47300 43.50900
C  42.95400 46.35300 42.84100
O  41.93800 46.92700 42.61300
C  43.08700 44.80900 42.90600
C  42.31700 44.10900 43.94500
O  41.17200 43.75100 43.76600
O  43.12800 43.80900 45.03300
C  42.39000 43.36300 46.14900
H  48.55500 40.29100 43.23600
H  52.38200 45.48100 44.20900
H  47.37800 49.40500 43.98900
H  43.91000 41.82400 43.34600
H  45.84000 40.13600 42.31400
H  44.56500 40.29700 44.70500
H  46.17400 40.77100 45.16300
H  45.85900 39.26300 44.33400
H  43.00200 42.04800 41.44800
H  44.17600 40.74400 40.84000
H  45.53900 42.51500 39.92000
H  44.21000 43.58600 40.06500
H  52.20400 40.01400 44.01500
H  51.97700 40.12100 42.29900
H  50.63800 39.54300 43.22900
H  53.65400 44.92200 42.48500
H  55.16500 44.09000 42.71700
H  54.25900 44.67800 44.13800
H  51.80900 48.22000 43.20200
H  50.02900 49.14500 45.19200
H  53.24700 48.51000 44.88300
H  52.35200 47.32200 45.95400
H  51.90700 48.93700 45.92300
H  49.17000 50.25700 42.53600
H  50.93600 50.22500 42.70400
H  50.29300 51.39000 45.11600
H  49.09200 51.89900 43.82100
H  50.73200 52.22200 43.68700
H  45.19000 50.01200 42.77100
H  44.75100 49.92600 44.48800
H  43.53300 49.30700 43.33300
H  42.76900 44.51500 41.90600
H  41.41500 43.76300 46.42600
H  43.12800 43.50200 46.93800
H  42.35200 42.27900 46.03500
Mg 6.20000 54.00600 40.34600
C  5.95500 50.45300 40.29900
C  9.53500 53.60500 39.32300
C  6.29200 57.23700 39.64100
C  2.75500 54.16900 40.96800
N  7.56300 52.21600 39.90800
C  7.22000 50.91000 39.99100
C  8.44200 50.06400 39.59100
C  9.61600 51.05900 39.55700
C  8.86400 52.39600 39.61300
C  10.80200 50.93900 40.59600
C  8.32300 49.15100 38.35800
C  7.81900 49.78400 37.07000
H  6.69300 49.02800 36.35800
N  7.72500 55.29200 39.64100
C  8.99500 54.92400 39.41100
C  9.79400 56.11400 39.12500
C  8.96400 57.23100 39.29300
C  7.60000 56.63900 39.48400
C  11.28900 56.12900 38.87000
C  9.41300 58.76400 39.17700
O  10.55600 59.02900 38.92800
C  8.38400 59.81700 39.34500
N  4.74300 55.43300 40.10800
C  5.02100 56.74300 39.91900
C  3.86000 57.64400 40.23200
C  2.66100 56.68200 40.43600
C  3.42900 55.35400 40.54600
C  4.13100 58.41800 41.53100
C  1.50900 56.82900 39.38400
C  0.11700 57.13900 39.84700
N  4.59800 52.64200 40.62800
C  3.26200 52.88700 41.01000
C  2.66900 51.60700 41.25200
C  3.64400 50.64500 41.06100
C  4.79400 51.31400 40.58300
C  1.33600 51.44100 41.82300
C  3.94000 49.31500 41.25500
O  3.36100 48.42600 41.84600
C  5.32900 49.07800 40.66800
C  5.09100 48.23100 39.50500
O  4.27700 48.37700 38.60500
O  5.86500 47.11000 39.61100
C  5.55100 45.92100 38.89100
H  10.61400 53.52700 39.17800
H  6.39600 58.30300 39.42800
H  1.72600 54.40900 41.24500
H  8.57400 49.38600 40.43400
H  9.99900 51.05600 38.53700
H  11.77400 50.95200 40.10400
H  10.69900 50.08900 41.27100
H  10.77900 51.76100 41.31000
H  7.96900 48.15700 38.63100
H  9.36900 48.97900 38.10300
H  8.54400 49.75000 36.25600
H  7.49700 50.80200 37.29200
H  11.47400 56.58200 37.89500
H  11.66700 55.10800 38.90400
H  11.74000 56.72600 39.66300
H  8.00600 59.77200 40.36600
H  7.56400 59.75800 38.63000
H  8.85400 60.78700 39.18500
H  3.72000 58.34200 39.40600
H  2.16000 56.87200 41.38500
H  3.48000 58.26100 42.39100
H  4.03300 59.47900 41.30000
H  5.17400 58.24500 41.79500
H  1.41900 55.81300 39.00000
H  1.77000 57.47000 38.54200
H  -0.59400 56.39800 39.48300
H  -0.20400 58.09900 39.44200
H  -0.10100 57.07600 40.91300
H  0.72100 51.15300 40.97100
H  1.12600 52.34100 42.40100
H  1.26100 50.61400 42.52900
H  5.86900 48.48700 41.40700
H  5.76500 45.91100 37.82200
H  4.50000 45.63400 38.91700
H  5.98600 45.09600 39.45500

