158

Mg 30.99300 57.31300 40.01000
C  28.51500 55.32200 38.90800
C  33.35700 54.94100 39.12000
C  33.61100 59.56800 40.43400
C  28.78100 59.95800 40.39200
N  30.87900 55.47000 38.95600
C  29.78500 54.76500 38.74200
C  30.11200 53.37300 38.24300
C  31.63600 53.18400 38.58900
C  32.00700 54.61800 38.97900
C  31.92300 52.05400 39.65300
C  29.76800 53.07500 36.74700
C  29.99400 54.11600 35.64000
H  29.06900 54.25600 34.38400
N  33.21400 57.20100 39.90700
C  33.95000 56.19100 39.41400
C  35.35900 56.60000 39.40000
C  35.44600 57.85400 39.98200
C  34.05100 58.27700 40.18700
C  36.43500 55.67800 38.92400
C  36.71500 58.59000 40.30100
O  37.81100 58.13900 39.89100
C  36.78300 59.78000 41.15300
N  31.13900 59.58700 40.08400
C  32.31600 60.15000 40.49600
C  32.20200 61.63000 40.93400
C  30.58400 61.72300 40.97700
C  30.08000 60.36500 40.41200
C  33.05900 62.12500 42.15000
C  29.90900 62.93400 40.23500
C  28.81400 63.81400 40.90700
N  28.98900 57.62600 39.87100
C  28.17800 58.74900 40.02800
C  26.83600 58.32100 39.77900
C  26.92300 56.95800 39.29800
C  28.25200 56.56000 39.40900
C  25.63500 59.14700 39.85900
C  26.11000 55.88500 38.83500
O  24.91500 55.78500 38.68100
C  27.17200 54.74500 38.50100
C  26.79600 53.50800 39.21100
O  26.83200 53.22500 40.40000
O  26.07100 52.78300 38.29200
C  25.17100 51.67500 38.76100
H  33.98800 54.10800 38.80300
H  34.31700 60.39600 40.51600
H  28.07300 60.72300 40.71900
H  29.46700 52.76600 38.87900
H  32.11200 52.92300 37.64300
H  32.42600 51.26900 39.08900
H  31.03800 51.76100 40.21700
H  32.66200 52.39000 40.38100
H  28.72800 52.75200 36.77900
H  30.38100 52.25500 36.37400
H  30.99900 53.89700 35.27800
H  30.02000 55.12000 36.06300
H  36.83400 56.08600 37.99500
H  36.12700 54.65200 38.72100
H  37.20500 55.51200 39.67700
H  37.50600 59.57700 41.94300
H  35.88400 59.78500 41.77000
H  36.87300 60.69500 40.56700
H  32.54300 62.16900 40.04900
H  30.28800 61.66900 42.02500
H  33.77000 62.92000 41.92400
H  33.57900 61.37500 42.74500
H  32.30100 62.53500 42.81700
H  29.41500 62.64000 39.30900
H  30.77500 63.55700 40.01300
H  29.20700 64.81300 40.71700
H  28.69400 63.60100 41.96900
H  27.86000 63.46400 40.51200
H  24.86800 58.50300 40.29000
H  25.25600 59.37700 38.86300
H  25.88100 60.08200 40.36200
H  27.09800 54.66000 37.41600
H  25.45200 51.32400 39.75500
H  25.31200 50.90700 38.00000
H  24.14000 52.01800 38.67600
Mg 10.46100 48.17900 26.19200
C  8.36600 47.80000 29.00900
C  12.78600 49.41200 28.01700
C  12.06900 48.66500 23.25400
C  7.47500 47.32800 24.30500
N  10.39900 48.71000 28.25700
C  9.60000 48.24300 29.28000
C  10.19800 48.64200 30.66300
C  11.44000 49.42700 30.24100
C  11.56500 49.16100 28.73200
C  11.60600 50.94600 30.60100
C  10.54800 47.45300 31.62400
C  9.96900 47.48100 33.07100
H  10.49200 46.44900 34.14300
N  12.21000 48.89800 25.74500
C  13.16000 49.25200 26.65100
C  14.49100 49.22800 26.05100
C  14.25500 49.08400 24.69300
C  12.79900 48.81800 24.47400
C  15.71500 49.56400 26.82600
C  15.23100 49.03900 23.55900
O  14.89600 48.88800 22.40800
C  16.67800 49.30600 23.82200
N  9.92600 47.98500 24.05400
C  10.73900 48.33400 23.02800
C  10.01400 48.32000 21.68600
C  8.69200 47.58300 22.04200
C  8.63800 47.70900 23.58900
C  9.85300 49.74000 21.19100
C  8.49100 46.15500 21.37400
C  9.30100 45.05000 22.00000
N  8.36600 47.53000 26.46700
C  7.37900 47.20200 25.66700
C  6.14600 46.92200 26.43200
C  6.49000 47.15100 27.71300
C  7.82900 47.52400 27.69400
C  4.77100 46.56300 25.91300
C  5.94100 47.06600 29.07700
O  4.89300 46.61700 29.55300
C  7.21100 47.49200 29.96000
C  7.45700 46.27500 30.77400
O  7.96500 45.20400 30.37800
O  7.02400 46.51300 32.00500
C  7.00900 45.33000 32.85500
H  13.58400 49.63200 28.72900
H  12.61800 48.88400 22.33600
H  6.68600 46.93300 23.66200
H  9.64100 49.44200 31.14900
H  12.40700 49.07600 30.60100
H  12.33800 51.00500 31.40600
H  10.75600 51.52200 30.96900
H  11.95100 51.44000 29.69300
H  11.63000 47.32900 31.56100
H  10.09700 46.60100 31.11500
H  8.88200 47.55400 33.07400
H  10.29500 48.41200 33.53500
H  16.20400 50.43500 26.39200
H  16.30800 48.64900 26.84400
H  15.36500 49.84700 27.81800
H  16.92700 50.36700 23.80300
H  17.14500 48.58000 23.15700
H  17.00100 49.04200 24.83000
H  10.37300 47.58800 20.96200
H  7.78500 48.10300 21.73600
H  8.82300 50.09100 21.25300
H  9.85600 49.78900 20.10200
H  10.64700 50.39500 21.55000
H  8.64000 46.15100 20.29400
H  7.42300 45.97300 21.48700
H  9.76400 45.41000 22.91900
H  10.04400 44.71000 21.27800
H  8.62600 44.27500 22.36200
H  4.88700 45.64300 25.34000
H  4.31800 47.41300 25.40400
H  4.16000 46.25700 26.76200
H  6.91800 48.30300 30.62700
H  6.73000 45.62300 33.86800
H  8.01400 44.91200 32.90000
H  6.24000 44.63300 32.52300

