158

Mg 26.78400 50.49200 27.16800
C  25.18200 51.81700 30.04000
C  29.22900 49.42900 29.24900
C  28.59000 49.58000 24.50900
C  24.42700 51.99000 25.17700
N  27.15800 50.78900 29.41900
C  26.32600 51.17000 30.38700
C  26.80300 50.68900 31.72600
C  28.24500 50.20400 31.44700
C  28.25500 50.17800 29.95200
C  29.35900 50.99700 32.13600
C  25.78900 49.61500 32.35200
C  24.87000 50.16100 33.52300
H  24.87800 49.34000 34.80900
N  28.76600 49.73100 26.90200
C  29.60600 49.28300 27.88100
C  30.71300 48.46800 27.27100
C  30.61500 48.65400 25.89100
C  29.31500 49.32700 25.70500
C  31.77400 47.74700 28.21100
C  31.55600 48.15000 24.80100
O  31.27300 48.32200 23.59300
C  32.89300 47.53900 25.19000
N  26.66100 50.84400 25.08800
C  27.37700 50.22500 24.18700
C  26.89500 50.58300 22.78500
C  25.42900 51.11000 23.01500
C  25.56000 51.34700 24.55100
C  27.83800 51.50700 21.93700
C  24.27900 50.12200 22.60400
C  24.46700 48.68100 22.97200
N  25.16600 51.60700 27.44100
C  24.28400 52.14900 26.56300
C  23.17000 52.75300 27.28900
C  23.52700 52.64500 28.60200
C  24.73500 51.97400 28.66400
C  21.97800 53.30700 26.62200
C  23.07500 52.99000 29.91500
O  22.03600 53.59700 30.26000
C  24.09300 52.29800 30.92600
C  24.59000 53.35100 31.86200
O  25.57900 53.98300 31.76400
O  23.70600 53.51900 32.90500
C  23.73300 54.76900 33.62000
H  29.98400 49.03700 29.93300
H  29.05300 49.16000 23.61400
H  23.54700 52.22100 24.57400
H  26.89200 51.55900 32.37700
H  28.43200 49.21200 31.85800
H  30.15000 51.27100 31.43800
H  29.87800 50.41600 32.89800
H  28.83200 51.88500 32.48400
H  26.36500 48.72900 32.61700
H  25.23600 49.27200 31.47700
H  23.85000 50.03400 33.16000
H  25.12300 51.18600 33.79500
H  31.66600 46.66200 28.21200
H  31.54900 48.12200 29.20900
H  32.80300 48.06100 28.03100
H  33.40300 47.26100 24.26800
H  32.65800 46.64800 25.77200
H  33.52100 48.19200 25.79600
H  26.90000 49.67700 22.17800
H  25.35800 52.00100 22.39100
H  28.70700 51.76900 22.54000
H  27.35500 52.34700 21.43900
H  28.22200 50.85200 21.15400
H  24.18900 50.11300 21.51700
H  23.36300 50.48800 23.06600
H  23.48800 48.43000 23.37800
H  25.22700 48.41000 23.70500
H  24.70900 48.17400 22.03800
H  22.26300 54.03300 25.86000
H  21.47400 53.83800 27.43000
H  21.31500 52.59100 26.13600
H  23.57600 51.45100 31.37700
H  22.69700 55.03700 33.82700
H  24.16000 55.58400 33.03600
H  24.34000 54.53000 34.49400
Mg -11.59400 16.96700 41.69600
C  -8.38100 15.58500 41.22300
C  -10.43500 19.94300 40.67600
C  -14.72100 17.92400 41.86000
C  -12.73100 13.50100 41.93800
N  -9.64300 17.67000 41.01800
C  -8.49100 16.93500 40.85100
C  -7.27600 17.86600 40.42700
C  -7.88500 19.32400 40.41100
C  -9.40500 18.97900 40.62100
C  -7.31200 20.33400 41.43300
C  -6.82500 17.36400 39.06600
C  -5.37100 17.72400 38.65000
H  -5.20000 18.34900 37.28800
N  -12.48000 18.76400 41.39400
C  -11.83000 19.88100 40.96200
C  -12.81400 20.94100 40.85400
C  -14.04600 20.46100 41.25700
C  -13.76900 19.03200 41.62300
C  -12.40800 22.38400 40.33400
C  -15.28300 21.23200 41.49400
O  -15.45300 22.40400 41.05900
C  -16.46500 20.55300 42.18700
N  -13.51300 15.84600 41.47900
C  -14.62100 16.56000 41.77000
C  -15.67500 15.63200 42.31600
C  -15.15000 14.19400 42.02100
C  -13.71600 14.50600 41.76200
C  -16.01700 15.78600 43.80300
C  -15.65000 13.58700 40.77800
C  -16.56700 12.33800 40.95500
N  -10.80800 15.00100 41.65900
C  -11.37200 13.75100 41.83900
C  -10.32700 12.75000 41.92000
C  -9.15800 13.45500 41.83600
C  -9.48100 14.78200 41.55700
C  -10.56100 11.27100 42.12500
C  -7.71000 13.22700 41.81100
O  -7.08600 12.20500 41.97100
C  -7.16300 14.68400 41.55000
C  -6.50500 15.07300 42.82700
O  -7.08500 15.47900 43.83600
O  -5.14400 14.94900 42.78500
C  -4.39400 15.67000 43.77800
H  -10.19000 20.96400 40.37600
H  -15.73700 18.17200 42.17600
H  -12.97600 12.43700 41.94900
H  -6.53400 17.65100 41.19600
H  -7.74200 19.77900 39.43000
H  -6.54200 19.73000 41.91300
H  -8.06700 20.72300 42.11600
H  -6.95100 21.22200 40.91500
H  -7.54100 17.74400 38.33700
H  -7.04400 16.29700 39.10300
H  -4.72500 16.84700 38.71400
H  -4.89700 18.55500 39.17100
H  -12.84700 22.45200 39.33800
H  -11.35600 22.46100 40.05900
H  -12.81200 23.22500 40.89700
H  -17.13500 21.37400 42.44300
H  -16.18400 20.10500 43.14000
H  -16.93200 19.79600 41.55700
H  -16.61300 15.83000 41.79900
H  -15.22000 13.63600 42.95500
H  -17.06300 15.53300 43.97500
H  -15.88700 16.80000 44.18000
H  -15.38800 15.14900 44.42500
H  -14.78000 13.33200 40.17400
H  -16.15900 14.31600 40.14800
H  -17.02700 12.21200 41.93500
H  -16.00700 11.42100 40.77400
H  -17.32400 12.43700 40.17700
H  -9.66200 10.81300 42.53900
H  -10.71000 10.90600 41.10900
H  -11.37600 11.02200 42.80400
H  -6.40900 14.53000 40.77700
H  -3.71100 16.19600 43.11100
H  -3.99300 14.85700 44.38300
H  -4.88100 16.42200 44.39900

