158

Mg 28.94400 57.50200 40.56000
C  26.07600 55.70600 39.65300
C  30.83800 55.03300 39.24900
C  31.52600 59.64400 40.25200
C  26.91800 60.30900 41.16400
N  28.42000 55.60800 39.38700
C  27.22000 55.10500 39.14000
C  27.29100 53.75600 38.52600
C  28.84700 53.51900 38.44900
C  29.43200 54.76700 39.15500
C  29.43800 52.23200 39.02800
C  26.54500 53.50400 37.18100
C  26.50200 54.61000 36.09800
H  26.72000 54.32800 34.55200
N  30.98700 57.27700 40.00600
C  31.56000 56.17300 39.57300
C  32.97500 56.38600 39.47800
C  33.26300 57.72300 39.85600
C  31.87400 58.25900 40.03300
C  33.95700 55.24600 39.11300
C  34.58100 58.39600 39.96800
O  35.61300 57.89600 39.55400
C  34.70800 59.72700 40.51500
N  29.21300 59.70900 40.81600
C  30.37600 60.32100 40.58000
C  30.37900 61.81800 40.96100
C  28.86100 61.97900 41.38300
C  28.27900 60.61000 41.09300
C  31.39500 62.21800 42.00100
C  28.12000 63.19400 40.74000
C  27.68200 64.27500 41.79100
N  27.05800 57.87600 40.79700
C  26.37900 59.03300 41.06800
C  24.96100 58.70300 41.28100
C  24.82000 57.41000 40.77000
C  26.10200 56.96300 40.39000
C  23.95100 59.59800 41.82400
C  23.80200 56.40700 40.43700
O  22.60700 56.34200 40.65500
C  24.60400 55.36700 39.53600
C  24.10400 53.98700 40.07700
O  23.32000 53.17400 39.54800
O  24.65000 53.79700 41.30200
C  24.31500 52.58800 41.94800
H  31.53400 54.24000 38.96800
H  32.34200 60.35500 40.10900
H  26.29300 61.17900 41.37600
H  26.93600 52.97400 39.19700
H  29.18000 53.54100 37.41100
H  30.33000 52.53700 39.57500
H  29.66500 51.49500 38.25700
H  28.73200 51.73700 39.69400
H  25.49500 53.30700 37.39700
H  27.02300 52.59300 36.82200
H  27.33400 55.29600 36.25700
H  25.57600 55.15500 36.27700
H  33.96000 54.51900 39.92400
H  34.98700 55.59900 39.05500
H  33.73900 54.80700 38.13900
H  34.09200 60.10500 41.33100
H  34.44000 60.35900 39.66800
H  35.78200 59.83200 40.66500
H  30.52200 62.26400 39.97700
H  28.70100 61.94800 42.46100
H  31.88000 61.32600 42.39700
H  30.96300 62.88600 42.74600
H  32.03500 62.93100 41.48000
H  27.28200 62.98000 40.07700
H  28.88900 63.74900 40.20300
H  27.34500 63.81100 42.71700
H  26.77100 64.74000 41.41300
H  28.51100 64.96500 41.94800
H  23.47300 60.16700 41.02700
H  24.38100 60.34300 42.49400
H  23.13200 59.09200 42.33500
H  24.34900 55.43000 38.47800
H  25.21900 52.24300 42.45000
H  23.91800 51.77300 41.34200
H  23.61900 52.95400 42.70300
Mg -5.68600 25.17000 26.04700
C  -4.23400 26.65200 28.84800
C  -7.35600 23.07200 28.08300
C  -6.67600 23.44000 23.27900
C  -3.40300 26.99500 24.03700
N  -5.55400 24.74300 28.21000
C  -5.09800 25.57200 29.20400
C  -5.66300 25.22600 30.62100
C  -6.18200 23.78600 30.26900
C  -6.37000 23.80000 28.74400
C  -5.22700 22.58700 30.68200
C  -6.71800 26.25200 31.26700
C  -6.88400 26.16600 32.80800
H  -6.11200 25.08500 33.56500
N  -7.00600 23.58700 25.71800
C  -7.65600 22.90200 26.69200
C  -8.63400 21.97700 26.12100
C  -8.47400 22.11900 24.67200
C  -7.37600 23.16200 24.47600
C  -9.53300 21.12800 26.99300
C  -9.26200 21.43900 23.52900
O  -8.95700 21.63100 22.31000
C  -10.45800 20.62200 23.76400
N  -5.28100 25.44900 23.84500
C  -5.71100 24.51400 22.98200
C  -4.90900 24.54400 21.58000
C  -3.95200 25.79900 21.84000
C  -4.28500 26.16400 23.28300
C  -4.19600 23.09900 21.28700
C  -4.19900 26.99500 20.85000
C  -5.17800 28.07200 21.28500
N  -4.30300 26.67800 26.31300
C  -3.42400 27.33200 25.43800
C  -2.56400 28.24800 26.20700
C  -2.92900 28.10900 27.52000
C  -3.82100 27.00500 27.57700
C  -1.63800 29.22500 25.68100
C  -2.62100 28.53000 28.82200
O  -1.90200 29.37400 29.25100
C  -3.48700 27.57400 29.75000
C  -2.67800 26.88700 30.73100
O  -2.13100 25.82700 30.45100
O  -2.64600 27.51500 31.93400
C  -2.14300 26.71800 33.10200
H  -7.92300 22.34600 28.66900
H  -6.84000 22.80000 22.41000
H  -2.61600 27.38100 23.38500
H  -4.86300 25.18300 31.36000
H  -7.12300 23.48300 30.72800
H  -5.83100 21.84500 31.20500
H  -4.38300 22.96200 31.26100
H  -4.69600 22.19000 29.81700
H  -7.61000 26.09400 30.66000
H  -6.51200 27.27800 30.96100
H  -7.93900 26.07800 33.06900
H  -6.58000 27.12900 33.21800
H  -10.39600 21.62100 27.43900
H  -8.91400 20.61900 27.73300
H  -9.83300 20.25900 26.40700
H  -10.13300 19.59500 23.92900
H  -10.93400 20.62400 22.78300
H  -11.10200 21.06400 24.52400
H  -5.61300 24.77000 20.77900
H  -2.93900 25.41200 21.95800
H  -3.17900 23.22600 20.91700
H  -4.77000 22.64800 20.47700
H  -4.23900 22.34800 22.07500
H  -4.45200 26.58900 19.87100
H  -3.19500 27.39400 20.70400
H  -5.66000 28.29600 20.33400
H  -4.65800 28.89900 21.76900
H  -6.02100 27.68500 21.85800
H  -1.21500 28.82800 24.75800
H  -0.74100 29.30400 26.29500
H  -2.03300 30.22600 25.50900
H  -4.21700 28.23000 30.22300
H  -1.28700 26.10000 32.83100
H  -2.91500 26.03500 33.45800
H  -1.85400 27.34100 33.94800

