158

Mg 34.63700 2.79900 29.96800
C  32.18200 3.77600 32.29800
C  37.11800 3.24200 32.36400
C  36.88500 1.77500 27.70700
C  32.23500 3.19400 27.43700
N  34.65700 3.69500 32.12000
C  33.53500 3.95100 32.85100
C  33.88100 3.97700 34.30800
C  35.48300 4.09700 34.26800
C  35.81500 3.60500 32.81400
C  36.21900 5.46800 34.48900
C  33.36400 2.59800 34.95500
C  33.38200 2.59100 36.47900
H  33.90900 3.80300 37.28000
N  36.71400 2.52900 30.00000
C  37.57200 2.76100 31.11400
C  38.92400 2.33700 30.80300
C  38.90500 1.86000 29.45300
C  37.46100 2.06600 28.97900
C  40.09800 2.46900 31.74200
C  40.07800 1.28700 28.67600
O  40.02100 0.92300 27.51100
C  41.45500 1.15900 29.29700
N  34.58000 2.49900 27.92100
C  35.62700 2.01900 27.15800
C  35.33800 2.22000 25.70900
C  33.72900 2.31000 25.74000
C  33.47900 2.73100 27.10000
C  36.01700 3.57400 25.35200
C  33.05800 0.96900 25.36000
C  33.15900 0.65500 23.86900
N  32.59200 3.25300 29.88200
C  31.80300 3.48000 28.78000
C  30.44900 3.75000 29.20300
C  30.56900 3.86600 30.57600
C  31.90200 3.60800 30.93300
C  29.20500 3.83900 28.30100
C  29.80200 4.10900 31.78300
O  28.58200 4.31400 31.97800
C  30.83800 4.00300 32.94200
C  30.81600 5.25200 33.66400
O  31.23500 6.36200 33.24900
O  30.15200 5.06200 34.79700
C  30.23400 6.09100 35.81200
H  37.78000 3.25500 33.23200
H  37.65500 1.49000 26.98700
H  31.50100 3.20500 26.62800
H  33.36400 4.86600 34.66900
H  35.82700 3.52300 35.12800
H  35.55400 6.17900 34.98100
H  36.37000 5.89500 33.49800
H  37.14700 5.33400 35.04500
H  34.06600 1.84400 34.59900
H  32.38800 2.27400 34.59400
H  34.07600 1.78000 36.70200
H  32.35800 2.42000 36.81000
H  40.83600 3.08000 31.22300
H  40.53500 1.52400 32.06500
H  39.75700 2.95500 32.65600
H  41.69300 2.13400 29.72200
H  42.16000 0.85500 28.52400
H  41.49200 0.34200 30.01800
H  35.79400 1.41500 25.13300
H  33.43600 3.13600 25.09200
H  36.71500 3.96900 26.09000
H  35.25900 4.31800 25.10600
H  36.60800 3.36600 24.46000
H  32.01000 0.89200 25.64900
H  33.53000 0.22900 26.00700
H  32.39300 1.14600 23.26900
H  33.13300 -0.41400 23.65800
H  34.16300 0.95200 23.56600
H  28.80700 2.83500 28.14900
H  29.45900 4.52400 27.49200
H  28.37300 4.34900 28.78700
H  30.58000 3.18300 33.61200
H  31.23500 6.32400 36.17500
H  29.69000 5.85700 36.72700
H  29.65000 6.96600 35.52700
Mg -11.06800 16.87400 41.27700
C  -7.58600 16.17600 41.86900
C  -10.14200 20.18000 41.10800
C  -14.16400 17.58300 40.27700
C  -11.66100 13.43900 41.06900
N  -8.99100 17.97000 41.28800
C  -7.77000 17.48800 41.48500
C  -6.74100 18.54600 41.34400
C  -7.63300 19.83600 41.67200
C  -9.03000 19.33500 41.30400
C  -7.52400 20.31000 43.13000
C  -6.25100 18.54000 39.82900
C  -5.00900 17.77300 39.47700
H  -5.05800 16.36900 38.82100
N  -12.05100 18.64200 40.73100
C  -11.43600 19.86800 40.63100
C  -12.44000 20.80300 40.07800
C  -13.66400 20.08300 39.93000
C  -13.36500 18.69500 40.34200
C  -12.03600 22.21400 39.75900
C  -14.92700 20.71700 39.33100
O  -15.01000 21.89900 39.07500
C  -16.23900 19.96500 39.18300
N  -12.64900 15.69800 40.77600
C  -13.84800 16.24100 40.54800
C  -14.98300 15.17700 40.73300
C  -14.21000 13.77700 40.73800
C  -12.70800 14.34600 40.84500
C  -15.75600 15.45300 42.01300
C  -14.41700 12.89400 39.46200
C  -14.76600 11.42700 39.66000
N  -9.86400 15.09600 41.55600
C  -10.27700 13.77000 41.46700
C  -9.14300 12.94600 41.74800
C  -8.10000 13.85500 42.07000
C  -8.56900 15.14400 41.78100
C  -9.17300 11.46100 41.85700
C  -6.78600 13.97200 42.50500
O  -6.03400 13.05100 42.79100
C  -6.38600 15.55900 42.51400
C  -6.34300 16.01500 43.96400
O  -7.24800 16.59600 44.52800
O  -5.15400 15.72800 44.54600
C  -4.94200 16.18400 45.90400
H  -9.94100 21.25000 41.19000
H  -15.22100 17.63500 40.00700
H  -11.81900 12.36100 41.00500
H  -5.83200 18.41700 41.93200
H  -7.61800 20.59500 40.89000
H  -6.69500 19.83000 43.64900
H  -8.43300 20.27500 43.73000
H  -7.32700 21.36900 42.96700
H  -6.08300 19.52600 39.39400
H  -6.95400 17.99300 39.20100
H  -4.51800 17.66700 40.44500
H  -4.31900 18.38700 38.89900
H  -11.56600 22.20300 38.77500
H  -11.39400 22.65400 40.52100
H  -12.82800 22.96300 39.75600
H  -16.11700 19.01500 38.66400
H  -16.72300 20.64300 38.48000
H  -16.67500 19.79300 40.16700
H  -15.62200 15.30300 39.85800
H  -14.44200 13.28800 41.68400
H  -16.29800 14.59200 42.40500
H  -16.60800 16.05600 41.70100
H  -15.22100 15.97400 42.80700
H  -13.49200 13.01900 38.89900
H  -15.22800 13.27800 38.84400
H  -13.93000 10.78200 39.39100
H  -15.59100 11.11500 39.01900
H  -15.13900 11.11800 40.63700
H  -8.37100 11.25600 42.56500
H  -9.00500 10.85500 40.96600
H  -10.11100 11.24900 42.37100
H  -5.37000 15.78600 42.19200
H  -4.43000 17.14600 45.94600
H  -4.21100 15.48100 46.30100
H  -5.82000 16.23000 46.54800

