158

Mg 8.63700 3.49400 27.78700
C  10.18500 2.06200 30.68800
C  6.83500 5.52000 29.75500
C  6.92200 4.52100 25.02000
C  10.02400 0.92600 25.82300
N  8.53300 3.65700 30.04000
C  9.22100 3.02100 31.00100
C  8.92300 3.64100 32.38700
C  7.84100 4.73600 32.02200
C  7.72700 4.62800 30.51800
C  6.46900 4.67400 32.78300
C  10.21900 4.22900 33.12000
C  9.98000 4.90600 34.51500
H  10.91400 4.48700 35.59800
N  7.14700 4.77500 27.44700
C  6.59400 5.60600 28.41500
C  5.64300 6.53300 27.81600
C  5.75900 6.33300 26.42500
C  6.59300 5.17400 26.19800
C  4.65800 7.38900 28.60500
C  5.02400 7.03700 25.25900
O  5.16000 6.74100 24.10100
C  4.08100 8.25200 25.41700
N  8.54200 2.86600 25.68600
C  7.84400 3.47700 24.73000
C  7.90500 2.68200 23.37100
C  9.11000 1.72100 23.56700
C  9.30600 1.87500 25.05600
C  6.61400 2.10400 22.99700
C  10.38500 2.16700 22.71200
C  11.34300 1.10800 22.17200
N  9.77200 1.76300 28.13000
C  10.27200 0.87900 27.25500
C  11.10800 -0.06700 27.93600
C  11.13800 0.41000 29.26000
C  10.33800 1.51000 29.35500
C  11.78600 -1.29400 27.30900
C  11.68600 0.18500 30.63300
O  12.42600 -0.69000 31.01900
C  11.05500 1.21700 31.57700
C  10.22500 0.41700 32.52600
O  9.38600 -0.47500 32.34300
O  10.63100 0.84000 33.83400
C  10.01000 0.03600 34.86700
H  6.28500 6.27800 30.31700
H  6.42500 4.83000 24.09800
H  10.47000 0.08800 25.28400
H  8.37500 2.85800 32.91200
H  8.12400 5.77700 32.18300
H  6.16800 5.67500 33.09200
H  6.67300 4.05600 33.65800
H  5.68000 4.26300 32.15400
H  10.71900 4.92000 32.44100
H  10.99800 3.46900 33.18700
H  8.93300 4.79600 34.80000
H  10.08900 5.97400 34.32500
H  3.71800 7.39800 28.05400
H  4.95200 8.43600 28.68600
H  4.40600 7.05500 29.61100
H  4.66200 8.99000 25.97000
H  3.24200 7.96400 26.05000
H  3.82500 8.78300 24.49900
H  8.20400 3.40300 22.61000
H  8.76900 0.73400 23.25500
H  5.79600 2.37900 23.66200
H  6.65400 1.01700 23.06800
H  6.28300 2.41900 22.00700
H  10.95200 2.90000 23.28500
H  9.96900 2.63000 21.81700
H  10.92700 0.16400 22.52400
H  12.29700 1.32200 22.65500
H  11.35600 0.99800 21.08800
H  11.00100 -2.00100 27.03900
H  12.56200 -1.78800 27.89300
H  12.14700 -0.88300 26.36700
H  11.84700 1.86500 31.95200
H  9.22400 0.75000 35.11300
H  10.72500 -0.21300 35.65100
H  9.54500 -0.90800 34.58100
Mg 9.81200 47.83700 25.61400
C  7.49200 47.84300 28.17700
C  12.19600 49.01800 27.89100
C  12.16900 48.11300 23.04200
C  7.24300 47.63300 23.28000
N  9.90600 48.24500 27.82100
C  8.79000 48.12200 28.66600
C  9.23600 48.43200 30.12400
C  10.59100 49.17500 29.90700
C  10.95000 48.73600 28.48700
C  10.56000 50.72500 30.07900
C  9.44400 47.15800 31.09000
C  9.85200 47.57100 32.51500
H  9.19100 46.80600 33.72900
N  11.86700 48.37000 25.46500
C  12.65600 48.88300 26.52600
C  14.06600 48.96300 26.04800
C  14.11200 48.51000 24.69900
C  12.67400 48.33600 24.29500
C  15.17100 49.40000 26.97700
C  15.29900 48.23700 23.77800
O  15.19000 47.82000 22.63700
C  16.70600 48.40800 24.40500
N  9.72700 47.96700 23.43500
C  10.81400 47.85900 22.64400
C  10.33600 47.59000 21.24500
C  8.87700 47.42500 21.35900
C  8.53200 47.69000 22.79300
C  10.72800 48.72200 20.23900
C  8.31800 46.03600 20.85600
C  8.31300 44.81900 21.79800
N  7.80400 47.61500 25.70800
C  6.84600 47.59900 24.65700
C  5.53100 47.44400 25.19600
C  5.72000 47.52200 26.59600
C  7.09800 47.67900 26.83000
C  4.26000 47.35000 24.44500
C  4.99000 47.63200 27.85700
O  3.81800 47.66700 28.12900
C  6.18400 47.73800 28.91000
C  6.23700 46.50200 29.68100
O  6.90500 45.51800 29.33700
O  5.42000 46.58600 30.75100
C  5.12300 45.34200 31.50400
H  12.87100 49.38300 28.66800
H  12.88200 48.14400 22.21600
H  6.49200 47.53700 22.49300
H  8.49200 49.14900 30.47100
H  11.31900 48.73400 30.58800
H  10.61400 51.23200 29.11600
H  11.46300 51.00400 30.62200
H  9.70700 51.06600 30.66700
H  10.21300 46.56500 30.59400
H  8.45000 46.74400 31.26000
H  9.70800 48.65000 32.58200
H  10.91700 47.33700 32.52700
H  14.91900 49.63300 28.01100
H  15.48100 50.27500 26.40600
H  15.96600 48.65500 27.00800
H  17.45300 47.97200 23.74100
H  16.80700 47.76900 25.28300
H  16.85900 49.46000 24.64300
H  10.77300 46.64200 20.93300
H  8.38100 48.12600 20.68900
H  10.39500 49.65200 20.70000
H  10.24100 48.61500 19.27000
H  11.80000 48.65800 20.05000
H  8.89900 45.69400 19.99900
H  7.29600 46.15700 20.49700
H  8.50600 45.07300 22.84000
H  9.12000 44.11100 21.61100
H  7.40000 44.22400 21.78300
H  3.41900 47.53700 25.11200
H  4.10600 46.42700 23.88600
H  4.42100 48.13300 23.70400
H  6.03700 48.55100 29.62000
H  4.05400 45.17600 31.36700
H  5.44300 45.55200 32.52500
H  5.66800 44.46600 31.15300

