158

Mg -1.46400 17.68000 27.66100
C  -2.06600 15.36300 30.30900
C  -2.31900 20.15000 29.82500
C  -1.23300 19.75400 25.14200
C  -1.26300 14.90800 25.36900
N  -1.96300 17.75400 29.82800
C  -2.08200 16.74300 30.73900
C  -2.23900 17.24800 32.11600
C  -2.40700 18.79500 31.88500
C  -2.25200 18.95500 30.44500
C  -3.60400 19.43000 32.50100
C  -0.99900 16.71600 32.92200
C  -0.40900 17.70800 33.93800
H  -0.15600 17.02700 35.31800
N  -1.70000 19.71800 27.53000
C  -2.10100 20.60400 28.48300
C  -2.22800 21.93000 27.92300
C  -1.77800 21.87600 26.52000
C  -1.57400 20.41900 26.31800
C  -2.74100 23.09400 28.72000
C  -1.55700 22.96700 25.45400
O  -1.09000 22.69900 24.33800
C  -1.65100 24.32300 25.94000
N  -1.39800 17.34100 25.51100
C  -1.17800 18.43800 24.74800
C  -0.97000 17.95400 23.27900
C  -0.77900 16.41200 23.39900
C  -1.18200 16.17100 24.81500
C  -2.15600 18.33800 22.30200
C  0.71200 15.86900 23.23800
C  1.78800 16.50200 24.11000
N  -1.69800 15.61400 27.72100
C  -1.63400 14.66000 26.73900
C  -1.97200 13.37100 27.28300
C  -2.11200 13.59900 28.66700
C  -1.85900 14.98800 28.87400
C  -1.98300 12.01800 26.59600
C  -2.36900 13.01100 29.94800
O  -2.60600 11.89700 30.16200
C  -2.25200 14.10700 31.09200
C  -1.17000 13.73100 31.95300
O  0.00100 14.06800 31.77400
O  -1.69200 13.04800 33.06400
C  -0.67300 12.81500 34.12500
H  -2.47200 20.98900 30.50700
H  -1.17400 20.41700 24.27600
H  -1.14100 13.94800 24.86400
H  -3.14900 16.85900 32.57400
H  -1.58600 19.33400 32.35800
H  -4.34400 18.68200 32.78400
H  -4.08500 20.06200 31.75400
H  -3.34800 19.99500 33.39800
H  -0.23000 16.58700 32.16100
H  -1.27900 15.79600 33.43600
H  -1.14500 18.48100 34.15800
H  0.58400 17.99800 33.59500
H  -3.32400 23.79100 28.11800
H  -1.84900 23.59300 29.09900
H  -3.33600 22.74900 29.56600
H  -1.38700 25.04900 25.17100
H  -0.93400 24.33800 26.76100
H  -2.67500 24.55800 26.23100
H  -0.10500 18.54900 22.98600
H  -1.42300 15.92300 22.66900
H  -2.53900 19.18100 22.87700
H  -2.96100 17.65400 22.03400
H  -1.71000 18.77300 21.40800
H  0.98800 15.84400 22.18400
H  0.69300 14.79500 23.42400
H  2.54300 16.89700 23.43000
H  2.12600 15.69700 24.76200
H  1.51200 17.35600 24.72800
H  -1.00900 11.53000 26.61500
H  -2.31200 12.17700 25.56900
H  -2.63000 11.28000 27.06900
H  -3.16200 14.08400 31.69300
H  -1.08400 13.52700 34.84000
H  0.36000 13.07700 33.89500
H  -0.74400 11.82600 34.57600
Mg -2.11200 34.99500 27.38400
C  -3.79300 33.59100 30.07500
C  -1.00500 37.44100 29.56300
C  -0.58000 36.33200 24.74500
C  -3.64700 32.58200 25.18200
N  -2.47500 35.51700 29.63700
C  -3.02800 34.67400 30.54400
C  -2.72700 35.15500 31.91000
C  -2.17800 36.64000 31.69200
C  -1.82500 36.52000 30.20900
C  -3.24700 37.72400 32.02000
C  -1.85800 34.24200 32.83300
C  -1.84900 34.71000 34.30900
H  -2.62700 33.88200 35.27200
N  -0.97500 36.71700 27.16500
C  -0.54300 37.58900 28.21100
C  0.22100 38.65000 27.53700
C  0.47600 38.26900 26.20300
C  -0.38300 37.07400 25.95100
C  0.84400 39.75200 28.42200
C  1.28800 38.94200 25.10500
O  1.25200 38.60000 23.89900
C  2.00300 40.16500 25.45200
N  -2.15800 34.53700 25.25300
C  -1.35200 35.28200 24.41300
C  -1.42400 34.68700 22.98600
C  -2.29100 33.42400 23.16500
C  -2.80400 33.51900 24.62500
C  -1.91200 35.70800 21.92700
C  -1.54400 32.16400 22.83800
C  -2.16700 31.23500 21.79600
N  -3.54000 33.53200 27.47700
C  -4.10400 32.71100 26.53700
C  -5.05000 31.80500 27.12100
C  -5.00700 32.09400 28.53900
C  -4.07100 33.20800 28.68300
C  -5.75700 30.78000 26.35900
C  -5.29400 31.64600 29.88900
O  -5.90500 30.64000 30.27200
C  -4.72400 32.67100 30.92000
C  -5.78400 33.36800 31.69500
O  -6.23700 34.51100 31.68700
O  -6.07300 32.38600 32.61500
C  -7.00500 32.75700 33.65200
H  -0.53200 38.09800 30.29600
H  -0.05700 36.82800 23.92400
H  -4.12300 31.90500 24.47000
H  -3.74100 35.19900 32.30600
H  -1.23500 36.82500 32.20800
H  -4.09900 37.32700 32.57200
H  -3.57400 38.26800 31.13400
H  -2.72200 38.44500 32.64600
H  -0.82900 34.17200 32.48000
H  -2.20600 33.21000 32.77400
H  -2.27000 35.71500 34.31200
H  -0.83700 34.80500 34.70300
H  0.28400 40.67700 28.28300
H  1.88100 39.90600 28.12200
H  0.87200 39.38400 29.44700
H  1.20200 40.87500 25.65800
H  2.49200 40.49200 24.53400
H  2.71600 39.96600 26.25200
H  -0.38500 34.45100 22.75500
H  -3.06500 33.51500 22.40400
H  -2.93800 35.48700 21.63300
H  -1.26000 35.67800 21.05300
H  -1.84000 36.71100 22.34600
H  -1.28100 31.73300 23.80300
H  -0.56500 32.38400 22.41100
H  -1.47600 31.15600 20.95700
H  -3.16400 31.55600 21.49400
H  -2.30200 30.22700 22.18900
H  -6.33200 31.32000 25.60700
H  -6.40700 30.37700 27.13500
H  -5.06300 30.08200 25.89000
H  -4.06100 32.09100 31.56100
H  -6.71200 33.44800 34.44200
H  -7.41800 31.86300 34.12000
H  -7.89900 33.16300 33.17900

