158

Mg 2.55600 -2.20300 43.94900
C  5.89500 -1.07900 44.30700
C  1.70300 0.88400 42.56000
C  -0.35900 -3.35100 42.83600
C  3.68900 -5.45600 44.73600
N  3.69200 -0.29200 43.38500
C  5.02700 -0.10400 43.65000
C  5.39300 1.40800 43.50200
C  3.98800 2.02700 43.26900
C  3.04800 0.82500 43.04900
C  3.43600 3.03000 44.33900
C  6.39000 1.63800 42.31300
C  6.05300 0.87400 40.99500
H  6.13400 1.59800 39.64800
N  0.78500 -1.26300 43.12300
C  0.71700 -0.07400 42.49200
C  -0.54400 0.11900 41.88100
C  -1.25300 -1.07000 42.08000
C  -0.25300 -1.98600 42.66000
C  -0.92800 1.25500 41.09500
C  -2.67100 -1.36900 41.70700
O  -3.34500 -0.46600 41.15500
C  -3.41200 -2.72000 42.08200
N  1.73400 -4.09600 43.91000
C  0.48800 -4.27600 43.46200
C  0.03800 -5.71200 43.76000
C  1.31000 -6.40900 44.44100
C  2.33000 -5.26500 44.42300
C  -1.29000 -5.84900 44.51900
C  1.78500 -7.67100 43.66400
C  2.60800 -7.52000 42.29600
N  4.46300 -3.21400 44.44100
C  4.72800 -4.50600 44.71100
C  6.10200 -4.57800 45.09900
C  6.63900 -3.29500 45.03900
C  5.61000 -2.49600 44.52900
C  6.80600 -5.84300 45.63600
C  7.78000 -2.46800 45.30900
O  8.92500 -2.69400 45.65700
C  7.32100 -1.00700 44.84900
C  7.40000 -0.03300 45.96900
O  6.67400 -0.04300 46.98700
O  8.29400 0.97300 45.68200
C  8.45900 1.88600 46.78900
H  1.42300 1.87900 42.20600
H  -1.32000 -3.77000 42.52900
H  3.92600 -6.47800 45.04100
H  5.76000 1.75700 44.46700
H  3.95600 2.63200 42.36300
H  2.88500 3.84400 43.86900
H  4.28300 3.46700 44.86800
H  2.92900 2.46900 45.12400
H  7.33300 1.26700 42.71100
H  6.52600 2.69300 42.07300
H  5.05700 0.43700 40.93900
H  6.73300 0.02800 41.08900
H  -1.62900 0.95200 40.31800
H  -0.13900 1.73600 40.51700
H  -1.22200 2.00000 41.83500
H  -4.49700 -2.75700 41.98800
H  -3.20000 -2.96700 43.12300
H  -2.94500 -3.50200 41.48400
H  -0.24100 -6.08600 42.77500
H  1.16000 -6.68100 45.48500
H  -1.02600 -6.10700 45.54400
H  -1.89800 -6.61900 44.04300
H  -1.84400 -4.91500 44.43200
H  0.93400 -8.32300 43.46700
H  2.26900 -8.30200 44.40900
H  3.60200 -7.91400 42.50500
H  2.64700 -6.49000 41.94000
H  2.03400 -8.06500 41.54600
H  6.08400 -6.16400 46.38600
H  7.85700 -5.70700 45.89400
H  6.72500 -6.59700 44.85300
H  7.99500 -0.59700 44.09700
H  7.80400 1.83300 47.65800
H  8.59700 2.89300 46.39500
H  9.41800 1.60500 47.22400
Mg 40.48600 9.45000 29.88300
C  42.43300 10.54000 32.65900
C  38.15800 8.33800 32.15300
C  38.74400 8.24800 27.23900
C  43.17400 10.32200 27.75900
N  40.37800 9.37700 32.14800
C  41.18500 9.99700 33.00300
C  40.72700 9.95800 34.47600
C  39.36300 9.18100 34.31100
C  39.28100 8.94400 32.78600
C  39.34900 7.80100 35.13000
C  40.64900 11.36300 35.13000
C  39.63700 11.48000 36.31600
H  40.08300 12.44800 37.39000
N  38.70100 8.39100 29.71300
C  37.85000 8.13000 30.78800
C  36.57600 7.61300 30.18700
C  36.72800 7.69600 28.80300
C  38.11000 8.10400 28.52000
C  35.42200 7.16500 31.05300
C  35.70700 7.44100 27.71200
O  35.93400 7.51100 26.52500
C  34.41400 7.03900 28.14600
N  40.92200 9.33600 27.84300
C  39.96400 8.85300 26.89300
C  40.52100 9.06400 25.43200
C  41.84600 9.88600 25.68400
C  41.99300 9.87100 27.21200
C  40.79300 7.75600 24.62100
C  41.85800 11.32900 25.12100
C  41.18500 12.40400 25.90900
N  42.47800 10.25500 30.08800
C  43.40700 10.48600 29.14700
C  44.51100 11.12800 29.84100
C  44.15300 11.18000 31.16900
C  42.94400 10.56200 31.25600
C  45.82700 11.60700 29.21700
C  44.65300 11.66200 32.45800
O  45.70100 12.25000 32.80300
C  43.56400 11.20800 33.50000
C  44.14900 10.25800 34.47600
O  44.34300 9.09400 34.34600
O  44.50900 10.94400 35.63500
C  45.54800 10.35400 36.51300
H  37.39000 8.00500 32.85400
H  38.25400 7.81200 26.36500
H  43.93500 10.66800 27.05800
H  41.37600 9.30100 35.05500
H  38.58000 9.87700 34.61300
H  39.97600 7.91600 36.01300
H  39.66600 6.95000 34.52700
H  38.34200 7.60700 35.50100
H  40.51600 12.12500 34.36200
H  41.59000 11.61300 35.61900
H  39.31200 10.55500 36.79100
H  38.81300 12.00500 35.83200
H  35.40900 7.43900 32.10800
H  35.43700 6.08500 31.20300
H  34.42100 7.45800 30.73800
H  33.84700 7.80300 28.67600
H  34.45900 6.11100 28.71600
H  33.83000 6.84200 27.24600
H  39.78400 9.58900 24.82300
H  42.73100 9.39000 25.28500
H  40.85000 6.93200 25.33300
H  41.77900 7.73500 24.15800
H  39.95700 7.65000 23.93000
H  41.29700 11.28100 24.18900
H  42.87900 11.57900 24.83200
H  40.81400 12.11700 26.89300
H  40.33300 12.80500 25.36100
H  41.89300 13.19700 26.15100
H  45.77400 11.94300 28.18100
H  46.59900 10.83800 29.24500
H  46.30900 12.42500 29.75100
H  43.29200 12.10000 34.06400
H  46.46400 10.02600 36.02000
H  45.09000 9.48500 36.98500
H  45.90800 10.99900 37.31500

