158

Mg 26.35300 0.86700 29.17300
C  28.16700 0.73800 32.22000
C  23.42700 1.15700 31.09200
C  24.51300 0.86200 26.24700
C  29.22400 -0.05900 27.46200
N  25.83400 1.03900 31.48500
C  26.80600 0.94400 32.52000
C  26.01500 1.01000 33.85400
C  24.49000 1.07300 33.44500
C  24.57600 1.08300 31.88000
C  23.56600 -0.08600 33.96500
C  26.38000 2.23900 34.74100
C  25.68100 2.52700 36.05300
H  26.51700 2.76100 37.33800
N  24.30600 1.03900 28.70200
C  23.30400 1.23600 29.65400
C  22.04100 1.41300 28.91200
C  22.36400 1.24700 27.51600
C  23.79700 1.09200 27.42900
C  20.67300 1.48700 29.64400
C  21.40400 1.29500 26.31100
O  21.71800 1.09500 25.15500
C  20.07300 1.76700 26.54100
N  26.73500 0.22200 27.20000
C  25.88100 0.47300 26.19600
C  26.51800 0.17600 24.85700
C  28.00800 -0.14300 25.23300
C  28.03700 0.07100 26.72700
C  25.84800 -0.94100 24.13900
C  28.99700 0.73300 24.51600
C  29.49900 0.35000 23.09800
N  28.29200 0.51100 29.68000
C  29.37800 0.11500 28.89200
C  30.60000 -0.09900 29.67600
C  30.10200 0.14200 30.98300
C  28.75000 0.52600 30.94500
C  31.91700 -0.63500 29.12800
C  30.50400 0.25500 32.36400
O  31.60800 0.13200 32.83500
C  29.24800 0.55600 33.21100
C  28.97600 -0.54100 34.18000
O  28.19400 -1.48700 34.03900
O  29.47500 -0.13800 35.36700
C  29.22300 -1.03100 36.52100
H  22.51100 1.24500 31.67900
H  24.01000 0.87800 25.27800
H  30.12500 -0.32500 26.90400
H  26.24700 0.10200 34.41200
H  24.06600 2.04000 33.71700
H  22.98200 -0.63600 33.22700
H  22.84900 0.31500 34.68200
H  24.18500 -0.86700 34.40600
H  26.33800 3.11800 34.09800
H  27.42600 2.15800 35.03800
H  25.06300 1.63700 36.17100
H  25.06700 3.42000 35.93100
H  20.03200 0.65500 29.35600
H  20.03100 2.29400 29.28900
H  20.70700 1.51600 30.73400
H  19.60300 1.98200 25.58100
H  20.16500 2.64100 27.18500
H  19.56300 0.94500 27.04300
H  26.24200 1.04700 24.26300
H  28.16900 -1.21400 25.10900
H  25.32200 -1.53000 24.89100
H  26.53600 -1.61700 23.63100
H  25.13100 -0.60900 23.38800
H  29.92600 0.92400 25.05300
H  28.52400 1.70800 24.39400
H  30.57300 0.53400 23.05600
H  29.00600 0.99100 22.36700
H  29.49000 -0.72400 22.91100
H  31.76100 -1.40300 28.37100
H  32.37500 -1.08300 30.01000
H  32.46600 0.22500 28.74400
H  29.26700 1.49300 33.76900
H  29.42500 -2.05100 36.19700
H  28.30800 -0.85500 37.08700
H  29.92600 -0.88100 37.34100
Mg 42.05700 40.91400 26.51400
C  41.25200 43.08100 28.99300
C  42.74400 38.36900 28.85900
C  42.86600 38.78700 24.02300
C  41.56500 43.51500 24.12000
N  42.18200 40.82000 28.66300
C  41.75800 41.83700 29.50100
C  41.73300 41.35700 30.97100
C  42.50400 39.92000 30.87400
C  42.50400 39.67800 29.34600
C  43.93500 39.96000 31.42100
C  40.44300 41.35700 31.66600
C  40.36400 42.07400 33.09600
H  39.89300 41.13800 34.24700
N  42.67900 38.90500 26.47600
C  42.88400 37.99500 27.53800
C  43.32000 36.72900 27.09000
C  43.30500 36.83200 25.63900
C  42.93400 38.22300 25.30900
C  43.59700 35.51300 27.89900
C  43.38800 35.79100 24.60600
O  43.29000 36.03800 23.40300
C  43.67100 34.38100 24.92400
N  42.30800 41.21600 24.36500
C  42.57400 40.03600 23.56400
C  42.55000 40.51400 22.07700
C  41.84000 41.94400 22.12700
C  41.95600 42.27000 23.61200
C  43.94500 40.58400 21.48400
C  40.29900 41.86400 21.59100
C  39.30600 40.77600 22.10100
N  41.60400 42.92600 26.50500
C  41.40100 43.91700 25.48800
C  41.02200 45.16600 26.04500
C  40.85800 44.82100 27.38400
C  41.22800 43.48200 27.65800
C  40.78900 46.42200 25.41000
C  40.51500 45.39300 28.65800
O  39.91900 46.45200 28.94500
C  40.72300 44.33900 29.76800
C  41.51500 44.95800 30.86300
O  42.66500 45.29700 30.79100
O  40.68500 45.24400 31.89300
C  41.37600 45.91000 32.95000
H  42.88100 37.65600 29.67500
H  43.06400 38.20200 23.12200
H  41.39100 44.26400 23.34400
H  42.45200 41.97900 31.50400
H  41.96200 39.07400 31.29600
H  44.55800 40.70100 30.92000
H  44.23900 38.91300 31.41100
H  43.95400 40.18500 32.48700
H  40.21000 40.30100 31.80500
H  39.73000 41.82000 30.98400
H  39.57000 42.80100 32.92800
H  41.27900 42.58500 33.39900
H  42.88800 34.77000 27.53400
H  43.46600 35.61400 28.97600
H  44.60100 35.17900 27.63600
H  42.85200 33.83600 25.39400
H  44.57200 34.22700 25.51800
H  43.79100 33.71500 24.06900
H  41.90600 39.90100 21.44600
H  42.50100 42.67200 21.65500
H  43.78900 40.24500 20.46000
H  44.62900 39.86600 21.93800
H  44.45600 41.54700 21.49600
H  40.39100 41.70200 20.51700
H  39.87900 42.86200 21.71700
H  38.98700 40.17500 21.25000
H  38.41600 41.15500 22.60400
H  39.78100 40.18400 22.88300
H  41.28700 46.43000 24.44100
H  41.34700 47.14500 26.00400
H  39.75700 46.74600 25.27600
H  39.76900 44.06500 30.21700
H  42.19000 45.31600 33.36600
H  40.69500 46.04900 33.78900
H  41.72500 46.87100 32.57200

