158

Mg 17.11500 -1.87600 27.70300
C  16.36700 0.41800 30.42500
C  18.92600 -3.67900 29.89800
C  18.31000 -3.48400 25.13300
C  15.64200 0.59200 25.59800
N  17.54300 -1.66400 29.99700
C  17.08000 -0.78600 30.90600
C  17.40100 -1.13900 32.39700
C  18.38000 -2.38600 32.18100
C  18.31900 -2.60300 30.61300
C  19.81500 -2.26100 32.80300
C  16.21000 -1.35900 33.37900
C  16.47100 -1.07500 34.87600
H  17.86200 -0.44200 35.32300
N  18.17500 -3.52500 27.59200
C  18.87000 -4.13000 28.58500
C  19.43200 -5.37900 28.06000
C  19.39600 -5.27000 26.65700
C  18.64900 -3.99600 26.36700
C  20.27500 -6.39900 28.84100
C  20.18400 -6.11400 25.57700
O  20.30400 -5.65300 24.50700
C  21.10800 -7.23600 25.92700
N  16.79500 -1.60800 25.73600
C  17.57700 -2.35800 24.83500
C  17.30600 -1.87500 23.37600
C  16.42100 -0.63700 23.55800
C  16.21200 -0.58400 25.05200
C  18.57800 -1.66600 22.59800
C  15.01800 -0.62300 22.85900
C  14.86300 0.42300 21.71600
N  16.15300 0.15900 27.88400
C  15.57500 0.92400 26.94200
C  15.06700 2.10600 27.53500
C  15.32100 1.91800 28.89100
C  16.02300 0.75200 29.05200
C  14.32300 3.16600 26.86000
C  15.20300 2.55400 30.12700
O  14.50500 3.54800 30.38500
C  15.91800 1.67400 31.18800
C  16.96300 2.39900 31.99400
O  18.17300 2.25200 31.89900
O  16.32900 3.30900 32.73600
C  17.11400 3.83900 33.81600
H  19.47600 -4.29100 30.61600
H  18.84500 -3.97000 24.31500
H  15.19400 1.29800 24.89600
H  18.05000 -0.35800 32.79300
H  17.95900 -3.34100 32.49500
H  19.79000 -1.53400 33.61500
H  20.55300 -1.93900 32.06700
H  20.13600 -3.19700 33.26000
H  15.87000 -2.38400 33.22900
H  15.40200 -0.70800 33.04500
H  16.31300 -2.04200 35.35400
H  15.61400 -0.50200 35.23000
H  20.06900 -7.43300 28.56500
H  20.26400 -6.31900 29.92800
H  21.28500 -6.02200 28.67800
H  21.51500 -7.74600 25.05300
H  20.46200 -8.01900 26.32500
H  21.96100 -6.97500 26.55200
H  16.79100 -2.59800 22.74400
H  16.91700 0.28800 23.26200
H  19.47300 -1.86900 23.18600
H  18.85100 -0.61900 22.47000
H  18.56000 -2.16500 21.62900
H  14.20600 -0.36500 23.53900
H  14.87000 -1.63900 22.49200
H  15.86600 0.65900 21.36100
H  14.45400 1.35400 22.11000
H  14.29200 0.04900 20.86600
H  14.93700 3.39700 25.98900
H  14.24800 4.02500 27.52700
H  13.36300 2.80900 26.48800
H  15.20100 1.44800 31.97600
H  17.56500 4.72500 33.37000
H  17.83300 3.14700 34.25500
H  16.40400 4.19500 34.56200
Mg 35.70800 0.34600 30.20900
C  33.49300 1.78100 32.39800
C  38.10800 0.57100 32.82700
C  38.25700 -0.63500 28.08000
C  33.69700 0.86300 27.42600
N  35.74000 1.06100 32.31000
C  34.64500 1.49700 33.03800
C  34.92600 1.61000 34.49900
C  36.59800 1.67400 34.48900
C  36.87000 1.01000 33.13500
C  37.32000 3.09900 34.69000
C  34.36700 0.45500 35.32300
C  33.38500 0.83700 36.41400
H  33.59200 2.13800 37.22400
N  37.85800 -0.16000 30.47800
C  38.58100 0.00500 31.59800
C  39.97500 -0.42500 31.34800
C  39.94200 -0.98400 30.02200
C  38.66000 -0.53900 29.44100
C  41.06700 -0.45100 32.37300
C  40.98900 -1.72800 29.17700
O  40.79900 -2.13800 28.00600
C  42.26400 -2.09200 29.87300
N  36.08300 0.51100 27.97100
C  37.12400 -0.11400 27.41100
C  36.95800 -0.28700 25.89100
C  35.40300 0.10000 25.63600
C  35.03200 0.48400 27.11500
C  37.87200 0.52100 25.06000
C  34.47000 -0.97600 25.15700
C  33.43800 -0.52500 24.06500
N  33.95800 1.14000 29.87100
C  33.19200 1.20100 28.74700
C  31.85500 1.71800 29.06300
C  31.93600 1.93900 30.48200
C  33.23200 1.58600 30.94400
C  30.77200 1.87200 28.12100
C  31.26000 2.46400 31.61900
O  30.16600 2.95100 31.71500
C  32.20300 2.35000 32.88000
C  32.30400 3.61800 33.58000
O  33.05800 4.54400 33.27400
O  31.39400 3.76400 34.47800
C  31.35500 5.02800 35.29200
H  38.89600 0.56100 33.58200
H  38.81800 -1.23700 27.36100
H  32.97000 0.76700 26.61700
H  34.39900 2.49500 34.85600
H  36.99000 1.02900 35.27600
H  37.93500 3.51000 33.89000
H  37.85300 3.03000 35.63800
H  36.52500 3.81500 34.90100
H  35.13100 -0.09100 35.87600
H  33.63900 -0.09300 34.72400
H  33.47400 0.07600 37.19000
H  32.35900 0.81700 36.04800
H  41.26900 -1.52100 32.41000
H  40.66400 -0.21400 33.35800
H  41.96100 0.14200 32.18000
H  42.71100 -1.12200 30.08800
H  42.84900 -2.49200 29.04400
H  42.02600 -2.65600 30.77400
H  37.04600 -1.31100 25.52900
H  35.36600 0.98400 24.99900
H  38.82600 -0.00800 25.05300
H  37.92900 1.55500 25.40000
H  37.47400 0.49300 24.04600
H  34.04000 -1.41300 26.05700
H  35.02100 -1.82700 24.75800
H  32.46800 -0.74200 24.51200
H  33.52700 -1.17500 23.19400
H  33.29700 0.54300 23.90000
H  30.73500 0.88000 27.67200
H  31.06600 2.67500 27.44500
H  29.83400 2.06900 28.64100
H  31.74600 1.72500 33.64800
H  30.66300 5.85400 35.12900
H  32.34100 5.48300 35.38900
H  31.04600 4.66400 36.27100

