158

Mg -1.94600 16.96100 26.97100
C  -2.52600 14.63100 29.64400
C  -2.29500 19.44800 29.24700
C  -1.63600 18.88400 24.43900
C  -2.24400 14.14700 24.67100
N  -2.29500 16.93500 29.17100
C  -2.31500 15.93500 30.12100
C  -2.54600 16.40200 31.59300
C  -2.59400 17.98000 31.28500
C  -2.41700 18.14800 29.79100
C  -3.86700 18.60700 31.85000
C  -1.30800 15.94100 32.43900
C  -0.80400 16.73200 33.57600
H  -0.25000 16.05200 34.90400
N  -1.84200 18.97300 26.84000
C  -2.04500 19.84600 27.90700
C  -1.94500 21.13700 27.33900
C  -1.71800 21.02400 25.94400
C  -1.75600 19.60900 25.69300
C  -2.01300 22.36700 28.27100
C  -1.49300 22.09500 24.87100
O  -1.28100 21.83800 23.70300
C  -1.51000 23.47300 25.27500
N  -2.09600 16.57800 24.84700
C  -1.89500 17.63600 24.05700
C  -1.89400 17.24900 22.58600
C  -1.71100 15.68000 22.66100
C  -2.06800 15.41900 24.13100
C  -3.21400 17.70000 21.82900
C  -0.26600 15.10500 22.31500
C  0.85000 15.55900 23.18600
N  -2.27700 14.85400 27.08500
C  -2.37000 13.90900 26.04500
C  -2.43000 12.65400 26.70400
C  -2.59100 12.89500 28.10600
C  -2.48500 14.20900 28.24600
C  -2.45800 11.34600 26.03900
C  -2.89000 12.23900 29.41300
O  -3.24000 11.10500 29.67800
C  -2.70100 13.35300 30.44500
C  -1.49400 12.94500 31.21300
O  -0.31700 13.26800 31.00200
O  -1.86400 12.30600 32.38000
C  -0.99700 12.24500 33.56900
H  -2.35400 20.21400 30.02300
H  -1.61500 19.61000 23.62400
H  -2.38800 13.28800 24.01300
H  -3.43700 15.97500 32.05300
H  -1.80300 18.62300 31.67300
H  -4.09500 18.07400 32.77400
H  -4.62500 18.62500 31.06600
H  -3.71800 19.66200 32.07900
H  -0.44300 15.69200 31.82400
H  -1.61600 15.03900 32.96700
H  -1.71900 17.30900 33.70800
H  0.05800 17.31000 33.24300
H  -2.80300 23.05500 27.97100
H  -1.09700 22.95400 28.20100
H  -2.10200 22.14700 29.33400
H  -2.41200 23.72900 25.83000
H  -1.53300 23.99600 24.31900
H  -0.62800 23.67700 25.88200
H  -1.00900 17.65700 22.09800
H  -2.58100 15.24000 22.17300
H  -2.92400 18.24700 20.93100
H  -3.87600 18.32700 22.42600
H  -3.66400 16.78600 21.44200
H  -0.02900 15.50800 21.33100
H  -0.34100 14.02400 22.43600
H  1.47900 16.11400 22.49100
H  1.28900 14.67300 23.64500
H  0.45200 16.21500 23.96000
H  -3.20400 11.41800 25.24700
H  -2.86100 10.58100 26.70300
H  -1.50100 10.99200 25.65800
H  -3.40400 13.56800 31.24900
H  -0.93100 13.27600 33.91800
H  0.01100 11.92200 33.30800
H  -1.37100 11.68400 34.42500
Mg 16.65200 -1.24300 28.10100
C  15.58200 1.02400 30.60800
C  18.40000 -2.75500 30.28500
C  18.03300 -2.88300 25.44800
C  14.81200 0.74500 25.75200
N  17.03700 -0.77800 30.24200
C  16.42900 0.01000 31.06500
C  16.88100 -0.21600 32.55400
C  17.92600 -1.37400 32.43100
C  17.76700 -1.68300 30.91300
C  19.33200 -1.16500 32.93900
C  15.68300 -0.58800 33.44900
C  15.60200 0.03900 34.89700
H  16.98600 0.59300 35.39900
N  17.96800 -2.72600 27.90000
C  18.57400 -3.23300 28.98700
C  19.46500 -4.37300 28.64100
C  19.50700 -4.26500 27.17900
C  18.46400 -3.26600 26.76100
C  20.09600 -5.41300 29.56700
C  20.33500 -5.09600 26.25200
O  20.30400 -4.89500 25.03100
C  21.26300 -6.14800 26.87200
N  16.41600 -1.12900 25.94700
C  17.18700 -1.84700 25.07800
C  16.84300 -1.44900 23.62500
C  15.70400 -0.38300 23.78300
C  15.59200 -0.29400 25.24700
C  18.06500 -1.01900 22.82400
C  14.32700 -0.85700 23.19200
C  14.07400 -0.41000 21.79300
N  15.39900 0.52700 28.11300
C  14.75200 1.18600 27.05200
C  14.04300 2.27800 27.62300
C  14.39300 2.32400 29.00100
C  15.16100 1.22700 29.25100
C  13.08100 3.15000 26.77600
C  14.02600 2.98800 30.17300
O  13.29500 3.98900 30.38200
C  14.75700 2.09400 31.32300
C  15.53000 3.08300 32.18000
O  16.71400 3.25800 32.26500
O  14.65800 3.64200 33.04900
C  15.18000 4.31900 34.22500
H  19.01800 -3.28600 31.01200
H  18.39100 -3.35600 24.53200
H  14.22600 1.28300 25.00400
H  17.41700 0.71200 32.75600
H  17.66100 -2.27500 32.98500
H  19.40600 -0.18500 33.41000
H  19.95500 -1.01300 32.05700
H  19.65800 -1.89500 33.68000
H  15.52000 -1.65800 33.57700
H  14.84200 -0.33000 32.80400
H  15.35500 -0.76600 35.59000
H  14.81800 0.79500 34.84700
H  21.18400 -5.37500 29.60700
H  19.73500 -6.34500 29.13100
H  19.75800 -5.34000 30.60000
H  22.07100 -5.66900 27.42500
H  21.62500 -6.65900 25.97900
H  20.73800 -6.89100 27.47300
H  16.49500 -2.38000 23.17900
H  16.14700 0.51100 23.34500
H  17.76300 -0.18100 22.19500
H  18.45800 -1.81600 22.19300
H  18.85700 -0.79900 23.53900
H  13.50700 -0.50400 23.81800
H  14.39100 -1.94200 23.10900
H  14.93900 0.11900 21.39300
H  13.18400 0.18300 21.58100
H  14.15800 -1.26700 21.12500
H  13.06000 2.72200 25.77400
H  13.46500 4.17000 26.79200
H  12.05600 3.12600 27.14600
H  14.06500 1.60800 32.01200
H  15.95400 3.70600 34.68700
H  14.38200 4.41000 34.96200
H  15.53300 5.32000 33.97400

