158

Mg 27.40800 50.66700 26.64900
C  25.17900 51.69400 29.34300
C  29.74200 49.78800 28.80300
C  29.19500 49.85700 24.06000
C  24.80100 51.76000 24.51600
N  27.47800 50.94400 28.76800
C  26.41500 51.09300 29.70600
C  26.91700 50.81100 31.12000
C  28.40700 50.29200 30.95500
C  28.60900 50.30700 29.38400
C  29.45000 51.05300 31.69900
C  25.88600 50.01800 31.97800
C  26.40400 49.03400 33.05300
H  26.80500 49.62200 34.35800
N  29.19500 50.00000 26.51400
C  30.11500 49.78300 27.44800
C  31.39600 49.47700 26.89100
C  31.26700 49.51400 25.48900
C  29.83200 49.81900 25.30300
C  32.58900 49.00700 27.76900
C  32.29300 49.17000 24.48100
O  31.96200 49.21400 23.28600
C  33.64300 48.70800 24.88100
N  26.96700 50.78800 24.56900
C  27.92200 50.27000 23.68600
C  27.41100 50.28100 22.26600
C  25.92300 50.67400 22.45900
C  25.83300 51.05300 23.90300
C  28.27100 51.20400 21.37900
C  24.85600 49.55100 22.02900
C  25.10800 48.19600 22.65500
N  25.45700 51.62400 26.86000
C  24.60600 52.06000 25.84500
C  23.47500 52.70100 26.46100
C  23.63400 52.55600 27.83200
C  24.89700 51.92400 28.05500
C  22.41200 53.38600 25.62000
C  23.04700 52.89600 29.02600
O  21.99100 53.45400 29.19700
C  23.97600 52.31100 30.10600
C  24.41700 53.46300 31.03900
O  25.04200 54.44400 30.71000
O  24.06100 53.26500 32.33600
C  24.33500 54.26900 33.32200
H  30.38100 49.33800 29.56600
H  29.74700 49.56400 23.16400
H  23.99300 51.99900 23.82100
H  26.88800 51.76900 31.63900
H  28.51700 49.28000 31.34500
H  30.17700 50.40100 32.18500
H  29.05500 51.76600 32.42300
H  30.01900 51.61900 30.96200
H  25.39800 49.43000 31.20100
H  25.21100 50.66900 32.53300
H  27.23600 48.47300 32.62800
H  25.66100 48.25700 33.23100
H  33.05500 48.07100 27.46300
H  32.23200 48.95700 28.79700
H  33.33100 49.80500 27.77300
H  34.06400 49.32200 25.67800
H  34.25000 48.79700 23.98100
H  33.44900 47.73800 25.34000
H  27.62700 49.33400 21.77000
H  25.63000 51.55600 21.88900
H  27.59200 51.96000 20.98600
H  28.73300 50.56700 20.62500
H  29.06700 51.62800 21.99300
H  24.79300 49.39500 20.95200
H  23.87300 49.83500 22.40200
H  24.54200 48.06900 23.57800
H  26.12200 48.01800 23.01200
H  25.05400 47.41400 21.89700
H  22.00700 52.67300 24.90200
H  22.71700 54.29300 25.09700
H  21.58500 53.61700 26.29100
H  23.39800 51.61900 30.71900
H  24.83800 55.18600 33.01800
H  24.87600 53.79000 34.13800
H  23.41300 54.57700 33.81500
Mg -1.64700 34.11600 26.83000
C  -3.39300 32.32900 29.29200
C  -0.48900 36.08400 29.38200
C  0.11200 35.90300 24.49500
C  -3.06700 32.24900 24.40400
N  -1.88400 34.12800 29.07000
C  -2.51600 33.17100 29.84000
C  -2.24000 33.39200 31.36900
C  -1.37700 34.70800 31.27500
C  -1.29400 35.04200 29.80300
C  -1.97700 35.94200 32.00800
C  -1.62900 32.20700 32.17500
C  -2.21600 31.95400 33.62000
H  -1.31400 32.03100 34.89600
N  -0.37600 35.80300 26.94500
C  -0.03900 36.42300 28.07400
C  0.91300 37.40800 27.78300
C  1.25800 37.33000 26.39400
C  0.26700 36.37500 25.85600
C  1.60100 38.19700 28.90000
C  2.36500 37.99200 25.58000
O  2.42700 37.89700 24.34900
C  3.41100 38.92600 26.21700
N  -1.62900 34.24300 24.80600
C  -0.72500 34.90900 23.97800
C  -0.55400 34.27700 22.59000
C  -1.71200 33.29200 22.57000
C  -2.14500 33.17500 24.05300
C  -0.57500 35.20100 21.31000
C  -1.29600 32.00900 21.77600
C  -2.21600 31.61400 20.59000
N  -3.08700 32.75800 26.74500
C  -3.56400 32.00900 25.66900
C  -4.40600 30.94900 26.10700
C  -4.36100 31.06500 27.47200
C  -3.56000 32.18100 27.87200
C  -4.97500 29.87000 25.22900
C  -4.78900 30.42300 28.71200
O  -5.56200 29.45600 28.96700
C  -4.11600 31.14400 29.86800
C  -5.20800 31.51300 30.88300
O  -6.25500 32.14700 30.75200
O  -4.87500 30.78500 32.03000
C  -5.77000 30.84300 33.19300
H  -0.06600 36.73800 30.14800
H  0.76800 36.36900 23.75700
H  -3.46400 31.57400 23.64200
H  -3.23400 33.65700 31.73000
H  -0.35100 34.50600 31.58500
H  -1.09500 36.29000 32.54500
H  -2.80500 35.66400 32.66000
H  -2.42300 36.72700 31.39700
H  -0.55100 32.36100 32.22200
H  -1.71600 31.33900 31.52200
H  -2.76400 31.02800 33.79700
H  -3.01000 32.69700 33.68700
H  2.30200 37.52800 29.40000
H  0.86900 38.65100 29.56700
H  2.14500 39.09000 28.59200
H  3.98100 38.28200 26.88700
H  2.87800 39.72900 26.72500
H  4.10400 39.20000 25.42200
H  0.39000 33.74000 22.67700
H  -2.55900 33.73400 22.04500
H  0.49000 35.39700 21.19300
H  -1.04000 36.16600 21.50800
H  -0.98400 34.69500 20.43400
H  -1.23100 31.16500 22.46200
H  -0.24700 32.00300 21.47900
H  -1.57100 31.41400 19.73500
H  -2.98200 32.36800 20.41000
H  -2.75500 30.69600 20.82600
H  -4.48300 29.77200 24.26000
H  -5.98600 30.16200 24.94500
H  -5.04500 28.95600 25.81700
H  -3.39700 30.49100 30.36200
H  -6.02000 31.87200 33.45300
H  -5.17300 30.52600 34.04800
H  -6.58600 30.12700 33.09600

