158

Mg -0.31600 7.06900 26.20700
C  0.32100 9.14800 28.84800
C  0.10300 4.34200 28.31200
C  -0.36800 4.90500 23.50800
C  0.07800 9.77600 23.96800
N  0.08500 6.84000 28.30300
C  0.19100 7.82400 29.23100
C  0.29800 7.30700 30.68900
C  0.59800 5.78500 30.36300
C  0.22500 5.65100 28.90400
C  2.05200 5.26600 30.74600
C  -1.02600 7.75700 31.42900
C  -0.80900 8.18500 32.85700
H  0.39400 7.60500 33.59600
N  -0.45000 4.97200 25.96400
C  -0.24000 4.06200 26.98000
C  -0.34700 2.74200 26.37900
C  -0.65500 2.87200 25.02700
C  -0.44100 4.27900 24.77400
C  -0.37800 1.51900 27.24500
C  -1.08500 1.79800 24.01700
O  -1.42300 2.08000 22.88300
C  -1.23500 0.34900 24.48100
N  -0.17300 7.27800 24.09400
C  -0.28300 6.23000 23.17900
C  -0.37000 6.73200 21.73600
C  -0.25300 8.27300 21.93800
C  -0.06700 8.51600 23.41000
C  0.71500 6.15300 20.75700
C  -1.17500 9.13100 21.14600
C  -2.51900 9.49500 21.79900
N  0.21000 9.10300 26.34600
C  0.30300 10.03600 25.33600
C  0.46700 11.36700 25.99100
C  0.48800 11.08600 27.35700
C  0.39700 9.68400 27.51900
C  0.63000 12.73000 25.10500
C  0.65800 11.59500 28.67500
O  0.98800 12.71400 28.99300
C  0.48500 10.39900 29.66700
C  1.65100 10.35100 30.50200
O  2.77800 10.01400 30.18400
O  1.33100 10.85900 31.72100
C  2.52000 11.16400 32.54100
H  0.26300 3.51900 29.01100
H  -0.54700 4.29500 22.62000
H  -0.06500 10.59300 23.25700
H  1.14500 7.84900 31.10900
H  -0.15500 5.21500 30.90700
H  2.69000 5.11000 29.87600
H  2.04600 4.36100 31.35300
H  2.52600 6.03500 31.35600
H  -1.74800 6.94300 31.49900
H  -1.54000 8.52500 30.85100
H  -1.64000 7.97000 33.52800
H  -0.84300 9.26500 33.00200
H  -0.03200 1.64100 28.27200
H  0.25900 0.73700 26.83200
H  -1.42000 1.21500 27.34200
H  -0.29900 -0.14300 24.74600
H  -1.65200 -0.12700 23.59400
H  -1.76200 0.19100 25.42200
H  -1.39300 6.60500 21.38200
H  0.72000 8.51900 21.51400
H  1.25700 6.85300 20.12000
H  0.14600 5.62200 19.99400
H  1.33300 5.38400 21.22000
H  -1.40000 8.66500 20.18600
H  -0.77800 10.13200 20.97800
H  -3.33000 9.50600 21.07100
H  -2.48900 10.52600 22.15000
H  -2.80800 8.77300 22.56300
H  -0.33500 13.21200 24.94800
H  1.16900 12.42600 24.20800
H  1.28000 13.49000 25.53900
H  -0.37900 10.47900 30.32700
H  2.27800 10.76700 33.52700
H  2.77300 12.21700 32.66400
H  3.44600 10.61700 32.36300
Mg 30.52100 57.80100 40.40600
C  27.66100 56.15700 38.92600
C  32.46300 55.13800 39.60200
C  33.12900 59.82400 40.79500
C  28.31100 60.50700 41.13600
N  30.12700 55.95700 39.26700
C  28.87700 55.39300 38.80900
C  29.05700 53.99900 38.32200
C  30.38700 53.57300 38.97900
C  31.09600 54.97400 39.28500
C  30.32100 52.58000 40.12700
C  29.00700 54.05300 36.76300
C  28.16500 52.95600 36.03300
H  27.41900 53.49800 34.76300
N  32.54400 57.60400 40.12900
C  33.16800 56.39700 39.89500
C  34.59200 56.52800 39.94900
C  34.86400 57.89700 40.09900
C  33.53400 58.53900 40.34000
C  35.51500 55.38500 39.78500
C  36.25300 58.54100 40.28200
O  37.31400 57.85900 40.15800
C  36.46200 59.97900 40.46500
N  30.60500 59.88300 40.66400
C  31.87700 60.43700 40.98300
C  31.66400 61.90800 41.33600
C  30.18500 62.01200 41.63900
C  29.70000 60.72200 41.09100
C  32.57200 62.47400 42.36000
C  29.51600 63.35200 41.06700
C  28.39000 63.97700 41.90800
N  28.38000 58.23800 40.21400
C  27.64800 59.32300 40.64700
C  26.25700 59.19100 40.22100
C  26.18500 57.88100 39.59100
C  27.50800 57.40600 39.57700
C  25.16800 60.16400 40.51100
C  25.34300 56.79100 38.86200
O  24.13800 56.84200 38.60400
C  26.26200 55.74300 38.55500
C  25.89400 54.59500 39.38500
O  25.78100 54.57900 40.57700
O  25.51500 53.61700 38.53600
C  24.67700 52.53700 39.00700
H  33.06800 54.23600 39.49100
H  34.00500 60.47000 40.87500
H  27.63900 61.29300 41.48700
H  28.20300 53.39100 38.62200
H  30.84800 53.06900 38.13000
H  30.93700 53.05600 40.88900
H  30.78100 51.64900 39.79500
H  29.29100 52.45800 40.46100
H  29.99900 53.96900 36.31900
H  28.56600 54.98500 36.40700
H  27.26500 52.74200 36.61000
H  28.78000 52.07700 35.84100
H  35.44300 55.09200 38.73800
H  35.21400 54.61100 40.49000
H  36.52600 55.51300 40.17300
H  36.19900 60.24600 41.48800
H  35.85700 60.50800 39.72900
H  37.44100 60.31200 40.11900
H  31.85600 62.36700 40.36600
H  29.95700 62.00700 42.70500
H  33.15000 61.67700 42.82800
H  32.07800 63.01100 43.16900
H  33.09900 63.24600 41.79900
H  28.99900 62.99600 40.17600
H  30.15500 64.07500 40.56000
H  28.04700 63.35100 42.73200
H  27.53700 64.17600 41.25900
H  28.71000 64.91800 42.35500
H  25.37700 60.49900 41.52700
H  24.23000 59.61100 40.47600
H  25.17300 61.00900 39.82200
H  26.27900 55.52000 37.48800
H  24.48700 51.92500 38.12600
H  23.81000 52.83800 39.59400
H  25.20400 51.87800 39.69800

