158

Mg 42.88900 42.26800 26.48900
C  41.80600 44.37500 29.04000
C  44.61400 40.45500 28.87100
C  44.27200 40.61900 24.03300
C  41.51700 44.67500 24.14200
N  43.05200 42.33000 28.75000
C  42.45600 43.21800 29.57800
C  42.68600 42.97500 31.07700
C  43.65000 41.75400 31.02200
C  43.87700 41.51500 29.45700
C  45.01600 41.78500 31.79900
C  41.35200 42.59200 31.67500
C  41.27800 41.95900 33.08100
H  40.32100 42.52700 34.07800
N  44.24400 40.68300 26.47100
C  44.79300 40.04500 27.54500
C  45.50100 38.90700 27.10900
C  45.33300 38.90100 25.63700
C  44.65000 40.11200 25.29200
C  46.28400 38.01500 27.93500
C  45.82700 37.89500 24.60000
O  45.61600 37.97800 23.35400
C  46.66100 36.68000 25.10300
N  43.12100 42.70200 24.42700
C  43.52300 41.69900 23.62500
C  43.34900 42.02200 22.05900
C  42.29300 43.17400 22.19000
C  42.28300 43.53800 23.69600
C  44.60500 42.52900 21.34600
C  40.95000 42.84300 21.57800
C  40.08600 41.86400 22.44300
N  41.95700 44.23300 26.49100
C  41.40300 45.02800 25.51700
C  40.63400 46.11700 26.11100
C  40.80100 45.90800 27.48000
C  41.59700 44.71300 27.65400
C  39.99200 47.23900 25.31700
C  40.45100 46.40300 28.78600
O  39.82300 47.38200 29.16700
C  40.97000 45.41100 29.80700
C  41.79700 46.19200 30.81700
O  42.90600 46.70200 30.62700
O  41.10700 46.17100 31.98700
C  41.65500 46.82000 33.11500
H  44.92500 39.74800 29.64300
H  44.55100 39.99000 23.18500
H  40.97400 45.19100 23.34700
H  43.22500 43.79500 31.55100
H  43.20900 40.85400 31.45000
H  45.17300 42.82000 32.10400
H  45.97100 41.38100 31.46100
H  44.80300 41.25900 32.73000
H  40.66100 42.02800 31.04800
H  40.78900 43.51100 31.83900
H  42.28200 42.05500 33.49500
H  40.99300 40.91000 33.00300
H  46.31700 38.50700 28.90800
H  47.26900 37.72700 27.56900
H  45.77600 37.05900 28.06000
H  47.10500 36.18300 24.24000
H  46.05200 35.95300 25.63900
H  47.56300 37.11200 25.53800
H  42.79900 41.22200 21.56400
H  42.60000 44.06300 21.63900
H  44.86100 43.56300 21.57600
H  44.48400 42.35400 20.27700
H  45.44300 41.94000 21.71800
H  41.12900 42.39700 20.60000
H  40.37700 43.76900 21.62700
H  40.35000 41.91400 23.50000
H  40.10400 40.81000 22.16600
H  39.04900 42.19600 22.50100
H  40.74400 47.94300 24.96000
H  39.26500 47.71400 25.97600
H  39.56900 46.83900 24.39600
H  40.08500 44.98200 30.27800
H  41.89200 46.16900 33.95700
H  40.85200 47.50200 33.39300
H  42.61700 47.32500 33.03200
Mg -6.21200 24.79000 25.53300
C  -4.96300 26.49300 28.28300
C  -8.25900 23.04900 27.43100
C  -7.30400 23.36400 22.75100
C  -3.92700 26.61100 23.58900
N  -6.45700 24.74400 27.67000
C  -5.91200 25.54200 28.65000
C  -6.29500 25.11000 30.05200
C  -7.12500 23.78600 29.73800
C  -7.36100 23.85900 28.18200
C  -6.39600 22.43700 30.18800
C  -7.00200 26.23500 30.81700
C  -6.43600 26.54400 32.21700
H  -5.86900 25.42200 33.08100
N  -7.65100 23.53900 25.15300
C  -8.48200 22.96400 26.10700
C  -9.58600 22.20200 25.39200
C  -9.15700 22.18900 24.05800
C  -7.94900 23.03500 23.94700
C  -10.68700 21.49500 26.09100
C  -9.93300 21.44900 22.88800
O  -9.60700 21.59100 21.69700
C  -10.97000 20.39600 23.19300
N  -5.74100 25.05100 23.44400
C  -6.28900 24.29800 22.42900
C  -5.69700 24.49300 21.09100
C  -4.69800 25.75700 21.37200
C  -4.72700 25.74800 22.88400
C  -4.98800 23.24700 20.51200
C  -5.17400 27.00600 20.60100
C  -4.39100 27.46300 19.38200
N  -4.79200 26.25200 25.82400
C  -3.96400 26.90900 24.93500
C  -3.13100 27.91400 25.65800
C  -3.52900 27.77200 26.96700
C  -4.54000 26.77600 26.99900
C  -2.30800 28.94000 25.00000
C  -3.28500 28.22200 28.28300
O  -2.55400 29.07700 28.73800
C  -4.06300 27.32000 29.16700
C  -3.18700 26.42500 29.90000
O  -2.77700 25.30800 29.58700
O  -2.92800 26.93300 31.15000
C  -1.82900 26.30300 31.99100
H  -9.03300 22.50600 27.97800
H  -7.58900 22.81600 21.85100
H  -3.10200 26.93900 22.95200
H  -5.39000 24.77000 30.55700
H  -8.04400 23.75200 30.32300
H  -5.34600 22.57300 30.44800
H  -6.40400 21.79100 29.30900
H  -6.95100 21.93200 30.97900
H  -8.06400 25.99300 30.87600
H  -6.98000 27.13000 30.19600
H  -7.33800 26.99300 32.63400
H  -5.71200 27.34900 32.33800
H  -11.59600 21.79400 25.57000
H  -10.68000 21.79300 27.14000
H  -10.57500 20.41500 25.99100
H  -10.71200 19.66600 23.96100
H  -11.00000 19.77700 22.29700
H  -11.99400 20.75900 23.28300
H  -6.55900 24.74900 20.47500
H  -3.69700 25.48400 21.03700
H  -4.81000 22.46400 21.24900
H  -4.02900 23.58200 20.11700
H  -5.63500 22.85700 19.72700
H  -5.22400 27.82400 21.32000
H  -6.18800 26.89900 20.21500
H  -4.93900 27.70700 18.47100
H  -3.77700 26.70300 18.90100
H  -3.65000 28.24100 19.56700
H  -1.64100 29.33700 25.76400
H  -2.93600 29.72800 24.58500
H  -1.66700 28.46600 24.25700
H  -4.65600 27.86100 29.90500
H  -0.85200 26.16300 31.52900
H  -2.26400 25.39200 32.40300
H  -1.55300 27.05000 32.73500

