158

Mg -2.31000 17.79000 27.68000
C  -2.94300 15.65300 30.24900
C  -2.91900 20.51500 29.91000
C  -2.61100 19.89000 25.05700
C  -2.36200 15.05500 25.50300
N  -2.88400 18.07600 29.85700
C  -2.94800 16.96300 30.71800
C  -2.99200 17.45900 32.23600
C  -3.28300 19.00900 32.00800
C  -2.92900 19.24900 30.49200
C  -4.71200 19.37700 32.44600
C  -1.66700 17.17000 32.92800
C  -1.43900 17.87500 34.26800
H  -1.06200 17.10700 35.55200
N  -2.49200 19.89300 27.50500
C  -2.71400 20.83800 28.49800
C  -2.69000 22.12700 27.91200
C  -2.65600 21.96300 26.52300
C  -2.53700 20.54300 26.31700
C  -2.94400 23.40300 28.61300
C  -2.60300 23.03300 25.46000
O  -2.41200 22.80900 24.24500
C  -2.62100 24.51300 25.83300
N  -2.61000 17.51600 25.59900
C  -2.54000 18.51100 24.70400
C  -2.63800 18.05900 23.20700
C  -2.21800 16.60200 23.41900
C  -2.27800 16.35800 24.94800
C  -4.05800 18.22900 22.68200
C  -0.82800 16.32900 22.82700
C  0.41600 16.99200 23.49700
N  -2.45600 15.78600 27.80400
C  -2.54100 14.78600 26.80200
C  -2.92400 13.46800 27.42300
C  -2.95100 13.78400 28.78300
C  -2.76100 15.16200 28.94700
C  -3.15400 12.07700 26.82100
C  -3.26900 13.21400 30.05700
O  -3.58500 12.13200 30.34400
C  -2.98900 14.41100 31.09700
C  -1.73000 14.03800 31.65400
O  -0.70100 14.03800 31.09400
O  -1.97100 13.77500 32.98100
C  -0.84500 13.56400 33.83100
H  -3.18400 21.41500 30.46800
H  -2.83900 20.50500 24.18400
H  -2.39700 14.18800 24.84100
H  -3.77200 16.91600 32.77000
H  -2.67800 19.73600 32.55100
H  -5.29000 19.90300 31.68600
H  -4.63000 20.05400 33.29700
H  -5.31400 18.50100 32.68700
H  -0.89600 17.61100 32.29600
H  -1.40100 16.12000 33.04500
H  -2.41900 18.27400 34.52900
H  -0.76300 18.70100 34.04800
H  -2.23100 24.17600 28.32600
H  -3.12600 23.29700 29.68300
H  -3.89600 23.76100 28.22000
H  -1.81100 24.83400 26.48800
H  -3.61900 24.63700 26.25200
H  -2.55000 25.08600 24.90900
H  -1.87700 18.56000 22.60800
H  -2.91700 15.95800 22.88600
H  -4.26100 19.22000 22.27500
H  -4.75600 18.14500 23.51500
H  -4.40200 17.53000 21.91900
H  -0.84000 16.78300 21.83600
H  -0.63500 15.25900 22.90600
H  1.03300 17.44500 22.72200
H  1.00800 16.15500 23.86700
H  0.15000 17.59400 24.36600
H  -2.25400 11.46400 26.78100
H  -3.41800 12.12100 25.76400
H  -3.84500 11.57200 27.49600
H  -3.76200 14.37300 31.86500
H  -0.94200 14.07600 34.78800
H  0.06700 13.88500 33.32800
H  -0.73100 12.52800 34.15100
Mg 28.32900 56.64200 40.69300
C  26.71800 53.68000 39.81600
C  31.27200 55.34600 39.32300
C  29.83900 59.53000 41.42400
C  25.16600 58.03000 41.36600
N  28.90700 54.70300 39.67900
C  28.05000 53.67700 39.39200
C  28.73800 52.51500 38.78700
C  30.22600 52.92300 38.83300
C  30.17800 54.39600 39.39200
C  31.32500 51.96800 39.58700
C  28.16000 51.93500 37.38100
C  27.67700 53.08600 36.45800
H  27.94400 53.01400 34.94800
N  30.34200 57.37100 40.36200
C  31.34000 56.71300 39.78300
C  32.50400 57.63300 39.70600
C  32.15200 58.83700 40.38500
C  30.73600 58.61300 40.78900
C  33.86100 57.22200 39.09200
C  33.05100 60.01900 40.58300
O  34.22300 59.89900 40.27000
C  32.67000 61.27600 41.32000
N  27.59000 58.54800 41.03400
C  28.41500 59.50400 41.50500
C  27.64800 60.75200 42.06200
C  26.14900 60.36400 41.83900
C  26.24600 58.87500 41.39100
C  28.01500 61.02800 43.52900
C  25.46800 61.20300 40.71100
C  26.31100 61.54500 39.51100
N  26.29200 56.00000 40.75200
C  25.12100 56.65300 41.01500
C  23.92500 55.76100 40.87500
C  24.53700 54.60000 40.45400
C  25.96900 54.79100 40.34300
C  22.53400 56.09400 41.26100
C  24.31600 53.21900 40.05700
O  23.29000 52.59500 39.99000
C  25.72000 52.52400 39.81700
C  25.93000 51.51300 40.87500
O  25.74500 51.69200 42.08200
O  26.58900 50.50900 40.31700
C  27.35000 49.58900 41.20000
H  32.25900 55.00400 39.00200
H  30.36900 60.38700 41.84600
H  24.24200 58.31400 41.87300
H  28.63000 51.66400 39.45900
H  30.51400 53.06200 37.79100
H  32.22000 51.87200 38.97300
H  30.79900 51.06000 39.88200
H  31.66100 52.47900 40.49000
H  27.33500 51.26400 37.62400
H  28.93900 51.35500 36.88600
H  28.21800 54.00500 36.68300
H  26.62700 53.29800 36.65800
H  34.21800 58.01300 38.43300
H  33.80700 56.22400 38.65800
H  34.60800 57.07100 39.87200
H  32.23500 60.97800 42.27400
H  31.97200 61.87300 40.73400
H  33.52900 61.82700 41.70300
H  27.89900 61.67000 41.53100
H  25.59700 60.36900 42.77900
H  27.13100 61.10200 44.16100
H  28.51300 61.98700 43.67400
H  28.54000 60.21500 44.03200
H  25.14200 62.13100 41.17900
H  24.57200 60.77400 40.26100
H  27.15500 60.88300 39.31700
H  26.68300 62.54700 39.72600
H  25.69500 61.53800 38.61200
H  22.25900 57.10500 40.96000
H  22.49400 55.97000 42.34400
H  21.91200 55.32500 40.80400
H  25.53200 51.98600 38.88800
H  28.38000 49.45900 40.86700
H  26.85900 48.63000 41.36200
H  27.47200 50.06300 42.17400

