158

Mg -2.82900 34.81500 28.04100
C  -4.54700 32.80200 30.08900
C  -1.75700 36.55400 30.65400
C  -1.28600 36.86300 25.79700
C  -4.26100 33.19600 25.22600
N  -3.19200 34.70000 30.11500
C  -3.85400 33.73400 30.79500
C  -3.80100 33.84300 32.34100
C  -3.11700 35.24400 32.47800
C  -2.66000 35.56200 30.99700
C  -4.10500 36.32100 32.98500
C  -3.00800 32.61700 32.87000
C  -3.61000 32.12600 34.15600
H  -4.18500 33.21700 35.14800
N  -1.72800 36.48200 28.19500
C  -1.33300 37.01200 29.39900
C  -0.40600 38.17400 29.13400
C  -0.35100 38.31000 27.72700
C  -1.15200 37.22300 27.17200
C  0.18400 39.04100 30.26600
C  0.27900 39.45000 26.96200
O  0.00400 39.68100 25.79300
C  1.19300 40.39800 27.66500
N  -2.78900 34.99900 25.73100
C  -1.97100 35.85700 25.11000
C  -1.74100 35.52400 23.56600
C  -2.66400 34.24800 23.49000
C  -3.30700 34.11200 24.89200
C  -2.26600 36.52000 22.53700
C  -1.95100 32.89200 22.95700
C  -2.78800 32.08300 21.84800
N  -4.19200 33.30700 27.66800
C  -4.69900 32.76200 26.50500
C  -5.60900 31.71300 26.87800
C  -5.45200 31.54800 28.23700
C  -4.64000 32.60600 28.70500
C  -6.34500 30.67600 25.99700
C  -5.85000 30.79300 29.41600
O  -6.59100 29.81400 29.48800
C  -5.28700 31.58100 30.66800
C  -6.51200 32.00100 31.51500
O  -7.19800 33.00400 31.30000
O  -6.67800 31.03600 32.46900
C  -7.74100 31.29400 33.35800
H  -1.43100 36.95900 31.61400
H  -0.72600 37.56800 25.18000
H  -4.48400 32.44600 24.46400
H  -4.80500 33.81800 32.76500
H  -2.17300 35.05200 32.98900
H  -5.09800 35.88100 33.07700
H  -4.23400 37.17000 32.31400
H  -3.72600 36.62900 33.96000
H  -1.96100 32.83500 33.08200
H  -2.99400 31.73700 32.22800
H  -2.80400 31.58500 34.65200
H  -4.35400 31.37100 33.90400
H  1.27100 39.05900 30.18100
H  -0.11200 38.69200 31.25600
H  -0.26400 40.03300 30.31700
H  0.63200 41.09300 28.29000
H  1.72800 40.89200 26.85500
H  1.87500 39.83900 28.30600
H  -0.71700 35.20400 23.37600
H  -3.57000 34.42700 22.91100
H  -1.79500 37.49900 22.62400
H  -3.32700 36.65400 22.74700
H  -2.06000 36.06500 21.56700
H  -1.72600 32.28900 23.83700
H  -0.92800 32.95100 22.58500
H  -3.18700 31.28200 22.46900
H  -2.04800 31.62400 21.19200
H  -3.40400 32.69300 21.18700
H  -6.61100 31.13900 25.04700
H  -7.25000 30.32600 26.49300
H  -5.68900 29.82700 25.80200
H  -4.67800 30.83000 31.17400
H  -7.54100 32.26800 33.80400
H  -7.66300 30.51600 34.11700
H  -8.62600 31.19900 32.72800
Mg -5.97700 25.19400 26.01900
C  -4.63000 26.51100 29.16400
C  -7.65500 22.83800 27.97100
C  -6.48700 23.60000 23.38400
C  -3.81300 27.48700 24.50100
N  -6.10600 24.73600 28.30300
C  -5.47600 25.38400 29.34700
C  -5.92500 24.83100 30.79300
C  -6.64400 23.44300 30.29300
C  -6.88000 23.65400 28.76000
C  -5.86500 22.18000 30.64600
C  -6.74500 25.96000 31.47600
C  -6.65100 26.15500 32.99400
H  -6.07800 24.98400 33.77600
N  -7.15300 23.56300 25.64300
C  -7.80700 22.70800 26.54400
C  -8.51800 21.76600 25.85000
C  -8.23800 21.90300 24.43500
C  -7.26500 23.02800 24.43200
C  -9.44000 20.78000 26.57700
C  -8.75000 21.14100 23.27900
O  -8.30300 21.43300 22.14000
C  -9.86900 20.16300 23.42200
N  -5.33200 25.57700 24.24500
C  -5.63300 24.71100 23.25000
C  -4.91700 25.03600 21.89100
C  -4.22500 26.40200 22.33800
C  -4.51000 26.55700 23.81100
C  -3.92900 23.92700 21.47000
C  -4.74600 27.54000 21.41700
C  -3.73400 28.56000 20.93400
N  -4.66500 26.81900 26.67900
C  -3.95300 27.68700 25.88600
C  -3.24700 28.64500 26.71200
C  -3.42400 28.22300 27.99500
C  -4.30200 27.08000 27.92200
C  -2.42300 29.75900 26.09200
C  -3.09200 28.48200 29.35900
O  -2.44000 29.33400 29.89400
C  -3.93300 27.41300 30.17100
C  -2.99300 26.65500 31.07400
O  -2.19300 25.82400 30.70800
O  -3.16700 26.94100 32.37200
C  -2.34200 26.39500 33.38300
H  -8.14800 22.14200 28.65300
H  -6.56100 23.03500 22.45300
H  -3.27500 28.23300 23.91300
H  -4.99900 24.58100 31.31000
H  -7.58200 23.35000 30.84000
H  -4.88800 22.38500 31.08300
H  -5.74000 21.60400 29.72800
H  -6.47000 21.55800 31.30500
H  -7.80600 25.78100 31.30300
H  -6.45100 26.95600 31.14600
H  -7.67200 26.30200 33.34500
H  -5.98400 26.98600 33.22100
H  -10.50400 20.86600 26.35600
H  -9.38900 20.73900 27.66500
H  -9.03900 19.79800 26.32700
H  -9.59800 19.36900 24.11700
H  -9.99900 19.68300 22.45200
H  -10.77200 20.66300 23.77000
H  -5.72000 25.17500 21.16700
H  -3.15600 26.33900 22.13200
H  -4.09500 23.74500 20.40800
H  -4.10100 22.99500 22.00900
H  -2.91600 24.30300 21.61700
H  -5.41400 28.17100 22.00400
H  -5.22100 27.24400 20.48200
H  -4.15800 29.56300 20.98600
H  -3.41300 28.23300 19.94500
H  -2.95300 28.53700 21.69300
H  -2.99200 30.33200 25.36000
H  -1.56400 29.31900 25.58500
H  -2.09200 30.39000 26.91800
H  -4.59200 28.02400 30.78900
H  -1.96900 25.41700 33.07900
H  -2.78700 26.11100 34.33700
H  -1.50000 27.04900 33.60900

