158

Mg 23.78300 -5.87400 46.14600
C  25.99800 -3.51900 44.77400
C  21.33500 -4.74500 44.21900
C  21.92200 -8.46400 47.25700
C  26.70400 -7.44400 47.64000
N  23.70300 -4.30100 44.75000
C  24.71600 -3.50300 44.25400
C  24.07600 -2.43900 43.32700
C  22.54600 -2.68500 43.37200
C  22.55000 -4.02000 44.11700
C  21.69100 -1.48100 43.85500
C  24.79900 -2.46100 41.88600
C  25.28200 -1.04000 41.42900
H  25.22100 -0.73400 39.92700
N  21.85100 -6.43500 45.89500
C  21.01100 -5.86300 44.99000
C  19.73200 -6.47100 45.05600
C  19.87700 -7.60500 45.92200
C  21.28000 -7.52800 46.42100
C  18.61500 -6.02000 44.09200
C  18.68700 -8.50700 46.31000
O  17.58400 -8.33900 45.82200
C  18.82500 -9.60200 47.34700
N  24.15700 -7.64200 47.39800
C  23.21900 -8.56900 47.71600
C  23.72600 -9.63900 48.68300
C  25.28500 -9.40400 48.60800
C  25.45500 -8.06300 47.84900
C  23.12300 -9.56000 50.06600
C  26.12100 -10.50000 47.82700
C  27.38000 -11.04300 48.55100
N  25.95000 -5.50800 46.31200
C  26.90500 -6.20800 46.99200
C  28.17400 -5.48700 46.81900
C  27.84500 -4.30600 46.01400
C  26.44300 -4.43800 45.71800
C  29.45600 -5.83600 47.47200
C  28.38500 -3.17000 45.28800
O  29.46300 -2.50500 45.31200
C  27.17100 -2.58600 44.46100
C  27.00100 -1.24900 45.04300
O  26.81800 -0.93700 46.22000
O  27.21100 -0.24200 44.01700
C  27.12100 1.17000 44.37600
H  20.57900 -4.22200 43.63000
H  21.34800 -9.35500 47.52200
H  27.57900 -7.92400 48.08400
H  24.35000 -1.51800 43.84100
H  22.24400 -3.02600 42.38200
H  21.43000 -0.99700 42.91400
H  22.39400 -0.84300 44.39000
H  20.72900 -1.71400 44.31100
H  24.19400 -2.78800 41.04100
H  25.63600 -3.15800 41.86900
H  26.31000 -1.00100 41.78800
H  24.80700 -0.22200 41.97000
H  17.84100 -6.76900 43.92400
H  19.00200 -5.61900 43.15500
H  18.13700 -5.27500 44.72800
H  17.87900 -10.14500 47.34700
H  19.09900 -9.12300 48.28700
H  19.52800 -10.38800 47.07200
H  23.38200 -10.58700 48.27000
H  25.76500 -9.16600 49.55600
H  22.10800 -9.94400 49.96600
H  23.13500 -8.58100 50.54500
H  23.52600 -10.34000 50.71100
H  26.51300 -10.07300 46.90400
H  25.43700 -11.32000 47.60900
H  27.49700 -12.11500 48.39400
H  27.40400 -10.75100 49.60000
H  28.25200 -10.51500 48.16300
H  29.39300 -6.55300 48.29000
H  30.00000 -4.95200 47.80400
H  30.06600 -6.15000 46.62400
H  27.54400 -2.53500 43.43800
H  27.43500 1.40900 45.39200
H  26.17200 1.56300 44.01100
H  27.86200 1.54300 43.67000
Mg 47.80200 24.69100 27.92100
C  48.17800 27.19900 30.48800
C  46.24400 22.76700 30.30700
C  47.63800 22.22500 25.64300
C  49.55700 26.68400 25.71500
N  47.42500 24.98700 30.14000
C  47.59100 26.06300 30.95900
C  46.82900 25.89500 32.28900
C  46.47200 24.38100 32.29700
C  46.79700 23.94600 30.83400
C  47.22800 23.56000 33.34000
C  45.75400 26.87300 32.59800
C  45.75800 27.48900 34.01100
H  46.51500 26.87400 35.24500
N  46.92200 22.80400 27.92800
C  46.20600 22.24000 28.98500
C  45.82000 20.86100 28.53100
C  45.99600 20.81500 27.10900
C  46.85800 21.97000 26.83100
C  45.18900 19.87300 29.43400
C  45.53200 19.79400 26.02300
O  45.93800 19.85400 24.90500
C  44.74700 18.64800 26.51000
N  48.65500 24.38600 26.07700
C  48.43200 23.30600 25.30500
C  49.19500 23.38500 24.00200
C  49.58300 24.90300 23.98500
C  49.22500 25.37800 25.33900
C  50.39800 22.40700 24.01900
C  48.89700 25.63400 22.85300
C  49.72500 26.71400 22.20900
N  48.72600 26.54600 27.97700
C  49.35800 27.23800 26.99200
C  49.60200 28.61500 27.43000
C  49.14500 28.62400 28.75300
C  48.65900 27.31500 29.09400
C  50.19500 29.74400 26.63100
C  48.93000 29.48100 29.91700
O  49.19000 30.65200 30.05500
C  48.51500 28.55300 31.14100
C  49.73800 28.25800 31.98100
O  50.74600 27.81800 31.50800
O  49.58400 28.64100 33.26400
C  50.85200 28.49700 34.07200
H  45.75400 22.19700 31.10000
H  47.52300 21.43800 24.89400
H  50.16300 27.24800 25.00300
H  47.55600 26.06400 33.08300
H  45.43300 24.18500 32.56100
H  47.86100 24.17100 33.98400
H  47.86300 22.82100 32.85100
H  46.55200 23.00700 33.99200
H  44.77100 26.42900 32.44100
H  45.84200 27.70500 31.90000
H  44.68400 27.47800 34.19700
H  46.06600 28.53100 33.91900
H  45.27000 20.19000 30.47400
H  45.57800 18.86300 29.30500
H  44.16300 19.83500 29.06900
H  43.74800 18.93400 26.83800
H  45.25700 18.19700 27.36200
H  44.65300 17.93400 25.69100
H  48.51300 23.03900 23.22500
H  50.66100 24.92600 23.82600
H  50.28900 21.63900 23.25300
H  50.52300 21.89400 24.97200
H  51.34800 22.90800 23.83100
H  47.94600 26.09500 23.11900
H  48.63000 24.94200 22.05500
H  50.17200 26.29700 21.30600
H  50.56800 27.05900 22.80700
H  49.15400 27.63400 22.08400
H  51.04500 29.32700 26.09300
H  50.50600 30.40700 27.43900
H  49.58800 30.26200 25.88900
H  47.63100 28.81100 31.72400
H  50.77000 27.64500 34.74700
H  50.99400 29.36200 34.72000
H  51.79600 28.49500 33.52700

