158

Mg 8.06700 2.34700 27.66200
C  9.61400 0.83400 30.35900
C  5.97500 3.93100 29.62500
C  6.11200 3.19400 24.85500
C  9.63100 -0.12000 25.59400
N  7.78700 2.27900 29.79500
C  8.65200 1.70300 30.72400
C  8.26700 2.17000 32.18900
C  6.94200 3.01300 31.96100
C  6.85200 3.08500 30.36400
C  5.54100 2.57900 32.57400
C  9.37000 3.00300 33.01000
C  9.93800 2.38400 34.30700
H  10.14700 3.34100 35.51400
N  6.46800 3.59600 27.29900
C  5.80000 4.21200 28.25600
C  4.89300 5.23700 27.73700
C  4.88000 5.03600 26.32800
C  5.86700 3.91100 26.13200
C  4.02800 6.21800 28.57800
C  4.04500 5.68000 25.27300
O  4.31400 5.53300 24.06600
C  3.00500 6.63600 25.67800
N  7.97100 1.75500 25.51600
C  6.96900 2.13300 24.66800
C  6.90800 1.20700 23.39600
C  8.28400 0.40300 23.52800
C  8.63600 0.66500 24.98500
C  5.66200 0.41000 23.18300
C  9.44100 0.76800 22.54300
C  10.43000 -0.29700 22.11200
N  9.33900 0.72000 27.85100
C  9.92100 -0.08800 26.92700
C  10.96700 -0.95700 27.55500
C  10.88500 -0.52300 28.89200
C  9.88500 0.44300 29.03300
C  11.84300 -1.99600 26.86100
C  11.39300 -0.76100 30.23500
O  12.30000 -1.52900 30.64300
C  10.63400 0.10800 31.20700
C  10.12200 -0.76500 32.32300
O  9.07800 -1.41700 32.20800
O  11.01200 -0.75000 33.33400
C  10.45400 -1.33100 34.57800
H  5.46300 4.57900 30.34000
H  5.47800 3.45200 24.00500
H  10.28300 -0.74800 24.98200
H  8.00200 1.23600 32.68400
H  7.03100 4.06600 32.23000
H  5.02100 3.35500 33.13600
H  5.82300 1.71900 33.18100
H  4.86900 2.26600 31.77500
H  9.10400 4.03800 33.22500
H  10.18000 3.20400 32.30900
H  10.89300 1.95500 34.00600
H  9.23200 1.63700 34.67200
H  4.39300 6.36600 29.59400
H  3.04100 5.75700 28.58500
H  4.11600 7.14100 28.00400
H  2.43300 6.14200 26.46400
H  2.38400 6.89800 24.82100
H  3.36700 7.53000 26.18600
H  7.04300 1.92600 22.58700
H  8.06600 -0.66100 23.42600
H  5.02700 0.38800 24.06900
H  5.78900 -0.63700 22.90700
H  5.08600 0.94000 22.42400
H  9.95900 1.64100 22.93900
H  8.94000 1.10300 21.63500
H  10.36300 -1.26800 22.60400
H  11.42800 0.12200 22.23700
H  10.24100 -0.54600 21.06800
H  12.89000 -1.71700 26.74200
H  11.47100 -2.18300 25.85300
H  11.74900 -2.91700 27.43600
H  11.40400 0.80400 31.54100
H  11.24800 -1.15000 35.30200
H  10.23300 -2.39900 34.56100
H  9.58700 -0.75600 34.90300
Mg 35.09800 2.85500 29.51100
C  33.00100 3.92600 32.12900
C  37.74300 3.04400 31.69500
C  37.32000 2.59400 26.92600
C  32.48600 3.39700 27.23000
N  35.23900 3.42700 31.70100
C  34.26400 3.72300 32.58800
C  34.81300 3.78500 34.02500
C  36.41700 3.71300 33.80300
C  36.47900 3.31300 32.34900
C  37.15300 5.06400 34.10400
C  34.32000 2.52000 34.86900
C  34.39400 2.54600 36.45000
H  35.15900 3.64400 37.04900
N  37.21400 2.58500 29.39400
C  38.04400 2.61700 30.39500
C  39.34200 2.18200 29.95600
C  39.34900 2.11600 28.54400
C  37.93900 2.39600 28.19200
C  40.52400 2.19100 30.93400
C  40.45500 1.86300 27.54700
O  40.15000 1.71900 26.39500
C  41.98700 1.63100 27.97800
N  34.91500 3.09500 27.37800
C  35.98900 2.93800 26.46400
C  35.46000 2.74200 25.04700
C  33.95700 3.00900 25.17900
C  33.73500 3.15300 26.67000
C  36.12000 3.45500 23.79100
C  32.94900 1.98300 24.51500
C  33.05100 0.53900 25.24600
N  33.18400 3.42400 29.60400
C  32.24300 3.62300 28.56500
C  31.00600 4.05400 29.16600
C  31.26100 4.06600 30.57600
C  32.61200 3.80000 30.79000
C  29.74200 4.37500 28.45700
C  30.59100 4.26800 31.86500
O  29.46600 4.44400 32.17300
C  31.73500 4.19200 32.88900
C  31.76000 5.45800 33.70000
O  32.27100 6.47500 33.32000
O  31.17000 5.26500 34.92700
C  31.20500 6.38400 35.93200
H  38.59100 2.97900 32.38000
H  37.96400 2.35100 26.07800
H  31.62500 3.36400 26.55900
H  34.48900 4.68200 34.55200
H  36.86700 2.88500 34.35000
H  37.76300 5.38000 33.25800
H  37.87900 4.93600 34.90600
H  36.50700 5.89600 34.38300
H  34.88200 1.65800 34.50700
H  33.28000 2.33400 34.60100
H  34.71200 1.57000 36.81700
H  33.39100 2.70800 36.84400
H  40.89700 3.16900 31.23700
H  41.33200 1.59000 30.51700
H  40.32600 1.54200 31.78700
H  42.58300 1.29000 27.13200
H  42.09200 0.88100 28.76200
H  42.40200 2.57700 28.32800
H  35.47500 1.65800 24.93400
H  33.71300 3.99000 24.76900
H  36.19700 2.73300 22.97800
H  37.15400 3.72900 24.00100
H  35.46400 4.31100 23.63300
H  33.19600 1.76400 23.47600
H  31.92000 2.32400 24.62400
H  33.38600 -0.15100 24.47200
H  32.11900 0.23800 25.72400
H  33.89300 0.49200 25.93600
H  29.33500 3.50300 27.94500
H  29.97100 5.12800 27.70300
H  28.96800 4.78500 29.10500
H  31.44900 3.44200 33.62600
H  31.22700 6.04400 36.96800
H  30.35800 7.04900 35.76500
H  32.07200 7.03700 35.84300

