158

Mg 1.14900 43.59000 25.86000
C  3.44700 43.52200 28.54600
C  -1.17300 42.47000 28.07200
C  -0.73900 43.01100 23.22300
C  3.90500 44.24900 23.75200
N  1.21400 43.03500 28.11500
C  2.17700 43.25800 28.96900
C  1.64500 43.09100 30.43900
C  0.24600 42.61100 30.28000
C  0.03900 42.77800 28.72000
C  0.06900 41.11000 30.87100
C  1.84700 44.39000 31.17400
C  2.22800 44.44300 32.64500
H  1.60700 43.29200 33.42900
N  -0.77000 42.99100 25.67000
C  -1.56000 42.58900 26.74000
C  -2.86300 42.20700 26.19300
C  -2.71900 42.27800 24.76000
C  -1.41100 42.75200 24.47800
C  -3.96900 41.73300 27.10500
C  -3.66000 41.81300 23.65700
O  -3.45600 41.80200 22.42700
C  -5.04100 41.19800 24.05600
N  1.51200 43.71600 23.91600
C  0.50900 43.48600 22.97800
C  1.09000 43.58000 21.53900
C  2.39900 44.36400 21.74700
C  2.66700 43.96200 23.22100
C  1.28100 42.21100 20.79200
C  2.18200 45.88800 21.65800
C  3.06200 46.55000 20.58900
N  3.24900 43.93000 26.10200
C  4.27400 44.13000 25.11200
C  5.50900 44.23800 25.73800
C  5.22800 43.99400 27.11600
C  3.86100 43.82300 27.23800
C  6.84600 44.35600 25.16100
C  5.86000 43.88800 28.42200
O  7.02600 43.93100 28.77100
C  4.69500 43.61400 29.44600
C  4.93500 42.32200 30.21000
O  5.05500 41.27600 29.63900
O  5.14200 42.44500 31.54300
C  5.16800 41.22200 32.37300
H  -2.02300 42.35900 28.74700
H  -1.27000 42.73900 22.30800
H  4.69600 44.53400 23.05400
H  2.25100 42.45600 31.08500
H  -0.38200 43.29500 30.85100
H  -0.56200 41.14600 31.75900
H  0.97900 40.56000 31.11000
H  -0.43200 40.51300 30.10800
H  0.89900 44.92800 31.16200
H  2.62900 44.95200 30.66400
H  1.95000 45.44900 32.96100
H  3.30600 44.47600 32.80000
H  -5.00900 41.67300 26.78300
H  -4.07800 42.47100 27.90000
H  -3.68100 40.75500 27.48900
H  -4.88300 40.17500 24.39800
H  -5.60000 41.16800 23.12000
H  -5.46900 41.90500 24.76600
H  0.40300 44.09400 20.86800
H  3.19900 43.98600 21.11100
H  1.35700 41.39900 21.51600
H  2.24300 42.26400 20.28300
H  0.54300 42.02000 20.01300
H  2.31800 46.29700 22.65900
H  1.15200 46.12800 21.39400
H  2.48400 47.22500 19.95700
H  3.57300 45.81900 19.96300
H  3.84900 47.06800 21.13600
H  6.76400 44.06200 24.11500
H  7.49400 43.66600 25.70100
H  7.11600 45.40500 25.28400
H  4.62100 44.46100 30.12800
H  5.80400 40.50900 31.84700
H  4.28200 40.68000 32.70200
H  5.65600 41.52000 33.30100
Mg -11.08700 16.05100 42.30200
C  -8.00100 14.74500 41.57900
C  -10.13300 18.90700 40.20800
C  -14.31100 17.05100 41.82200
C  -12.12500 13.16000 43.65000
N  -9.31800 16.64900 40.87500
C  -8.08800 15.97500 40.88300
C  -6.99300 16.82500 40.13700
C  -7.67400 18.22000 40.03000
C  -9.14100 17.92700 40.44800
C  -6.88700 19.33400 40.78300
C  -6.54600 16.26400 38.73500
C  -5.08400 16.45000 38.20600
H  -5.00000 17.16300 36.78300
N  -12.02400 17.88700 41.41700
C  -11.45200 18.88600 40.64200
C  -12.46500 19.81700 40.24100
C  -13.68500 19.29700 40.82100
C  -13.40000 17.99300 41.38600
C  -12.32700 21.07200 39.46900
C  -15.02000 20.01900 40.88400
O  -15.13700 21.10400 40.29300
C  -16.26600 19.63300 41.73000
N  -12.99200 15.18900 42.72000
C  -14.18600 15.81400 42.54200
C  -15.37700 15.01700 43.01200
C  -14.57300 13.86800 43.80800
C  -13.13400 14.03000 43.35200
C  -16.36000 15.81900 43.91300
C  -15.18900 12.47600 43.52200
C  -15.27700 11.60100 44.72200
N  -10.24900 14.34500 42.74000
C  -10.80600 13.21700 43.35000
C  -9.67100 12.22700 43.61500
C  -8.55800 12.86500 43.00600
C  -8.96100 14.10800 42.43400
C  -9.69200 10.85600 44.21000
C  -7.19400 12.62200 42.63900
O  -6.41900 11.72800 42.91300
C  -6.73700 13.91600 41.73600
C  -5.69700 14.70700 42.42400
O  -5.78500 15.40800 43.40500
O  -4.57100 14.43400 41.63200
C  -3.29900 15.04200 42.16500
H  -9.96500 19.88100 39.74400
H  -15.34700 17.12100 41.48200
H  -12.43100 12.23900 44.15000
H  -6.15900 16.98600 40.82000
H  -7.83800 18.60400 39.02400
H  -6.05300 19.00700 41.40300
H  -7.60500 19.84700 41.42300
H  -6.53200 20.14100 40.14200
H  -7.12300 16.84500 38.01600
H  -6.68200 15.18300 38.74100
H  -4.60400 15.47300 38.16500
H  -4.54300 17.08300 38.91000
H  -12.02300 21.86200 40.15600
H  -13.24900 21.43400 39.01500
H  -11.62400 20.99900 38.63900
H  -16.78800 20.55700 41.97600
H  -15.72000 19.32800 42.62300
H  -16.96400 18.95800 41.23500
H  -15.96400 14.68100 42.15700
H  -14.65500 14.03800 44.88200
H  -16.06300 16.86200 44.02000
H  -16.51600 15.48600 44.94000
H  -17.29600 15.72000 43.36300
H  -14.47700 11.98900 42.85600
H  -16.11400 12.61500 42.96300
H  -14.60600 10.77400 44.49100
H  -16.27500 11.16400 44.69300
H  -15.02400 12.00400 45.70300
H  -10.41600 10.72400 45.01400
H  -8.74300 10.71500 44.72700
H  -9.85300 10.13800 43.40600
H  -6.45900 13.61000 40.72800
H  -2.45600 14.38000 41.96800
H  -3.34900 15.12700 43.25000
H  -3.20500 16.01500 41.68300

