158

Mg 8.70000 2.61900 27.76100
C  10.21200 1.34000 30.64700
C  6.81700 4.61500 29.80600
C  7.09500 3.64800 25.02100
C  10.31400 0.11900 25.81300
N  8.66500 2.97800 29.97600
C  9.40900 2.40900 30.99500
C  9.19400 3.00200 32.34200
C  8.13200 4.10100 32.00600
C  7.84600 3.96200 30.51100
C  6.82000 4.17100 32.83700
C  10.53300 3.56800 32.90200
C  10.37000 4.45000 34.19300
H  11.26500 4.20500 35.38000
N  7.13000 3.92900 27.46500
C  6.56000 4.69300 28.46600
C  5.58700 5.54300 27.86300
C  5.64600 5.31400 26.41400
C  6.68400 4.26400 26.22100
C  4.82600 6.61600 28.59200
C  4.80500 5.93700 25.37200
O  4.94400 5.58900 24.17700
C  3.61900 6.89900 25.74100
N  8.75700 2.02700 25.66700
C  7.94600 2.54300 24.74500
C  8.26500 1.98700 23.35600
C  9.29800 0.92700 23.59800
C  9.49600 0.98800 25.09000
C  6.93200 1.59000 22.63900
C  10.64900 1.10500 22.77800
C  11.23200 -0.19700 22.12600
N  9.90100 1.04100 28.07900
C  10.49300 0.11900 27.24100
C  11.37000 -0.77100 28.02400
C  11.25400 -0.36500 29.36000
C  10.33000 0.73900 29.33200
C  12.33600 -1.81700 27.44100
C  11.69800 -0.63300 30.63400
O  12.54700 -1.37200 31.06900
C  11.03200 0.51000 31.56300
C  10.32400 -0.19300 32.75400
O  9.27700 -0.78800 32.75300
O  10.95900 0.20000 33.91500
C  10.32400 -0.21400 35.18300
H  6.35700 5.30300 30.51800
H  6.61000 4.05700 24.13200
H  10.88400 -0.55500 25.17000
H  8.58000 2.35800 32.97000
H  8.67000 5.04000 32.13700
H  6.12000 3.59800 32.22900
H  6.43800 5.18400 32.96400
H  7.00600 3.67200 33.78800
H  10.98100 4.18400 32.12200
H  11.18600 2.72100 33.11400
H  9.33300 4.48900 34.52600
H  10.59800 5.50800 34.06400
H  5.03300 7.61700 28.21300
H  4.88700 6.54700 29.67800
H  3.75500 6.57200 28.39800
H  2.82800 6.35900 26.26000
H  3.31100 7.33700 24.79200
H  3.85500 7.85000 26.21900
H  8.67600 2.73900 22.68200
H  8.84400 -0.05300 23.45700
H  6.47500 2.34200 21.99700
H  6.22000 1.58600 23.46400
H  6.92800 0.61000 22.16300
H  11.35300 1.62100 23.43100
H  10.47800 1.79500 21.95100
H  11.24700 -0.00200 21.05300
H  10.62100 -1.02300 22.49100
H  12.29100 -0.23200 22.38000
H  11.71500 -2.47100 26.82900
H  12.82200 -2.40600 28.21900
H  13.13700 -1.36000 26.86000
H  11.89200 0.99600 32.02400
H  9.28000 0.10100 35.17000
H  10.81700 0.41300 35.92600
H  10.44100 -1.28400 35.35700
Mg 30.00700 57.91300 41.51900
C  27.05100 56.22500 40.81300
C  31.76300 55.47400 40.03700
C  32.59200 60.13700 41.37200
C  28.02900 60.57200 42.95100
N  29.45100 56.19900 40.37400
C  28.20200 55.59900 40.36700
C  28.27500 54.33200 39.38700
C  29.84600 53.90900 39.53500
C  30.38400 55.31800 39.85000
C  30.23500 52.80200 40.55300
C  27.77800 54.63900 37.98400
C  27.19300 53.47700 37.10300
H  26.61000 53.85100 35.76700
N  31.97500 57.79900 40.95700
C  32.55000 56.62600 40.41800
C  33.99700 56.79000 40.38600
C  34.24300 58.15900 40.76000
C  32.90200 58.77500 41.06900
C  34.95800 55.71500 39.86900
C  35.66900 58.73800 40.92500
O  36.69800 58.09600 40.88400
C  35.81800 60.27100 41.12000
N  30.23000 60.08400 41.91800
C  31.40500 60.75500 41.79800
C  31.31500 62.22600 42.30200
C  29.85900 62.27500 42.77200
C  29.32400 60.89400 42.53400
C  32.34500 62.55800 43.31300
C  29.10500 63.39600 41.98700
C  27.87000 64.02600 42.71600
N  27.99500 58.38000 41.93900
C  27.31400 59.38700 42.52700
C  25.86700 59.04700 42.68000
C  25.70600 57.84000 41.99200
C  26.97800 57.45900 41.52200
C  24.74300 59.93200 43.20200
C  24.81100 56.77800 41.53300
O  23.57800 56.76400 41.77300
C  25.54300 55.74400 40.74300
C  25.47600 54.41700 41.41600
O  26.09600 54.20000 42.41400
O  24.67100 53.51700 40.76200
C  24.62800 52.33400 41.51600
H  32.39000 54.64200 39.71100
H  33.39000 60.88300 41.39100
H  27.61800 61.42900 43.48800
H  27.67900 53.55800 39.87000
H  30.13300 53.61200 38.52600
H  31.30800 52.72600 40.72700
H  29.90600 51.85200 40.13300
H  29.71600 53.06500 41.47500
H  28.67600 54.92700 37.43800
H  27.03400 55.42900 37.88600
H  26.35100 53.10500 37.68700
H  27.96900 52.75700 36.84200
H  35.84300 56.09500 39.35800
H  34.49100 54.92600 39.28000
H  35.48400 55.27700 40.71800
H  35.30700 60.70000 41.98200
H  35.45400 60.64100 40.16200
H  36.87600 60.52400 41.04600
H  31.41900 62.85400 41.41800
H  29.71200 62.53600 43.82000
H  33.05200 61.74200 43.45600
H  31.98300 62.83700 44.30300
H  32.86900 63.45900 42.99400
H  28.67300 63.03300 41.05400
H  29.68500 64.28700 41.75000
H  27.89900 65.11400 42.66000
H  27.87000 63.66800 43.74600
H  26.94000 63.76400 42.21000
H  24.38600 60.57700 42.39900
H  25.16900 60.64400 43.90900
H  23.98300 59.30600 43.67100
H  25.22400 55.76700 39.70100
H  25.63200 51.90900 41.50800
H  23.97700 51.68700 40.92800
H  24.21400 52.46100 42.51600

