158

Mg 41.01400 8.64600 31.48200
C  43.14600 9.89200 33.88000
C  38.69900 8.13300 33.85000
C  39.12300 7.40400 29.03200
C  43.68300 8.96200 29.08800
N  40.91500 9.09000 33.60500
C  41.91700 9.59800 34.42200
C  41.33000 9.76900 35.85000
C  39.94500 9.11000 35.78000
C  39.85600 8.70700 34.34000
C  39.64900 7.99500 36.83900
C  41.27200 11.26700 36.23800
C  40.25800 11.71700 37.30700
H  40.79300 12.73900 38.25400
N  39.25900 7.82300 31.45800
C  38.41100 7.68000 32.49200
C  37.13600 6.99400 32.11000
C  37.21900 6.85400 30.69800
C  38.55800 7.43000 30.30300
C  36.02600 6.47900 33.06100
C  36.20300 6.21300 29.74000
O  36.38600 6.04300 28.55500
C  34.79500 5.79800 30.23300
N  41.41300 8.04600 29.36500
C  40.39300 7.69700 28.60100
C  40.78500 7.43700 27.20000
C  42.25800 7.90700 27.16800
C  42.57900 8.17300 28.63000
C  40.72100 5.88700 26.63900
C  42.48400 9.18400 26.22000
C  41.74800 10.44900 26.67000
N  43.01700 9.27700 31.46100
C  43.88500 9.48300 30.41600
C  45.05300 10.13900 30.90400
C  44.76100 10.38300 32.26400
C  43.56400 9.82100 32.55700
C  46.35200 10.51200 30.25000
C  45.37400 10.77900 33.52400
O  46.48500 11.20600 33.74300
C  44.34400 10.51300 34.69100
C  44.92300 9.59800 35.62300
O  44.75300 8.36900 35.52600
O  45.53800 10.20000 36.66400
C  45.85000 9.42500 37.84000
H  37.99800 7.85200 34.63900
H  38.36500 7.15800 28.28500
H  44.45300 9.13500 28.33300
H  41.89700 9.20000 36.58700
H  39.15900 9.85700 35.88500
H  38.76800 8.17000 37.45600
H  40.41600 7.90100 37.60700
H  39.53100 7.04900 36.31000
H  40.98900 11.79900 35.33000
H  42.27200 11.58000 36.53700
H  39.72000 10.94200 37.85200
H  39.62200 12.42400 36.77300
H  35.20500 7.18500 32.93400
H  36.31300 6.59000 34.10600
H  35.80400 5.43400 32.84400
H  34.37600 6.74500 30.57400
H  34.94100 5.02600 30.98800
H  34.01400 5.47500 29.54500
H  40.18100 7.93100 26.44000
H  42.99800 7.12800 26.98700
H  40.36900 5.14200 27.35300
H  41.72100 5.53300 26.38900
H  40.03600 5.85600 25.79100
H  41.91800 8.90100 25.33200
H  43.51800 9.46600 26.02200
H  42.38400 11.28300 26.37500
H  41.63700 10.51300 27.75300
H  40.75400 10.46600 26.22300
H  46.78900 9.84000 29.51200
H  47.10400 10.71000 31.01300
H  46.20500 11.47000 29.75000
H  44.09700 11.45800 35.17600
H  46.92200 9.51000 38.02000
H  45.65300 8.36700 37.66100
H  45.26400 9.73300 38.70600
Mg 0.26800 43.57300 25.26400
C  2.37100 43.15400 28.20700
C  -2.44400 42.79900 27.29500
C  -1.52200 43.56100 22.51900
C  3.22300 43.96600 23.41700
N  0.04200 42.84100 27.55600
C  0.99400 42.96300 28.50000
C  0.37600 42.79700 29.89100
C  -1.13800 42.51500 29.52200
C  -1.18200 42.70900 28.01700
C  -1.74200 41.09600 29.73100
C  0.58500 43.98300 30.82400
C  0.83900 43.72000 32.29400
H  0.60100 42.34700 32.99200
N  -1.70800 43.22500 24.95200
C  -2.70700 43.00000 25.90400
C  -4.01700 43.06000 25.20000
C  -3.73100 43.27100 23.78200
C  -2.25800 43.36500 23.68900
C  -5.33500 43.01900 25.90100
C  -4.67400 43.32700 22.67700
O  -4.27500 43.27400 21.55700
C  -6.17600 43.27800 22.91100
N  0.75200 43.74700 23.29500
C  -0.15900 43.78700 22.31600
C  0.48700 43.88500 20.96800
C  1.89500 44.32700 21.28200
C  1.97500 43.93400 22.77800
C  0.36100 42.51000 20.14400
C  2.11300 45.79300 21.05100
C  3.36600 46.29000 20.21200
N  2.38600 43.46100 25.64300
C  3.40800 43.76800 24.81200
C  4.66200 43.92200 25.57800
C  4.27800 43.64100 26.88200
C  2.90100 43.38900 26.89400
C  5.97800 44.19100 24.99100
C  4.84300 43.54300 28.17200
O  5.95200 43.81800 28.65500
C  3.56100 43.31100 29.14400
C  3.81200 42.04900 29.94200
O  3.59600 40.91200 29.61300
O  4.35600 42.34700 31.12500
C  4.65300 41.20700 31.97500
H  -3.29100 42.83200 27.98400
H  -2.05100 43.66000 21.56900
H  4.08300 44.36600 22.87600
H  0.77300 41.89500 30.35600
H  -1.81100 43.22300 30.00400
H  -2.77800 41.17500 30.06200
H  -1.20100 40.52200 30.48300
H  -1.85100 40.58300 28.77600
H  -0.25000 44.68200 30.85500
H  1.36200 44.63300 30.42100
H  0.41200 44.46000 32.97100
H  1.89600 43.81000 32.54300
H  -5.27100 42.82800 26.97200
H  -5.95400 42.21200 25.50800
H  -5.90800 43.94600 25.88500
H  -6.56000 42.28400 23.14100
H  -6.53900 43.64200 21.95100
H  -6.48900 44.06200 23.60100
H  -0.08100 44.55000 20.31600
H  2.64100 43.73600 20.75200
H  -0.18700 41.85700 20.82300
H  1.27700 42.02400 19.80900
H  -0.33800 42.49000 19.30700
H  2.12500 46.32200 22.00400
H  1.27000 46.22500 20.51300
H  2.96600 46.95100 19.44300
H  3.90800 45.46400 19.75200
H  4.09300 46.80800 20.83800
H  6.58000 44.67100 25.76200
H  5.94300 44.67300 24.01400
H  6.50400 43.26700 24.74900
H  3.61600 44.21600 29.74900
H  5.48200 40.59000 31.63000
H  3.82100 40.53600 32.18900
H  5.04100 41.69600 32.86800

