158

Mg 9.23600 2.80500 27.83500
C  10.20900 1.21000 30.76600
C  7.11600 4.74200 29.90300
C  7.91200 4.10400 25.06300
C  10.38100 0.01500 26.06600
N  8.73700 2.91900 30.17900
C  9.40200 2.30600 31.14700
C  8.97200 2.84100 32.51700
C  7.87700 3.85900 32.18400
C  7.90600 3.86600 30.63300
C  6.36700 3.66100 32.74500
C  10.24100 3.44700 33.31600
C  10.03500 4.33100 34.54600
H  10.85900 3.95300 35.76800
N  7.88300 4.34600 27.54300
C  7.09000 5.00400 28.50500
C  6.32200 5.95900 27.86800
C  6.52100 5.76800 26.40900
C  7.48800 4.70900 26.29900
C  5.33700 6.88800 28.56800
C  5.95400 6.54600 25.20700
O  6.12100 6.26000 24.00400
C  5.10200 7.79600 25.52400
N  9.11600 2.12200 25.81100
C  8.60900 2.87400 24.82200
C  8.92800 2.33200 23.41300
C  9.57000 0.92000 23.76300
C  9.72600 0.99300 25.29500
C  7.75800 2.33600 22.41000
C  10.77000 0.38100 22.98000
C  10.60100 -1.00000 22.34900
N  10.30000 1.07000 28.20200
C  10.72000 0.07900 27.42600
C  11.55700 -0.80600 28.14800
C  11.43000 -0.40000 29.48600
C  10.49800 0.67500 29.48300
C  12.35200 -1.98100 27.51500
C  11.85900 -0.68200 30.89300
O  12.68700 -1.50200 31.31700
C  10.99400 0.31300 31.80700
C  10.17000 -0.28500 32.81900
O  9.46000 -1.24600 32.69100
O  10.59700 0.18500 34.02800
C  10.08500 -0.53600 35.26000
H  6.66100 5.39700 30.64900
H  7.66200 4.53000 24.08900
H  10.75400 -0.80200 25.44400
H  8.67600 2.01600 33.16500
H  8.14000 4.87600 32.47600
H  5.65000 3.76400 31.93000
H  6.15800 4.46200 33.45400
H  6.45500 2.69400 33.24000
H  10.86800 4.08200 32.69000
H  10.95900 2.68000 33.60400
H  8.97800 4.47900 34.76800
H  10.33400 5.36200 34.35900
H  4.40000 6.79800 28.01900
H  5.74600 7.89100 28.68200
H  5.04500 6.60000 29.57700
H  4.14900 7.53000 25.98000
H  4.95100 8.29800 24.56900
H  5.78300 8.34100 26.17900
H  9.64700 2.99400 22.93100
H  8.68300 0.28700 23.75700
H  6.85200 2.69200 22.90100
H  7.60600 1.28100 22.18300
H  8.04600 2.85000 21.49300
H  11.61500 0.37400 23.66900
H  10.99400 1.06600 22.16300
H  10.74600 -0.88200 21.27500
H  9.66100 -1.48700 22.60600
H  11.37300 -1.72000 22.62200
H  11.69800 -2.52300 26.83300
H  12.48600 -2.56600 28.42500
H  13.33500 -1.70600 27.13300
H  11.58200 1.00900 32.40700
H  10.74900 -1.35100 35.54800
H  9.12100 -1.03900 35.17800
H  9.95300 0.12900 36.11400
Mg 6.84500 53.24100 41.61200
C  6.37000 49.74600 41.05400
C  9.99300 52.94300 40.54700
C  7.02600 56.73500 41.40300
C  3.48500 53.49300 42.42300
N  7.99400 51.49000 40.81200
C  7.71800 50.18100 40.71800
C  8.98100 49.36800 40.50100
C  10.15000 50.40000 40.62600
C  9.36200 51.69800 40.73100
C  11.01400 50.24600 41.95700
C  9.00000 48.71500 39.07300
C  8.78600 49.64900 37.79300
H  7.72000 49.24400 36.73800
N  8.24200 54.61000 40.95400
C  9.47100 54.27100 40.65600
C  10.29700 55.52400 40.50600
C  9.48100 56.63400 40.76300
C  8.17900 55.97700 41.06300
C  11.67900 55.53500 40.12200
C  10.01900 58.13700 40.69500
O  11.20300 58.39900 40.43500
C  9.20300 59.24900 41.10100
N  5.42300 54.88100 41.82700
C  5.74800 56.20700 41.68400
C  4.51900 57.05500 42.12700
C  3.43200 56.02200 42.43800
C  4.10000 54.69300 42.08000
C  4.85900 58.04300 43.28700
C  2.09500 56.26100 41.63800
C  2.06700 55.68200 40.16100
N  5.24600 51.92100 41.79500
C  3.94000 52.19100 42.12800
C  3.08600 50.96400 42.11200
C  4.02800 49.98200 41.76500
C  5.31500 50.58800 41.54300
C  1.59000 50.90600 42.57500
C  4.23900 48.59300 41.51200
O  3.50300 47.60100 41.51900
C  5.77300 48.32900 41.02500
C  5.61600 47.80500 39.64300
O  5.47000 48.39700 38.57300
O  5.77100 46.45500 39.63500
C  5.55400 45.79400 38.37600
H  11.08400 52.88600 40.51800
H  7.14000 57.80600 41.58000
H  2.52400 53.64200 42.91900
H  8.99600 48.65300 41.32400
H  10.82500 50.57600 39.78800
H  12.05600 50.46800 41.72500
H  10.97100 49.23100 42.35200
H  10.66700 50.95800 42.70500
H  8.23500 47.93900 39.02900
H  9.94900 48.18400 38.99700
H  9.71700 49.72200 37.23000
H  8.53000 50.66800 38.08300
H  12.09600 54.57600 39.81200
H  12.28900 55.87700 40.95900
H  11.84300 56.25600 39.32200
H  8.35300 59.37200 40.43100
H  9.78400 60.17200 41.11000
H  8.79200 59.08600 42.09700
H  4.00700 57.72100 41.43300
H  3.07600 55.81900 43.44800
H  5.89300 57.89800 43.59900
H  4.21200 58.01500 44.16300
H  4.75900 59.08900 42.99500
H  1.95300 57.32200 41.43500
H  1.31100 55.81700 42.25200
H  1.51100 56.29900 39.45400
H  1.73000 54.64800 40.22300
H  3.09200 55.50300 39.83700
H  0.92600 50.91400 41.71100
H  1.41600 51.89000 43.01000
H  1.45200 50.06200 43.25100
H  6.32400 47.62600 41.64900
H  5.53500 44.71400 38.52100
H  6.38700 46.10400 37.74500
H  4.65200 46.05500 37.82200

