158

Mg 53.32500 24.39400 43.37700
C  50.54000 26.49700 42.99600
C  51.37400 21.72800 42.37100
C  56.19500 22.67300 42.80300
C  55.17400 27.27500 44.10900
N  51.25100 24.16000 42.65500
C  50.31600 25.17900 42.60700
C  48.91400 24.60000 42.19900
C  49.11600 23.03800 42.38300
C  50.65700 22.95400 42.47100
C  48.43000 22.47000 43.71300
C  48.42900 25.06800 40.81300
C  49.40600 25.40100 39.64900
H  49.02700 24.96000 38.23200
N  53.76500 22.47400 42.79400
C  52.77200 21.49500 42.50800
C  53.43600 20.24000 42.24900
C  54.85900 20.37400 42.53600
C  55.02700 21.92200 42.74000
C  52.70500 18.88800 41.88500
C  55.80600 19.27900 42.62300
O  55.51500 18.12400 42.29600
C  57.28500 19.47100 43.01300
N  55.39700 24.89400 43.30000
C  56.37200 24.01800 43.04200
C  57.72700 24.64500 43.41000
C  57.42200 26.17700 43.72000
C  55.93500 26.15900 43.71100
C  58.32900 23.84600 44.65100
C  58.07200 27.11400 42.59200
C  57.90100 26.79100 41.07700
N  52.93900 26.39600 43.71400
C  53.76200 27.44500 44.06300
C  52.94700 28.62500 44.37200
C  51.69200 28.26900 43.94900
C  51.75600 26.92800 43.49400
C  53.44100 29.88300 44.93000
C  50.31000 28.68700 43.90800
O  49.90400 29.79300 44.21800
C  49.44700 27.69200 43.10900
C  49.22100 28.32800 41.84900
O  50.02800 28.62300 40.97400
O  47.83200 28.57400 41.79700
C  47.24800 28.91000 40.48500
H  50.80600 20.86100 42.02600
H  57.18700 22.21900 42.75500
H  55.78700 28.15700 44.30400
H  48.24900 25.14500 42.86800
H  48.77200 22.43000 41.54600
H  47.63100 23.17000 43.95700
H  49.14600 22.34900 44.52600
H  47.86700 21.59700 43.38100
H  47.98500 26.05000 40.97100
H  47.72300 24.30600 40.48000
H  50.41700 25.12500 39.94800
H  49.34300 26.48800 39.60000
H  52.84000 18.75900 40.81200
H  51.65800 19.00100 42.16600
H  53.07600 18.00700 42.40900
H  57.63200 18.61500 43.59000
H  57.24500 20.27300 43.75100
H  57.93700 19.75400 42.18600
H  58.49400 24.47100 42.65500
H  57.69300 26.42300 44.74600
H  58.68600 24.56800 45.38500
H  59.14600 23.22800 44.28000
H  57.51300 23.25600 45.07100
H  59.14600 27.07800 42.77200
H  57.73300 28.12600 42.81200
H  57.59800 27.74800 40.65300
H  57.16100 26.03200 40.82500
H  58.87800 26.48800 40.70100
H  53.89300 30.51500 44.16500
H  54.04600 29.63100 45.80100
H  52.62200 30.45900 45.36100
H  48.52400 27.42700 43.62300
H  47.64900 29.88800 40.21700
H  46.16300 28.92000 40.58800
H  47.42500 28.16100 39.71300
Mg -12.68500 15.94800 42.45400
C  -9.71200 14.08200 42.34500
C  -11.04600 18.36400 40.53100
C  -15.57900 17.50000 42.15000
C  -14.27200 13.01400 43.60000
N  -10.64800 16.19400 41.53000
C  -9.60100 15.26200 41.67700
C  -8.31700 15.78200 40.91700
C  -8.74000 17.26800 40.59200
C  -10.26100 17.31700 40.88100
C  -7.96600 18.38900 41.34500
C  -7.87200 14.93900 39.72800
C  -6.39800 15.29500 39.35100
H  -6.08300 15.76100 37.91400
N  -13.21500 17.77800 41.62000
C  -12.38900 18.60700 40.90400
C  -13.12700 19.75600 40.37600
C  -14.44300 19.56400 40.95900
C  -14.48900 18.24600 41.63200
C  -12.46800 20.99500 39.59400
C  -15.58500 20.54100 40.79500
O  -15.40500 21.61200 40.19800
C  -16.87100 20.29100 41.39600
N  -14.74000 15.27400 42.64300
C  -15.71400 16.15600 42.60400
C  -17.06800 15.57800 42.93300
C  -16.64600 14.13600 43.57000
C  -15.11700 14.10400 43.25000
C  -17.93800 16.47100 43.93400
C  -17.55400 13.00700 42.92400
C  -18.96800 12.95100 43.49500
N  -12.16300 14.02900 42.89800
C  -12.85000 12.94600 43.41800
C  -11.99600 11.82100 43.71600
C  -10.72100 12.25100 43.36000
C  -10.88000 13.56800 42.83600
C  -12.24700 10.47000 44.08200
C  -9.32200 11.83500 43.31200
O  -8.83600 10.78300 43.65700
C  -8.65800 13.02700 42.60200
C  -7.48200 13.54300 43.39500
O  -7.35600 13.93600 44.53700
O  -6.43700 13.48100 42.52800
C  -5.22600 14.19600 42.97000
H  -10.40500 19.14700 40.12000
H  -16.53500 18.01400 42.03300
H  -14.71900 12.08800 43.96900
H  -7.55400 15.81900 41.69500
H  -8.63400 17.51400 39.53600
H  -8.54400 18.50400 42.26200
H  -8.05100 19.29700 40.74800
H  -6.98400 18.06600 41.69000
H  -8.54100 15.06800 38.87700
H  -7.90000 13.86600 39.91800
H  -5.73900 14.48600 39.66700
H  -6.10500 16.19600 39.89000
H  -11.67100 21.31300 40.26700
H  -13.15700 21.82100 39.41800
H  -11.99700 20.59900 38.69400
H  -16.95700 20.21500 42.48000
H  -17.43300 19.49700 40.90400
H  -17.40100 21.21200 41.15600
H  -17.69400 15.45600 42.04900
H  -16.73800 14.22700 44.65300
H  -18.94700 16.61100 43.54500
H  -17.41800 17.40600 44.14000
H  -18.16700 15.88300 44.82300
H  -17.03400 12.05000 42.88000
H  -17.69100 13.25500 41.87100
H  -19.07400 13.62500 44.34500
H  -19.23900 11.90100 43.59900
H  -19.68800 13.16700 42.70600
H  -11.30700 10.11700 44.50500
H  -12.56000 9.76800 43.30900
H  -12.94600 10.38500 44.91400
H  -8.27000 12.67800 41.64500
H  -4.39000 13.91900 42.32700
H  -5.11800 13.91600 44.01800
H  -5.42100 15.25300 42.78700

