158

Mg 48.45000 34.50500 26.43300
C  46.52200 32.99200 29.00300
C  48.85400 37.16000 28.31800
C  50.17900 35.51700 23.82500
C  47.73200 31.42300 24.53300
N  47.90600 34.96900 28.49200
C  47.20200 34.20800 29.36300
C  47.28100 34.77800 30.79100
C  47.64000 36.24900 30.42300
C  48.20700 36.15800 29.04200
C  46.49800 37.39000 30.39600
C  48.46300 33.95300 31.50600
C  48.64800 34.27900 33.04300
H  47.67500 35.39100 33.64100
N  49.32200 36.10700 26.05500
C  49.38400 37.14200 26.91900
C  50.10200 38.16400 26.37900
C  50.57800 37.74500 25.11900
C  50.03700 36.39200 24.93100
C  50.23600 39.47300 27.07600
C  51.52600 38.43400 24.19200
O  51.67400 37.99100 23.05100
C  52.22400 39.70300 24.69200
N  48.66100 33.71400 24.30000
C  49.50900 34.30500 23.53200
C  49.79000 33.50600 22.28300
C  49.16700 32.11800 22.56200
C  48.46000 32.41300 23.85400
C  49.33300 34.27300 21.07900
C  50.16200 30.95900 22.59000
C  50.32400 30.33000 21.16200
N  47.26000 32.67800 26.60600
C  47.03100 31.59100 25.73600
C  46.13500 30.64400 26.38400
C  45.86900 31.18400 27.66000
C  46.56400 32.40700 27.74800
C  45.65500 29.25000 25.86500
C  45.11900 31.00100 28.90800
O  44.26800 30.19200 29.22400
C  45.53200 32.21900 29.80500
C  45.82100 31.74000 31.21900
O  46.60800 30.80000 31.55300
O  45.00300 32.36100 32.11400
C  44.96700 31.79200 33.48300
H  48.90200 38.11200 28.85000
H  50.77000 35.89300 22.98700
H  47.55100 30.52300 23.94300
H  46.33200 34.76400 31.32800
H  48.33100 36.56000 31.20700
H  46.89200 38.27000 30.90600
H  45.51900 37.14600 30.80900
H  46.25200 37.61900 29.35900
H  49.35300 34.21800 30.93500
H  48.21100 32.89400 31.45500
H  49.70300 34.51200 33.19000
H  48.37800 33.35800 33.56000
H  51.27900 39.77400 27.17200
H  49.70000 39.67800 28.00300
H  49.70000 40.27500 26.56700
H  51.64100 40.62000 24.77600
H  52.95800 39.75200 23.88700
H  52.78300 39.50400 25.60600
H  50.84800 33.27700 22.15300
H  48.38500 31.91800 21.83000
H  49.26100 35.35400 21.19500
H  48.33200 33.98500 20.75600
H  50.01200 34.14500 20.23600
H  49.67200 30.24700 23.25400
H  51.07500 31.31100 23.07200
H  49.98300 30.82800 20.25400
H  49.74600 29.40500 21.14000
H  51.38300 30.22400 20.92800
H  45.73000 29.03900 24.79800
H  44.60000 29.10700 26.10100
H  46.18200 28.42200 26.33900
H  44.60100 32.77300 29.92400
H  45.79000 31.14200 33.77800
H  43.94500 31.45400 33.65500
H  44.99500 32.70600 34.07600
Mg 7.20600 53.99700 40.81800
C  6.32800 50.59000 40.71700
C  10.19600 53.18400 39.33800
C  7.79800 57.31700 40.46600
C  3.88600 54.59500 41.61300
N  8.10700 52.10300 40.04000
C  7.63700 50.89400 40.15300
C  8.63100 49.84100 39.52400
C  9.95100 50.68000 39.49900
C  9.38600 52.06000 39.55600
C  11.09900 50.26100 40.56300
C  8.19700 49.21600 38.15500
C  8.42000 50.08700 36.83800
H  7.14000 50.45500 36.09800
N  8.81900 55.09100 40.08200
C  9.97500 54.53400 39.54200
C  11.02800 55.54900 39.36800
C  10.34000 56.78300 39.75200
C  8.95300 56.45700 40.13700
C  12.43800 55.32100 39.09300
C  10.97000 58.19800 39.83800
O  12.11000 58.35200 39.40100
C  10.32500 59.39300 40.46300
N  5.97600 55.76300 40.72100
C  6.44200 56.99000 40.74100
C  5.34400 58.06000 40.94000
C  4.07100 57.14400 41.14600
C  4.65400 55.73700 41.16800
C  5.75700 59.21000 42.04000
C  2.77000 57.27400 40.25200
C  1.40700 57.25500 40.93600
N  5.49300 52.87600 41.26400
C  4.23200 53.27300 41.55500
C  3.41400 52.07800 42.00300
C  4.23200 50.99700 41.70000
C  5.44200 51.56200 41.14100
C  2.07700 52.09500 42.67100
C  4.33200 49.54800 41.75900
O  3.50900 48.77800 42.13200
C  5.64500 49.24500 41.09200
C  5.36600 48.39100 39.88000
O  4.66000 48.74500 38.94000
O  5.90900 47.09400 39.92800
C  5.79200 46.23900 38.80400
H  11.20600 52.85200 39.08700
H  8.05700 58.37600 40.51300
H  2.85100 54.80600 41.89300
H  8.64500 48.89800 40.07000
H  10.41300 50.52200 38.52400
H  10.72600 49.53000 41.28000
H  11.22600 51.10300 41.24300
H  11.98800 49.92200 40.03100
H  7.12500 49.01700 38.16500
H  8.80000 48.31000 38.09200
H  9.00800 49.48900 36.14300
H  9.11700 50.91500 36.96000
H  13.04300 56.13000 39.50300
H  12.79000 55.11200 38.08300
H  12.64200 54.41400 39.66200
H  11.07800 60.14200 40.71200
H  9.93300 59.11500 41.44100
H  9.57100 59.80300 39.79100
H  5.24900 58.64700 40.02600
H  3.66600 57.27900 42.14900
H  6.73500 59.04000 42.49100
H  5.03600 59.30900 42.85200
H  5.77500 60.19100 41.56700
H  2.75200 56.44400 39.54700
H  2.88200 58.23600 39.75200
H  0.71600 57.96000 40.47400
H  1.59300 57.24000 42.01000
H  0.96700 56.30400 40.63600
H  1.53800 51.22600 42.29400
H  1.46500 52.99200 42.57700
H  2.23300 51.98200 43.74400
H  6.18400 48.59300 41.78000
H  6.52500 45.43800 38.90500
H  5.82300 46.90300 37.94000
H  4.79900 45.82200 38.96700

