158

Mg -12.41200 37.71400 42.00200
C  -10.46200 35.01300 40.98300
C  -10.09100 39.72200 40.52900
C  -14.88100 40.18700 41.82200
C  -14.89500 35.36600 43.06100
N  -10.44500 37.44500 40.97000
C  -9.95300 36.24100 40.57400
C  -8.65200 36.40000 39.79200
C  -8.39100 37.96100 39.95200
C  -9.68800 38.40200 40.57000
C  -7.10700 38.31600 40.74800
C  -8.65600 35.83100 38.39900
C  -7.49400 34.94900 37.96300
H  -6.45400 35.53000 36.97100
N  -12.50700 39.75300 41.36400
C  -11.36700 40.39600 40.78300
C  -11.73800 41.73400 40.46500
C  -13.08600 41.93500 40.76600
C  -13.60900 40.62900 41.36400
C  -10.85100 42.72900 39.72600
C  -13.97900 43.22800 40.57200
O  -13.49000 44.15100 39.91000
C  -15.38600 43.34300 41.12100
N  -14.59200 37.72200 42.23700
C  -15.32800 38.86000 42.24200
C  -16.81500 38.63300 42.68500
C  -16.72200 37.12600 43.23200
C  -15.30600 36.68000 42.81600
C  -17.43400 39.71800 43.63700
C  -17.76000 36.08500 42.65700
C  -18.64500 35.40400 43.72500
N  -12.56300 35.62000 42.30200
C  -13.56700 34.82300 42.77900
C  -13.15700 33.43300 42.71000
C  -11.92500 33.50700 42.08400
C  -11.66900 34.84800 41.72600
C  -13.92000 32.26500 43.36600
C  -10.80800 32.69900 41.62300
O  -10.59200 31.48900 41.62900
C  -9.89600 33.58600 40.63700
C  -8.55500 33.37100 41.09000
O  -7.62800 32.79800 40.49100
O  -8.27500 33.90500 42.33900
C  -6.91100 33.81100 42.93700
H  -9.36800 40.42500 40.10700
H  -15.68500 40.92600 41.81200
H  -15.61800 34.66700 43.48700
H  -7.87400 35.87600 40.34700
H  -8.26800 38.36600 38.94800
H  -6.64600 37.43500 41.19400
H  -7.31700 38.82600 41.68800
H  -6.32900 38.85000 40.20200
H  -8.61100 36.71900 37.76800
H  -9.58700 35.33400 38.12400
H  -7.96100 34.04700 37.56700
H  -6.92900 34.66500 38.85000
H  -11.05300 42.59300 38.66400
H  -9.81100 42.44000 39.87400
H  -10.94200 43.76100 40.06500
H  -15.99900 42.59600 40.61600
H  -15.95200 44.24900 40.90700
H  -15.26300 43.21600 42.19600
H  -17.43600 38.64000 41.78900
H  -16.81000 37.22500 44.31400
H  -18.28200 40.26100 43.21800
H  -16.62800 40.43100 43.81300
H  -17.68300 39.35700 44.63500
H  -17.25100 35.33500 42.05100
H  -18.44000 36.64200 42.01300
H  -18.73300 34.36300 43.41700
H  -19.58600 35.94300 43.61400
H  -18.24100 35.57400 44.72300
H  -13.61100 31.27600 43.02600
H  -14.94800 32.46400 43.06200
H  -13.82800 32.26900 44.45200
H  -9.94800 33.23000 39.60800
H  -6.25800 33.06900 42.47800
H  -7.16000 33.55200 43.96700
H  -6.42900 34.78800 42.92000
Mg -1.41100 33.82000 26.80800
C  -3.53500 32.05000 29.20100
C  -0.21800 35.54200 29.50000
C  0.12900 35.65700 24.59400
C  -2.96200 32.07400 24.31300
N  -1.87500 33.75100 29.16500
C  -2.73700 33.01000 29.90400
C  -2.54700 33.25200 31.46200
C  -1.57200 34.44900 31.49000
C  -1.16800 34.63400 29.96700
C  -2.26800 35.72100 32.03700
C  -2.05000 31.97600 32.20000
C  -2.86800 31.43800 33.38200
H  -2.09500 31.18200 34.61600
N  -0.09600 35.38200 26.97300
C  0.34000 35.89500 28.22300
C  1.41500 36.77400 27.84600
C  1.48300 36.87600 26.42300
C  0.50000 35.96900 25.93900
C  2.32800 37.40600 28.93100
C  2.35000 37.72200 25.51700
O  2.12000 37.84600 24.34700
C  3.35000 38.65900 26.05900
N  -1.53900 33.97100 24.73100
C  -0.80200 34.81500 24.06700
C  -1.07700 34.73300 22.56600
C  -2.00700 33.48700 22.43000
C  -2.19000 33.13100 23.88700
C  -1.72500 36.01800 21.99500
C  -1.32000 32.34200 21.57700
C  -2.04300 31.85300 20.29000
N  -2.99500 32.38700 26.71300
C  -3.44600 31.69600 25.59700
C  -4.42200 30.73100 25.99000
C  -4.54600 30.85300 27.37000
C  -3.58300 31.85200 27.77200
C  -5.26400 29.75700 25.12200
C  -5.21700 30.36300 28.57300
O  -6.10700 29.54000 28.71900
C  -4.47900 30.96700 29.84600
C  -5.51800 31.51800 30.84600
O  -6.32700 32.34500 30.61600
O  -5.39000 30.76300 31.93200
C  -6.42100 30.99100 32.98600
H  0.16700 36.14900 30.32200
H  0.76800 36.10200 23.82700
H  -3.48300 31.44100 23.59200
H  -3.49500 33.68300 31.78300
H  -0.73400 34.18900 32.13700
H  -1.67700 36.16300 32.83900
H  -3.19400 35.67600 32.60900
H  -2.33100 36.53300 31.31300
H  -1.06000 32.19400 32.60200
H  -1.98600 31.21500 31.42100
H  -3.34700 30.48000 33.18100
H  -3.65600 32.16600 33.57800
H  2.15500 36.95700 29.90900
H  2.16500 38.48300 28.91700
H  3.39600 37.29100 28.74300
H  4.24100 38.05500 26.23400
H  2.92200 39.03800 26.98700
H  3.62200 39.34000 25.25200
H  -0.14300 34.61300 22.01700
H  -2.94600 33.67900 21.91000
H  -1.40600 36.81800 22.66300
H  -2.81400 35.98400 21.95500
H  -1.32400 36.23900 21.00600
H  -1.31800 31.46800 22.22800
H  -0.31400 32.58900 21.24000
H  -1.85100 32.61100 19.53100
H  -3.10100 31.61400 20.40000
H  -1.44300 31.02900 19.90400
H  -5.12100 28.70800 25.37900
H  -5.02500 29.92000 24.07100
H  -6.30900 30.01000 25.30500
H  -3.81700 30.23400 30.30500
H  -7.41700 31.09600 32.55600
H  -6.27900 31.88300 33.59600
H  -6.36000 30.18500 33.71800

