158

Mg 17.34700 -1.09000 27.76300
C  16.04000 1.01100 30.33300
C  18.96600 -2.81900 30.14800
C  19.05300 -2.61800 25.33000
C  15.99800 1.05100 25.40800
N  17.50400 -0.83400 29.91500
C  16.97900 0.08900 30.78200
C  17.42800 -0.21300 32.27200
C  18.51300 -1.29600 32.07800
C  18.28200 -1.68600 30.62800
C  19.98500 -0.98900 32.40700
C  16.35900 -0.62400 33.20100
C  16.41200 -0.07400 34.66800
H  17.73600 0.50100 35.28800
N  18.61900 -2.72600 27.76200
C  19.05300 -3.31600 28.85100
C  19.72100 -4.51200 28.44000
C  19.85600 -4.53100 26.99600
C  19.21000 -3.24400 26.64700
C  20.26100 -5.41100 29.45300
C  20.53100 -5.45900 25.97700
O  20.56800 -5.24800 24.76400
C  21.25400 -6.76200 26.46000
N  17.45400 -0.86000 25.68500
C  18.25600 -1.58200 24.88400
C  18.07000 -1.24300 23.39000
C  16.83400 -0.19600 23.45300
C  16.72400 -0.05100 24.92800
C  19.32900 -0.69400 22.71200
C  15.52800 -0.50300 22.65700
C  14.48200 -1.57600 23.16500
N  16.21100 0.72700 27.81700
C  15.69500 1.38300 26.78100
C  14.83400 2.45000 27.26400
C  14.87000 2.24800 28.65400
C  15.76700 1.24100 28.93400
C  14.02400 3.41600 26.54700
C  14.41100 2.79400 29.87200
O  13.62900 3.71500 30.13900
C  15.21800 2.02900 31.03400
C  15.97400 3.05700 31.74600
O  16.76500 3.84300 31.18000
O  15.60000 3.11300 33.07900
C  16.36300 3.99300 33.96200
H  19.50500 -3.40500 30.89600
H  19.58800 -3.14400 24.53700
H  15.71000 1.69700 24.57700
H  17.85800 0.70600 32.67000
H  18.22300 -2.10000 32.75500
H  20.54200 -0.82900 31.48400
H  20.48700 -1.88100 32.78100
H  20.14300 -0.21000 33.15200
H  16.21000 -1.69500 33.34100
H  15.40000 -0.22500 32.87000
H  16.10100 -0.95000 35.23700
H  15.61900 0.65100 34.85500
H  21.20300 -5.06100 29.87500
H  20.41100 -6.36000 28.93800
H  19.59700 -5.50300 30.31300
H  20.55900 -7.58000 26.64800
H  21.74300 -6.59600 27.41900
H  21.97700 -7.14000 25.73600
H  17.72300 -2.17800 22.95200
H  17.22200 0.75300 23.08300
H  19.16700 0.30400 22.30500
H  19.68800 -1.30500 21.88400
H  20.11300 -0.70400 23.46900
H  15.69500 -0.89900 21.65500
H  15.13000 0.49200 22.45900
H  13.68300 -0.98200 23.60700
H  14.83800 -2.31100 23.88800
H  14.02900 -2.04500 22.29100
H  13.82000 3.02900 25.54900
H  14.52800 4.37900 26.46800
H  13.06800 3.54400 27.05500
H  14.37400 1.62000 31.59000
H  17.30000 4.38800 33.56800
H  16.57400 3.66300 34.97900
H  15.78400 4.89700 34.14700
Mg -10.22400 17.62200 41.15300
C  -6.84100 17.57100 41.09800
C  -10.14500 21.07700 40.64400
C  -13.57100 17.75400 40.57700
C  -10.35700 14.19600 41.03600
N  -8.63000 19.13000 40.83800
C  -7.31600 18.84200 40.84700
C  -6.57500 20.10500 40.54400
C  -7.61400 21.29000 40.91100
C  -8.86300 20.49100 40.90300
C  -7.35300 22.02200 42.20700
C  -6.06300 20.18100 39.07400
C  -4.64800 19.70900 38.85000
H  -4.34400 18.75700 37.66400
N  -11.63400 19.17200 40.64600
C  -11.37300 20.49200 40.51600
C  -12.65200 21.22800 40.29900
C  -13.65100 20.31700 40.32700
C  -12.99300 19.01200 40.51500
C  -12.73800 22.72200 40.14200
C  -15.12600 20.54900 40.18800
O  -15.43400 21.73000 40.08400
C  -16.14100 19.58200 40.29300
N  -11.75300 16.12100 40.88800
C  -13.03100 16.46600 40.75400
C  -13.92900 15.20600 40.91800
C  -12.90300 14.02500 40.87100
C  -11.61600 14.81900 40.92400
C  -14.76500 15.25600 42.16400
C  -12.96500 13.01300 39.69400
C  -12.31400 13.49300 38.38600
N  -8.87200 16.12900 41.14500
C  -9.08300 14.75000 41.10000
C  -7.78100 14.09900 41.00800
C  -6.90800 15.13900 41.12800
C  -7.56100 16.38400 41.16700
C  -7.61700 12.64900 40.88000
C  -5.49500 15.50400 41.16100
O  -4.52300 14.75400 41.16600
C  -5.37600 17.11300 41.14400
C  -4.69400 17.59000 42.37500
O  -3.54000 17.23800 42.58200
O  -5.48700 18.35300 43.16900
C  -4.80600 19.08100 44.27300
H  -10.13500 22.16600 40.56500
H  -14.64700 17.65800 40.41600
H  -10.47400 13.12100 40.88300
H  -5.74500 20.10500 41.25100
H  -7.79100 21.93200 40.04800
H  -6.28000 22.13800 42.36500
H  -7.84900 21.51100 43.03200
H  -7.87700 22.97600 42.16200
H  -6.33300 21.14900 38.65200
H  -6.67800 19.45100 38.54700
H  -4.01200 19.37000 39.66800
H  -4.16700 20.63000 38.51800
H  -13.24000 22.87000 39.18600
H  -11.79800 23.25700 40.00900
H  -13.39100 23.11600 40.92100
H  -16.06500 18.89800 39.44800
H  -17.14200 20.01400 40.30900
H  -15.93900 19.11400 41.25600
H  -14.60100 15.14600 40.06200
H  -13.08700 13.36900 41.72200
H  -14.39600 15.95200 42.91800
H  -14.83200 14.27100 42.62500
H  -15.74900 15.62200 41.86800
H  -14.01800 12.82200 39.48700
H  -12.55100 12.07900 40.07300
H  -11.41900 12.93000 38.12100
H  -12.19500 14.57600 38.41100
H  -12.96700 13.37400 37.52200
H  -8.25600 12.25700 40.08900
H  -7.89600 12.04400 41.74300
H  -6.59900 12.33100 40.65500
H  -4.85700 17.50500 40.27000
H  -5.38600 18.89600 45.17700
H  -4.88400 20.15900 44.12900
H  -3.79200 18.74500 44.48800

