158

Mg 48.24600 34.65600 27.14100
C  46.16200 33.70100 29.63100
C  49.26100 37.41300 28.88200
C  49.80100 35.67500 24.36500
C  47.10500 31.73200 25.21600
N  47.84200 35.39600 29.03200
C  46.99900 34.75700 29.92800
C  47.14700 35.28900 31.32100
C  47.70100 36.77500 31.04100
C  48.34600 36.56800 29.58800
C  46.57200 37.88400 31.01400
C  48.11200 34.37700 32.09600
C  48.49000 34.94700 33.43100
H  47.49900 35.85200 34.20300
N  49.38100 36.37000 26.70600
C  49.71400 37.36800 27.53800
C  50.51300 38.36900 26.80900
C  50.77200 37.84400 25.48900
C  49.98400 36.59100 25.43800
C  50.99700 39.60900 27.43000
C  51.60300 38.49800 24.34100
O  51.67300 38.03200 23.20500
C  52.42900 39.72500 24.62300
N  48.37900 33.82200 25.08000
C  49.14900 34.48500 24.17600
C  49.03700 33.74000 22.75000
C  48.46400 32.32200 23.14700
C  47.95700 32.58100 24.60000
C  48.25400 34.52000 21.70000
C  49.63400 31.18200 23.08100
C  49.26800 29.89400 22.34000
N  46.92100 33.02400 27.30500
C  46.56200 31.94300 26.50800
C  45.51800 31.12100 27.18700
C  45.27300 31.86400 28.33200
C  46.20700 32.91900 28.39900
C  44.82500 29.85300 26.63700
C  44.41700 31.96400 29.48300
O  43.42700 31.33200 29.82600
C  44.98300 33.05700 30.37100
C  45.49200 32.38500 31.61400
O  46.37100 31.52100 31.57200
O  44.67500 32.82300 32.61700
C  45.00800 32.14100 33.83800
H  49.63900 38.15100 29.59300
H  50.40900 35.85100 23.47500
H  46.74300 30.86200 24.66400
H  46.17900 35.36900 31.81600
H  48.58000 37.06500 31.61700
H  45.68900 37.28500 31.23900
H  46.54300 38.41600 30.06300
H  46.86400 38.63200 31.75000
H  48.99500 34.49100 31.46700
H  47.86100 33.31700 32.11500
H  49.37700 35.56700 33.29900
H  48.82400 34.13700 34.08000
H  52.08000 39.60000 27.55200
H  50.69500 39.74300 28.46900
H  50.60600 40.40400 26.79600
H  53.18900 39.46400 25.36000
H  51.92500 40.61700 24.99500
H  53.00700 39.87600 23.71100
H  50.06600 33.66600 22.39900
H  47.64700 32.04000 22.48400
H  47.86100 35.34600 22.29300
H  47.50000 33.92300 21.18700
H  48.99400 34.87600 20.98400
H  49.83100 30.90000 24.11500
H  50.61900 31.47800 22.72000
H  48.30000 29.95800 21.84200
H  49.32000 29.00000 22.96100
H  49.88400 29.67100 21.46900
H  45.51400 29.02500 26.46800
H  44.51900 30.30300 25.69300
H  43.89200 29.54300 27.11000
H  44.29600 33.83000 30.71500
H  45.16600 32.86500 34.63800
H  45.93200 31.56300 33.80700
H  44.18500 31.50800 34.17000
Mg 1.26900 43.16500 25.57400
C  2.83300 43.51300 28.72900
C  -1.54600 41.98900 27.13400
C  0.13300 42.22400 22.54600
C  4.25600 44.24900 24.12900
N  0.65700 42.84500 27.70100
C  1.44900 43.13700 28.82600
C  0.68700 42.84000 30.10900
C  -0.68500 42.30200 29.61900
C  -0.56400 42.38800 28.04300
C  -0.98400 40.84100 30.06000
C  0.49200 44.09000 30.97500
C  0.57100 43.92600 32.51900
H  0.28700 42.56500 33.12300
N  -0.44100 42.33600 24.93000
C  -1.49600 41.97700 25.70600
C  -2.52300 41.46400 24.89800
C  -2.16700 41.63100 23.51700
C  -0.76400 42.11100 23.57000
C  -3.85300 40.90200 25.45000
C  -2.98200 41.35200 22.32400
O  -2.46400 41.56600 21.25800
C  -4.40900 40.73300 22.31100
N  2.04200 43.29400 23.63100
C  1.42100 42.78000 22.51300
C  2.27500 43.01400 21.28400
C  3.39800 43.97400 21.76800
C  3.23800 43.88800 23.27200
C  2.81700 41.68600 20.67800
C  3.30600 45.44900 21.23900
C  1.96500 46.14300 21.35900
N  3.17200 43.76500 26.23500
C  4.29900 44.14400 25.50500
C  5.36300 44.42000 26.34900
C  4.79700 44.19500 27.68300
C  3.48600 43.82400 27.52800
C  6.77000 44.64700 25.97600
C  5.09800 44.00400 29.05200
O  6.13200 44.03500 29.69500
C  3.79300 43.77200 29.76700
C  4.13900 42.64400 30.71100
O  4.25800 41.43800 30.42000
O  4.28600 43.06000 31.98200
C  4.34300 42.09700 33.16000
H  -2.46200 41.75800 27.68200
H  -0.16300 41.80300 21.58400
H  5.18900 44.52300 23.63200
H  1.38300 42.31000 30.75900
H  -1.53500 42.95500 29.82100
H  -0.26900 40.55500 30.83100
H  -0.87500 40.07300 29.29400
H  -2.00700 40.86100 30.43600
H  -0.35900 44.68000 30.63600
H  1.37500 44.71400 30.83200
H  -0.09700 44.66800 32.95700
H  1.56000 44.20700 32.88000
H  -4.69600 41.30400 24.88700
H  -3.99800 41.22700 26.48000
H  -3.82200 39.81300 25.48200
H  -4.38500 39.86900 22.97500
H  -4.67400 40.52500 21.27400
H  -5.05100 41.52200 22.70200
H  1.76100 43.56400 20.49500
H  4.36000 43.48800 21.60400
H  2.84800 41.82600 19.59700
H  2.09900 40.88200 20.83800
H  3.81300 41.40100 21.01500
H  3.82900 45.39500 20.28400
H  4.03100 45.99300 21.84400
H  1.24100 45.42700 21.74900
H  1.58400 46.41500 20.37500
H  1.95500 47.07000 21.93200
H  6.80800 44.86600 24.90800
H  7.28900 43.73900 26.28000
H  7.11300 45.47600 26.59500
H  3.57400 44.66500 30.35200
H  3.85200 42.41600 34.08000
H  5.36400 41.88900 33.47900
H  4.02100 41.10700 32.83600

