158

Mg 48.16200 25.08400 28.27800
C  49.33100 27.51100 30.69400
C  47.46200 23.14900 30.96900
C  47.71300 22.72900 26.04300
C  49.95200 27.02100 25.79300
N  48.33700 25.36200 30.62300
C  48.72000 26.49000 31.32700
C  48.55400 26.23500 32.79100
C  48.13500 24.72200 32.87200
C  48.01000 24.37100 31.38900
C  49.11300 23.81500 33.66000
C  47.55800 27.19700 33.42700
C  47.67100 27.36000 34.95000
H  46.40900 27.64500 35.74600
N  47.39800 23.26300 28.42200
C  47.16900 22.54900 29.64500
C  46.59800 21.23500 29.35200
C  46.62600 21.20200 27.91000
C  47.27600 22.41200 27.37800
C  46.16100 20.23900 30.45200
C  46.13700 20.12100 26.98400
O  46.37200 20.12300 25.77500
C  45.54200 18.97500 27.65500
N  48.83000 24.90300 26.28200
C  48.31400 23.86900 25.52700
C  48.78000 23.95800 24.05200
C  49.20700 25.47900 23.96500
C  49.38200 25.80300 25.42100
C  49.93700 22.98700 23.70100
C  48.20400 26.52200 23.31500
C  48.75200 27.90600 22.91100
N  49.35600 26.89000 28.14400
C  49.92100 27.53700 27.06600
C  50.55000 28.74700 27.49900
C  50.22300 28.86000 28.87600
C  49.55900 27.65200 29.24100
C  51.45400 29.61100 26.63100
C  50.38800 29.66000 30.04900
O  50.88100 30.78100 30.07800
C  49.77200 28.88100 31.30400
C  50.89300 28.76400 32.28000
O  51.83600 27.96300 32.20000
O  50.61800 29.45200 33.48700
C  51.37200 29.07000 34.71100
H  47.09900 22.49100 31.76200
H  47.38800 21.97300 25.32500
H  50.40900 27.63900 25.01800
H  49.51700 26.40400 33.27200
H  47.14100 24.58100 33.29700
H  49.77600 24.34900 34.34000
H  49.73800 23.26100 32.96000
H  48.44400 23.17000 34.23000
H  46.56700 26.76300 33.29200
H  47.62900 28.15400 32.90800
H  48.42600 28.13100 35.10500
H  48.21600 26.44900 35.19600
H  46.17600 20.65000 31.46200
H  46.69000 19.28600 30.45400
H  45.11800 19.95300 30.31900
H  44.63700 19.15100 28.23600
H  46.23100 18.28700 28.14200
H  45.02000 18.46200 26.84700
H  47.95500 23.68500 23.39500
H  50.17000 25.50600 23.45500
H  50.13500 22.32700 24.54500
H  50.79600 23.61600 23.46500
H  49.60500 22.30300 22.92000
H  47.39800 26.65900 24.03600
H  47.69600 26.02200 22.49000
H  48.37100 28.67000 23.58800
H  48.46700 28.24500 21.91500
H  49.83500 27.84800 22.80200
H  51.97700 28.97900 25.91300
H  52.07900 30.15000 27.34300
H  50.80700 30.30200 26.09000
H  49.02500 29.58700 31.66800
H  51.25200 27.98900 34.78300
H  50.97700 29.46900 35.64500
H  52.36900 29.50300 34.62600
Mg 30.84900 57.88300 40.16100
C  28.14300 55.91700 38.91100
C  32.88700 55.14000 39.25800
C  33.59400 59.95900 40.23500
C  28.69000 60.63000 40.35100
N  30.55700 55.78500 39.07800
C  29.33200 55.17600 38.78700
C  29.59700 53.76500 38.22300
C  31.04200 53.44800 38.75100
C  31.57300 54.84400 39.13400
C  30.98600 52.51200 39.95600
C  29.38100 53.92500 36.72500
C  28.17500 53.08400 36.20600
H  27.31100 53.77800 35.13700
N  32.97000 57.56300 40.07200
C  33.54400 56.35900 39.57100
C  34.96400 56.51000 39.74600
C  35.22200 57.85000 40.03900
C  33.85800 58.50700 40.15000
C  35.88100 55.34400 39.70100
C  36.59500 58.50800 40.20600
O  37.59500 57.84500 40.17700
C  36.79400 59.99400 40.49200
N  31.13000 60.02200 40.38100
C  32.32500 60.59800 40.39300
C  32.14300 62.15700 40.64200
C  30.52800 62.24000 40.90000
C  30.08000 60.90400 40.51800
C  33.04700 62.58400 41.92200
C  30.03400 63.45200 40.00500
C  29.24200 64.46800 40.81400
N  28.82000 58.26800 39.79800
C  28.09300 59.41600 39.96900
C  26.70200 59.13400 39.78200
C  26.62200 57.80500 39.40100
C  27.99100 57.33000 39.33500
C  25.57700 60.11300 39.94100
C  25.76900 56.72300 39.09500
O  24.53600 56.69200 38.91600
C  26.69300 55.40200 38.75900
C  26.32000 54.26800 39.64100
O  26.94200 53.91700 40.62200
O  25.27800 53.58800 39.11600
C  24.71700 52.38100 39.74600
H  33.50300 54.25100 39.10700
H  34.39100 60.70600 40.20900
H  28.08000 61.50600 40.57900
H  28.87600 53.20300 38.81700
H  31.67000 53.09300 37.93500
H  31.60900 51.65300 39.70700
H  30.02900 52.00200 40.07300
H  31.40900 52.91800 40.87500
H  30.19100 53.52200 36.11700
H  29.26300 54.96300 36.41600
H  27.47100 52.89200 37.01600
H  28.49600 52.13400 35.78000
H  36.95500 55.39300 39.88200
H  35.86000 55.00300 38.66600
H  35.47900 54.49000 40.24500
H  37.85300 60.25100 40.46900
H  36.31400 60.17600 41.45400
H  36.29500 60.58800 39.72600
H  32.56700 62.69100 39.79100
H  30.26300 62.32700 41.95400
H  33.35600 61.67300 42.43300
H  32.39500 62.97100 42.70500
H  33.91700 63.22000 41.75500
H  29.59500 62.98800 39.12100
H  30.92100 63.97400 39.64600
H  29.71300 65.43400 40.99800
H  29.01700 64.10000 41.81500
H  28.35000 64.75600 40.25700
H  25.91000 61.05700 39.51000
H  25.31600 60.21600 40.99500
H  24.67200 59.77100 39.43800
H  26.52000 55.00700 37.75800
H  25.04300 52.31600 40.78500
H  25.11900 51.48900 39.26600
H  23.62800 52.39300 39.75500

