158

Mg 2.35900 -2.32100 44.36600
C  5.79100 -1.51000 43.51700
C  1.40600 0.43700 42.67000
C  -0.76200 -3.45500 44.63000
C  3.57800 -5.43600 45.41800
N  3.47900 -0.71900 43.10800
C  4.86600 -0.53100 43.03400
C  5.10900 0.63800 42.07800
C  3.72400 1.35800 42.10800
C  2.79100 0.25700 42.68600
C  3.77400 2.66800 42.95200
C  5.49800 0.03900 40.67900
C  6.62400 0.76300 39.95600
H  6.65500 0.80700 38.44000
N  0.46300 -1.48700 43.80500
C  0.30100 -0.29200 43.20000
C  -1.10500 -0.04200 43.03600
C  -1.78200 -1.17700 43.59500
C  -0.73500 -2.13000 44.04000
C  -1.51300 1.11400 42.31000
C  -3.20000 -1.32800 43.63000
O  -3.91400 -0.55300 43.02700
C  -3.76500 -2.46000 44.28000
N  1.57400 -4.18300 44.81400
C  0.23700 -4.37900 44.91600
C  -0.15700 -5.76200 45.54500
C  1.26600 -6.39700 45.62300
C  2.23600 -5.25700 45.30900
C  -0.97900 -5.82400 46.87100
C  1.48200 -7.60800 44.62600
C  1.86500 -9.02300 45.17600
N  4.27600 -3.30500 44.63600
C  4.63500 -4.53200 45.08200
C  6.06100 -4.80400 44.97200
C  6.60800 -3.57400 44.45700
C  5.44900 -2.76900 44.19800
C  6.78700 -6.06700 45.34900
C  7.76000 -2.81700 44.09600
O  8.93000 -3.11600 44.05800
C  7.25300 -1.37500 43.59000
C  7.72200 -0.35300 44.57200
O  7.83600 -0.52400 45.75900
O  8.06900 0.81200 43.88800
C  8.18700 2.00800 44.67000
H  1.27300 1.31900 42.03900
H  -1.68100 -3.87500 45.04600
H  3.86300 -6.42600 45.78400
H  5.84300 1.33500 42.48400
H  3.43200 1.65900 41.10200
H  3.35200 3.55000 42.47100
H  4.81400 2.87700 43.20200
H  3.24100 2.59300 43.90000
H  4.59400 0.08300 40.07200
H  5.83000 -0.99400 40.78400
H  7.49900 0.15500 40.18400
H  6.77200 1.77200 40.34100
H  -2.47200 1.19700 41.79700
H  -0.85900 1.14600 41.43900
H  -1.52300 1.94800 43.01300
H  -3.27300 -3.39700 44.01700
H  -4.83800 -2.53100 44.10200
H  -3.57400 -2.25600 45.33300
H  -0.68500 -6.26200 44.73400
H  1.47500 -6.78100 46.62100
H  -1.18100 -4.93000 47.46000
H  -0.54800 -6.54000 47.57000
H  -2.00400 -6.09500 46.61600
H  2.35000 -7.27000 44.05900
H  0.58400 -7.65600 44.01000
H  1.04900 -9.72700 45.01300
H  1.93500 -8.92400 46.25900
H  2.85100 -9.32400 44.82300
H  6.60600 -6.67600 44.46300
H  6.31300 -6.54200 46.20800
H  7.83500 -5.86300 45.56900
H  7.62800 -1.12500 42.59800
H  7.29700 2.21900 45.26200
H  8.54500 2.82600 44.04500
H  9.03700 1.79100 45.31800
Mg 7.80900 3.34500 27.79400
C  8.93300 1.73400 30.80300
C  6.21300 5.58900 29.70300
C  6.76900 4.61900 24.94800
C  9.69300 0.93500 25.98300
N  7.55000 3.50900 30.04700
C  8.17000 2.81000 31.04200
C  7.94000 3.49200 32.42700
C  6.77100 4.53600 32.07700
C  6.87100 4.64700 30.52700
C  5.38700 4.17700 32.51800
C  9.23600 4.17000 33.06500
C  8.98200 4.85900 34.39700
H  9.87100 4.63400 35.60100
N  6.60000 4.94500 27.36200
C  5.98600 5.70200 28.29200
C  5.17800 6.67400 27.59700
C  5.44300 6.48500 26.16500
C  6.30400 5.35500 26.10800
C  4.41300 7.74100 28.31500
C  4.93900 7.35500 25.01300
O  5.22400 7.12400 23.82400
C  3.97900 8.45100 25.31600
N  8.03700 2.71200 25.74600
C  7.44900 3.41100 24.81200
C  7.64300 2.75400 23.41300
C  8.81100 1.78800 23.70400
C  8.93700 1.82400 25.23900
C  6.35500 1.97000 22.90900
C  10.15400 1.96000 22.94800
C  10.88700 0.66100 22.59400
N  8.94500 1.70000 28.23500
C  9.74800 0.91800 27.39000
C  10.44500 -0.06200 28.21000
C  10.18100 0.22500 29.50500
C  9.20400 1.28900 29.49000
C  11.31800 -1.16500 27.70000
C  10.46800 -0.17200 30.75500
O  11.18500 -1.09000 31.12600
C  9.76500 0.85000 31.69900
C  9.02700 0.10400 32.67400
O  7.96300 -0.57800 32.50400
O  9.67800 0.27800 33.82000
C  9.16100 -0.34500 35.02300
H  5.77200 6.31500 30.38800
H  6.30800 5.02900 24.04700
H  10.24100 0.17400 25.42200
H  7.68300 2.69300 33.12300
H  7.14000 5.38000 32.66000
H  5.44400 3.27400 33.12600
H  4.70100 4.04900 31.68000
H  5.13700 5.01700 33.16500
H  9.59800 4.97400 32.42500
H  9.96100 3.37200 33.22400
H  7.94400 4.79100 34.72400
H  9.09200 5.90900 34.12800
H  4.74200 8.76200 28.12200
H  4.56700 7.58500 29.38300
H  3.35400 7.60100 28.09700
H  3.88600 9.04000 24.40300
H  4.43700 9.09200 26.07000
H  3.00400 8.15900 25.70600
H  7.93900 3.53200 22.71000
H  8.46900 0.76600 23.54100
H  5.42700 2.27000 23.39600
H  6.44700 0.89600 22.74400
H  6.15800 2.29400 21.88700
H  10.82300 2.40900 23.68200
H  10.02500 2.54400 22.03700
H  11.75400 0.50700 23.23600
H  11.09400 0.52100 21.53300
H  10.16800 -0.14400 22.74100
H  12.07200 -1.45500 28.43100
H  11.85300 -0.83100 26.81000
H  10.70100 -1.95900 27.28000
H  10.56800 1.38200 32.21000
H  9.74700 -1.20100 35.35800
H  8.20500 -0.81800 34.80000
H  9.11900 0.46400 35.75400

