158

Mg 29.86100 57.91500 40.24700
C  27.03500 55.92000 39.16500
C  31.84800 55.29400 39.00000
C  32.43800 59.87300 40.39300
C  27.66700 60.64700 40.53300
N  29.52900 55.93000 39.08100
C  28.31300 55.30300 38.88300
C  28.46600 53.83100 38.52700
C  29.94800 53.54900 38.56900
C  30.46500 55.01800 38.86800
C  30.46700 52.43600 39.55000
C  27.83300 53.46000 37.05400
C  28.47400 54.22200 35.82100
H  27.57500 55.29600 35.14200
N  31.96400 57.58900 39.95200
C  32.57900 56.48000 39.38500
C  34.00000 56.71800 39.42900
C  34.21600 58.00700 39.96800
C  32.84000 58.50800 40.16200
C  34.93900 55.64500 38.96600
C  35.55300 58.70300 40.23500
O  36.58900 58.12000 39.94900
C  35.71900 60.05900 40.80500
N  30.06400 59.99400 40.29000
C  31.25800 60.51000 40.52300
C  31.19900 62.02600 40.91300
C  29.67900 62.31400 40.78700
C  29.05900 60.92100 40.55000
C  31.74500 62.34800 42.31600
C  29.35000 63.21300 39.55000
C  28.38100 64.33100 39.93600
N  27.73700 58.27700 40.10000
C  27.00800 59.42000 40.19500
C  25.64900 59.11200 39.87800
C  25.60500 57.73400 39.53300
C  26.93800 57.30300 39.62900
C  24.48100 60.09400 39.92400
C  24.68200 56.54200 39.21600
O  23.43700 56.57400 39.12800
C  25.61300 55.37000 38.90700
C  25.25400 54.27800 39.85100
O  25.72500 54.07000 40.95900
O  24.34700 53.41300 39.27200
C  23.94900 52.22100 40.07200
H  32.45200 54.40500 38.80900
H  33.28900 60.55500 40.45200
H  27.01600 61.49300 40.76400
H  27.95000 53.21600 39.26500
H  30.29300 53.22500 37.58600
H  30.52300 53.02400 40.46700
H  31.44800 52.08000 39.23300
H  29.75700 51.60900 39.56400
H  26.81700 53.83900 37.16500
H  27.97500 52.38100 36.99300
H  28.73800 53.52600 35.02500
H  29.35800 54.75600 36.16900
H  35.79500 55.92700 38.35300
H  34.53000 54.78100 38.44300
H  35.42100 55.32500 39.89000
H  35.20100 60.20800 41.75300
H  35.33900 60.79200 40.09300
H  36.77200 60.31800 40.92000
H  31.81700 62.60400 40.22600
H  29.31100 62.82400 41.67800
H  30.94700 62.73300 42.95100
H  32.40000 63.18600 42.07800
H  32.25700 61.50800 42.78700
H  28.95200 62.55000 38.78200
H  30.23700 63.67800 39.11900
H  27.47800 64.09900 39.37100
H  28.69400 65.29900 39.54600
H  28.21000 64.36100 41.01200
H  24.53500 60.72100 39.03400
H  24.70100 60.71000 40.79600
H  23.50700 59.61900 40.04400
H  25.36600 54.92000 37.94600
H  23.73200 52.61000 41.06700
H  24.78000 51.52200 40.16600
H  23.11200 51.73200 39.57400
Mg 26.78400 50.92600 26.43300
C  25.19500 52.22200 29.35000
C  29.31300 49.75900 28.48500
C  28.18200 49.54700 23.76100
C  24.84800 52.98000 24.51200
N  27.16900 51.05100 28.71500
C  26.33600 51.50700 29.71900
C  26.86300 51.22100 31.13200
C  28.26400 50.52300 30.81400
C  28.24800 50.42400 29.21600
C  29.50500 51.34900 31.32900
C  25.84200 50.49800 32.02900
C  26.27400 49.76400 33.36400
H  25.73400 50.48500 34.70200
N  28.46500 49.74000 26.19200
C  29.46500 49.40400 27.13000
C  30.45500 48.64800 26.49300
C  30.06200 48.48300 25.16900
C  28.93400 49.32000 24.98700
C  31.56600 47.89300 27.12800
C  30.54300 47.61100 24.11700
O  30.16800 47.61100 22.94200
C  31.34000 46.46100 24.45600
N  26.57000 51.36400 24.38900
C  27.11400 50.46100 23.53000
C  26.53500 50.69900 22.11200
C  25.58300 51.93300 22.36800
C  25.60500 52.08000 23.82800
C  27.54600 50.89700 20.92700
C  24.15900 51.60000 21.89100
C  23.73600 52.42900 20.66800
N  25.33200 52.22700 26.75400
C  24.58400 52.99100 25.85700
C  23.64100 53.79400 26.57400
C  23.84400 53.47600 27.86500
C  24.83100 52.50300 27.96500
C  22.66800 54.74700 25.88400
C  23.28000 53.77400 29.10500
O  22.32100 54.47100 29.35900
C  24.17300 52.91100 30.17500
C  24.70000 53.75300 31.33700
O  25.78100 54.17200 31.39900
O  23.83700 53.85300 32.33600
C  24.07000 54.84400 33.45900
H  30.05900 49.29700 29.13600
H  28.35100 48.93100 22.87600
H  24.16400 53.47700 23.82100
H  27.11600 52.24200 31.41900
H  28.23600 49.52900 31.26000
H  30.06600 51.54100 30.41500
H  30.04400 50.60300 31.91300
H  29.23100 52.27400 31.83700
H  25.27500 49.92200 31.29800
H  25.16800 51.29000 32.35800
H  27.36000 49.79300 33.46300
H  25.90600 48.73800 33.37100
H  31.66200 48.32800 28.12300
H  32.49800 48.08100 26.59500
H  31.25800 46.84900 27.18900
H  30.88100 45.83800 25.22400
H  32.24400 46.90100 24.87800
H  31.72100 45.81900 23.66100
H  25.98700 49.80900 21.80200
H  25.86400 52.88700 21.92000
H  28.53400 51.18100 21.29000
H  27.12200 51.76100 20.41500
H  27.56700 50.03900 20.25500
H  23.39000 51.82300 22.63000
H  24.09900 50.54300 21.63000
H  24.61200 52.94700 20.27900
H  22.95100 53.18000 20.75300
H  23.47800 51.77000 19.83900
H  23.22100 55.54700 25.39200
H  22.06900 55.25500 26.64000
H  22.05700 54.30000 25.10000
H  23.57800 52.10700 30.60800
H  24.44900 55.76900 33.02500
H  24.61900 54.41600 34.29800
H  23.05200 55.00700 33.81500

