158

Mg 54.00600 24.32500 44.82500
C  51.48600 26.39800 43.59400
C  52.70100 21.61400 42.92000
C  56.89100 22.49500 45.11200
C  55.46900 27.09800 46.27000
N  52.41200 24.03400 43.25400
C  51.53100 25.11900 42.91800
C  50.47100 24.52700 41.81600
C  50.65900 22.97000 41.98000
C  52.04000 22.81100 42.72300
C  49.52300 22.25800 42.74300
C  50.63000 25.23600 40.40700
C  50.67500 24.46400 39.08000
H  52.03700 24.44200 38.26700
N  54.62500 22.24900 44.38400
C  53.91900 21.31000 43.59800
C  54.66200 20.06300 43.62600
C  55.87900 20.26600 44.37500
C  55.84000 21.67700 44.66700
C  54.09400 18.76700 42.98400
C  56.88900 19.21000 44.81800
O  56.79300 18.02700 44.45000
C  57.95000 19.67600 45.74700
N  55.88100 24.67600 45.76300
C  56.96700 23.83600 45.57800
C  58.23400 24.45000 46.17100
C  57.75200 25.95500 46.41200
C  56.27600 25.92900 46.15500
C  58.93600 23.73900 47.38100
C  58.56600 26.98200 45.53800
C  58.14800 27.11500 43.98700
N  53.53900 26.28100 45.03300
C  54.13800 27.27600 45.80400
C  53.29100 28.41500 46.00900
C  52.19900 28.13400 45.15700
C  52.49100 26.86000 44.50600
C  53.45000 29.60600 46.85000
C  50.98300 28.64500 44.64800
O  50.40400 29.69300 44.78200
C  50.45000 27.55200 43.58000
C  50.18100 28.14400 42.22800
O  51.04700 28.65200 41.48800
O  48.85800 28.06100 41.93000
C  48.33100 28.65400 40.73700
H  52.20300 20.73500 42.50500
H  57.92200 22.13800 45.09700
H  55.78300 27.84900 46.99700
H  49.48300 24.74800 42.22100
H  50.64300 22.50000 40.99700
H  48.73600 22.92300 43.10000
H  49.96200 21.68400 43.55900
H  49.06800 21.47900 42.13200
H  51.48400 25.90500 40.50900
H  49.75100 25.87200 40.30400
H  49.86300 24.88900 38.49000
H  50.32400 23.43600 39.17100
H  54.48800 18.48000 42.00900
H  53.01000 18.83700 42.89700
H  54.07600 17.93400 43.68600
H  57.57700 20.39100 46.48100
H  58.86700 20.10500 45.34400
H  58.34900 18.83100 46.30800
H  59.01400 24.55000 45.41600
H  57.90900 26.24700 47.45100
H  59.01800 24.43600 48.21500
H  59.92400 23.38200 47.09100
H  58.26600 22.99400 47.81000
H  59.58800 26.62700 45.67200
H  58.52000 27.99300 45.94300
H  59.08700 27.02100 43.44200
H  57.62300 28.02900 43.70900
H  57.55500 26.26800 43.64200
H  53.87800 29.14700 47.74100
H  52.50700 30.08700 47.11300
H  54.21700 30.18200 46.33300
H  49.54100 27.11400 43.99200
H  49.00800 28.73700 39.88700
H  47.84200 29.61700 40.88800
H  47.52500 28.09300 40.26600
Mg 26.89000 50.68200 26.60800
C  24.92900 51.77900 29.23300
C  29.21500 49.56500 28.87000
C  29.08000 50.17600 24.09200
C  24.54600 51.93800 24.24200
N  26.98700 50.64200 28.83300
C  26.06800 51.11800 29.69700
C  26.44300 50.83600 31.17500
C  27.88200 50.23600 31.06600
C  28.01300 50.09700 29.49400
C  29.01400 51.26100 31.64500
C  25.43400 49.86500 31.89000
C  24.51200 50.55900 32.88200
H  24.52000 49.95200 34.25600
N  28.85700 50.03900 26.53500
C  29.58300 49.57300 27.54300
C  30.86300 49.10200 27.14000
C  30.96500 49.37200 25.74000
C  29.61100 49.89900 25.31800
C  31.92700 48.60200 28.11300
C  32.09200 49.14800 24.80800
O  31.98400 49.35800 23.59900
C  33.32600 48.58300 25.26000
N  26.79300 51.06000 24.43000
C  27.82400 50.57700 23.68000
C  27.43100 50.61000 22.12600
C  25.91300 51.15100 22.20100
C  25.69100 51.33900 23.74700
C  28.23300 51.45400 21.18100
C  24.77100 50.29600 21.60500
C  24.08200 50.91800 20.39600
N  25.10800 51.63900 26.65300
C  24.22800 52.05400 25.65700
C  23.07100 52.64700 26.28800
C  23.32500 52.62000 27.66000
C  24.52200 51.93900 27.85900
C  21.91300 53.24800 25.51900
C  22.80700 53.01400 29.00000
O  21.82500 53.53900 29.29600
C  23.90700 52.53500 29.98200
C  24.45600 53.72200 30.65000
O  25.19200 54.54700 30.16500
O  23.87800 53.81500 31.89100
C  23.92400 55.19700 32.55200
H  29.92200 49.31300 29.66300
H  29.86100 50.15200 23.32900
H  23.85200 52.12300 23.41900
H  26.40400 51.82300 31.63700
H  28.02000 49.26700 31.54600
H  28.63800 52.02300 32.32800
H  29.59500 51.68500 30.82600
H  29.68900 50.75300 32.33300
H  26.05100 49.07300 32.31400
H  24.75200 49.53300 31.10700
H  23.49800 50.45700 32.49600
H  24.75600 51.61500 33.00200
H  31.92500 49.07500 29.09500
H  32.93600 48.84000 27.77700
H  31.86900 47.51300 28.10600
H  33.95400 49.25600 25.84300
H  33.83500 48.18900 24.38100
H  33.04200 47.71900 25.86200
H  27.40800 49.59600 21.72700
H  25.72300 52.14300 21.79000
H  29.28200 51.40700 21.47400
H  27.97800 52.51200 21.12000
H  28.10100 50.92900 20.23500
H  24.02300 50.18600 22.39100
H  25.22800 49.33000 21.39000
H  22.99500 50.95700 20.47000
H  24.40100 50.27600 19.57500
H  24.35600 51.96100 20.23800
H  21.47000 52.61000 24.75400
H  22.13000 54.09700 24.87100
H  21.14000 53.44300 26.26200
H  23.54100 51.87800 30.77100
H  23.84500 55.86800 31.69700
H  24.84700 55.37400 33.10500
H  23.03700 55.20500 33.18600

