158

Mg 8.96500 3.07100 27.86000
C  10.28600 1.51200 30.74900
C  7.00800 4.96500 29.91200
C  7.27200 4.05500 25.10900
C  10.77500 0.70500 25.97900
N  8.81300 3.24900 30.07400
C  9.50700 2.60600 31.04300
C  9.33000 3.23000 32.41500
C  8.02100 4.20100 32.11000
C  7.92100 4.13500 30.58900
C  6.70800 3.75500 32.88800
C  10.63500 3.98900 32.88100
C  10.36300 4.77400 34.23100
H  10.75000 4.20600 35.56200
N  7.49100 4.44200 27.51500
C  6.76200 5.12500 28.54500
C  5.88000 6.03000 27.91500
C  5.88000 5.75000 26.51700
C  6.87700 4.72400 26.31800
C  5.13900 7.11000 28.70900
C  5.15300 6.49700 25.36200
O  5.27500 6.17100 24.17300
C  4.47200 7.77000 25.68700
N  9.02000 2.42200 25.89800
C  8.24800 3.11000 24.93700
C  8.61200 2.57700 23.51100
C  9.80800 1.57000 23.79900
C  9.86400 1.52700 25.32400
C  7.48100 2.03300 22.59800
C  11.23300 1.94800 23.24000
C  11.80600 1.09800 22.08400
N  10.25200 1.35400 28.26300
C  10.91800 0.54300 27.37300
C  11.64700 -0.43400 28.10900
C  11.51400 -0.08000 29.46900
C  10.60100 0.92500 29.48700
C  12.49700 -1.52800 27.60800
C  11.89300 -0.37400 30.77200
O  12.67800 -1.25200 31.15500
C  11.22500 0.73900 31.74000
C  10.44200 0.11400 32.84700
O  9.51100 -0.65100 32.77100
O  11.00000 0.43400 34.02000
C  10.49100 -0.27900 35.18800
H  6.47000 5.65800 30.56300
H  6.77100 4.33600 24.18000
H  11.43100 0.03900 25.41500
H  8.91700 2.41500 33.00900
H  8.16800 5.24400 32.38900
H  6.68600 2.69300 33.13200
H  5.90100 3.78900 32.15700
H  6.44500 4.41600 33.71300
H  11.05100 4.59400 32.07600
H  11.35700 3.26200 33.25400
H  9.28900 4.82900 34.40700
H  10.66800 5.82000 34.26600
H  5.88100 7.90200 28.81300
H  4.71300 6.74500 29.64400
H  4.26500 7.60300 28.28500
H  5.24300 8.47800 25.99200
H  3.71600 7.64600 26.46300
H  4.02100 8.21600 24.80100
H  9.08800 3.44800 23.06100
H  9.54100 0.56100 23.48600
H  6.51900 2.48300 22.84500
H  7.43400 0.96300 22.80200
H  7.80300 2.25800 21.58100
H  11.94100 1.88100 24.06600
H  11.12900 2.97400 22.88800
H  12.88300 1.04500 22.24500
H  11.64800 1.64400 21.15400
H  11.32500 0.12000 22.05000
H  13.24100 -1.17500 26.89400
H  11.83300 -2.16700 27.02600
H  12.94000 -2.19400 28.34900
H  12.03200 1.39300 32.07000
H  10.22200 0.48200 35.92100
H  11.23800 -0.91400 35.66300
H  9.60700 -0.89900 35.04000
Mg 29.81900 58.65000 39.04000
C  27.02900 56.70100 38.14800
C  31.85600 56.01500 38.50900
C  32.38300 60.81100 39.13500
C  27.61700 61.35000 39.30200
N  29.46200 56.66000 38.02300
C  28.18700 56.03800 37.92000
C  28.40800 54.57500 37.51500
C  29.83100 54.25500 38.20400
C  30.46300 55.72700 38.25000
C  29.77300 53.57800 39.59100
C  28.41700 54.44700 35.96000
C  27.23300 53.67100 35.30200
H  26.21700 54.48700 34.43700
N  31.97000 58.40600 39.01700
C  32.59600 57.25900 38.73100
C  34.01500 57.46200 38.75700
C  34.26200 58.82400 39.05700
C  32.86800 59.42000 39.01900
C  34.96500 56.34700 38.67700
C  35.51000 59.52600 39.17500
O  36.59500 59.01800 38.99900
C  35.56000 60.92000 39.51100
N  30.02300 60.76300 39.45200
C  31.18200 61.43700 39.29300
C  30.95700 62.96400 39.45200
C  29.48000 63.11600 39.61400
C  29.01400 61.64300 39.45600
C  31.83700 63.58900 40.61200
C  28.75100 64.08000 38.64600
C  28.15300 65.29000 39.18800
N  27.73900 59.05700 38.82400
C  26.98800 60.15100 38.98600
C  25.64700 59.86200 38.85200
C  25.55000 58.56700 38.51900
C  26.87900 58.07300 38.51800
C  24.50900 60.74700 39.22100
C  24.69300 57.47200 38.28000
O  23.47200 57.41900 38.19300
C  25.58300 56.21300 38.01500
C  25.17400 55.10900 38.94400
O  25.32000 55.10700 40.15400
O  24.57700 54.12200 38.19100
C  23.89100 52.95100 38.78400
H  32.44600 55.09700 38.46400
H  33.17100 61.55100 39.28900
H  26.93600 62.16000 39.57400
H  27.57500 53.93100 37.79900
H  30.45000 53.53600 37.66800
H  30.47200 52.74500 39.66800
H  28.78500 53.11900 39.57100
H  29.90000 54.23200 40.45400
H  29.28500 53.84300 35.69700
H  28.55300 55.45500 35.56800
H  26.66300 53.11200 36.04500
H  27.66700 52.88100 34.68800
H  35.92100 56.65500 39.10000
H  35.16300 56.16400 37.62100
H  34.53800 55.47800 39.17800
H  36.57500 61.22700 39.76500
H  34.85800 61.27200 40.26700
H  35.38700 61.48000 38.59200
H  31.26400 63.40200 38.50300
H  29.18900 63.32200 40.64400
H  31.94100 64.66900 40.50300
H  32.82100 63.14000 40.48200
H  31.27300 63.34100 41.51100
H  27.94800 63.61900 38.07100
H  29.51400 64.40800 37.94000
H  28.64200 66.09000 38.63300
H  28.51800 65.42500 40.20700
H  27.07200 65.31900 39.05300
H  24.88700 61.44300 39.97000
H  23.61300 60.17900 39.47200
H  24.24400 61.45900 38.43900
H  25.47900 55.90900 36.97400
H  23.15500 52.46500 38.14300
H  23.31900 53.12500 39.69500
H  24.66500 52.23400 39.06100

