158

Mg 53.79300 24.32000 44.44800
C  51.20500 26.78800 43.71000
C  51.60300 21.88900 43.37100
C  56.44200 22.44000 44.17400
C  55.85300 27.16400 45.33700
N  51.64500 24.36300 43.53400
C  50.79600 25.44800 43.44100
C  49.44300 24.92900 43.02300
C  49.51200 23.40700 43.41200
C  50.98300 23.14400 43.46800
C  48.79600 22.95800 44.74900
C  49.23400 25.17300 41.56400
C  47.81800 25.53300 41.27800
H  47.39800 25.36700 39.85300
N  53.99100 22.48900 43.93300
C  53.00200 21.60400 43.57400
C  53.59500 20.27600 43.38700
C  54.96300 20.42200 43.77400
C  55.18700 21.87200 43.94500
C  52.93700 19.09100 42.79600
C  55.91700 19.28300 43.85400
O  55.66500 18.11000 43.50800
C  57.23600 19.43700 44.52700
N  55.95600 24.82600 44.74700
C  56.82500 23.77000 44.60500
C  58.24000 24.25400 44.77400
C  58.05900 25.71200 45.38300
C  56.54700 25.94800 45.15000
C  58.99200 23.28000 45.70200
C  58.91500 26.82100 44.66900
C  59.40100 27.84900 45.73300
N  53.55900 26.44600 44.67500
C  54.47300 27.45700 45.06300
C  53.82700 28.74200 45.10300
C  52.57000 28.50900 44.53700
C  52.49000 27.11600 44.24400
C  54.35700 30.09500 45.52700
C  51.38800 29.14400 44.13000
O  51.02000 30.33000 44.24700
C  50.48600 28.11100 43.53400
C  50.26300 28.34200 42.04300
O  51.13600 28.41900 41.19900
O  48.95100 28.78800 41.87000
C  48.54600 28.99900 40.57800
H  50.89300 21.08500 43.16500
H  57.29000 21.75900 44.07700
H  56.43600 28.05900 45.56500
H  48.65800 25.30900 43.67600
H  49.12900 22.77100 42.61400
H  49.57600 22.81800 45.49800
H  48.30000 21.99300 44.64200
H  48.04300 23.68300 45.05800
H  49.43300 24.22700 41.06000
H  49.91200 25.89300 41.10500
H  47.69800 26.58300 41.54500
H  47.12200 25.00300 41.92800
H  53.31700 18.95100 41.78400
H  51.88500 19.35300 42.68400
H  53.10800 18.11700 43.25500
H  58.02300 19.85600 43.89900
H  57.49300 18.45400 44.92000
H  57.05400 20.09600 45.37600
H  58.87900 24.24200 43.89100
H  58.18700 25.58400 46.45800
H  59.60700 23.63100 46.53000
H  59.74700 22.79000 45.08700
H  58.28600 22.53000 46.05800
H  58.26100 27.32400 43.95700
H  59.70200 26.35800 44.07300
H  59.01400 28.81900 45.42200
H  60.48300 27.95500 45.81500
H  59.07000 27.62300 46.74700
H  53.56600 30.74600 45.89700
H  54.73600 30.63800 44.66100
H  55.16700 29.98000 46.24800
H  49.56500 28.11200 44.11600
H  49.19800 28.64600 39.77900
H  48.28200 30.04700 40.43000
H  47.62900 28.45000 40.36800
Mg -12.13600 38.02300 42.30600
C  -9.93100 35.37800 41.40700
C  -10.11500 40.12900 40.59400
C  -14.51400 40.33900 42.76400
C  -14.46000 35.55600 43.33400
N  -10.25100 37.71000 41.03600
C  -9.54800 36.55000 40.80700
C  -8.27100 36.83500 40.00900
C  -8.29200 38.42400 39.90200
C  -9.63000 38.83000 40.47800
C  -7.07700 39.05300 40.60100
C  -8.20400 36.02900 38.64200
C  -6.98600 35.22500 38.18000
H  -6.13500 36.04800 37.10200
N  -12.26100 40.03500 41.95400
C  -11.26800 40.70800 41.23000
C  -11.60900 42.16900 41.27300
C  -12.87200 42.21700 41.87800
C  -13.25900 40.86100 42.32900
C  -10.68100 43.25000 40.72500
C  -13.55400 43.54900 42.18700
O  -13.19500 44.61200 41.61200
C  -14.75000 43.52700 43.15100
N  -14.26100 37.88500 42.68700
C  -15.01600 39.01400 42.90300
C  -16.54700 38.67100 43.00900
C  -16.53100 37.14700 43.28300
C  -15.00300 36.79900 43.07600
C  -17.55600 39.49700 43.85800
C  -17.51300 36.25400 42.43500
C  -18.66400 35.64400 43.23800
N  -12.21500 35.91500 42.43200
C  -13.16000 35.10400 43.09300
C  -12.53100 33.71600 43.18800
C  -11.30500 33.79200 42.52100
C  -11.15400 35.13100 42.04000
C  -13.07700 32.45000 43.86000
C  -10.04000 33.05100 42.15700
O  -9.79100 31.82800 42.33500
C  -9.19000 34.04400 41.24500
C  -7.81900 34.12500 41.75400
O  -6.94700 33.35500 41.46400
O  -7.76300 34.96300 42.83500
C  -6.42100 35.12600 43.38600
H  -9.51800 40.90500 40.11000
H  -15.31300 41.06400 42.93100
H  -14.93500 34.66900 43.75900
H  -7.37200 36.59300 40.57600
H  -8.27100 38.74700 38.86100
H  -6.31100 38.35300 40.93400
H  -7.45200 39.71100 41.38500
H  -6.61000 39.67700 39.83900
H  -8.31700 36.69900 37.78900
H  -8.97700 35.26000 38.65300
H  -7.24900 34.30500 37.65700
H  -6.28000 35.07300 38.99700
H  -10.87600 43.40200 39.66300
H  -9.64900 42.91700 40.83300
H  -10.78500 44.23000 41.19200
H  -14.64400 42.79900 43.95600
H  -15.62600 43.31400 42.53900
H  -14.80300 44.47800 43.67900
H  -16.91700 38.85700 42.00100
H  -16.75100 36.95100 44.33200
H  -18.12700 38.70100 44.33600
H  -18.14400 40.08000 43.14800
H  -16.95300 40.13100 44.50700
H  -16.78700 35.58400 41.97400
H  -17.97100 36.91600 41.70000
H  -18.48900 34.59600 43.48000
H  -19.62500 35.70900 42.72800
H  -18.67000 36.15700 44.19900
H  -14.00600 32.36700 43.29600
H  -13.25300 32.59400 44.92600
H  -12.54200 31.50900 43.73800
H  -9.23600 33.59500 40.25300
H  -6.21500 34.16200 43.85200
H  -6.49700 35.92100 44.12700
H  -5.69700 35.36200 42.60500

