158

Mg 1.72400 -0.87600 43.93200
C  5.32100 -0.90500 42.82200
C  1.58600 1.96200 41.97700
C  -1.52300 -1.40900 43.84800
C  2.42400 -3.95200 45.41300
N  3.38900 0.46100 42.62000
C  4.68600 0.20100 42.24500
C  5.31900 1.35300 41.39900
C  4.14800 2.39500 41.46000
C  2.93100 1.56200 42.04700
C  4.37400 3.73600 42.29600
C  5.80800 0.83200 40.02300
C  6.95600 1.54800 39.30500
H  6.49600 2.23400 38.05400
N  0.26200 0.26400 43.15800
C  0.35500 1.42000 42.38400
C  -0.98100 1.88200 42.19600
C  -1.88900 0.87300 42.66000
C  -1.08100 -0.17800 43.20000
C  -1.29200 3.08600 41.45600
C  -3.41000 0.96600 42.59100
O  -3.91600 2.05100 42.20100
C  -4.34900 -0.11500 42.93300
N  0.68900 -2.45600 44.55200
C  -0.68700 -2.41700 44.48300
C  -1.27200 -3.74600 45.03600
C  -0.06300 -4.46500 45.66000
C  1.11000 -3.56200 45.28500
C  -2.57900 -3.68300 45.84700
C  0.04500 -5.98500 45.24200
C  -0.09500 -6.96100 46.36700
N  3.41300 -2.17600 44.09700
C  3.54600 -3.27300 44.91900
C  4.88600 -3.78100 45.00600
C  5.57500 -2.88200 44.18100
C  4.66500 -1.90300 43.66600
C  5.44500 -4.98400 45.84200
C  6.89600 -2.53400 43.81700
O  7.92000 -3.04800 44.16200
C  6.77900 -1.33900 42.81200
C  7.76600 -0.28400 43.18500
O  7.68800 0.40400 44.28300
O  8.74500 -0.11000 42.24000
C  9.70200 0.94900 42.58900
H  1.52800 2.96000 41.53800
H  -2.59400 -1.61800 43.86100
H  2.66400 -4.83200 46.01300
H  6.20900 1.76400 41.87500
H  3.81100 2.71100 40.47300
H  3.75100 3.64400 43.18600
H  3.94800 4.57000 41.73700
H  5.38400 3.96600 42.63700
H  5.00200 0.79300 39.29000
H  6.12400 -0.19700 40.19400
H  7.72600 0.80700 39.08800
H  7.39600 2.28500 39.97700
H  -2.04800 2.90200 40.69300
H  -0.39600 3.50100 40.99300
H  -1.65500 3.81000 42.18600
H  -5.40200 0.00800 42.67900
H  -4.25900 -0.29500 44.00400
H  -4.05500 -0.97100 42.32600
H  -1.64300 -4.23000 44.13200
H  -0.02200 -4.27400 46.73200
H  -3.50300 -3.88100 45.30200
H  -2.64400 -2.63800 46.15200
H  -2.55400 -4.30300 46.74200
H  1.03600 -6.08300 44.79900
H  -0.74800 -6.24100 44.54000
H  0.74600 -7.65400 46.39000
H  -1.08500 -7.41000 46.27900
H  -0.16100 -6.40300 47.30100
H  4.62200 -5.49600 46.34100
H  6.11000 -4.75000 46.67300
H  5.96000 -5.63500 45.13600
H  6.97500 -1.73600 41.81600
H  10.06500 0.80800 43.60700
H  9.18800 1.89400 42.41000
H  10.52000 0.93000 41.86900
Mg 42.79400 3.32900 47.26900
C  41.17900 6.25000 46.51900
C  39.89600 1.59200 46.74000
C  44.65300 0.39300 47.00300
C  45.79300 5.11300 46.96900
N  40.78800 3.88200 46.51400
C  40.31000 5.17000 46.54500
C  38.77000 5.20400 46.57100
C  38.40400 3.67300 46.77500
C  39.77800 2.94100 46.62100
C  37.59200 3.33800 48.01100
C  38.12100 5.88400 45.35600
C  38.66600 5.33000 44.06400
H  39.19000 6.34500 43.04500
N  42.33400 1.25200 47.06700
C  41.06200 0.76100 46.84100
C  41.04900 -0.65400 46.77100
C  42.41600 -1.04100 46.82600
C  43.21700 0.23500 47.00900
C  39.83200 -1.53600 46.60700
C  42.93600 -2.41700 46.79800
O  42.14100 -3.41300 46.73000
C  44.39400 -2.79100 46.93200
N  44.89800 2.74100 46.87300
C  45.41800 1.51200 46.99300
C  46.93800 1.43600 46.85000
C  47.31400 3.00900 46.87600
C  45.88700 3.69900 46.92100
C  47.52800 0.50700 47.98100
C  48.16400 3.55700 45.65000
C  49.51800 4.04400 45.98400
N  43.42200 5.31400 46.93100
C  44.66500 5.92100 46.90200
C  44.57000 7.35700 46.78200
C  43.19500 7.53700 46.73200
C  42.52700 6.25200 46.69800
C  45.60400 8.41300 46.84000
C  42.16000 8.49500 46.74900
O  42.17700 9.68800 46.76900
C  40.84600 7.70700 46.62900
C  40.02600 8.04600 47.77300
O  40.18300 7.47100 48.82300
O  38.99800 8.91200 47.48700
C  37.94100 9.13300 48.49300
H  38.93000 1.09300 46.64000
H  45.19700 -0.54400 46.86800
H  46.76700 5.60400 47.00900
H  38.37800 5.65700 47.48200
H  37.76300 3.35400 45.95300
H  38.15000 2.55200 48.52100
H  36.60800 2.95100 47.74400
H  37.57300 4.21800 48.65400
H  38.22600 6.95300 45.53800
H  37.05900 5.64400 45.32400
H  37.92100 4.70200 43.57600
H  39.53800 4.71200 44.28000
H  38.90600 -1.17200 46.16300
H  39.54600 -1.95600 47.57100
H  40.06500 -2.30700 45.87300
H  44.84400 -2.34900 46.04200
H  44.43900 -3.88000 46.90100
H  44.99800 -2.42200 47.76100
H  47.26400 0.96400 45.92300
H  47.99100 3.17600 47.71400
H  47.70800 -0.44600 47.48500
H  46.80400 0.35700 48.78200
H  48.45400 0.96700 48.32500
H  47.65600 4.28000 45.01100
H  48.41900 2.68700 45.04400
H  49.60300 4.75800 46.80400
H  49.85900 4.55000 45.08100
H  50.24900 3.23600 46.01400
H  46.58400 8.04300 46.53900
H  45.77900 9.01600 47.73100
H  45.20500 9.17200 46.16700
H  40.38000 8.10300 45.72700
H  38.26200 10.00200 49.06800
H  37.71300 8.27400 49.12500
H  37.05400 9.36800 47.90500

