158

Mg 0.47400 44.01600 26.15700
C  2.81800 43.90000 28.78400
C  -1.89400 43.32700 28.25600
C  -1.60600 43.46300 23.46700
C  3.21400 44.00100 23.85000
N  0.43800 43.85900 28.31700
C  1.49200 43.87700 29.20800
C  1.01800 43.91400 30.71300
C  -0.39900 43.32400 30.43300
C  -0.65400 43.47600 28.89500
C  -0.56800 41.78000 30.80700
C  0.89300 45.35600 31.31500
C  0.91900 45.37000 32.88500
H  0.50500 44.06300 33.64300
N  -1.51100 43.55100 25.88200
C  -2.39400 43.30200 26.97000
C  -3.69200 43.02500 26.48300
C  -3.59400 43.11900 25.08200
C  -2.21100 43.45000 24.70300
C  -4.87700 42.91900 27.39000
C  -4.62700 42.74900 24.09000
O  -4.48900 42.83300 22.89900
C  -5.93900 42.25900 24.59300
N  0.79800 43.84900 23.99900
C  -0.28800 43.66300 23.14700
C  0.23100 43.51800 21.71700
C  1.67800 44.08200 21.79000
C  1.93800 43.86800 23.30000
C  0.06100 42.07600 21.06700
C  2.01500 45.49600 21.39000
C  3.24600 45.90100 20.54900
N  2.62900 44.12300 26.21300
C  3.60100 44.11100 25.23000
C  4.95900 44.26200 25.86100
C  4.67600 44.17400 27.20300
C  3.26200 44.13200 27.37900
C  6.28900 44.28200 25.17800
C  5.31100 44.08400 28.48800
O  6.50700 43.91800 28.74900
C  4.14600 43.92900 29.56100
C  4.40400 42.75000 30.41800
O  4.49400 41.59900 29.92300
O  4.35200 43.01000 31.80000
C  4.55500 41.77700 32.62100
H  -2.64700 43.00900 28.98100
H  -2.20900 43.31000 22.57000
H  3.96300 44.16800 23.07400
H  1.61800 43.26100 31.34700
H  -1.10300 43.82700 31.09500
H  -1.48500 41.74400 31.39600
H  0.24100 41.24000 31.29800
H  -0.71700 41.18300 29.90700
H  -0.01300 45.88800 31.02500
H  1.75700 45.86800 30.89300
H  0.45200 46.30700 33.18900
H  1.92500 45.51300 33.28200
H  -5.51400 42.03800 27.32100
H  -5.57300 43.72400 27.15000
H  -4.54500 43.02000 28.42300
H  -5.77900 41.28700 25.05900
H  -6.55200 42.22000 23.69300
H  -6.39600 42.93100 25.31900
H  -0.30800 44.18200 21.04000
H  2.38100 43.43000 21.27200
H  -0.10000 41.39200 21.90000
H  1.03100 41.89300 20.60500
H  -0.71300 42.11000 20.30000
H  1.95600 46.16800 22.24700
H  1.10000 45.88900 20.94700
H  3.92100 46.53300 21.12700
H  2.89700 46.44000 19.66900
H  3.67700 44.94200 20.26100
H  6.29800 43.89600 24.15900
H  7.06700 43.73400 25.70900
H  6.52200 45.34600 25.12700
H  4.12900 44.78300 30.23900
H  4.41600 41.91900 33.69300
H  5.54000 41.32200 32.52800
H  3.76200 41.09400 32.31700
Mg -2.02600 34.76000 26.27300
C  -4.01100 33.10600 28.74800
C  -1.13100 36.95800 28.66700
C  -0.44200 36.37900 23.86000
C  -3.64400 32.76200 23.78100
N  -2.68600 35.01400 28.47600
C  -3.38300 34.20900 29.28200
C  -3.23700 34.62000 30.76200
C  -2.45500 36.00100 30.68900
C  -2.12300 36.06800 29.17000
C  -3.14100 37.33100 31.27100
C  -2.70400 33.45900 31.55900
C  -2.25200 33.91000 32.98500
H  -2.44700 33.02900 34.22700
N  -0.78500 36.32700 26.27800
C  -0.62700 37.14500 27.35800
C  0.34700 38.07300 26.96900
C  0.63600 37.92700 25.58000
C  -0.20000 36.83700 25.15400
C  0.98500 39.02100 28.06300
C  1.61200 38.71100 24.62600
O  1.86700 38.41600 23.45200
C  2.27600 39.89400 25.18700
N  -2.20300 34.70500 24.12700
C  -1.32500 35.44100 23.36700
C  -1.43300 35.13000 21.84100
C  -2.19700 33.75800 21.88400
C  -2.71200 33.68300 23.35400
C  -2.15600 36.24800 21.08000
C  -1.39200 32.47600 21.35100
C  -0.15600 32.09500 22.26400
N  -3.38900 33.20800 26.26600
C  -3.99600 32.53000 25.18200
C  -4.82300 31.40400 25.66600
C  -4.78800 31.56800 27.10200
C  -4.01100 32.73800 27.35200
C  -5.51600 30.36800 24.82700
C  -5.30800 31.08300 28.31300
O  -5.97800 30.13300 28.61000
C  -4.69100 31.93900 29.41400
C  -5.71000 32.33100 30.37700
O  -6.29000 33.42100 30.30300
O  -5.89600 31.39800 31.39600
C  -6.69000 31.86600 32.47800
H  -0.75100 37.48300 29.54600
H  0.23600 36.82000 23.12500
H  -4.08900 32.04000 23.09300
H  -4.24500 34.73500 31.16100
H  -1.53500 35.73400 31.20900
H  -4.03700 37.05900 31.82900
H  -3.37500 38.08100 30.51500
H  -2.50300 37.73200 32.05900
H  -1.95400 32.91800 30.98300
H  -3.53800 32.77500 31.71200
H  -2.58700 34.91000 33.25700
H  -1.18000 33.93700 32.78800
H  2.05400 39.05400 28.27300
H  0.45200 38.96600 29.01100
H  0.72000 40.03300 27.75900
H  1.44600 40.53500 25.48500
H  2.85000 40.27000 24.34100
H  3.00100 39.60100 25.94700
H  -0.53300 34.98800 21.24300
H  -3.07500 33.89100 21.25200
H  -1.67500 36.50600 20.13700
H  -2.12600 37.18700 21.63400
H  -3.16100 35.98900 20.74600
H  -1.21800 32.73600 20.30700
H  -2.09900 31.64700 21.31600
H  -0.08700 32.69200 23.17400
H  0.72600 32.27600 21.64900
H  -0.15900 31.09000 22.68700
H  -6.02400 30.79000 23.95900
H  -6.26600 29.82400 25.40200
H  -4.89000 29.51200 24.57800
H  -3.91800 31.35900 29.91800
H  -6.72700 31.04100 33.18900
H  -7.69700 32.16900 32.19100
H  -6.18500 32.67600 33.00500

