158

Mg 8.75100 3.99600 27.85100
C  9.95400 2.92900 30.88600
C  6.98200 6.55500 29.53700
C  6.94500 4.62600 24.99600
C  10.06700 1.16500 26.31100
N  8.41200 4.49700 29.97100
C  9.08700 4.01000 31.05100
C  8.71300 4.62700 32.42300
C  7.70100 5.73900 31.94300
C  7.73300 5.63400 30.37700
C  6.28500 5.67200 32.47100
C  9.94700 5.11900 33.22800
C  10.13800 4.51500 34.69900
H  10.23400 5.44900 35.93900
N  7.21700 5.44900 27.32500
C  6.73000 6.42600 28.13000
C  6.00200 7.29700 27.36200
C  5.81100 6.70600 26.13800
C  6.61700 5.53600 26.11500
C  5.33100 8.46700 27.91100
C  5.06800 7.29600 24.76200
O  4.99300 6.69500 23.67000
C  4.24100 8.60600 24.94300
N  8.41400 2.94800 25.96400
C  7.67900 3.46800 24.91400
C  7.72000 2.55800 23.67400
C  8.83200 1.45700 24.07300
C  9.13400 1.84800 25.53300
C  6.35300 2.04500 23.22900
C  9.98800 1.16700 23.17500
C  10.16100 -0.17400 22.57000
N  9.91100 2.37700 28.41300
C  10.35000 1.34100 27.69100
C  11.08400 0.42300 28.57300
C  10.92600 1.02100 29.80100
C  10.19800 2.19600 29.66600
C  11.68100 -0.91500 28.10800
C  11.25000 0.87200 31.15600
O  11.83400 0.03000 31.81800
C  10.70900 2.06900 31.94100
C  9.81800 1.53100 33.03500
O  8.61800 1.39000 32.99300
O  10.58900 1.36900 34.20700
C  9.89300 1.00300 35.46400
H  6.75400 7.44200 30.13100
H  6.49200 4.64600 24.00300
H  10.57700 0.26300 25.96800
H  8.26500 3.84100 33.03100
H  8.08100 6.70600 32.27400
H  5.73200 5.02900 31.78600
H  5.95800 6.71100 32.51200
H  6.31300 5.22300 33.46400
H  9.81900 6.19100 33.38100
H  10.87000 5.05800 32.65300
H  11.08100 3.98600 34.56000
H  9.30900 3.80800 34.70400
H  5.90900 9.35100 27.64100
H  5.24500 8.47600 28.99800
H  4.35900 8.58600 27.43200
H  3.99800 8.97600 23.94700
H  4.90900 9.33100 25.40800
H  3.30800 8.54600 25.50300
H  8.07300 3.23800 22.89900
H  8.43500 0.46500 24.28800
H  6.27100 0.97000 23.38900
H  6.12400 2.36900 22.21300
H  5.62900 2.43700 23.94300
H  10.86500 1.41500 23.77300
H  10.02400 1.80300 22.29000
H  10.46900 -0.00100 21.53900
H  9.24800 -0.77000 22.59000
H  11.00900 -0.69900 23.01000
H  12.73300 -0.72400 27.89900
H  11.16800 -1.40000 27.27700
H  11.72100 -1.59900 28.95600
H  11.51500 2.66900 32.36400
H  8.98500 0.40900 35.35700
H  9.67200 1.84300 36.12200
H  10.55700 0.41200 36.09600
Mg -3.21500 35.03600 27.22800
C  -4.14000 32.87300 29.85000
C  -1.72300 37.14100 29.65300
C  -2.54800 37.15700 24.86100
C  -4.90200 32.93100 24.97400
N  -3.14400 35.01600 29.54400
C  -3.50600 33.97100 30.30900
C  -3.23200 34.30800 31.72500
C  -2.62700 35.76200 31.68200
C  -2.38100 35.99600 30.19600
C  -3.57800 36.84500 32.29200
C  -2.29600 33.21800 32.39800
C  -2.74700 32.40600 33.66500
H  -1.93100 32.62200 34.94400
N  -2.13300 36.80500 27.24800
C  -1.56500 37.46100 28.34800
C  -1.04000 38.73100 27.78400
C  -1.16900 38.74500 26.39700
C  -2.00300 37.53600 26.10900
C  -0.28100 39.70000 28.75800
C  -0.75000 39.70700 25.30500
O  -0.80200 39.62400 24.07800
C  -0.03700 40.93700 25.89400
N  -3.69600 35.08500 25.16500
C  -3.23100 36.06900 24.39100
C  -3.50900 35.81500 22.92300
C  -4.34700 34.54000 22.96800
C  -4.33000 34.14900 24.45900
C  -4.10000 36.94700 22.06900
C  -3.76900 33.36600 22.10900
C  -2.41500 32.68400 22.52000
N  -4.33300 33.29800 27.36300
C  -4.83600 32.50200 26.35700
C  -5.40700 31.29800 26.92000
C  -5.13100 31.44800 28.24800
C  -4.47000 32.60900 28.50800
C  -6.19500 30.27800 26.16800
C  -5.42300 30.76800 29.46800
O  -6.07800 29.75900 29.75300
C  -4.70500 31.70200 30.63000
C  -5.87300 32.05300 31.51500
O  -6.73200 32.85500 31.18700
O  -5.79500 31.33700 32.71400
C  -6.70200 31.80000 33.71200
H  -1.27500 37.82500 30.37600
H  -2.47600 37.93300 24.09700
H  -5.16900 32.14800 24.26100
H  -4.16100 34.27300 32.29300
H  -1.64400 35.88000 32.13900
H  -3.04300 37.33300 33.10700
H  -4.50700 36.43300 32.68500
H  -3.84400 37.70400 31.67600
H  -1.33800 33.72900 32.49100
H  -2.16200 32.50800 31.58300
H  -2.66600 31.35600 33.38300
H  -3.78000 32.69700 33.86000
H  -0.18800 39.36500 29.79100
H  -0.59800 40.73900 28.66700
H  0.71600 39.65600 28.31900
H  0.86300 40.61000 26.41600
H  -0.73300 41.34500 26.62700
H  0.28300 41.56300 25.06100
H  -2.56000 35.68400 22.40100
H  -5.35500 34.68300 22.58100
H  -5.17300 36.80200 21.94200
H  -3.53200 37.14300 21.15900
H  -4.01800 37.93500 22.52300
H  -3.61100 33.72800 21.09300
H  -4.55000 32.61300 22.00000
H  -2.48400 31.60300 22.39300
H  -2.19300 32.90300 23.56400
H  -1.61000 33.10600 21.91900
H  -5.63600 29.41400 25.81000
H  -6.48800 30.81200 25.26300
H  -7.01700 29.89800 26.77400
H  -3.94200 31.11500 31.14100
H  -6.10200 32.53200 34.25200
H  -7.00000 30.97100 34.35500
H  -7.63300 32.18100 33.29500

