158

Mg 10.17700 47.60800 26.34400
C  8.44800 47.75100 29.48400
C  12.63200 49.43000 27.89800
C  11.72800 47.77800 23.42300
C  7.10600 46.99800 24.77900
N  10.54900 48.37800 28.40800
C  9.71200 48.28600 29.52600
C  10.38500 48.67400 30.85600
C  11.61400 49.52600 30.30500
C  11.58600 49.18200 28.78200
C  11.39800 51.04500 30.46300
C  10.85400 47.40000 31.69300
C  10.27300 47.45500 33.17500
H  10.39300 46.23400 34.06200
N  12.03900 48.23400 25.77700
C  12.90800 48.93500 26.58700
C  14.14000 48.99200 25.92000
C  13.92000 48.56300 24.58400
C  12.49200 48.20400 24.51700
C  15.45800 49.49900 26.50900
C  14.83500 48.19200 23.47400
O  14.52600 47.52200 22.47700
C  16.34600 48.52700 23.56200
N  9.54400 47.42700 24.33300
C  10.34000 47.37700 23.30100
C  9.57700 47.09800 21.95500
C  8.14300 46.75900 22.46200
C  8.23700 47.06500 23.98000
C  9.72100 48.21000 20.93100
C  7.41800 45.44000 22.15000
C  7.97600 44.15700 22.93800
N  8.21200 47.37700 27.02500
C  7.07600 47.04500 26.28600
C  5.95600 46.69400 27.13400
C  6.45700 46.94900 28.43100
C  7.77500 47.41100 28.30400
C  4.64400 46.10700 26.62400
C  6.11800 46.89200 29.75500
O  4.99800 46.68600 30.23600
C  7.42500 47.36000 30.58800
C  7.75500 46.16400 31.38600
O  8.43900 45.22000 31.09400
O  7.01900 46.23800 32.54300
C  6.80800 45.01800 33.39500
H  13.47000 50.00900 28.29000
H  12.21400 47.87300 22.44900
H  6.13900 46.95000 24.27400
H  9.71300 49.24400 31.49800
H  12.55200 49.38100 30.84100
H  10.71100 51.34100 31.25600
H  10.88500 51.48700 29.60900
H  12.34300 51.57800 30.57100
H  11.94200 47.37900 31.63500
H  10.57900 46.51900 31.11200
H  9.22800 47.69600 32.97900
H  10.82100 48.20700 33.74300
H  15.41900 49.76800 27.56500
H  15.76300 50.35800 25.91000
H  16.27300 48.81700 26.26600
H  16.78100 48.38600 22.57300
H  16.81300 47.90500 24.32700
H  16.35000 49.58300 23.82900
H  10.04600 46.16800 21.63500
H  7.50100 47.49100 21.97200
H  10.78000 48.43900 20.80700
H  9.27900 49.10500 21.36700
H  9.19100 47.91900 20.02400
H  7.59800 45.31100 21.08300
H  6.33100 45.39000 22.21900
H  8.52400 44.46300 23.83000
H  8.55200 43.57200 22.22100
H  7.09800 43.55700 23.17500
H  4.75200 45.34700 25.85100
H  4.07900 46.92500 26.17600
H  3.92300 45.79500 27.38000
H  7.20000 48.14200 31.31300
H  5.77100 44.72200 33.24200
H  6.93700 45.31800 34.43500
H  7.52800 44.22700 33.18400
Mg -5.62800 24.96800 25.92500
C  -3.69300 26.34100 28.55500
C  -7.17300 23.03100 28.30000
C  -7.16200 23.05600 23.44000
C  -3.48500 26.37300 23.61500
N  -5.33900 24.55000 28.13100
C  -4.60700 25.38900 28.99000
C  -5.11400 25.23500 30.44700
C  -6.06500 23.99900 30.34700
C  -6.19900 23.82900 28.82200
C  -5.55000 22.65700 30.93800
C  -5.88600 26.47200 30.89700
C  -5.96300 26.68900 32.40600
H  -5.45000 25.60000 33.44900
N  -7.03000 23.34700 25.87000
C  -7.54500 22.75900 26.93400
C  -8.66200 21.85900 26.57600
C  -8.73600 21.90000 25.20400
C  -7.68700 22.77100 24.71100
C  -9.41600 20.96600 27.57300
C  -9.67700 21.20200 24.29600
O  -9.62900 21.28800 23.05300
C  -10.85300 20.37000 24.88000
N  -5.33300 24.71200 23.93300
C  -6.10400 23.90800 23.09700
C  -5.74900 24.18000 21.61500
C  -4.53500 25.19800 21.63100
C  -4.42000 25.48000 23.17300
C  -5.39300 22.85000 20.84800
C  -4.72100 26.49400 20.71900
C  -3.52700 26.77300 19.87700
N  -3.92400 26.18100 25.96300
C  -3.13700 26.69500 24.99000
C  -2.16700 27.66300 25.47900
C  -2.27900 27.53300 26.85100
C  -3.41000 26.68300 27.14500
C  -1.20200 28.44400 24.55800
C  -1.87900 27.92700 28.17800
O  -1.05700 28.80200 28.58400
C  -2.81000 27.31100 29.27100
C  -1.92900 26.72600 30.29800
O  -1.15800 25.78100 30.08200
O  -2.20900 27.16100 31.57700
C  -1.49200 26.60700 32.76100
H  -7.66300 22.32400 28.97300
H  -7.69700 22.71100 22.55200
H  -2.96100 26.81000 22.76300
H  -4.27300 25.13900 31.13300
H  -7.08100 24.20900 30.68100
H  -4.67800 22.81800 31.57300
H  -5.28700 21.98800 30.11900
H  -6.37000 22.15600 31.45200
H  -6.91200 26.37800 30.54200
H  -5.52300 27.40300 30.46300
H  -6.96100 27.02000 32.69300
H  -5.49600 27.65600 32.59400
H  -10.46100 21.27400 27.59600
H  -9.14900 21.09500 28.62200
H  -9.25800 19.92600 27.28800
H  -10.46400 19.45400 25.32600
H  -11.53900 20.18000 24.05500
H  -11.38600 21.01600 25.57800
H  -6.70600 24.50500 21.20600
H  -3.60700 24.68900 21.36900
H  -5.14700 22.18600 21.67600
H  -4.50500 23.00900 20.23500
H  -6.26000 22.47600 20.30400
H  -4.72500 27.30600 21.44700
H  -5.73900 26.40700 20.33900
H  -3.11500 27.67100 20.33800
H  -3.78900 26.90800 18.82800
H  -2.74100 26.02000 19.94100
H  -1.31400 27.97600 23.58000
H  -0.17600 28.30600 24.90000
H  -1.49600 29.48500 24.42500
H  -3.44400 28.08900 29.69700
H  -0.54400 27.13900 32.84600
H  -1.17500 25.56400 32.72100
H  -2.12100 26.68400 33.64800

