158

Mg 41.32000 8.94900 29.96800
C  43.19300 10.12400 32.64800
C  38.88100 8.00800 32.32700
C  39.39500 7.77400 27.41900
C  43.90900 9.37500 27.81400
N  41.05100 9.07300 32.23600
C  41.93800 9.65600 33.07800
C  41.35100 9.64500 34.49300
C  40.20400 8.68400 34.38700
C  39.95700 8.69000 32.85500
C  40.42300 7.25800 35.05000
C  40.92300 11.06900 35.01100
C  40.41800 11.19800 36.48700
H  41.33600 11.76600 37.62100
N  39.39900 8.07500 29.94200
C  38.58200 7.74800 30.99200
C  37.36800 7.16400 30.50600
C  37.51900 7.05500 29.08200
C  38.76400 7.76100 28.74900
C  36.30500 6.64400 31.51400
C  36.53800 6.62900 28.16100
O  36.58600 6.85500 26.96000
C  35.28500 5.90100 28.68000
N  41.56000 8.51000 27.87100
C  40.65800 8.10200 27.01800
C  41.35800 7.81000 25.61700
C  42.73300 8.53400 25.81600
C  42.76200 8.74400 27.29000
C  41.52600 6.28100 25.15900
C  42.96300 9.75200 24.88700
C  42.31700 11.15900 25.23400
N  43.16700 9.68200 30.09100
C  44.10800 9.88500 29.11200
C  45.28200 10.62600 29.72100
C  44.97400 10.72600 31.09000
C  43.67900 10.11000 31.27600
C  46.47200 11.01200 28.97000
C  45.40800 11.18700 32.36300
O  46.42500 11.85500 32.59000
C  44.36600 10.91800 33.41900
C  44.95400 10.20900 34.57200
O  45.29700 9.04400 34.63300
O  44.96700 11.08200 35.65800
C  45.31600 10.60700 36.98200
H  38.27000 7.65100 33.15900
H  38.82400 7.39700 26.56700
H  44.69600 9.63600 27.10400
H  42.22700 9.36200 35.07700
H  39.33700 9.19500 34.80700
H  39.72200 7.26000 35.88500
H  41.41600 7.12900 35.48100
H  40.19600 6.46600 34.33600
H  40.19900 11.54200 34.34900
H  41.85000 11.63400 35.10400
H  40.04100 10.25300 36.88000
H  39.64400 11.94500 36.31000
H  35.32100 7.05100 31.28100
H  36.42600 6.83900 32.58000
H  36.31700 5.56300 31.37200
H  35.58700 5.07000 29.31800
H  34.63000 5.59100 27.86500
H  34.76600 6.64900 29.27800
H  40.80600 8.34300 24.84200
H  43.53900 7.81100 25.68600
H  40.99600 5.64200 25.86600
H  42.53700 5.87400 25.14400
H  41.11700 6.24700 24.15000
H  42.60800 9.39400 23.92100
H  44.05100 9.68700 24.85900
H  41.99600 11.22700 26.27300
H  41.59000 11.57600 24.53700
H  43.09700 11.92000 25.27200
H  46.89000 11.98700 29.22100
H  46.13000 11.02300 27.93500
H  47.27600 10.31200 29.19600
H  43.95200 11.86100 33.77500
H  44.79300 11.17400 37.75200
H  46.40600 10.63600 36.99800
H  45.02400 9.55900 37.05900
Mg 42.07900 40.71300 26.39100
C  41.57600 43.26900 28.80900
C  42.98300 38.61600 28.80500
C  42.71400 38.51300 23.92900
C  41.48500 43.20900 23.81700
N  42.49100 41.03200 28.60800
C  41.99300 42.03600 29.35900
C  42.11000 41.69600 30.86200
C  42.90300 40.34900 30.79000
C  42.75700 39.91800 29.29700
C  44.41000 40.55600 31.27600
C  40.66400 41.43500 31.59500
C  40.60800 42.14000 32.92300
H  39.87200 41.38500 34.02900
N  42.79000 38.76000 26.42100
C  43.12100 37.99700 27.46500
C  43.36900 36.63400 27.04700
C  43.23600 36.63200 25.61900
C  42.91300 38.02100 25.24800
C  43.66100 35.46500 28.03200
C  43.40500 35.44500 24.73100
O  43.16700 35.48500 23.56000
C  43.78100 34.11400 25.23300
N  42.20500 40.82000 24.17100
C  42.39400 39.76100 23.37500
C  42.28200 40.03200 21.89000
C  41.97700 41.55400 21.89200
C  41.79900 41.88800 23.34700
C  43.46500 39.49300 20.99200
C  40.75100 41.89700 20.94500
C  40.78500 41.52400 19.38400
N  41.49300 42.73500 26.26300
C  41.32100 43.56200 25.17400
C  40.97800 44.91600 25.63300
C  40.95200 44.78400 27.08500
C  41.36800 43.47700 27.39800
C  40.52300 46.12600 24.81000
C  40.77400 45.49100 28.37000
O  40.42900 46.70300 28.63500
C  41.01900 44.44000 29.54300
C  41.98100 45.12300 30.45900
O  43.16300 45.23400 30.25400
O  41.35400 45.77700 31.50300
C  42.20100 46.31500 32.55700
H  43.13100 37.97400 29.67700
H  42.91100 37.89100 23.05400
H  41.23000 43.94300 23.05000
H  42.63900 42.49500 31.38100
H  42.55800 39.55600 31.45400
H  44.64900 41.61700 31.35200
H  45.07400 40.03100 30.58800
H  44.49900 40.15500 32.28500
H  40.64700 40.35700 31.75000
H  39.87100 41.81400 30.95100
H  40.16300 43.13400 32.88900
H  41.62900 42.23600 33.29300
H  43.01100 34.62800 27.77700
H  43.67500 35.71700 29.09200
H  44.66000 35.12300 27.75900
H  43.92300 33.46800 24.36700
H  43.01900 33.60200 25.82100
H  44.74600 34.23100 25.72500
H  41.38900 39.50000 21.56300
H  42.92600 41.97100 21.55400
H  44.17700 39.08800 21.71100
H  43.95600 40.31500 20.47200
H  43.11300 38.69900 20.33400
H  40.59700 42.97600 20.91000
H  39.82700 41.45500 21.31900
H  40.24400 40.59900 19.18600
H  41.80600 41.49900 19.00200
H  40.30100 42.32600 18.82600
H  40.74400 46.95500 25.48100
H  39.46500 46.00800 24.57400
H  41.10000 46.11500 23.88500
H  40.08300 44.29200 30.08200
H  42.87700 47.00700 32.05400
H  42.68400 45.48100 33.06500
H  41.66700 47.01000 33.20400

