158

Mg 9.17500 4.26100 27.65100
C  10.62400 2.86800 30.43500
C  7.36400 6.38100 29.72900
C  8.04900 5.68800 25.04000
C  10.68500 1.68100 25.68300
N  8.92700 4.45900 29.84600
C  9.72800 3.93000 30.80600
C  9.57200 4.49400 32.17300
C  8.40300 5.56200 31.94200
C  8.11500 5.43700 30.40200
C  7.19100 5.30000 32.87200
C  10.85500 4.94500 32.96700
C  10.74600 5.86200 34.13900
H  11.68500 5.68100 35.32500
N  7.80900 5.74100 27.41200
C  7.20200 6.54100 28.33200
C  6.43700 7.50300 27.68100
C  6.74100 7.42900 26.31200
C  7.58900 6.23900 26.19600
C  5.52000 8.43100 28.37900
C  6.33900 8.36100 25.13900
O  6.55700 8.09100 23.98900
C  5.66400 9.63900 25.40500
N  9.20200 3.66200 25.63700
C  8.67400 4.47300 24.71600
C  8.98100 3.98400 23.22500
C  9.96100 2.82100 23.57300
C  9.88300 2.64800 25.02900
C  7.67700 3.61000 22.40300
C  11.35500 3.27600 22.91300
C  12.11900 2.22200 22.18600
N  10.40000 2.59600 27.94100
C  10.90200 1.63300 27.10600
C  11.68600 0.64800 27.85500
C  11.66600 1.14200 29.17600
C  10.82700 2.29800 29.17200
C  12.36300 -0.54800 27.34000
C  12.17500 1.00800 30.53400
O  13.01300 0.19600 30.93300
C  11.54300 2.12000 31.38100
C  10.86800 1.38800 32.50700
O  9.77900 0.81400 32.51500
O  11.69400 1.46500 33.64400
C  11.26300 1.18700 35.03700
H  6.78900 7.04200 30.38100
H  7.74800 6.12400 24.08600
H  11.20100 0.93800 25.07100
H  9.18000 3.61300 32.67900
H  8.88500 6.52500 32.10800
H  6.35600 4.95500 32.26100
H  6.83700 6.21000 33.35500
H  7.49400 4.68900 33.72200
H  11.38000 5.50600 32.19400
H  11.39000 4.11000 33.41900
H  9.69700 5.84600 34.43500
H  10.95900 6.84300 33.71300
H  5.95100 9.39800 28.63800
H  5.33400 8.10400 29.40200
H  4.57700 8.46100 27.83300
H  5.73400 10.37100 24.60000
H  6.28400 10.04600 26.20300
H  4.62300 9.33100 25.50300
H  9.56000 4.80900 22.80900
H  9.53100 1.92300 23.13100
H  6.85000 4.08100 22.93400
H  7.52500 2.54900 22.20300
H  7.79000 4.06100 21.41700
H  11.97700 3.71200 23.69500
H  11.23400 3.96700 22.07900
H  11.57100 1.28400 22.26700
H  13.06000 2.06400 22.71300
H  12.33100 2.35800 21.12500
H  12.11300 -1.33400 28.05200
H  13.43000 -0.37600 27.19800
H  12.00900 -0.81700 26.34400
H  12.29000 2.83900 31.71900
H  11.80000 1.78800 35.77100
H  11.27300 0.11700 35.24500
H  10.24500 1.50300 35.26800
Mg 35.00300 2.08300 29.98200
C  32.51900 3.45300 32.11100
C  37.18800 2.25600 32.57900
C  37.51800 1.33800 27.80700
C  32.85500 2.61500 27.41900
N  34.81900 2.88200 32.11000
C  33.69500 3.15900 32.84900
C  33.91000 3.18500 34.37400
C  35.42100 3.06500 34.42100
C  35.89200 2.76700 32.97900
C  36.22600 4.15700 35.18900
C  33.01800 2.07600 35.03600
C  32.72400 2.25400 36.57900
H  33.45500 3.28600 37.45600
N  37.02800 1.73800 30.18700
C  37.71300 1.77700 31.36200
C  39.06000 1.39000 31.11600
C  39.27900 1.24500 29.77700
C  37.89700 1.33400 29.18600
C  40.02100 1.26500 32.25400
C  40.56200 0.85400 29.02800
O  40.56400 0.71200 27.78000
C  41.95500 0.68200 29.78100
N  35.19300 2.03400 27.95900
C  36.28500 1.66200 27.26500
C  36.07900 1.70900 25.71500
C  34.50600 1.77400 25.62100
C  34.17000 2.15700 27.09700
C  36.83200 2.80500 24.92700
C  33.71000 0.49900 25.26000
C  32.53000 0.86300 24.30200
N  33.09500 2.76200 29.75400
C  32.29400 2.88900 28.65500
C  31.03700 3.48500 28.94300
C  31.08300 3.81600 30.31900
C  32.34200 3.28400 30.76100
C  29.84200 3.67800 28.01800
C  30.33600 4.31500 31.48000
O  29.18000 4.78200 31.45800
C  31.22200 4.00800 32.72100
C  31.36900 5.26100 33.44100
O  31.76300 6.34100 32.90000
O  31.09500 5.11000 34.81100
C  31.57600 6.35800 35.49500
H  37.85800 2.19500 33.44000
H  38.27000 1.12600 27.04400
H  32.13700 2.65300 26.59600
H  33.58600 4.11200 34.84600
H  35.65900 2.13600 34.94000
H  36.97200 3.67200 35.81800
H  35.59400 4.83200 35.76600
H  36.85700 4.75800 34.53400
H  33.55300 1.13000 34.94200
H  32.02800 2.01000 34.58700
H  32.85000 1.27600 37.04400
H  31.68000 2.53500 36.72000
H  40.46500 0.27400 32.16500
H  39.55000 1.24800 33.23700
H  40.77700 2.05000 32.28700
H  42.78500 1.08000 29.19700
H  42.13000 -0.34200 30.11100
H  42.11600 1.26300 30.68900
H  36.52900 0.76600 25.40200
H  34.17200 2.60700 25.00100
H  37.25000 2.40800 24.00100
H  37.59600 3.17100 25.61200
H  36.12500 3.60100 24.69400
H  33.24800 0.13900 26.18000
H  34.35400 -0.24100 24.78500
H  32.54600 0.23600 23.41000
H  32.63400 1.86200 23.87700
H  31.55200 0.79500 24.77900
H  29.21000 4.56400 28.07500
H  29.17700 2.82900 28.17400
H  30.24900 3.59300 27.01000
H  30.66700 3.32200 33.36000
H  31.40400 7.36800 35.12500
H  32.66500 6.38300 35.55200
H  31.29500 6.27700 36.54500

