158

Mg 47.62200 16.47000 28.73600
C  45.88300 15.74800 31.73000
C  49.91900 18.21600 30.57900
C  49.31700 16.98700 25.96500
C  44.98400 14.79200 27.00500
N  47.80700 16.92500 30.86600
C  47.04100 16.50600 31.89500
C  47.67800 16.83400 33.23300
C  48.63800 18.09700 32.81400
C  48.80500 17.71500 31.29300
C  47.86400 19.48200 33.01800
C  48.36000 15.64500 33.96400
C  48.28000 15.74200 35.51900
H  47.90300 17.16700 36.20900
N  49.43500 17.25800 28.36200
C  50.28900 17.96800 29.20900
C  51.52000 18.32600 28.47400
C  51.23100 18.10800 27.15900
C  49.93500 17.46000 27.12600
C  52.81800 18.97700 29.18500
C  52.12600 18.53700 25.95900
O  51.89600 18.31100 24.79100
C  53.39700 19.37200 26.14800
N  47.08100 16.13900 26.74600
C  48.01200 16.40400 25.77200
C  47.54600 15.82800 24.46800
C  46.34200 14.96000 24.76900
C  46.10900 15.26700 26.26800
C  47.28000 16.96800 23.38500
C  46.55700 13.55700 24.35400
C  45.32500 12.69400 24.19800
N  45.71300 15.52300 29.24600
C  44.81300 14.85900 28.47000
C  43.77100 14.25700 29.26600
C  44.19600 14.54900 30.58200
C  45.31100 15.32400 30.50200
C  42.53100 13.69200 28.82900
C  43.90500 14.34600 31.97400
O  43.14100 13.63100 32.54100
C  44.94300 15.19100 32.75500
C  44.22300 16.33500 33.47600
O  44.13300 17.48900 33.14300
O  43.80600 15.85900 34.67400
C  43.29400 16.81400 35.66400
H  50.66500 18.70700 31.20700
H  49.70100 17.17600 24.96000
H  44.35400 14.17200 26.36300
H  46.84400 17.07000 33.89300
H  49.60600 18.18000 33.30800
H  47.91900 19.95600 33.99800
H  46.81800 19.25400 32.81300
H  48.14900 20.22900 32.27700
H  49.41800 15.64500 33.70300
H  47.81800 14.75200 33.65400
H  49.27400 15.48800 35.88600
H  47.69800 14.90000 35.89400
H  53.68500 18.31900 29.12200
H  52.57200 18.88800 30.24300
H  52.93800 20.03400 28.94500
H  53.24900 20.27300 26.74400
H  53.77300 19.74300 25.19500
H  54.17900 18.79900 26.64600
H  48.31800 15.23100 23.98200
H  45.52000 15.32900 24.15400
H  47.55800 17.99400 23.62600
H  46.22800 16.99900 23.10100
H  47.84400 16.76400 22.47500
H  47.16800 13.05800 25.10600
H  47.18400 13.42900 23.47200
H  45.46800 11.82000 24.83300
H  45.23700 12.48800 23.13100
H  44.40100 13.15600 24.54500
H  42.71200 12.64200 28.60100
H  42.15400 14.24000 27.96500
H  41.78900 13.88200 29.60400
H  45.42300 14.48500 33.43300
H  42.25600 16.61200 35.93000
H  43.42200 17.87600 35.45400
H  43.82500 16.68600 36.60700
Mg -5.23200 25.35500 26.00200
C  -4.21500 27.06400 28.86100
C  -7.06000 23.22500 28.00900
C  -5.83700 23.57500 23.22400
C  -3.26600 27.64700 24.01100
N  -5.49800 25.14400 28.18000
C  -5.00200 25.97800 29.16600
C  -5.52000 25.55800 30.53900
C  -6.38100 24.24800 30.29100
C  -6.32900 24.16900 28.71700
C  -5.79100 23.00100 31.00900
C  -6.44600 26.65900 31.20200
C  -6.28000 26.88600 32.64400
H  -5.83200 25.75500 33.47600
N  -6.22500 23.67100 25.68400
C  -7.01900 22.94300 26.58000
C  -7.56100 21.72900 25.92700
C  -7.35000 21.91700 24.52900
C  -6.38500 23.07600 24.46700
C  -8.45800 20.89300 26.65100
C  -7.77100 20.98400 23.41800
O  -7.40900 21.22900 22.28100
C  -8.66900 19.78500 23.63000
N  -4.37700 25.46500 23.89200
C  -5.01400 24.65100 22.96900
C  -4.61800 25.03900 21.56900
C  -3.78300 26.39500 21.82900
C  -3.88600 26.59200 23.33500
C  -3.85900 23.89800 20.91000
C  -4.16000 27.63600 20.95300
C  -3.01100 28.30700 20.21800
N  -3.92400 26.98100 26.30000
C  -3.28200 27.85000 25.39900
C  -2.62200 28.90100 26.17200
C  -2.95300 28.59500 27.49400
C  -3.70000 27.37800 27.55500
C  -1.89600 30.07800 25.55700
C  -2.81700 29.13700 28.83000
O  -2.35200 30.17900 29.26200
C  -3.58000 28.13300 29.77600
C  -2.49600 27.38200 30.59400
O  -1.36500 26.96500 30.17600
O  -2.92800 27.23400 31.87600
C  -2.00900 26.70700 32.90900
H  -7.77300 22.72000 28.66400
H  -6.13800 23.15100 22.26500
H  -2.75200 28.40200 23.41300
H  -4.61100 25.43200 31.12700
H  -7.43700 24.38800 30.52200
H  -4.82900 23.24100 31.46100
H  -5.60400 22.21600 30.27600
H  -6.47900 22.53000 31.71200
H  -7.46600 26.27500 31.18700
H  -6.33700 27.56900 30.61100
H  -7.14100 27.32300 33.14900
H  -5.61400 27.74700 32.70300
H  -8.91500 20.10700 26.05000
H  -9.31400 21.49500 26.95600
H  -7.93700 20.55300 27.54600
H  -9.69500 19.97600 23.94500
H  -8.18000 19.12900 24.35100
H  -8.78100 19.08600 22.80100
H  -5.44200 25.31700 20.91200
H  -2.72200 26.16600 21.73000
H  -3.33200 23.28800 21.64300
H  -3.18700 24.24900 20.12700
H  -4.65600 23.23700 20.57000
H  -4.78300 28.28300 21.57100
H  -4.85200 27.16900 20.25300
H  -3.13700 29.38200 20.34800
H  -3.15700 28.09300 19.15900
H  -2.05200 27.88400 20.51700
H  -2.25300 30.44600 24.59500
H  -0.86800 29.72100 25.50000
H  -2.01800 30.80600 26.35900
H  -4.18300 28.60400 30.55300
H  -0.95700 26.85600 32.66800
H  -2.10700 25.62500 33.00200
H  -2.24900 27.10200 33.89600

