158

Mg 30.68900 59.03800 40.14400
C  27.70300 57.44800 39.37500
C  32.33000 56.15300 39.30700
C  33.48000 60.85800 39.92300
C  28.82100 62.10700 40.38800
N  30.03900 57.02800 39.56600
C  28.79500 56.58100 39.39600
C  28.76800 55.12800 38.88500
C  30.18300 54.68900 39.23800
C  30.91700 56.03000 39.37100
C  30.29400 53.98400 40.67300
C  28.51200 55.18900 37.26400
C  27.51000 54.16300 36.59300
H  26.61600 54.68300 35.42800
N  32.64100 58.58400 39.77100
C  33.10000 57.32000 39.47800
C  34.55900 57.45200 39.24900
C  34.95500 58.79900 39.53500
C  33.66300 59.46500 39.73000
C  35.39100 56.19800 39.06100
C  36.34300 59.35600 39.71200
O  37.27900 58.60300 39.39200
C  36.79200 60.64800 40.34400
N  31.15300 61.14500 40.16600
C  32.32200 61.66100 40.12800
C  32.36700 63.15000 40.17300
C  30.88000 63.57000 40.37800
C  30.19100 62.17000 40.24800
C  33.39400 63.72200 41.16500
C  30.38800 64.61200 39.36900
C  29.75400 65.86500 39.93400
N  28.72300 59.66100 39.98000
C  28.12100 60.98800 40.08300
C  26.72700 60.81500 39.75200
C  26.62100 59.50300 39.45700
C  27.78200 58.81900 39.59300
C  25.58200 61.81400 39.57800
C  25.62300 58.55900 39.04200
O  24.44500 58.77500 38.89400
C  26.29100 57.20700 38.93800
C  25.54300 56.19000 39.78100
O  25.44100 56.11100 41.04000
O  25.10100 55.17700 38.94500
C  24.93100 53.85300 39.52200
H  32.90900 55.24300 39.13500
H  34.42800 61.39900 39.88500
H  28.26700 63.04800 40.33600
H  27.97300 54.51100 39.30500
H  30.66400 54.02400 38.52100
H  29.33500 53.70000 41.10700
H  30.73000 54.63100 41.43400
H  31.00600 53.17100 40.52500
H  29.49000 54.86600 36.90800
H  28.37900 56.18700 36.84600
H  26.79700 53.74500 37.30500
H  28.16600 53.36500 36.24600
H  34.88100 55.64400 38.27300
H  35.14600 55.63500 39.96200
H  36.36900 56.44200 38.64600
H  37.81700 60.46400 40.66500
H  36.11600 60.93500 41.14900
H  36.77300 61.46100 39.61800
H  32.66200 63.53800 39.19800
H  30.74300 63.96900 41.38300
H  33.86900 62.87200 41.65600
H  32.95000 64.39700 41.89700
H  34.15800 64.31600 40.66500
H  29.58100 64.17100 38.78500
H  31.03700 64.92800 38.55200
H  30.09900 66.61100 39.21800
H  30.14600 66.21000 40.89100
H  28.67000 65.77500 39.85900
H  24.80700 61.57200 40.30600
H  25.22000 61.81200 38.55000
H  25.96700 62.79000 39.87200
H  26.20000 56.81000 37.92700
H  25.91300 53.43700 39.74400
H  24.56300 53.21400 38.71900
H  24.26800 53.89600 40.38600
Mg -10.07200 17.05900 42.88900
C  -6.73700 17.94800 42.69600
C  -10.81200 20.41400 42.25400
C  -13.08200 16.14600 42.26800
C  -9.08400 13.68600 42.82600
N  -8.90900 18.90700 42.38100
C  -7.55100 19.02500 42.44400
C  -7.07900 20.46100 42.17800
C  -8.41500 21.21300 42.42600
C  -9.47500 20.15300 42.29900
C  -8.34700 21.96000 43.80100
C  -6.52200 20.60500 40.69500
C  -5.02000 20.83000 40.55600
H  -4.26800 19.85200 39.58200
N  -11.71800 18.15400 42.25000
C  -11.89900 19.52000 42.17800
C  -13.31700 19.79200 41.81700
C  -13.96700 18.50700 41.68000
C  -12.92300 17.53200 42.05300
C  -13.87100 21.24200 41.57000
C  -15.44500 18.38800 41.32600
O  -16.16800 19.36900 41.21700
C  -16.02200 16.97500 41.00200
N  -10.95700 15.17800 42.46300
C  -12.22600 15.09100 42.50200
C  -12.71700 13.76600 42.81700
C  -11.47900 12.89500 43.00900
C  -10.43000 13.95300 42.65000
C  -13.76200 13.79100 44.02200
C  -11.45200 11.58100 42.18100
C  -11.29900 10.26800 43.08800
N  -8.33600 16.01400 42.83200
C  -8.03000 14.63300 42.79600
C  -6.58400 14.38800 42.97000
C  -6.07900 15.64100 42.90400
C  -7.14800 16.60000 42.79300
C  -5.92000 13.00200 43.20500
C  -4.77500 16.38500 42.98200
O  -3.60400 15.86300 43.02800
C  -5.21500 17.91100 42.95400
C  -4.90700 18.49700 44.30000
O  -5.11500 18.00500 45.42400
O  -4.55500 19.79300 44.09900
C  -3.84700 20.39400 45.27100
H  -11.12900 21.44700 42.09600
H  -14.13100 15.84100 42.28200
H  -8.73800 12.67100 43.03400
H  -6.27700 20.86100 42.79800
H  -8.61900 22.04700 41.75500
H  -7.87800 22.93000 43.63800
H  -7.86700 21.36000 44.57500
H  -9.33100 22.16200 44.22400
H  -6.95800 21.46000 40.17700
H  -6.70600 19.66300 40.17800
H  -4.47300 20.88700 41.49700
H  -4.85000 21.83200 40.16200
H  -13.32100 22.00900 42.11500
H  -14.90400 21.30800 41.91100
H  -13.75900 21.53800 40.52700
H  -15.24500 16.39900 40.50000
H  -16.91900 17.25100 40.44600
H  -16.28600 16.56100 41.97500
H  -13.36500 13.40000 42.02000
H  -11.32600 12.71600 44.07300
H  -13.54500 14.57300 44.75000
H  -13.48400 12.85100 44.50000
H  -14.81700 13.92200 43.78200
H  -10.63600 11.50000 41.46300
H  -12.35000 11.54900 41.56400
H  -10.85600 10.55900 44.04000
H  -10.63000 9.54400 42.62300
H  -12.34200 9.95200 43.08400
H  -4.85300 13.05300 42.99200
H  -6.36700 12.30900 42.49200
H  -6.08700 12.62400 44.21300
H  -4.63900 18.45300 42.20500
H  -4.53500 20.53600 46.10500
H  -3.33300 21.33500 45.07700
H  -3.05900 19.71100 45.59000

