158

Mg 47.37900 14.97200 28.14700
C  45.43000 14.89500 31.06700
C  49.49300 17.25000 29.66400
C  49.07800 15.29900 25.19500
C  44.92400 13.14800 26.51000
N  47.39300 16.01200 30.09500
C  46.59400 15.71200 31.18800
C  47.14600 16.33000 32.51700
C  48.22300 17.36400 32.00200
C  48.42500 16.85200 30.50600
C  47.75400 18.84300 31.80800
C  47.70400 15.27100 33.52000
C  47.56200 15.73500 34.99900
H  48.76400 15.57600 35.86700
N  49.15400 16.04200 27.58200
C  49.87300 16.88500 28.36900
C  51.10200 17.35600 27.64200
C  50.99900 16.72300 26.35700
C  49.71200 15.96400 26.34400
C  52.08500 18.41900 28.08200
C  51.95200 16.66300 25.14500
O  51.78600 16.02100 24.11900
C  53.33300 17.35400 25.28700
N  47.02000 14.47600 26.14300
C  47.86000 14.66000 25.11900
C  47.28800 14.02400 23.77400
C  46.07700 13.22600 24.28400
C  46.01300 13.59300 25.72400
C  46.83900 14.95700 22.65600
C  45.99700 11.69000 23.99500
C  47.02700 10.75500 24.63100
N  45.60400 14.16700 28.63100
C  44.71600 13.36800 27.88800
C  43.52000 13.13100 28.65300
C  43.79000 13.63100 29.89200
C  45.02000 14.24200 29.84300
C  42.32600 12.42700 28.23800
C  43.27200 13.79000 31.28200
O  42.24700 13.32300 31.72900
C  44.37100 14.60400 32.10800
C  43.71800 15.81100 32.83200
O  42.92300 16.59100 32.35400
O  44.23900 15.95500 34.09200
C  43.94800 17.18100 34.87300
H  50.26200 17.88200 30.11400
H  49.69300 15.23100 24.29500
H  44.20400 12.55600 25.94100
H  46.30000 16.81400 33.00500
H  49.13700 17.45500 32.58900
H  48.57300 19.52500 32.03700
H  46.90900 19.10300 32.44600
H  47.42500 18.99000 30.78000
H  48.74100 15.05300 33.26500
H  47.16000 14.32800 33.46300
H  46.85700 14.98900 35.36800
H  47.04400 16.69400 35.00700
H  51.96800 19.26500 27.40400
H  53.13900 18.15300 28.00000
H  51.85200 18.81500 29.07000
H  53.20400 18.43500 25.33700
H  53.94400 17.18600 24.39900
H  53.89900 17.08600 26.17900
H  47.91100 13.17500 23.49200
H  45.14900 13.70300 23.97000
H  46.72700 14.36300 21.74900
H  47.51500 15.78200 22.43300
H  45.87400 15.42300 22.85400
H  46.14800 11.60000 22.91900
H  45.07700 11.20100 24.31500
H  46.57900 9.79300 24.88100
H  47.36800 11.11000 25.60300
H  47.82900 10.50300 23.93800
H  42.02100 11.75800 29.04300
H  42.54200 11.89200 27.31400
H  41.45500 13.06200 28.07900
H  44.77500 13.92500 32.85900
H  42.88500 17.18000 35.11400
H  44.36000 18.02500 34.32100
H  44.51800 17.34600 35.78700
Mg 47.43200 45.09700 42.93800
C  44.01600 44.61600 42.52500
C  47.99700 41.83900 42.23000
C  50.70600 45.82000 42.77600
C  46.79400 48.62700 43.33800
N  46.12500 43.41900 42.46300
C  44.76300 43.40600 42.42800
C  44.16900 42.06800 42.23100
C  45.44000 41.19200 42.32700
C  46.61600 42.15400 42.26300
C  45.50700 40.29400 43.51000
C  43.32900 41.79100 41.00200
C  43.67800 42.49200 39.66900
H  43.54200 41.71000 38.39400
N  49.13100 44.02100 42.64100
C  49.11400 42.62700 42.33500
C  50.48800 42.16400 42.33300
C  51.35700 43.29800 42.45700
C  50.47100 44.48100 42.68900
C  50.79700 40.71600 42.48000
C  52.87100 43.28600 42.35700
O  53.53600 42.25700 42.07600
C  53.65400 44.55700 42.53600
N  48.54300 46.94700 43.05400
C  49.91000 46.96400 43.00900
C  50.55800 48.43300 43.00100
C  49.32700 49.28300 43.36100
C  48.12400 48.24200 43.26200
C  51.77800 48.64200 44.02900
C  49.02000 50.46200 42.43700
C  48.33900 51.70300 43.17400
N  45.82500 46.38500 42.90000
C  45.72900 47.74600 43.11300
C  44.34400 48.13600 43.04600
C  43.63500 46.90700 42.89400
C  44.57100 45.92600 42.76900
C  43.60100 49.45900 43.21800
C  42.33000 46.40300 42.77800
O  41.25600 46.99100 42.76900
C  42.49100 44.90400 42.53300
C  41.75000 44.29300 43.67500
O  40.71800 43.55200 43.50100
O  42.25700 44.64400 44.89500
C  41.64100 43.96000 46.06900
H  48.11000 40.75500 42.16300
H  51.77900 45.97300 42.63900
H  46.67400 49.68300 43.58700
H  43.54300 41.93400 43.11300
H  45.46500 40.49100 41.49300
H  45.53600 39.22000 43.32500
H  44.64400 40.45600 44.15500
H  46.39500 40.49400 44.11000
H  42.29500 42.06400 41.21400
H  43.20900 40.72000 40.84400
H  44.71500 42.82200 39.72200
H  43.11000 43.41600 39.55500
H  51.86500 40.55800 42.63400
H  50.64400 40.19200 41.53700
H  50.17700 40.26000 43.25100
H  53.72500 45.13200 41.61200
H  54.65400 44.24100 42.83200
H  53.27900 45.13400 43.38100
H  50.98300 48.66800 42.02600
H  49.37200 49.71900 44.35900
H  51.83000 47.97200 44.88700
H  51.80200 49.66000 44.41700
H  52.77700 48.55100 43.60300
H  48.44000 50.14400 41.57100
H  49.96100 50.91100 42.11700
H  48.63400 52.68200 42.79600
H  48.65800 51.77300 44.21400
H  47.25300 51.65500 43.09300
H  42.79200 49.55000 42.49400
H  44.29200 50.23500 42.88800
H  43.44500 49.59300 44.28900
H  41.98200 44.63600 41.60800
H  41.58200 42.88700 45.88600
H  40.64500 44.26400 46.38900
H  42.24700 44.07600 46.96800

