158

Mg 43.07200 42.82700 26.67900
C  41.78100 45.19100 28.87900
C  44.27600 40.94000 29.26600
C  44.29800 40.75800 24.43700
C  42.16900 45.01900 23.95600
N  43.00200 43.04600 28.81400
C  42.36900 44.05700 29.53700
C  42.42300 43.69900 31.03600
C  43.52300 42.62500 31.14700
C  43.54500 42.08400 29.68200
C  44.84700 43.01100 31.80800
C  41.03300 43.08600 31.45100
C  40.40100 43.43300 32.77200
H  41.25300 43.83700 33.93300
N  44.07000 41.06300 26.80200
C  44.43500 40.44800 27.92400
C  45.02500 39.20700 27.63900
C  44.98200 39.07200 26.19700
C  44.42900 40.34900 25.75500
C  45.67300 38.30500 28.66800
C  45.34900 37.90700 25.36400
O  45.24600 37.87200 24.15800
C  45.82200 36.73800 25.99800
N  43.46400 43.00100 24.52300
C  43.87300 41.92700 23.86800
C  43.88000 42.02000 22.40700
C  42.98800 43.33100 22.25600
C  42.84100 43.83300 23.68400
C  45.28800 42.13100 21.72800
C  41.66400 43.08500 21.34900
C  40.26400 43.00200 22.00200
N  42.28100 44.77300 26.40800
C  42.04300 45.56000 25.24200
C  41.33500 46.75900 25.64700
C  41.26900 46.64500 27.07400
C  41.85900 45.44800 27.48400
C  40.71900 47.84900 24.70900
C  40.76200 47.31300 28.23700
O  40.06400 48.34500 28.34900
C  40.97200 46.32600 29.59000
C  41.85400 47.08300 30.41500
O  42.97100 47.36500 30.13400
O  41.21500 47.25500 31.63300
C  41.99800 47.94200 32.65100
H  44.66200 40.26700 30.03400
H  44.57000 39.91600 23.79800
H  41.78400 45.68500 23.18200
H  42.72800 44.54200 31.65500
H  43.15000 41.88200 31.85200
H  45.12100 42.31700 32.60300
H  44.79600 44.00500 32.25300
H  45.59600 43.08600 31.02000
H  41.02200 41.99600 31.40800
H  40.22100 43.32800 30.76500
H  39.87700 42.51000 33.02200
H  39.63700 44.19900 32.64200
H  45.83400 38.72400 29.66200
H  46.68800 38.13700 28.30800
H  45.20800 37.31900 28.68700
H  46.71900 37.10300 26.49900
H  46.07600 35.99500 25.24200
H  45.01800 36.34400 26.62000
H  43.32100 41.11800 22.15500
H  43.63600 44.08200 21.80400
H  45.49800 43.06100 21.20000
H  45.26300 41.31700 21.00300
H  46.13400 42.06900 22.41300
H  41.70100 42.17100 20.75600
H  41.78600 43.84700 20.57900
H  39.69700 43.87400 21.67500
H  40.29000 42.86800 23.08300
H  39.86400 42.03000 21.71300
H  40.29300 47.29300 23.87400
H  41.49900 48.47200 24.27000
H  39.99500 48.46400 25.24400
H  40.03900 46.00100 30.05200
H  42.74200 48.70000 32.40400
H  42.48400 47.24000 33.32800
H  41.17000 48.45600 33.14000
Mg 10.33100 47.45500 25.65800
C  8.30700 47.65000 28.58100
C  12.79600 48.96700 27.61500
C  12.23400 47.61200 23.00300
C  7.51500 46.68200 23.86000
N  10.46600 48.20900 27.88500
C  9.58900 48.05500 28.92900
C  10.13600 48.59200 30.25100
C  11.44000 49.32400 29.75000
C  11.60900 48.82000 28.33500
C  11.47100 50.88000 29.90300
C  10.40900 47.47800 31.32200
C  9.60700 47.57700 32.61300
H  9.81100 46.39100 33.58100
N  12.23000 48.14700 25.29800
C  13.10400 48.68700 26.24900
C  14.44600 48.79700 25.68400
C  14.30100 48.39800 24.32500
C  12.87100 48.13500 24.12000
C  15.62800 49.28900 26.53100
C  15.34500 48.17900 23.23300
O  15.00300 47.74600 22.11100
C  16.77900 48.59000 23.57300
N  9.89000 47.19000 23.61200
C  10.89600 47.20200 22.75100
C  10.42500 46.56700 21.40300
C  9.01100 46.13800 21.73900
C  8.74600 46.64900 23.13900
C  10.59300 47.62000 20.22700
C  8.79700 44.67500 21.49700
C  9.40800 43.70200 22.47500
N  8.31700 47.16200 26.07700
C  7.26200 46.92000 25.26700
C  6.02100 46.73300 25.99100
C  6.38600 46.86500 27.26400
C  7.75500 47.28000 27.26200
C  4.60300 46.52300 25.38800
C  5.95200 46.84100 28.63900
O  4.88300 46.54900 29.11000
C  7.12900 47.30400 29.54100
C  7.39400 46.09700 30.39000
O  8.25700 45.32900 30.22800
O  6.50200 46.22100 31.46000
C  6.48000 45.20100 32.41000
H  13.57300 49.43300 28.22500
H  12.74000 47.42600 22.05400
H  6.59600 46.29900 23.41000
H  9.50500 49.38100 30.66000
H  12.32000 48.97300 30.28900
H  10.64600 51.26700 30.50200
H  11.41200 51.34800 28.92000
H  12.38900 51.27100 30.34300
H  11.48500 47.54000 31.48500
H  10.22600 46.49100 30.89800
H  8.57600 47.83600 32.37300
H  9.95400 48.46200 33.14700
H  16.13100 50.08800 25.98600
H  16.37800 48.58900 26.89800
H  15.38400 49.77000 27.47800
H  17.01600 48.13100 24.53300
H  16.83100 49.66500 23.74700
H  17.35700 48.15900 22.75500
H  11.17000 45.78500 21.25300
H  8.44200 46.68300 20.98600
H  9.67000 47.76800 19.66700
H  11.17400 47.21800 19.39700
H  11.10200 48.52800 20.55000
H  9.07600 44.41300 20.47600
H  7.74200 44.42000 21.59900
H  9.88800 44.17300 23.33300
H  10.04500 43.09400 21.83300
H  8.57900 43.07400 22.80100
H  4.49600 47.08200 24.45800
H  3.95000 46.93400 26.15700
H  4.43900 45.44800 25.31000
H  6.95000 48.15500 30.19700
H  5.61200 44.54300 32.40800
H  6.66000 45.43400 33.45900
H  7.24000 44.44200 32.22100

