158

Mg 9.33700 3.82000 27.23500
C  10.29200 2.19200 30.31500
C  7.63000 6.07400 29.19600
C  7.88000 4.99000 24.47400
C  10.55200 1.05600 25.43800
N  9.02600 4.03600 29.57000
C  9.56800 3.28100 30.60800
C  9.07600 3.85100 31.94700
C  8.01900 4.90400 31.47800
C  8.23300 5.02900 30.02300
C  6.51900 4.51800 31.82100
C  10.31100 4.41100 32.71700
C  10.71500 3.70200 34.02700
H  11.09700 4.48500 35.34100
N  8.06100 5.43000 26.81600
C  7.59000 6.30100 27.76100
C  6.85600 7.33200 27.07600
C  6.76500 6.99700 25.67700
C  7.59100 5.75700 25.61400
C  6.19700 8.49200 27.76000
C  5.99700 7.62000 24.51600
O  5.91800 7.08100 23.41500
C  5.50000 9.07600 24.66200
N  9.15400 3.05900 25.35100
C  8.52000 3.75000 24.33000
C  8.56500 3.02800 22.98500
C  9.84700 2.01300 23.24800
C  9.85300 2.04600 24.77800
C  7.22100 2.37100 22.59000
C  11.22300 2.46300 22.58800
C  11.22900 2.32800 21.01200
N  10.30600 1.99000 27.76400
C  10.79100 1.07200 26.90700
C  11.36600 -0.05700 27.69300
C  11.21200 0.36500 29.02800
C  10.59800 1.65300 29.05400
C  11.85200 -1.40900 27.26100
C  11.38400 -0.04400 30.45100
O  11.83200 -1.09800 30.88600
C  10.91200 1.14600 31.32900
C  10.09800 0.51400 32.39100
O  8.88400 0.17100 32.26900
O  10.88800 0.33000 33.54600
C  10.18000 -0.30300 34.63200
H  7.08200 6.82700 29.76600
H  7.37800 5.28200 23.54900
H  10.73700 0.17000 24.82800
H  8.68600 3.03500 32.55700
H  8.17700 5.89400 31.90300
H  5.99100 4.32000 30.88700
H  6.12000 5.37300 32.36600
H  6.32700 3.57700 32.33700
H  10.28300 5.46000 33.01100
H  11.15600 4.32300 32.03500
H  11.64500 3.23300 33.70400
H  10.03200 2.92800 34.37700
H  6.18400 8.50600 28.85000
H  5.15900 8.40300 27.43700
H  6.54300 9.46900 27.42300
H  4.48900 9.07200 25.06900
H  5.38700 9.61200 23.72000
H  6.11700 9.59800 25.39400
H  8.82800 3.70500 22.17200
H  9.45800 1.04500 22.93400
H  7.40500 1.31100 22.42000
H  6.92400 2.88700 21.67700
H  6.50000 2.46500 23.40200
H  12.00900 1.77800 22.90500
H  11.41900 3.48700 22.90500
H  11.36000 3.31500 20.56800
H  10.30300 1.76900 20.87300
H  12.08600 1.73400 20.69600
H  12.93100 -1.49200 27.39100
H  11.69700 -1.52700 26.18800
H  11.28700 -2.17900 27.78500
H  11.73000 1.48800 31.96200
H  9.55400 -1.06300 34.16400
H  9.52500 0.36700 35.18900
H  10.88400 -0.84800 35.26000
Mg 46.61400 24.43900 28.78300
C  47.27200 26.75600 31.37400
C  45.57300 22.17300 31.08300
C  46.57600 22.04400 26.27100
C  47.95600 26.73000 26.49700
N  46.36700 24.50400 30.99600
C  46.76200 25.48300 31.84300
C  46.25000 25.16100 33.26200
C  45.69300 23.72900 33.13700
C  45.97700 23.39900 31.68800
C  46.33600 22.68400 34.08800
C  45.30800 26.22000 33.86100
C  44.46400 25.81900 35.05900
H  44.46400 26.56500 36.40500
N  46.09100 22.35900 28.72400
C  45.69900 21.59800 29.78400
C  45.43400 20.27800 29.27500
C  45.77900 20.18300 27.86900
C  46.17000 21.55500 27.55600
C  44.82000 19.13600 30.24900
C  45.81200 19.03300 26.90700
O  46.09200 19.08600 25.74700
C  45.36400 17.71000 27.34700
N  47.09800 24.35100 26.69400
C  46.86800 23.32900 25.85000
C  47.30500 23.70800 24.40100
C  47.78400 25.16200 24.56800
C  47.68200 25.42400 26.06500
C  48.42200 22.74900 23.80600
C  46.92800 26.21000 23.65200
C  45.43000 26.38200 23.96500
N  47.39600 26.38600 28.80500
C  47.88900 27.18000 27.82400
C  48.28000 28.42700 28.39600
C  48.17500 28.27600 29.79100
C  47.51500 27.02800 29.96500
C  48.96600 29.48300 27.50500
C  48.30700 28.95800 31.06200
O  48.72300 30.08800 31.37600
C  47.71800 27.96800 32.14800
C  48.54700 27.70600 33.28300
O  49.45400 26.90700 33.28000
O  48.37300 28.65700 34.17800
C  49.25900 28.72100 35.37900
H  45.26000 21.40900 31.79800
H  46.53500 21.33500 25.44100
H  48.31600 27.41400 25.72600
H  47.21200 25.13900 33.77500
H  44.61800 23.69400 33.31700
H  45.58800 21.91700 34.28700
H  46.63600 23.20500 34.99700
H  47.28200 22.24900 33.76400
H  44.66500 26.73900 33.15000
H  46.00000 26.93700 34.30100
H  44.70400 24.76800 35.22400
H  43.43700 25.84600 34.69500
H  44.74300 19.47700 31.28100
H  45.45900 18.25400 30.29300
H  43.82200 18.91000 29.87200
H  44.30400 17.70300 27.59900
H  46.08000 17.39200 28.10500
H  45.32700 17.10100 26.44400
H  46.43600 23.51700 23.77200
H  48.81900 25.29900 24.25500
H  48.79700 22.07600 24.57700
H  49.16200 23.45100 23.42000
H  48.05900 22.16800 22.95800
H  47.14100 26.09300 22.58900
H  47.37400 27.18900 23.82500
H  45.10800 27.37300 24.28400
H  45.22900 25.71300 24.80100
H  44.88800 26.07300 23.07100
H  48.56200 29.54100 26.49400
H  50.01500 29.20100 27.41700
H  48.93600 30.40300 28.08800
H  46.78800 28.44900 32.45200
H  48.86400 27.95900 36.05100
H  49.26700 29.63000 35.98100
H  50.29700 28.41800 35.23500

