158

Mg 43.89700 5.43800 47.25800
C  41.87300 8.26000 46.69500
C  41.20300 3.42400 46.47800
C  46.05300 2.79200 47.12500
C  46.66000 7.50000 46.86500
N  41.71900 5.80400 46.57100
C  41.12700 7.03300 46.68300
C  39.68700 6.87700 46.47800
C  39.41400 5.34800 46.47700
C  40.86000 4.77400 46.55500
C  38.48300 4.75400 47.60100
C  39.04700 7.63900 45.31200
C  39.82800 7.70500 44.00700
H  39.24800 7.00500 42.74000
N  43.59000 3.36900 47.08100
C  42.46000 2.71900 46.71900
C  42.68800 1.33600 46.52100
C  44.01900 1.12400 46.92700
C  44.64700 2.45200 47.06100
C  41.68600 0.34900 46.11700
C  44.69200 -0.26300 47.09100
O  44.07400 -1.26200 46.96600
C  46.21300 -0.44600 47.41900
N  46.03400 5.21700 47.06500
C  46.66500 4.00800 47.14900
C  48.19400 4.11300 47.44000
C  48.37400 5.61900 47.04500
C  46.92200 6.16300 46.96300
C  48.61700 3.58000 48.86200
C  49.21300 5.89200 45.77900
C  48.98500 4.96100 44.54400
N  44.25500 7.42600 47.04300
C  45.40800 8.12700 46.81300
C  45.15400 9.57200 46.72200
C  43.74000 9.63700 46.78600
C  43.29000 8.32400 46.87900
C  46.16100 10.74100 46.66900
C  42.64200 10.58600 46.78500
O  42.63700 11.78700 46.62400
C  41.39900 9.65400 46.75600
C  40.62000 9.91900 47.92000
O  40.41200 9.25500 48.88400
O  40.07700 11.15500 47.70300
C  38.94600 11.41000 48.66100
H  40.36800 2.80800 46.13700
H  46.71300 1.92500 47.20400
H  47.56900 8.10500 46.83500
H  39.22100 7.27600 47.38000
H  38.96300 5.01300 45.54300
H  37.85200 3.95700 47.20800
H  37.96400 5.62700 47.99800
H  39.06100 4.34400 48.43000
H  38.91200 8.69600 45.53900
H  38.03800 7.23500 45.23300
H  40.86500 7.41400 44.17400
H  39.92000 8.77000 43.79300
H  42.10300 -0.27100 45.32400
H  40.72300 0.76100 45.81500
H  41.51900 -0.36800 46.92100
H  46.87600 -0.02900 46.66100
H  46.49400 -1.49900 47.40500
H  46.37800 0.00800 48.39600
H  48.77000 3.46100 46.78400
H  48.80100 6.16500 47.88600
H  47.84000 3.03100 49.39400
H  48.88200 4.49300 49.39500
H  49.54200 3.01600 48.75000
H  50.24200 5.83500 46.13300
H  49.04500 6.90800 45.42200
H  48.66900 5.51500 43.66000
H  48.20400 4.22300 44.72900
H  49.92900 4.44100 44.38300
H  46.63400 11.10100 47.58200
H  45.55300 11.56600 46.29900
H  46.90900 10.44700 45.93300
H  40.80600 9.91500 45.87900
H  38.29000 10.54000 48.66700
H  38.32700 12.18500 48.20900
H  39.16600 11.82700 49.64400
Mg 54.35600 24.54700 44.66500
C  51.84000 26.91700 43.99400
C  52.13600 22.05100 43.49400
C  56.87600 22.41700 44.53700
C  56.59800 27.18300 45.18100
N  52.27400 24.57800 43.78900
C  51.50900 25.62000 43.62600
C  50.17600 25.15000 42.92800
C  50.11100 23.60000 43.22100
C  51.58000 23.37400 43.56700
C  49.12400 22.97600 44.18400
C  50.28400 25.45100 41.42100
C  48.86500 25.41200 40.73500
H  48.77000 24.38800 39.63700
N  54.48300 22.47600 44.06900
C  53.48000 21.62400 43.71700
C  54.01400 20.27000 43.59900
C  55.35000 20.36700 44.06200
C  55.64200 21.79300 44.22900
C  53.24700 19.10300 43.09100
C  56.28300 19.12900 44.17600
O  55.75800 18.01100 44.01000
C  57.84000 19.15200 44.43000
N  56.44300 24.80300 44.74000
C  57.28300 23.75700 44.77700
C  58.73700 24.08500 45.12200
C  58.63600 25.61900 45.18600
C  57.11800 25.94400 45.01900
C  59.19800 23.37200 46.38800
C  59.58800 26.32200 44.17200
C  60.14400 27.63700 44.75700
N  54.27400 26.62800 44.79100
C  55.22300 27.53800 45.07200
C  54.55400 28.80300 45.34800
C  53.24900 28.60000 44.82300
C  53.09100 27.21500 44.59500
C  55.18300 30.02600 45.81000
C  52.06300 29.27900 44.54000
O  51.73500 30.48900 44.69900
C  51.09000 28.16500 44.00000
C  50.76800 28.60100 42.64100
O  51.51300 28.70400 41.65900
O  49.50700 28.81000 42.51200
C  48.97700 29.39600 41.30400
H  51.40800 21.29700 43.18800
H  57.61800 21.62600 44.41600
H  57.13200 28.09300 45.46200
H  49.30200 25.57900 43.41800
H  50.02700 22.98000 42.32800
H  49.00500 21.92400 43.92700
H  48.16700 23.39000 43.86800
H  49.42700 23.24300 45.19600
H  51.03200 24.79400 40.97800
H  50.74700 26.41700 41.22200
H  48.68600 26.43800 40.41200
H  48.09400 25.19300 41.47400
H  52.19800 19.25900 42.83900
H  53.22700 18.28200 43.80700
H  53.68000 18.68400 42.18300
H  58.40800 19.64900 43.64300
H  58.20900 18.12900 44.50200
H  58.06600 19.52900 45.42700
H  59.32000 23.73800 44.26800
H  59.00400 25.99400 46.14200
H  59.11400 23.99800 47.27600
H  60.21500 22.98200 46.34700
H  58.58200 22.48500 46.53900
H  58.97100 26.43200 43.28000
H  60.47900 25.71700 44.00800
H  59.83000 28.55200 44.25400
H  61.23300 27.64600 44.70700
H  59.84900 27.74400 45.80100
H  54.91100 30.84500 45.14400
H  56.25700 29.85400 45.88200
H  54.72800 30.18300 46.78700
H  50.21800 28.10100 44.65100
H  48.71700 28.61500 40.59000
H  49.61300 30.19100 40.91500
H  48.05900 29.94200 41.52000

