158

Mg 1.94500 -1.85400 44.35900
C  5.37100 -1.26800 44.35000
C  1.46600 1.23800 42.89600
C  -1.23100 -2.81800 43.76100
C  2.67300 -5.06300 45.40800
N  3.29600 -0.22300 43.57000
C  4.65000 -0.25100 43.69300
C  5.17200 1.11900 43.20400
C  3.90900 2.04500 43.05700
C  2.78300 0.98000 43.28600
C  3.78500 3.14700 44.11200
C  5.89400 1.09100 41.86600
C  5.52300 0.11900 40.75500
H  5.46300 0.62700 39.32600
N  0.31800 -0.85200 43.47400
C  0.32500 0.36800 42.90100
C  -1.01300 0.64200 42.49000
C  -1.90000 -0.38300 42.93800
C  -0.92400 -1.42800 43.39500
C  -1.46700 1.96400 41.84800
C  -3.49300 -0.48500 42.77200
O  -4.14100 0.50800 42.37500
C  -4.22600 -1.61900 43.31000
N  0.85400 -3.68400 44.61000
C  -0.49200 -3.81200 44.39300
C  -1.00300 -5.16100 44.80400
C  0.27100 -5.87200 45.20300
C  1.36200 -4.84100 45.06500
C  -2.21700 -5.06200 45.77800
C  0.58600 -7.05700 44.32500
C  -0.54800 -8.06700 44.07900
N  3.62500 -2.98800 44.88000
C  3.78100 -4.24200 45.34200
C  5.17200 -4.51800 45.75100
C  5.85800 -3.37700 45.30400
C  4.87500 -2.51800 44.78600
C  5.61600 -5.92200 46.33500
C  7.16300 -2.75300 45.10800
O  8.31000 -3.15400 45.36100
C  6.87700 -1.36300 44.47600
C  7.42300 -0.28700 45.35000
O  7.03200 0.14400 46.41900
O  8.38700 0.27900 44.53600
C  8.98600 1.51000 45.13800
H  1.24800 2.20000 42.42700
H  -2.21500 -3.24800 43.56500
H  2.89500 -6.08100 45.73500
H  5.80200 1.42400 44.03900
H  3.72900 2.47600 42.07200
H  4.61700 3.05100 44.80900
H  2.83800 3.14100 44.65200
H  3.79100 4.14400 43.67100
H  6.90300 0.88300 42.22000
H  5.87100 2.05700 41.36100
H  4.58700 -0.39100 40.98500
H  6.35100 -0.59000 40.75000
H  -0.54200 2.19500 41.32000
H  -1.58000 2.73100 42.61400
H  -2.38800 1.86600 41.27400
H  -5.28600 -1.37300 43.37200
H  -4.04200 -1.77000 44.37300
H  -4.06200 -2.48400 42.66800
H  -1.51000 -5.59200 43.94000
H  0.21500 -6.30600 46.20100
H  -2.35500 -4.01900 46.06300
H  -1.92300 -5.65800 46.64200
H  -3.09600 -5.38200 45.21900
H  1.44300 -7.53000 44.80400
H  0.92800 -6.73000 43.34400
H  -1.37900 -7.82400 44.74100
H  -0.14500 -9.04600 44.33800
H  -0.97400 -8.10000 43.07600
H  4.85700 -6.34300 46.99500
H  6.59900 -5.80500 46.79000
H  5.66900 -6.64600 45.52100
H  7.15900 -1.28400 43.42600
H  8.25500 2.31600 45.20900
H  9.82000 1.80200 44.50000
H  9.29500 1.30000 46.16200
Mg 26.69500 50.86400 25.92200
C  24.65000 51.94200 28.66200
C  28.92100 49.60200 28.19600
C  28.74700 50.14300 23.43300
C  24.65100 52.67200 23.77600
N  26.67800 50.75200 28.20300
C  25.80500 51.24600 29.11500
C  26.22700 50.91500 30.51300
C  27.66100 50.27800 30.28300
C  27.83200 50.27800 28.78400
C  28.76600 51.10400 31.03100
C  25.23100 50.05300 31.25100
C  24.53900 50.83700 32.48400
H  24.55100 50.12200 33.85200
N  28.54800 49.93700 25.82200
C  29.22300 49.40300 26.85500
C  30.36100 48.64000 26.37200
C  30.39700 48.89300 24.99800
C  29.21900 49.69000 24.65400
C  31.22900 47.77700 27.24700
C  31.32500 48.31200 24.01300
O  31.21100 48.56400 22.85900
C  32.41400 47.35100 24.42400
N  26.70800 51.33400 23.88800
C  27.63200 50.91000 23.05200
C  27.25000 51.20400 21.62100
C  25.78500 51.84700 21.74500
C  25.71500 51.94300 23.20600
C  28.24600 52.14200 20.81400
C  24.58800 51.07800 21.12600
C  23.99300 51.60600 19.84500
N  24.88900 51.95000 26.08400
C  24.25400 52.69900 25.16300
C  23.14100 53.46100 25.79000
C  23.23500 53.13200 27.19200
C  24.24600 52.10500 27.25600
C  22.16700 54.41200 25.05300
C  22.65500 53.43900 28.48800
O  21.70900 54.10800 28.79600
C  23.56900 52.65600 29.48900
C  24.06600 53.70800 30.47300
O  25.07800 54.29800 30.29800
O  23.30300 53.79300 31.60400
C  23.85400 54.62900 32.75000
H  29.54700 49.09600 28.93300
H  29.44500 49.95700 22.61500
H  24.00400 53.23300 23.09900
H  26.32700 51.84700 31.07000
H  27.72200 49.31300 30.78500
H  28.36600 52.07400 31.32600
H  29.61300 51.34500 30.38900
H  29.18300 50.53000 31.85900
H  25.59000 49.05700 31.51000
H  24.42400 49.87500 30.54100
H  23.50000 50.98400 32.19000
H  24.97600 51.81800 32.66900
H  31.32800 46.76500 26.85500
H  30.92000 47.57400 28.27300
H  32.24000 48.18600 27.23400
H  32.92000 47.76900 25.29500
H  33.11300 47.06700 23.63800
H  32.07800 46.36800 24.75200
H  27.13300 50.26200 21.08500
H  25.87300 52.84400 21.31300
H  29.17200 52.16200 21.38800
H  27.89100 53.17100 20.76900
H  28.40300 51.67400 19.84200
H  23.78700 51.03000 21.86400
H  24.77700 50.01500 20.98300
H  22.96700 51.90100 20.06300
H  24.08500 50.94500 18.98300
H  24.46600 52.47900 19.39500
H  22.67500 54.76900 24.15700
H  21.82600 55.14000 25.78900
H  21.31300 53.86800 24.65000
H  23.01000 52.00100 30.15800
H  22.97100 54.68300 33.38700
H  24.07600 55.64500 32.42500
H  24.62500 54.06500 33.27600

