158

Mg 42.67600 42.29100 25.88900
C  41.54200 44.46800 28.45200
C  43.87100 40.15500 28.18300
C  44.15300 40.69200 23.32300
C  41.66800 44.81400 23.54900
N  42.91900 42.44500 28.16100
C  42.21400 43.29800 28.99900
C  42.30900 42.83700 30.46300
C  43.15800 41.52800 30.33200
C  43.30000 41.34300 28.78900
C  44.49400 41.58700 31.09200
C  41.05800 42.67600 31.21600
C  41.28700 42.06600 32.62100
H  40.92500 43.00600 33.88200
N  43.71500 40.55600 25.73000
C  44.11700 39.77700 26.77200
C  44.62600 38.58300 26.32900
C  44.97900 38.80000 24.92900
C  44.33100 40.08300 24.59100
C  45.04100 37.45000 27.21500
C  45.66400 37.87200 23.87400
O  46.11800 38.32700 22.81400
C  46.00500 36.38400 24.28400
N  42.97700 42.75800 23.78900
C  43.56600 41.87100 22.96700
C  43.47300 42.28700 21.50600
C  42.25000 43.32300 21.60900
C  42.33300 43.69900 23.04700
C  44.73300 42.91300 20.88800
C  40.85100 42.85400 21.07100
C  40.13800 41.82100 21.99700
N  41.93000 44.25900 25.95000
C  41.45400 45.10800 24.95100
C  40.85900 46.25500 25.52000
C  40.80600 46.01300 26.87500
C  41.48300 44.78600 27.09500
C  40.39300 47.44800 24.68900
C  40.40000 46.53900 28.18100
O  39.86800 47.57900 28.59300
C  40.73800 45.44700 29.22600
C  41.61400 46.11700 30.33600
O  42.77700 46.24100 30.28500
O  40.88600 46.40000 31.39600
C  41.58500 46.83200 32.59500
H  44.19700 39.37300 28.87200
H  44.56100 40.24200 22.41600
H  41.16700 45.49600 22.85800
H  43.03900 43.52600 30.88800
H  42.54300 40.72200 30.73300
H  44.62500 42.49800 31.67600
H  45.35000 41.58900 30.41700
H  44.63300 40.77100 31.80100
H  40.35100 42.17600 30.55400
H  40.89900 43.73400 31.42300
H  42.26900 41.62600 32.79500
H  40.60700 41.21500 32.60400
H  46.11900 37.31800 27.11600
H  44.61000 36.57400 26.73100
H  44.60800 37.52700 28.21200
H  46.40500 35.73900 23.50100
H  45.11400 35.91400 24.70000
H  46.62800 36.50300 25.17000
H  43.07300 41.49700 20.87000
H  42.45600 44.24900 21.07300
H  44.41200 43.80300 20.34600
H  45.30300 42.27500 20.21300
H  45.35400 43.08400 21.76800
H  41.08400 42.51600 20.06100
H  40.26000 43.77000 21.06500
H  39.41100 42.41600 22.55000
H  40.83800 41.30300 22.65200
H  39.68500 40.97500 21.47900
H  39.86300 48.12900 25.35500
H  39.61800 47.18300 23.97000
H  41.21500 47.83700 24.08900
H  39.74500 45.15100 29.56400
H  41.49200 46.02200 33.31800
H  41.01400 47.70800 32.90100
H  42.62000 47.12300 32.41600
Mg 26.84100 50.22100 27.02000
C  24.87300 51.29800 29.63700
C  29.20500 49.07000 29.12100
C  28.74000 49.37300 24.24800
C  24.38300 51.51000 24.77600
N  26.97500 50.21800 29.12600
C  25.97200 50.56800 30.07500
C  26.28700 50.07400 31.50200
C  27.79600 49.57400 31.31100
C  28.01700 49.62300 29.75900
C  28.84000 50.42100 32.04500
C  25.22000 49.06900 32.09300
C  24.64300 49.36200 33.52600
H  25.59800 49.96800 34.64100
N  28.75700 49.51400 26.73400
C  29.60800 49.04800 27.70600
C  30.80200 48.45600 27.13800
C  30.75400 48.80100 25.74900
C  29.38100 49.25500 25.50900
C  31.87700 47.74900 27.96200
C  31.81000 48.62300 24.63900
O  31.56100 48.87600 23.45800
C  33.20800 48.17700 24.95100
N  26.58600 50.39200 24.85200
C  27.43000 49.87100 23.99600
C  26.78800 49.82600 22.54600
C  25.54900 50.73700 22.67900
C  25.46100 50.82700 24.18500
C  27.77300 50.36700 21.45600
C  24.28400 50.31300 21.94800
C  23.52200 49.12500 22.53600
N  25.03900 51.22300 27.17500
C  24.17800 51.65700 26.13600
C  23.06000 52.33600 26.76400
C  23.33100 52.26500 28.14200
C  24.51000 51.55200 28.31300
C  21.95900 53.05900 26.12000
C  22.76900 52.57700 29.45200
O  21.74300 53.17400 29.76400
C  23.82900 51.98500 30.55400
C  24.20700 52.93300 31.65000
O  25.08200 53.80900 31.52700
O  23.40600 52.71800 32.76700
C  23.54800 53.84400 33.67200
H  29.95900 48.71200 29.82500
H  29.20900 49.00600 23.33200
H  23.67800 51.91600 24.04800
H  26.34700 50.95200 32.14500
H  28.00300 48.60000 31.75600
H  28.87100 50.21600 33.11500
H  28.61100 51.47300 31.87700
H  29.84600 50.17800 31.70400
H  25.52200 48.02700 31.98800
H  24.33400 49.15200 31.46400
H  24.40200 48.36200 33.88600
H  23.69000 49.87700 33.40900
H  31.49300 47.35700 28.90400
H  32.54900 48.53900 28.29800
H  32.28700 46.87800 27.45200
H  33.26900 47.10900 24.73900
H  33.49500 48.36300 25.98600
H  33.88000 48.56500 24.18500
H  26.60100 48.77300 22.33300
H  25.86800 51.75100 22.44000
H  28.73800 50.61800 21.89500
H  27.49600 51.28300 20.93200
H  28.03300 49.57300 20.75600
H  24.75600 49.96700 21.02800
H  23.61200 51.11100 21.63000
H  23.68800 48.25800 21.89700
H  22.44500 49.29200 22.50000
H  23.86700 48.84600 23.53200
H  20.99800 52.62900 26.40400
H  21.85100 53.06700 25.03500
H  21.96500 54.09400 26.46100
H  23.22500 51.23200 31.06100
H  23.33100 54.68000 33.00800
H  24.54000 54.04300 34.07900
H  22.81800 53.79200 34.48000

