158

Mg 9.03200 3.96800 27.15800
C  10.04900 2.26200 30.07000
C  7.09900 6.05500 28.97500
C  7.95700 5.15000 24.26000
C  10.52900 1.24400 25.31300
N  8.64300 4.04700 29.37300
C  9.22100 3.31700 30.37600
C  8.87000 3.98500 31.79000
C  7.75200 5.02900 31.38700
C  7.83900 5.09600 29.82500
C  6.31600 4.81600 31.80700
C  10.07600 4.63800 32.56400
C  10.37900 4.10600 34.02200
H  10.86700 5.15900 35.12300
N  7.64700 5.42300 26.64800
C  6.98200 6.24000 27.55900
C  6.25800 7.28400 26.82400
C  6.53500 7.04500 25.40200
C  7.40900 5.87300 25.36000
C  5.37800 8.33400 27.49500
C  6.12700 7.87100 24.22100
O  6.53500 7.70900 23.11500
C  5.10100 8.96300 24.42000
N  9.37400 3.36100 25.05400
C  8.69500 3.97900 24.08000
C  9.13900 3.45300 22.75200
C  9.68100 2.04900 23.05700
C  9.89500 2.20600 24.57600
C  8.06800 3.32300 21.64600
C  10.96600 1.72100 22.31200
C  11.09000 0.28600 21.83100
N  10.13800 2.14400 27.51900
C  10.73500 1.21900 26.72400
C  11.48300 0.22000 27.51300
C  11.24400 0.63600 28.83600
C  10.44600 1.81700 28.79000
C  12.32800 -0.94900 27.00200
C  11.60100 0.38300 30.23000
O  12.39800 -0.40900 30.71500
C  10.87500 1.38800 31.02200
C  9.95800 0.63200 31.91200
O  8.89300 0.07200 31.57300
O  10.47000 0.74500 33.15100
C  9.74800 0.46400 34.40200
H  6.49800 6.76400 29.54700
H  7.67700 5.58900 23.30000
H  11.09600 0.49500 24.75600
H  8.34100 3.22100 32.36000
H  7.98800 5.97000 31.88400
H  5.73100 4.39400 30.99000
H  5.94000 5.80200 32.08100
H  6.36300 4.22600 32.72300
H  9.94000 5.71000 32.70700
H  10.98100 4.40300 32.00400
H  11.32300 3.56500 33.95500
H  9.56100 3.55600 34.48900
H  5.13600 7.98700 28.50000
H  4.43100 8.35100 26.95500
H  5.70100 9.37500 27.51900
H  4.29500 8.42700 24.92000
H  4.81500 9.30300 23.42500
H  5.56800 9.80400 24.93400
H  9.88400 4.18700 22.44600
H  8.98100 1.21700 22.98000
H  7.18600 3.25100 22.28300
H  8.08400 2.35600 21.14500
H  7.89100 4.21200 21.04000
H  11.85800 1.90000 22.91200
H  11.03200 2.35000 21.42400
H  11.88800 -0.32000 22.26100
H  11.21700 0.34800 20.75000
H  10.22100 -0.33700 22.04600
H  12.71500 -0.81000 25.99300
H  11.73200 -1.86200 27.00500
H  13.19500 -1.15000 27.63000
H  11.55000 2.04600 31.57000
H  10.23400 -0.08300 35.21000
H  8.84000 -0.09300 34.17300
H  9.33800 1.31600 34.94500
Mg 0.86000 41.66300 26.65100
C  3.09800 42.27100 29.33500
C  -1.21500 40.27400 28.98100
C  -1.06500 40.75600 24.09700
C  3.52000 42.38100 24.44900
N  0.83100 41.51900 28.91500
C  1.80700 41.88300 29.76400
C  1.27000 41.89200 31.16500
C  0.03200 40.96600 31.06500
C  -0.18300 40.96900 29.58700
C  0.34000 39.59200 31.67300
C  1.10900 43.39500 31.60500
C  1.48500 43.71500 33.07700
H  1.36000 42.61300 34.15700
N  -0.93700 40.66600 26.51300
C  -1.56300 40.05000 27.59500
C  -2.73100 39.30700 27.07700
C  -2.74600 39.49600 25.69000
C  -1.56400 40.30800 25.35200
C  -3.58500 38.52600 28.03300
C  -3.65400 38.87100 24.62600
O  -3.46300 38.88500 23.41000
C  -4.74800 37.98900 25.07100
N  1.09300 41.82100 24.62300
C  0.13200 41.48200 23.72500
C  0.56900 41.72000 22.22600
C  1.95900 42.26600 22.41000
C  2.20000 42.26600 23.90000
C  0.26700 40.50700 21.34300
C  2.14800 43.59300 21.70000
C  1.78300 44.99800 22.38300
N  2.87400 42.29400 26.77800
C  3.79700 42.48200 25.82800
C  5.08300 42.71500 26.42600
C  4.82700 42.63500 27.82400
C  3.47400 42.40500 27.98500
C  6.43900 42.87900 25.77600
C  5.50100 42.64600 29.10600
O  6.66100 42.69900 29.49000
C  4.32800 42.56300 30.11000
C  4.60000 41.44400 31.04300
O  4.72200 40.25000 30.77800
O  4.87600 41.89900 32.26200
C  5.29400 40.92800 33.26300
H  -1.76900 39.77300 29.77700
H  -1.74400 40.72800 23.24200
H  4.41500 42.48000 23.83200
H  2.07200 41.41600 31.72700
H  -0.78200 41.48900 31.56700
H  0.96000 39.72400 32.56000
H  0.96200 39.17400 30.88200
H  -0.60000 39.05900 31.81600
H  0.08500 43.64600 31.33000
H  1.59300 44.06600 30.89500
H  0.85600 44.53400 33.42800
H  2.54200 43.94100 33.21400
H  -3.39000 37.46600 27.86900
H  -4.63600 38.74300 27.84100
H  -3.44600 38.80400 29.07800
H  -5.60700 38.56700 25.41200
H  -4.39900 37.23200 25.77400
H  -5.12200 37.41000 24.22600
H  -0.02700 42.51500 21.77800
H  2.64000 41.59200 21.89000
H  -0.28300 40.87800 20.47800
H  -0.40100 39.78800 21.81800
H  1.11200 40.02900 20.84700
H  1.48200 43.55600 20.83800
H  3.07000 43.66200 21.12200
H  1.50300 45.67000 21.57200
H  2.58900 45.48500 22.93100
H  0.86100 44.69300 22.87800
H  6.85900 41.99200 25.30100
H  7.25800 43.38800 26.28300
H  6.24200 43.60900 24.99000
H  4.15200 43.53300 30.57700
H  4.53100 40.15900 33.38300
H  5.51300 41.37400 34.23300
H  6.26800 40.49100 33.04200

