158

Mg 2.47800 0.00100 43.37900
C  5.95000 0.27800 43.18600
C  2.13000 3.17400 42.37500
C  -0.84700 -0.69000 42.84800
C  2.87700 -3.38600 44.26500
N  3.86700 1.52100 42.57700
C  5.26300 1.44800 42.74100
C  5.86200 2.81400 42.61400
C  4.60600 3.70000 42.82400
C  3.44300 2.78600 42.54800
C  4.50400 4.40200 44.29400
C  6.71700 3.20200 41.30200
C  6.69600 2.23800 40.09300
H  6.67000 2.92200 38.77400
N  0.87600 1.09100 42.69600
C  0.91400 2.42200 42.44300
C  -0.43700 2.88600 42.13600
C  -1.34800 1.75600 42.10500
C  -0.44500 0.63400 42.51400
C  -0.71200 4.30600 41.71100
C  -2.88700 1.77700 41.92300
O  -3.39200 2.80300 41.57500
C  -3.77800 0.61400 42.07900
N  1.19900 -1.81300 43.40300
C  -0.14700 -1.80100 43.18600
C  -0.67200 -3.31200 43.21700
C  0.45500 -4.02100 44.06100
C  1.60700 -3.06800 43.91300
C  -2.06400 -3.56800 43.75000
C  0.82300 -5.51600 43.55200
C  1.75500 -5.66100 42.27200
N  4.05100 -1.36300 43.63200
C  4.05900 -2.69800 44.00100
C  5.40300 -3.10100 44.30200
C  6.15900 -1.99200 43.98700
C  5.35200 -0.95100 43.56900
C  5.86200 -4.41500 44.89400
C  7.52100 -1.39900 44.10000
O  8.60500 -1.83900 44.39100
C  7.40300 -0.02200 43.37800
C  8.12400 1.01400 44.22500
O  9.05400 1.68000 43.76200
O  7.45600 1.18200 45.40200
C  7.98500 2.31800 46.16600
H  1.98400 4.25200 42.27100
H  -1.92500 -0.78900 42.70700
H  3.00500 -4.43800 44.52900
H  6.51000 3.07000 43.45300
H  4.64700 4.49400 42.07900
H  5.37700 4.17800 44.90700
H  3.71600 3.87200 44.83100
H  4.34800 5.47800 44.22400
H  7.71000 3.13100 41.74600
H  6.59000 4.24400 41.01000
H  5.80600 1.62600 40.24100
H  7.49900 1.50100 40.08300
H  -1.38900 4.41800 40.86400
H  0.18600 4.86300 41.44500
H  -1.10500 4.91400 42.52600
H  -3.70800 0.15700 43.06600
H  -3.55800 -0.09900 41.28400
H  -4.76200 1.07400 41.99400
H  -0.63400 -3.62200 42.17300
H  0.18100 -4.14900 45.10800
H  -2.04000 -4.03200 44.73600
H  -2.73200 -4.08000 43.05700
H  -2.60200 -2.62100 43.79600
H  -0.10900 -6.02000 43.29700
H  1.30300 -6.02200 44.39000
H  2.77100 -6.02000 42.44000
H  1.85300 -4.76200 41.66400
H  1.39400 -6.38100 41.53800
H  5.03200 -5.05800 45.18700
H  6.44900 -4.23300 45.79400
H  6.35100 -4.99700 44.11300
H  7.94400 -0.11100 42.43500
H  7.88800 2.29300 47.25100
H  7.30600 3.12500 45.88900
H  8.98600 2.73300 46.04600
Mg 40.72300 8.36900 29.49400
C  42.34500 9.74200 32.22800
C  38.59300 6.71300 31.67900
C  39.36900 6.90000 26.77900
C  43.24800 9.56300 27.50500
N  40.50100 8.31500 31.67600
C  41.30000 8.99600 32.62000
C  40.58300 8.99000 34.00400
C  39.49200 7.82700 33.77700
C  39.51900 7.60000 32.27100
C  39.63700 6.49800 34.50400
C  39.93900 10.28100 34.44900
C  39.47400 10.39600 35.96000
H  40.10300 11.59400 36.72800
N  39.29500 6.97000 29.28000
C  38.49200 6.43300 30.28100
C  37.52100 5.55000 29.69900
C  37.53600 5.76100 28.32300
C  38.75000 6.62700 28.05800
C  36.78000 4.53600 30.51200
C  36.66500 5.03900 27.35400
O  37.03900 4.92300 26.22200
C  35.40000 4.40500 27.66100
N  41.18900 8.24400 27.35100
C  40.47300 7.65000 26.44000
C  41.01700 7.87700 24.99100
C  42.30200 8.68700 25.28100
C  42.27900 8.84800 26.81200
C  41.27600 6.51400 24.44600
C  42.36100 10.07400 24.59800
C  41.44900 10.32300 23.38900
N  42.49600 9.44300 29.75600
C  43.46800 9.75500 28.87500
C  44.46500 10.59800 29.55500
C  44.06500 10.69200 30.85300
C  42.89700 9.88200 30.93200
C  45.67500 11.18600 28.89800
C  44.38800 11.21700 32.17600
O  45.32000 11.90900 32.53400
C  43.21200 10.72800 33.10200
C  43.85500 10.10300 34.25000
O  44.86300 9.42700 34.34000
O  43.03100 10.38800 35.37700
C  43.37200 9.62700 36.63000
H  37.86400 6.19900 32.30900
H  38.78700 6.56800 25.91700
H  44.07200 9.89300 26.86700
H  41.23300 8.78500 34.85400
H  38.50900 8.15000 34.12000
H  39.09000 6.61200 35.43900
H  40.67300 6.42700 34.83600
H  39.42100 5.60800 33.91200
H  39.06400 10.56500 33.86500
H  40.75400 11.00400 34.42200
H  39.72300 9.42300 36.38400
H  38.39900 10.50000 35.81700
H  35.74000 4.80700 30.69200
H  37.16100 4.33800 31.51400
H  36.91800 3.60000 29.97200
H  35.61400 3.43600 28.11100
H  34.84700 4.28100 26.73100
H  34.85500 5.05000 28.35000
H  40.23500 8.42000 24.45900
H  43.25500 8.21100 25.05100
H  42.18900 6.49100 23.85200
H  40.48800 6.22200 23.75100
H  41.45700 5.78400 25.23400
H  43.37400 10.41600 24.38500
H  42.01800 10.83100 25.30400
H  41.29000 9.43800 22.77200
H  41.90400 11.04600 22.71200
H  40.50300 10.76400 23.70400
H  45.72600 12.16300 29.37900
H  45.59600 11.27900 27.81500
H  46.48300 10.60100 29.33800
H  42.56800 11.55700 33.39600
H  43.06600 8.58800 36.51000
H  42.80700 10.05000 37.46100
H  44.44700 9.72100 36.78200

