158

Mg 52.85500 24.92100 45.53800
C  50.16100 27.04400 44.48300
C  51.00000 22.29800 44.41700
C  55.70100 23.16700 45.24900
C  54.64300 27.78200 46.19700
N  50.90000 24.74600 44.49600
C  49.90500 25.69400 44.23000
C  48.74700 24.99900 43.48700
C  48.77700 23.59000 44.17700
C  50.33900 23.53400 44.30600
C  47.95300 23.53800 45.47400
C  48.83800 25.15600 41.92700
C  47.61300 25.09600 41.05800
H  47.71300 24.32500 39.77300
N  53.24400 22.90000 45.15700
C  52.36000 22.02200 44.78200
C  52.99200 20.75800 44.86100
C  54.37100 20.90800 45.09300
C  54.48400 22.36200 45.18400
C  52.11200 19.48000 44.61300
C  55.37400 19.76900 45.19000
O  55.14400 18.60700 44.81000
C  56.68200 19.93800 45.89400
N  54.85200 25.39500 45.59800
C  55.85300 24.48600 45.48800
C  57.28100 25.08700 45.70100
C  56.93100 26.53800 46.10500
C  55.37800 26.60100 45.98100
C  58.07500 24.32800 46.72200
C  57.68700 27.63500 45.36500
C  58.31000 28.61200 46.35700
N  52.43800 26.94600 45.63800
C  53.20900 27.98600 45.87900
C  52.57600 29.21100 45.84400
C  51.39000 28.87000 45.21500
C  51.31400 27.48600 45.07400
C  52.96300 30.63000 46.28100
C  50.11100 29.45300 44.75100
O  49.77000 30.63000 44.84600
C  49.28000 28.25100 44.10800
C  49.21800 28.45900 42.61900
O  50.12200 28.69900 41.85300
O  47.84400 28.57900 42.30400
C  47.56500 29.12300 40.97900
H  50.33900 21.45400 44.20900
H  56.64200 22.61300 45.25700
H  55.26700 28.57900 46.60700
H  47.81500 25.42200 43.86200
H  48.46800 22.74700 43.55900
H  48.71200 23.62000 46.25200
H  47.35600 22.62600 45.45900
H  47.33100 24.42500 45.59700
H  49.54500 24.46300 41.46900
H  49.36800 26.10500 41.85200
H  47.39500 26.12000 40.75200
H  46.77500 24.73900 41.65600
H  51.10100 19.69000 44.26200
H  52.12100 18.93600 45.55700
H  52.64700 18.87400 43.88200
H  57.20000 18.98200 45.83600
H  56.59200 20.44100 46.85700
H  57.30000 20.66900 45.37300
H  57.67900 24.99100 44.69100
H  57.14800 26.56300 47.17200
H  59.11100 24.52800 46.44600
H  58.04700 23.24200 46.80600
H  57.74500 24.75800 47.66800
H  57.00500 28.10600 44.65600
H  58.46900 27.24000 44.71700
H  59.40000 28.57900 46.32800
H  58.01800 28.41500 47.38800
H  57.91900 29.60900 46.15200
H  53.84900 30.44400 46.88700
H  52.17700 31.05900 46.90300
H  53.21400 31.21400 45.39600
H  48.24100 28.21400 44.43400
H  46.48000 29.19500 40.90700
H  47.84000 28.50500 40.12500
H  47.74200 30.19700 40.91700
Mg 16.98200 51.68900 26.13000
C  19.20000 50.25100 28.57200
C  15.11900 52.93300 28.79600
C  15.01600 52.97200 23.88700
C  19.07300 50.23700 23.72800
N  17.08000 51.46900 28.42600
C  18.11700 50.91200 29.11700
C  17.92000 51.15100 30.64300
C  16.30800 51.57600 30.64600
C  16.13900 52.03600 29.17000
C  15.38900 50.44100 31.15800
C  18.79700 52.17200 31.26200
C  18.85800 52.22000 32.77400
H  17.59500 51.80800 33.64500
N  15.25500 52.77400 26.28500
C  14.68200 53.22100 27.46000
C  13.47500 53.99900 27.10900
C  13.37500 54.03400 25.67300
C  14.54600 53.23500 25.20000
C  12.62300 54.56400 28.23300
C  12.35100 54.70500 24.76800
O  12.36000 54.65400 23.53700
C  11.30300 55.58600 25.47600
N  16.96200 51.51800 24.07700
C  16.19100 52.30300 23.34600
C  16.39700 52.08600 21.83500
C  17.68000 51.29100 21.83600
C  17.94400 51.02700 23.29600
C  15.22700 51.36200 21.15000
C  18.90100 51.88200 21.10900
C  19.86300 50.90000 20.38700
N  18.86200 50.54300 26.11700
C  19.50600 49.98400 25.04200
C  20.60600 49.11900 25.51800
C  20.59400 49.31300 26.89300
C  19.46500 50.10600 27.18800
C  21.62000 48.37200 24.67700
C  21.24900 48.94200 28.10400
O  22.23400 48.22500 28.25500
C  20.42000 49.61900 29.27500
C  20.10900 48.53200 30.24800
O  19.30900 47.61900 30.02700
O  20.79500 48.79800 31.45700
C  20.33300 48.02100 32.61400
H  14.54500 53.30200 29.64900
H  14.51900 53.58700 23.13300
H  19.65300 49.68600 22.98400
H  17.99700 50.18300 31.13800
H  16.11700 52.43400 31.29000
H  14.61900 50.10300 30.46500
H  14.86500 50.82900 32.03100
H  15.94500 49.60900 31.59100
H  18.27400 53.10900 31.07200
H  19.74900 52.00300 30.75900
H  19.21200 53.18400 33.14000
H  19.56200 51.42000 33.00400
H  12.16500 55.51700 27.96500
H  13.03000 54.70800 29.23400
H  11.79700 53.85500 28.28100
H  10.75400 56.11900 24.69900
H  11.76600 56.39100 26.04600
H  10.60900 54.96700 26.04400
H  16.52300 53.09700 21.44900
H  17.55800 50.26000 21.50300
H  15.39800 50.38900 20.68900
H  14.96500 52.13000 20.42300
H  14.35800 51.25700 21.80000
H  19.48700 52.50400 21.78600
H  18.56300 52.55600 20.32200
H  19.58300 49.90900 20.74300
H  20.86700 51.20700 20.68000
H  19.72600 50.96800 19.30700
H  21.62200 48.69400 23.63600
H  21.61400 47.28200 24.65400
H  22.60500 48.59900 25.08600
H  21.05700 50.38700 29.71400
H  19.24900 48.02200 32.71900
H  20.81700 48.25900 33.56200
H  20.49900 46.95700 32.44500

