158

Mg 44.90000 4.30200 46.64500
C  42.82600 7.07200 46.49500
C  42.11800 2.23300 46.37200
C  46.85900 1.50600 46.30800
C  47.61400 6.42300 46.33700
N  42.71400 4.65100 46.40300
C  42.11800 5.83000 46.47500
C  40.56300 5.72600 46.58700
C  40.32700 4.16100 46.64000
C  41.78300 3.60100 46.48400
C  39.66900 3.67700 47.97300
C  39.80300 6.32300 45.42200
C  40.35700 6.03300 44.00000
H  40.16900 7.08300 42.90900
N  44.53300 2.17100 46.34600
C  43.30500 1.60200 46.25800
C  43.46800 0.12400 46.12000
C  44.83600 -0.14400 46.10700
C  45.48300 1.20500 46.20300
C  42.28100 -0.82100 46.05800
C  45.45200 -1.46100 45.85300
O  44.80800 -2.48300 45.94400
C  46.90200 -1.57000 45.36000
N  46.91000 4.00900 46.14400
C  47.50200 2.76200 46.18700
C  49.03100 2.92800 46.35300
C  49.23600 4.51300 46.35700
C  47.87200 5.06500 46.25200
C  49.60300 2.05000 47.53100
C  50.14700 5.05900 45.18600
C  51.48600 5.58000 45.70800
N  45.26300 6.34800 46.59100
C  46.40500 7.06600 46.40400
C  46.14100 8.44800 46.62400
C  44.73600 8.53000 46.56400
C  44.27400 7.15600 46.55700
C  47.26100 9.43500 46.63400
C  43.60800 9.36800 46.60200
O  43.55700 10.60200 46.55200
C  42.33000 8.44300 46.52500
C  41.48900 8.71300 47.70600
O  41.70100 8.28500 48.83000
O  40.44000 9.47600 47.35400
C  39.37100 9.62800 48.26200
H  41.22500 1.63900 46.58000
H  47.55900 0.67900 46.44400
H  48.43900 7.09300 46.58500
H  40.36500 6.22000 47.53900
H  39.59600 3.81400 45.91000
H  38.76400 3.09700 47.79500
H  39.39400 4.43800 48.70300
H  40.43600 3.14600 48.53600
H  39.82300 7.40600 45.54200
H  38.75300 6.03100 45.39000
H  39.78300 5.16300 43.68400
H  41.36700 5.62500 43.95800
H  42.38700 -1.37500 45.12500
H  41.29900 -0.35200 45.98600
H  42.37100 -1.57700 46.83800
H  47.48600 -1.56100 46.28000
H  47.21400 -0.80800 44.64600
H  47.00700 -2.54000 44.87500
H  49.43400 2.47300 45.44800
H  49.58400 4.88200 47.32200
H  49.88000 1.01700 47.31900
H  48.88400 1.93100 48.34200
H  50.48800 2.57100 47.89500
H  49.71200 5.86200 44.59000
H  50.16600 4.22400 44.48600
H  51.62200 6.61300 45.39000
H  52.35700 5.12500 45.23700
H  51.59400 5.59400 46.79200
H  47.94000 9.28300 47.47300
H  46.81600 10.42800 46.58800
H  47.87400 9.29500 45.74300
H  41.78200 8.77900 45.64500
H  39.06000 10.64800 48.03700
H  39.68600 9.66000 49.30500
H  38.55200 8.94700 48.03200
Mg 26.95800 49.99100 27.11100
C  25.04100 51.22400 29.69600
C  29.42500 49.41900 29.44800
C  29.06700 49.35500 24.58000
C  24.71200 51.26800 24.79100
N  27.14000 50.24700 29.38700
C  26.10100 50.60800 30.24600
C  26.46500 50.26900 31.67500
C  27.97400 49.90200 31.48900
C  28.21200 49.84300 30.02900
C  28.94800 51.01600 32.10900
C  25.56400 49.17200 32.42600
C  24.91100 49.47000 33.79300
H  25.70500 50.12000 34.80500
N  28.92900 49.36100 27.04700
C  29.76300 49.11200 28.11100
C  30.99500 48.53000 27.63600
C  30.96200 48.66700 26.26700
C  29.64700 49.18200 25.90800
C  32.06100 47.97500 28.47800
C  31.95700 48.29400 25.21200
O  31.91800 48.67500 24.08600
C  33.13700 47.36500 25.52900
N  26.89300 50.37100 24.99100
C  27.81300 49.79100 24.21700
C  27.37700 49.73400 22.67700
C  25.88400 50.19600 22.85600
C  25.77700 50.58400 24.28500
C  28.17800 50.68100 21.79500
C  24.89500 49.12800 22.33900
C  24.31200 48.14300 23.35300
N  25.32100 51.13500 27.15000
C  24.48300 51.58600 26.16800
C  23.34400 52.18500 26.72000
C  23.49300 52.07800 28.07600
C  24.76100 51.52600 28.30000
C  22.20600 52.80800 25.91000
C  22.99800 52.41400 29.36300
O  21.97900 53.02900 29.67600
C  23.96200 51.81100 30.51600
C  24.46300 52.90400 31.43900
O  25.32300 53.72400 31.13000
O  23.78800 52.88100 32.64500
C  24.22900 53.84700 33.64200
H  30.09600 48.94300 30.16500
H  29.68100 49.03400 23.73600
H  23.94300 51.56200 24.07300
H  26.45800 51.24000 32.17100
H  28.13100 48.97900 32.04800
H  28.32800 51.78800 32.56500
H  29.60700 51.46000 31.36300
H  29.62200 50.50500 32.79700
H  26.10100 48.26300 32.69500
H  24.80000 48.82900 31.72800
H  24.35500 48.58400 34.09800
H  24.13000 50.17400 33.50500
H  32.31800 47.03500 27.98900
H  31.85400 47.82800 29.53800
H  32.93300 48.61600 28.34400
H  32.89900 46.38200 25.93600
H  33.80900 47.69100 26.32200
H  33.80200 47.20800 24.67900
H  27.52100 48.69300 22.38700
H  25.65800 51.08700 22.27000
H  29.10300 50.88900 22.33300
H  27.74200 51.65800 21.58600
H  28.27700 50.22000 20.81200
H  25.23700 48.52000 21.50200
H  24.03900 49.71100 21.99900
H  24.79600 48.31300 24.31400
H  24.45600 47.14700 22.93600
H  23.27600 48.41400 23.55700
H  21.93500 52.17600 25.06400
H  22.53900 53.81100 25.64400
H  21.37200 52.95500 26.59600
H  23.39700 51.09800 31.11700
H  23.81500 53.54800 34.60400
H  23.76900 54.80200 33.38600
H  25.31600 53.82300 33.72200

