158

Mg 47.60800 15.97700 28.61800
C  45.34800 15.61300 31.30700
C  49.33400 18.16300 30.52000
C  49.50500 16.70800 25.87900
C  45.50000 13.99900 26.59400
N  47.36000 16.67000 30.65500
C  46.40600 16.43400 31.68400
C  46.80200 17.06800 32.97000
C  47.88900 18.07500 32.55300
C  48.19800 17.62800 31.13100
C  47.49500 19.61300 32.69000
C  47.26400 16.16800 34.17100
C  47.57300 16.98300 35.48500
H  48.60600 16.37000 36.47800
N  49.20000 17.24300 28.28300
C  49.81200 18.01500 29.22200
C  50.97000 18.79700 28.63800
C  51.04400 18.35700 27.24800
C  49.88900 17.36900 27.06100
C  51.78000 19.80300 29.42500
C  51.94700 18.81800 26.09900
O  51.96400 18.24000 25.00500
C  52.67000 20.06000 26.22800
N  47.50800 15.38100 26.57800
C  48.43600 15.78700 25.63600
C  48.30700 14.99200 24.29900
C  47.22000 13.91800 24.67800
C  46.74100 14.43600 26.06100
C  47.92000 15.96900 23.10600
C  47.74000 12.47000 24.64000
C  48.88900 12.04300 23.71700
N  45.82600 15.07400 28.85200
C  45.00600 14.38300 27.92700
C  43.77400 13.96800 28.56100
C  43.91900 14.36800 29.87500
C  45.11600 15.03600 30.02600
C  42.62600 13.24300 28.02600
C  43.24800 14.41100 31.15900
O  42.12700 14.00700 31.49500
C  44.19700 15.13700 32.21400
C  43.47000 16.19300 32.86800
O  42.73300 16.99700 32.30300
O  43.86000 16.28800 34.19400
C  43.12200 17.36000 34.92000
H  49.92100 18.89200 31.08300
H  50.13400 16.72100 24.98600
H  44.95100 13.31000 25.94900
H  46.00300 17.67900 33.38900
H  48.81100 17.98200 33.12700
H  46.44800 19.81400 32.91900
H  47.77600 20.24800 31.85100
H  48.05900 19.95400 33.55800
H  48.24600 15.80900 33.86500
H  46.63200 15.32500 34.45200
H  46.61300 17.02700 36.00000
H  47.95400 17.99100 35.32100
H  51.48300 19.97700 30.45900
H  51.82900 20.85300 29.13700
H  52.82400 19.49200 29.46400
H  52.00700 20.90500 26.41300
H  53.09200 20.28100 25.24700
H  53.56100 19.94300 26.84500
H  49.31200 14.62600 24.09000
H  46.36400 14.00000 24.00800
H  46.95900 15.68000 22.67900
H  48.69300 15.93700 22.33900
H  47.87200 17.04200 23.29200
H  46.90400 11.79600 24.45800
H  48.15300 12.25100 25.62400
H  48.58800 11.17200 23.13400
H  49.76000 11.72500 24.28800
H  49.33200 12.78300 23.05000
H  42.96600 12.82000 27.08100
H  41.81500 13.96000 27.89200
H  42.19200 12.52000 28.71700
H  44.58000 14.44500 32.96400
H  43.55600 17.29400 35.91800
H  42.03700 17.32000 35.01600
H  43.36400 18.33900 34.50500
Mg 6.64100 57.17200 41.87800
C  5.75600 53.65700 41.65800
C  9.53600 56.50000 40.48400
C  7.05400 60.51100 41.65000
C  3.60000 57.68600 43.55800
N  7.42900 55.22900 41.02800
C  6.92100 53.99000 40.96900
C  8.06600 53.05600 40.46900
C  9.35400 54.02200 40.40100
C  8.75100 55.36300 40.74100
C  10.54600 53.66500 41.27600
C  7.83200 52.29700 39.02300
C  8.54000 50.93600 38.93700
H  8.03600 49.84500 37.92900
N  8.09600 58.40300 41.02500
C  9.22800 57.91200 40.54200
C  10.08600 59.02300 40.19700
C  9.35500 60.25500 40.45500
C  8.10500 59.74400 41.07800
C  11.51000 58.98400 39.51000
C  9.76600 61.67300 39.98200
O  10.87900 61.80700 39.50100
C  8.81800 62.84400 39.97000
N  5.47300 58.90500 42.27700
C  5.78400 60.19500 42.18500
C  4.77700 61.15000 42.77400
C  3.65800 60.22400 43.27200
C  4.23200 58.83000 43.04700
C  5.39000 62.08500 43.86800
C  2.23300 60.44000 42.71200
C  1.16900 60.72600 43.78600
N  5.00600 55.96400 42.55700
C  3.86600 56.26900 43.30600
C  3.12500 55.15900 43.70300
C  3.79000 54.09300 43.04000
C  4.93500 54.61100 42.37900
C  1.91800 55.10000 44.60000
C  3.81300 52.69100 42.74400
O  2.94700 51.83900 42.96100
C  5.17500 52.35400 42.06500
C  4.93100 51.37900 40.98100
O  4.36300 51.61400 39.94600
O  5.37500 50.20700 41.44500
C  5.21200 49.10700 40.52400
H  10.54000 56.21100 40.16700
H  7.16900 61.59300 41.56300
H  2.75700 57.91400 44.21400
H  8.21900 52.31100 41.25000
H  9.70300 54.11800 39.37300
H  10.44500 52.74100 41.84600
H  10.67800 54.50100 41.96400
H  11.39700 53.43500 40.63500
H  8.19500 52.93500 38.21700
H  6.83100 52.21200 38.60000
H  8.60200 50.65200 39.98700
H  9.59600 51.03500 38.68400
H  11.42400 59.41700 38.51400
H  11.88200 57.96200 39.43200
H  12.22600 59.54800 40.10700
H  7.87200 62.65800 39.46100
H  9.20900 63.64900 39.34700
H  8.50500 63.21100 40.94800
H  4.35300 61.77900 41.99100
H  3.54500 60.35000 44.34900
H  4.87800 61.89500 44.81100
H  5.16200 63.07600 43.47500
H  6.47100 62.01400 43.98900
H  1.99500 59.49000 42.23400
H  2.24500 61.25600 41.98900
H  0.22600 60.42000 43.33400
H  0.99400 61.78800 43.95600
H  1.38100 60.19100 44.71200
H  2.14800 54.44900 45.44300
H  1.13400 54.53400 44.09600
H  1.59500 56.09600 44.90300
H  5.76400 51.98100 42.90400
H  4.22000 48.72100 40.75400
H  5.97800 48.37000 40.76300
H  5.19800 49.27600 39.44700

