158

Mg 0.15100 8.53600 27.00800
C  0.68100 10.47900 29.88500
C  -0.09000 5.81900 29.03000
C  0.28300 6.55000 24.29000
C  0.59400 11.22400 25.06300
N  0.44000 8.14100 29.26700
C  0.46400 9.16100 30.24200
C  0.16200 8.48000 31.64700
C  0.11100 6.99300 31.25600
C  0.15500 6.96200 29.74000
C  1.22100 6.08900 31.90600
C  -1.08900 9.19700 32.32600
C  -0.92400 9.33300 33.85600
H  0.21900 8.62900 34.53300
N  0.13600 6.41800 26.65900
C  -0.10700 5.47500 27.64500
C  -0.28500 4.12900 27.08900
C  -0.18200 4.32000 25.68400
C  0.05700 5.82400 25.47400
C  -0.75300 3.00900 27.92300
C  -0.41000 3.37800 24.56300
O  -0.45300 3.76600 23.36800
C  -0.61100 1.91300 24.86300
N  0.57900 8.80100 24.87800
C  0.52000 7.90100 23.98600
C  0.63300 8.45500 22.57200
C  0.33100 9.95800 22.91700
C  0.55700 10.04800 24.38400
C  2.06600 8.14300 22.02500
C  -1.12700 10.47900 22.54500
C  -1.28700 11.08500 21.21400
N  0.55300 10.44500 27.35400
C  0.68000 11.46400 26.42600
C  1.10500 12.70800 27.18500
C  1.09300 12.31300 28.52000
C  0.78300 10.93700 28.57200
C  1.39900 14.12200 26.62100
C  1.34600 12.77000 29.81600
O  1.75600 13.86000 30.21000
C  0.91800 11.63200 30.77500
C  2.01300 11.47100 31.80200
O  3.14200 10.95000 31.64500
O  1.62300 12.03800 32.98200
C  2.64500 12.13900 34.00600
H  -0.24600 4.95000 29.67200
H  0.49000 5.97900 23.38200
H  0.65000 12.11300 24.43200
H  1.08500 8.60100 32.21400
H  -0.85300 6.51800 31.44200
H  2.00000 5.95500 31.15600
H  0.87100 5.07000 32.07400
H  1.55300 6.54900 32.83700
H  -1.97800 8.61400 32.08500
H  -1.27700 10.19800 31.93700
H  -1.88600 8.95900 34.20600
H  -1.02100 10.37000 34.17600
H  -1.71700 2.68100 27.53500
H  -0.92500 3.25600 28.97100
H  0.00100 2.22400 27.86200
H  -1.62000 1.63000 25.16300
H  0.09000 1.63500 25.65000
H  -0.35900 1.33900 23.97100
H  -0.18200 8.06000 21.96600
H  1.07100 10.55600 22.38600
H  2.60000 9.08600 22.14200
H  2.07300 7.91700 20.95900
H  2.62300 7.41200 22.61200
H  -1.55300 11.09400 23.33800
H  -1.79000 9.61500 22.48800
H  -1.80700 12.04200 21.26000
H  -1.89500 10.46900 20.55100
H  -0.35600 11.21600 20.66400
H  2.31100 14.26600 26.04200
H  1.52600 14.85000 27.42200
H  0.51100 14.39900 26.05400
H  0.04400 11.97600 31.33000
H  2.75000 13.10900 34.49100
H  3.65500 11.83600 33.73200
H  2.35400 11.50000 34.84000
Mg -2.66900 34.31300 26.44500
C  -4.46200 33.09200 29.12100
C  -1.80300 37.09400 28.29200
C  -1.04800 35.61100 23.69900
C  -3.79300 31.76400 24.48200
N  -3.13900 34.94100 28.46500
C  -3.70700 34.17000 29.44700
C  -3.49500 34.78100 30.85100
C  -2.99400 36.25400 30.48000
C  -2.53600 36.10500 28.92400
C  -3.99800 37.47500 30.67000
C  -2.46700 33.94200 31.65100
C  -2.51200 34.46100 33.17700
H  -2.72400 33.34400 34.25100
N  -1.60200 36.12900 26.10300
C  -1.45100 37.13800 26.93200
C  -0.73300 38.19800 26.31400
C  -0.43700 37.81700 25.00200
C  -1.05800 36.44300 24.89100
C  -0.37900 39.47100 27.06400
C  0.27200 38.50400 23.88100
O  0.22800 38.02500 22.75700
C  0.94400 39.91400 24.06000
N  -2.55100 33.89000 24.31600
C  -1.73500 34.46700 23.43300
C  -1.72700 33.71500 22.12600
C  -2.56400 32.47900 22.37100
C  -3.01500 32.72600 23.83200
C  -2.27400 34.59000 20.99500
C  -1.73500 31.19900 22.19300
C  -2.49900 30.02600 21.52400
N  -4.06900 32.81800 26.62900
C  -4.33500 31.84700 25.80500
C  -5.22800 30.90800 26.41700
C  -5.33200 31.36300 27.71400
C  -4.56200 32.53100 27.82000
C  -5.94600 29.77800 25.80200
C  -5.87900 31.09300 29.02600
O  -6.59900 30.16300 29.41400
C  -5.28400 32.18400 29.94300
C  -6.44800 32.96800 30.51800
O  -6.91700 33.98600 30.07700
O  -6.95400 32.34800 31.64700
C  -7.88300 33.08300 32.55800
H  -1.47300 37.98100 28.83600
H  -0.35600 35.85800 22.89100
H  -4.05200 30.90600 23.85700
H  -4.47400 34.80800 31.32900
H  -2.13300 36.51500 31.09500
H  -4.80100 37.25700 31.37500
H  -4.20000 37.80900 29.65300
H  -3.42600 38.26800 31.15200
H  -1.52900 33.96300 31.09700
H  -2.76600 32.89400 31.63000
H  -3.27700 35.22300 33.32600
H  -1.58900 34.98500 33.42600
H  -0.84800 39.69300 28.02200
H  -0.48600 40.28000 26.34100
H  0.68300 39.42100 27.30100
H  1.65600 39.80300 24.87800
H  0.06900 40.52800 24.27200
H  1.29100 40.25200 23.08400
H  -0.69300 33.41900 21.94800
H  -3.50500 32.45400 21.82200
H  -3.04200 35.21900 21.44500
H  -2.80100 34.00500 20.24100
H  -1.47900 35.15500 20.51000
H  -1.31800 30.88300 23.14900
H  -0.94900 31.35300 21.45400
H  -3.38800 30.44600 21.05400
H  -2.89800 29.31100 22.24300
H  -1.88100 29.51300 20.78700
H  -6.30100 29.95500 24.78700
H  -6.81400 29.49600 26.39900
H  -5.20600 28.98300 25.70100
H  -4.80300 31.65200 30.76400
H  -8.88300 33.28800 32.17800
H  -7.51000 34.10100 32.67400
H  -7.94100 32.53400 33.49800

