158

Mg 25.13400 1.43200 29.51200
C  27.30000 1.12800 32.49100
C  22.53500 1.48500 31.66900
C  23.40100 1.91700 26.81100
C  28.17000 1.13600 27.61800
N  24.98800 1.13300 31.89600
C  25.97500 1.31700 32.83300
C  25.30700 1.29500 34.31000
C  23.78900 1.22800 33.98000
C  23.76300 1.33600 32.43900
C  22.92400 0.00400 34.49400
C  25.77200 2.50200 35.18000
C  26.01600 2.24100 36.64200
H  25.94700 3.48700 37.58200
N  23.25000 1.65200 29.29600
C  22.23200 1.67800 30.24800
C  20.92900 1.73500 29.58800
C  21.21100 1.92700 28.19800
C  22.67000 1.82000 28.03400
C  19.61000 1.63200 30.31500
C  20.19900 2.04100 26.99400
O  20.61700 2.01900 25.87300
C  18.65300 2.14300 27.31200
N  25.73600 1.39000 27.46000
C  24.77300 1.60500 26.52600
C  25.39600 1.73500 25.08400
C  26.91900 1.79100 25.43000
C  26.95800 1.43300 26.94800
C  24.80100 0.60300 24.23000
C  27.66900 3.11100 25.25100
C  26.95800 4.27200 25.94700
N  27.20200 1.07800 29.93000
C  28.27800 0.92900 29.00700
C  29.56200 0.63200 29.68100
C  29.14000 0.69800 31.07400
C  27.74700 0.98100 31.18000
C  30.89800 0.40900 29.14200
C  29.71100 0.76400 32.41300
O  30.89100 0.49100 32.77700
C  28.52500 1.09500 33.42300
C  28.52400 -0.03300 34.31100
O  28.10400 -1.15200 34.13600
O  29.08500 0.35400 35.47700
C  29.17300 -0.61700 36.57000
H  21.68700 1.44300 32.35600
H  22.78800 1.99400 25.91000
H  29.06900 1.17600 27.00000
H  25.68000 0.36400 34.73600
H  23.29000 2.12700 34.34000
H  21.97700 0.53200 34.60900
H  23.22400 -0.49300 35.41600
H  22.75500 -0.70300 33.68200
H  25.11700 3.37300 35.20200
H  26.66300 2.87200 34.67200
H  27.03500 1.85500 36.67300
H  25.30200 1.53900 37.07000
H  18.92300 2.39300 29.94500
H  19.55400 1.59800 31.40300
H  19.15500 0.73700 29.88900
H  18.36500 3.06300 27.82100
H  18.23100 1.33000 27.90300
H  18.21800 2.02300 26.32000
H  24.95100 2.66700 24.73800
H  27.48100 1.03600 24.87900
H  24.33500 -0.16300 24.85000
H  25.63900 0.15000 23.70100
H  24.08700 1.06200 23.54500
H  27.64800 3.32600 24.18200
H  28.70300 3.03700 25.58700
H  26.19100 3.90200 26.62700
H  26.52100 4.92500 25.19100
H  27.69100 4.81900 26.53900
H  31.64000 1.18500 29.33300
H  30.74500 0.39800 28.06300
H  31.31200 -0.56800 29.39100
H  28.57600 2.00300 34.02400
H  28.35400 -0.37500 37.24800
H  30.14400 -0.45100 37.03600
H  29.17300 -1.65300 36.22900
Mg -2.23800 34.25500 26.34100
C  -3.94400 32.66500 28.94000
C  -0.75000 36.39000 28.59600
C  -1.06400 36.15300 23.72000
C  -4.16800 32.45400 24.08900
N  -2.37600 34.45500 28.51000
C  -3.10900 33.71900 29.39500
C  -2.77000 34.04800 30.84400
C  -1.81800 35.30600 30.70100
C  -1.72400 35.50400 29.14000
C  -2.33000 36.63300 31.41800
C  -1.93800 32.92700 31.52100
C  -1.66200 33.29900 33.00700
H  -2.32000 32.35500 34.06000
N  -0.93300 35.99700 26.12500
C  -0.35100 36.67000 27.23400
C  0.59600 37.60900 26.68000
C  0.51700 37.56800 25.24500
C  -0.59200 36.55400 24.97700
C  1.64900 38.33000 27.59200
C  1.37200 38.24300 24.21700
O  1.12000 38.09800 23.05700
C  2.61000 39.05500 24.57700
N  -2.58300 34.41300 24.25800
C  -1.94200 35.18200 23.35100
C  -2.40500 34.87500 21.87800
C  -3.34300 33.67600 22.07300
C  -3.34500 33.47000 23.60000
C  -2.96400 36.09700 21.08400
C  -2.90800 32.36000 21.30200
C  -2.05500 31.34400 22.01400
N  -3.76700 32.87900 26.49200
C  -4.39500 32.14200 25.45700
C  -5.23700 31.12000 26.00700
C  -5.14400 31.36900 27.39300
C  -4.20400 32.34900 27.62500
C  -6.12400 30.07600 25.32500
C  -5.60700 30.88500 28.60000
O  -6.38600 29.93700 28.79700
C  -4.86600 31.70400 29.78500
C  -5.76900 32.40100 30.75300
O  -6.29300 33.52500 30.60900
O  -6.08000 31.49600 31.69400
C  -7.09700 31.87300 32.65700
H  -0.24000 36.98000 29.36000
H  -0.65900 36.68000 22.85400
H  -4.65700 32.00600 23.22200
H  -3.68500 34.31000 31.37500
H  -0.85100 35.02300 31.11500
H  -2.52100 37.46500 30.74100
H  -1.71600 36.87100 32.28600
H  -3.31600 36.38000 31.80700
H  -1.04800 32.86900 30.89500
H  -2.44900 31.96500 31.50800
H  -1.98300 34.30200 33.29100
H  -0.58000 33.27000 33.13500
H  1.63200 39.41900 27.56400
H  2.59600 38.02400 27.14700
H  1.70000 38.10500 28.65700
H  2.32700 39.96000 25.11500
H  2.84200 39.44100 23.58400
H  3.42300 38.44900 24.97800
H  -1.45600 34.67100 21.38200
H  -4.36700 33.94400 21.81600
H  -3.77400 35.80300 20.41700
H  -2.23900 36.52500 20.39200
H  -3.29600 36.89000 21.75500
H  -2.33600 32.74200 20.45700
H  -3.82200 31.99700 20.83300
H  -2.63100 30.47100 22.32100
H  -1.63300 31.86700 22.87100
H  -1.24600 30.93800 21.40700
H  -5.55600 29.70900 24.46900
H  -7.01000 30.65400 25.06200
H  -6.35200 29.28400 26.03800
H  -4.24500 30.98300 30.31800
H  -6.64800 32.53700 33.39500
H  -7.55600 30.98700 33.09800
H  -7.89200 32.40100 32.13100

