158

Mg 9.98100 46.58300 25.64700
C  7.84300 46.92600 28.32900
C  12.47800 48.02900 27.35800
C  11.92800 46.48300 22.81600
C  7.10000 46.00700 23.64500
N  10.16100 47.17500 27.63600
C  9.21200 47.13700 28.60200
C  9.82200 47.68500 29.94600
C  11.05000 48.45100 29.45300
C  11.26700 47.90900 28.03300
C  11.21800 50.02000 29.62800
C  10.09600 46.55000 30.89300
C  10.04000 46.88600 32.34700
H  9.94900 45.68500 33.28000
N  11.96400 47.11400 25.16300
C  12.92800 47.61700 26.08900
C  14.28500 47.72800 25.45600
C  14.07500 47.24800 24.12000
C  12.58100 46.95000 23.93800
C  15.54600 48.11900 26.28400
C  15.02400 47.07600 23.08000
O  14.74700 46.68100 21.92000
C  16.40600 47.44400 23.31300
N  9.56400 46.47900 23.55400
C  10.57200 46.32000 22.62000
C  10.06000 45.96200 21.24400
C  8.58300 45.49400 21.65000
C  8.38600 46.05800 23.05700
C  10.14300 47.12800 20.22200
C  8.35000 43.96700 21.37700
C  7.91200 43.60000 19.95000
N  7.84300 46.50400 25.88400
C  6.82000 46.30700 24.98500
C  5.50700 46.23300 25.73700
C  5.92900 46.44100 27.05300
C  7.29900 46.68500 27.03300
C  4.12600 45.94300 25.22600
C  5.43900 46.62100 28.42600
O  4.30000 46.62200 28.87500
C  6.66100 46.92900 29.31100
C  6.84500 45.86400 30.35900
O  7.13600 44.71100 30.12300
O  6.58700 46.20900 31.61400
C  6.51700 45.13000 32.59700
H  13.21500 48.44400 28.04900
H  12.51300 46.40500 21.89700
H  6.21800 45.63800 23.11600
H  9.14200 48.45100 30.31700
H  11.89800 48.14700 30.06600
H  12.12500 50.22400 30.19700
H  10.44300 50.43700 30.27100
H  11.22200 50.52500 28.66300
H  11.09200 46.13000 30.74800
H  9.44700 45.68400 30.76800
H  9.28300 47.64900 32.52700
H  11.04400 47.25500 32.55700
H  15.18300 48.27800 27.29900
H  15.93800 49.06400 25.90700
H  16.35600 47.39600 26.37000
H  16.88400 46.81500 24.06400
H  16.37200 48.50400 23.56300
H  17.00200 47.28600 22.41500
H  10.63600 45.11800 20.86500
H  7.84100 46.08700 21.11400
H  10.40100 48.12700 20.57200
H  9.16500 47.31600 19.77900
H  10.83400 46.82900 19.43400
H  7.64200 43.58300 22.11100
H  9.24400 43.37300 21.56800
H  8.72500 43.10800 19.41600
H  7.69700 44.47200 19.33200
H  7.12100 42.85000 19.92000
H  4.12600 45.26100 24.37600
H  3.69000 46.86200 24.83500
H  3.47300 45.54100 26.00100
H  6.62000 47.90600 29.79300
H  6.94300 45.48700 33.53500
H  7.13100 44.26400 32.35000
H  5.52000 44.73200 32.78800
Mg -11.78400 38.26900 41.40900
C  -9.32600 35.75800 41.06300
C  -9.50700 40.55500 40.61900
C  -14.35800 40.49400 41.37600
C  -14.11300 35.70900 42.08800
N  -9.75000 38.14500 40.69100
C  -8.90800 37.07900 40.69300
C  -7.56000 37.40900 40.05900
C  -7.49600 38.97500 40.31600
C  -8.96800 39.23800 40.62700
C  -6.53700 39.24200 41.47400
C  -7.43000 36.95500 38.58100
C  -6.29500 35.91500 38.33100
H  -5.34600 36.49100 37.26300
N  -11.87500 40.24100 41.10100
C  -10.81500 41.03000 40.79500
C  -11.21200 42.34100 40.59900
C  -12.62400 42.36900 40.83500
C  -13.05400 40.96400 41.08900
C  -10.42100 43.44900 40.03500
C  -13.53900 43.56100 40.62400
O  -12.94600 44.59400 40.55700
C  -15.00300 43.48200 40.45500
N  -13.92900 38.03100 41.48400
C  -14.74700 39.13800 41.49900
C  -16.18300 38.73000 41.85200
C  -16.09200 37.16800 42.00600
C  -14.59600 36.96900 41.84000
C  -16.64700 39.48800 43.10100
C  -17.00900 36.35800 41.08600
C  -17.93200 35.34100 41.75300
N  -11.78800 36.13900 41.51200
C  -12.78700 35.28800 41.85100
C  -12.22900 33.94500 41.99400
C  -10.89400 34.10900 41.65800
C  -10.66200 35.44600 41.44500
C  -12.95600 32.74700 42.51400
C  -9.67200 33.37400 41.48000
O  -9.45200 32.19100 41.49400
C  -8.47700 34.48400 41.17300
C  -7.61600 34.53500 42.45500
O  -7.78000 35.28000 43.46700
O  -6.56900 33.63600 42.26200
C  -5.68400 33.54800 43.35100
H  -8.63100 41.16800 40.39500
H  -15.21800 41.15800 41.49200
H  -14.81000 34.92600 42.39100
H  -6.88800 36.80900 40.67300
H  -7.24200 39.63200 39.48400
H  -5.98300 40.16500 41.30500
H  -5.82000 38.47200 41.76100
H  -7.23200 39.37400 42.30300
H  -7.26400 37.87400 38.02000
H  -8.38200 36.55500 38.23400
H  -6.74800 35.03400 37.87700
H  -5.83400 35.52300 39.23800
H  -9.39400 43.17800 39.79000
H  -10.41100 44.24200 40.78200
H  -10.89500 43.65300 39.07400
H  -15.34700 44.38600 39.95200
H  -15.59300 43.55300 41.36900
H  -15.20600 42.58600 39.86900
H  -16.77200 39.01800 40.98100
H  -16.35800 37.00400 43.05000
H  -17.53300 39.99000 42.71300
H  -15.92500 40.22600 43.45300
H  -16.86600 38.85200 43.95900
H  -16.38700 35.83200 40.36100
H  -17.66800 36.99000 40.49100
H  -18.86800 35.23000 41.20500
H  -18.04300 35.36000 42.83700
H  -17.55200 34.34200 41.53900
H  -13.22400 32.20000 41.61000
H  -13.85800 33.00800 43.06800
H  -12.30300 32.12000 43.12000
H  -7.84400 34.10300 40.37200
H  -5.98900 33.99400 44.29800
H  -4.74900 34.05900 43.12100
H  -5.42600 32.52600 43.62500

