158

Mg 44.78200 5.38600 46.19600
C  42.89100 8.38000 46.43100
C  41.90600 3.79000 45.21700
C  46.75000 2.61200 45.45600
C  47.70300 7.35700 46.19600
N  42.62400 6.08400 45.68200
C  42.10800 7.30100 45.99700
C  40.53900 7.28200 45.90300
C  40.28300 5.78300 45.45000
C  41.68900 5.15700 45.41000
C  39.26700 5.04000 46.35900
C  39.86900 8.36500 44.94500
C  40.62300 8.64800 43.63800
H  39.96800 8.37800 42.38300
N  44.39900 3.43000 45.46800
C  43.11300 2.98300 45.23200
C  43.28900 1.48400 45.06400
C  44.69500 1.18000 44.90800
C  45.34600 2.43100 45.26200
C  42.15000 0.58300 44.96300
C  45.22900 -0.15100 44.59500
O  44.49200 -1.13700 44.61900
C  46.63300 -0.46000 44.29000
N  46.93600 4.95000 46.05700
C  47.47300 3.71900 45.77400
C  49.00700 3.83800 45.59000
C  49.36800 5.34800 45.59200
C  47.90200 5.96400 45.94600
C  49.79800 3.00400 46.64400
C  49.97800 5.79300 44.21300
C  48.96500 6.02300 43.02200
N  45.25200 7.40000 46.53800
C  46.44500 8.03400 46.42900
C  46.20600 9.40200 46.85600
C  44.86300 9.62200 46.84700
C  44.28800 8.36500 46.60800
C  47.30200 10.38800 47.08100
C  43.81400 10.63400 46.96600
O  43.80900 11.79300 47.15500
C  42.47200 9.76500 46.78900
C  41.49700 9.89400 47.84300
O  41.46200 9.14500 48.84900
O  40.47100 10.80100 47.57100
C  39.49700 10.85700 48.64800
H  41.00800 3.16800 45.23000
H  47.43500 1.77500 45.30500
H  48.61200 7.96100 46.25400
H  40.17200 7.41900 46.92000
H  39.86500 5.72200 44.44500
H  38.41300 4.63600 45.81500
H  38.90900 5.81300 47.03900
H  39.71600 4.21200 46.90600
H  39.59900 9.20700 45.58200
H  38.87800 7.97700 44.70700
H  41.55600 8.08600 43.61300
H  40.94300 9.69000 43.65700
H  42.14100 0.12000 43.97700
H  41.22100 1.15300 44.93700
H  42.07400 -0.13100 45.78200
H  46.73200 -1.46000 43.86800
H  47.29000 -0.43800 45.16000
H  46.89200 0.21100 43.47100
H  49.29200 3.55500 44.57700
H  49.93100 5.63800 46.47900
H  50.47500 2.30300 46.15600
H  49.04800 2.51300 47.26300
H  50.34800 3.58400 47.38500
H  50.69300 5.09700 43.77400
H  50.49500 6.74500 44.33000
H  47.96000 6.20200 43.40500
H  48.82500 5.16200 42.36800
H  49.29800 6.78600 42.31800
H  48.28000 9.94200 47.25900
H  47.10400 11.06900 47.90800
H  47.35700 10.92000 46.13100
H  41.96700 10.13000 45.89500
H  38.95000 9.91500 48.69700
H  38.67600 11.50100 48.33500
H  39.88100 11.11000 49.63600
Mg -1.63500 33.65300 27.20200
C  -3.61500 31.97900 29.63000
C  -0.30900 35.59100 29.64500
C  0.02700 35.37800 24.72700
C  -3.49700 32.08800 24.66700
N  -1.91900 33.68400 29.32900
C  -2.77300 32.99300 30.20800
C  -2.50600 33.21400 31.71600
C  -1.63700 34.53500 31.63800
C  -1.26400 34.68000 30.10000
C  -2.29400 35.84600 32.14400
C  -1.88700 31.93200 32.43600
C  -2.73300 31.39300 33.65300
H  -1.97700 31.57300 34.97400
N  -0.33800 35.22500 27.19700
C  0.17900 35.84100 28.31100
C  1.04100 36.91900 27.90400
C  1.16800 36.85100 26.47500
C  0.28500 35.74100 26.09300
C  1.56000 37.96000 28.81800
C  1.94800 37.72400 25.52800
O  1.97100 37.56200 24.32700
C  2.82200 38.76600 26.09100
N  -1.84000 33.88100 25.05600
C  -0.93300 34.52200 24.25500
C  -0.95800 33.95100 22.77500
C  -2.23200 32.99000 22.81500
C  -2.53400 32.95400 24.28100
C  -1.13900 35.00300 21.64900
C  -1.89600 31.63100 22.06900
C  -3.09900 30.99000 21.39900
N  -3.17800 32.31700 27.06100
C  -3.79700 31.72900 25.99900
C  -4.72200 30.79000 26.46700
C  -4.70700 30.78600 27.85900
C  -3.74900 31.74500 28.19900
C  -5.62100 30.05400 25.58400
C  -5.24800 30.21700 29.07500
O  -6.09500 29.37900 29.25800
C  -4.55500 30.96900 30.31500
C  -5.60700 31.68900 31.20300
O  -6.13800 32.75200 30.97900
O  -5.84300 30.90300 32.35400
C  -6.68000 31.38000 33.45800
H  0.23700 36.14500 30.41100
H  0.62300 35.74800 23.89000
H  -3.97800 31.54300 23.85100
H  -3.39400 33.48100 32.28900
H  -0.75000 34.44200 32.26500
H  -2.35200 36.64500 31.40500
H  -1.60400 36.25700 32.88100
H  -3.35300 35.75500 32.38500
H  -0.85500 32.24400 32.59800
H  -1.89900 31.10500 31.72600
H  -2.98700 30.33800 33.55200
H  -3.70600 31.87700 33.73600
H  2.63900 38.10900 28.77800
H  1.23900 37.77100 29.84300
H  1.04500 38.89600 28.60300
H  3.25400 39.40000 25.31700
H  3.62700 38.28500 26.64700
H  2.31600 39.48300 26.73800
H  -0.08700 33.30100 22.69900
H  -3.04700 33.62700 22.47100
H  -1.43700 35.94900 22.10200
H  -1.91400 34.72500 20.93500
H  -0.19500 35.08400 21.11000
H  -1.64400 30.89600 22.83400
H  -1.10500 31.80500 21.33900
H  -2.89600 30.73800 20.35800
H  -3.91300 31.71500 21.39100
H  -3.38900 30.12200 21.99100
H  -5.00500 29.67100 24.77000
H  -6.35700 30.78300 25.24600
H  -6.06800 29.22100 26.12600
H  -3.90600 30.30700 30.88900
H  -7.45700 32.07200 33.13300
H  -6.08700 31.87100 34.23000
H  -7.32400 30.64700 33.94400

