158

Mg 25.11000 -4.93500 46.10300
C  27.17900 -3.03200 44.37200
C  22.63300 -4.49200 43.59500
C  23.22100 -7.73200 47.17000
C  27.75300 -6.09300 47.99200
N  24.94200 -3.90200 44.14000
C  25.96700 -3.12900 43.69600
C  25.71000 -2.46300 42.36300
C  24.12000 -2.57700 42.30400
C  23.83400 -3.80300 43.38000
C  23.25300 -1.28100 42.77000
C  26.51600 -3.14100 41.26400
C  27.31100 -2.25200 40.28800
H  26.74400 -2.27500 38.83900
N  23.12400 -5.73500 45.70300
C  22.28300 -5.40800 44.62400
C  21.02300 -5.96900 44.79800
C  21.08500 -7.00000 45.79800
C  22.52700 -6.82200 46.30100
C  19.83200 -5.53000 43.88800
C  20.02300 -8.02100 46.24300
O  18.89600 -8.10400 45.68300
C  20.29600 -9.07300 47.37100
N  25.41600 -6.60900 47.39200
C  24.49800 -7.64000 47.64600
C  25.24200 -8.71300 48.45100
C  26.52600 -8.11700 48.92700
C  26.58900 -6.82100 48.08500
C  24.48500 -9.45000 49.52900
C  27.80400 -9.05100 48.76100
C  28.43100 -9.33300 50.10400
N  27.06600 -4.65300 46.23700
C  27.99900 -5.02000 47.13900
C  29.23900 -4.33100 46.97800
C  28.90800 -3.40400 45.99100
C  27.63400 -3.74800 45.49600
C  30.58200 -4.38500 47.75500
C  29.42400 -2.26500 45.18500
O  30.51500 -1.74500 45.15900
C  28.32900 -2.00400 44.12500
C  27.97900 -0.56600 44.32100
O  27.18700 -0.08700 45.10500
O  28.62100 0.20600 43.40200
C  28.57800 1.64200 43.48600
H  21.91400 -4.29700 42.79700
H  22.78700 -8.71800 47.35200
H  28.62800 -6.33000 48.60100
H  25.90600 -1.39100 42.32200
H  23.77400 -2.82300 41.30000
H  22.81300 -1.45600 43.75100
H  22.52200 -1.05000 41.99500
H  23.93200 -0.45500 42.98100
H  25.84000 -3.73100 40.64400
H  27.24000 -3.81300 41.72500
H  28.32600 -2.64200 40.36700
H  27.39400 -1.20200 40.56900
H  20.03800 -4.65100 43.27800
H  18.93100 -5.42800 44.49300
H  19.63200 -6.34000 43.18600
H  19.41700 -9.63000 47.69600
H  20.74200 -8.62000 48.25700
H  21.01300 -9.81900 47.02800
H  25.41400 -9.51300 47.73100
H  26.42600 -7.92400 49.99500
H  24.03300 -10.35100 49.11500
H  23.58300 -8.93700 49.86400
H  25.11200 -9.75200 50.36800
H  28.53400 -8.60500 48.08600
H  27.38100 -9.87800 48.18900
H  28.48200 -10.42200 50.11600
H  27.89400 -9.06500 51.01400
H  29.46900 -9.01900 50.20700
H  30.92200 -5.42000 47.73500
H  30.26500 -4.07900 48.75200
H  31.33000 -3.63600 47.49500
H  28.85400 -2.12000 43.17700
H  29.53300 2.16500 43.52100
H  27.95400 2.03700 44.28800
H  28.13400 2.04700 42.57700
Mg 47.17000 15.98100 28.32000
C  45.40100 15.69000 31.25200
C  49.44200 18.02900 29.97900
C  48.77800 16.63700 25.35800
C  44.80800 14.21100 26.55500
N  47.23800 16.96100 30.37000
C  46.46900 16.57300 31.37700
C  47.10600 17.03500 32.74300
C  48.27100 18.00300 32.33000
C  48.34200 17.63500 30.78700
C  48.09000 19.54100 32.52300
C  47.61800 15.84700 33.52000
C  48.03100 16.06200 34.99800
H  47.59200 17.31700 35.72100
N  48.90800 17.14900 27.83600
C  49.78100 17.76900 28.70400
C  50.90100 18.28500 27.97800
C  50.81600 17.78700 26.58900
C  49.45800 17.18800 26.51900
C  51.99600 19.06100 28.62300
C  51.70700 18.01100 25.37100
O  51.47300 17.40800 24.34100
C  52.98800 18.86800 25.46600
N  46.70100 15.68400 26.15700
C  47.58400 15.95600 25.18600
C  47.04700 15.46100 23.78300
C  45.80100 14.59900 24.16600
C  45.74800 14.85200 25.66200
C  46.78500 16.65300 22.78500
C  45.74000 13.10600 23.73800
C  44.74300 12.71600 22.63900
N  45.39700 15.22200 28.74800
C  44.58100 14.47900 27.95800
C  43.46300 14.07700 28.76500
C  43.69000 14.48500 30.09000
C  44.93100 15.16200 30.03100
C  42.24600 13.32700 28.22500
C  43.27300 14.43100 31.45000
O  42.30500 13.92300 31.91700
C  44.38000 15.16600 32.27600
C  43.67800 16.12700 33.19400
O  43.56500 17.30800 32.95800
O  43.16800 15.48000 34.29700
C  42.73700 16.43600 35.27600
H  50.26900 18.44100 30.56100
H  49.22200 16.79100 24.37200
H  44.08700 13.56000 26.05700
H  46.36400 17.65600 33.24600
H  49.20300 17.65700 32.77600
H  48.84300 20.08100 33.09700
H  47.18600 19.63200 33.12400
H  47.94800 20.04300 31.56500
H  48.50700 15.52600 32.97700
H  46.93900 14.99600 33.47300
H  49.11400 16.03500 34.87300
H  47.78600 15.20300 35.62200
H  52.04000 20.04100 28.14800
H  52.92200 18.56200 28.33800
H  51.93900 19.15000 29.70800
H  53.26600 19.09000 24.43500
H  53.84700 18.27800 25.78700
H  52.71700 19.78800 25.98300
H  47.85400 14.85900 23.36500
H  44.86900 15.02900 23.79800
H  47.18600 16.47800 21.78600
H  47.27800 17.54500 23.17100
H  45.73400 16.89000 22.62100
H  45.40000 12.42400 24.51800
H  46.75000 12.82100 23.44300
H  45.02000 11.81200 22.09500
H  44.79000 13.47800 21.86100
H  43.70300 12.53800 22.91300
H  42.59300 12.31000 28.04100
H  41.96200 13.81200 27.29100
H  41.36400 13.40400 28.86100
H  44.78700 14.36600 32.89500
H  43.59500 17.09100 35.42400
H  42.55700 15.98600 36.25200
H  41.86600 17.03700 35.01500

