158

Mg 24.06600 -4.00900 46.30900
C  26.37800 -1.68600 44.93000
C  21.62800 -2.66800 44.41300
C  22.31300 -6.80100 46.76100
C  26.84900 -5.50900 47.92800
N  24.10800 -2.46400 44.76300
C  25.04700 -1.54600 44.41900
C  24.39400 -0.54000 43.51700
C  22.88500 -0.53700 43.77100
C  22.85600 -1.97000 44.33500
C  22.27800 0.52000 44.70400
C  24.73900 -0.89400 42.07000
C  24.99000 0.31400 41.14300
H  24.61500 0.07500 39.68300
N  22.15200 -4.65700 45.69700
C  21.34800 -3.97100 44.86400
C  20.17100 -4.77200 44.61400
C  20.31400 -5.94000 45.37600
C  21.63600 -5.84900 46.01700
C  19.06600 -4.38900 43.64600
C  19.30800 -7.01100 45.43300
O  18.25100 -6.81800 44.86300
C  19.35900 -8.23700 46.19300
N  24.48900 -5.91600 47.28600
C  23.58600 -6.89800 47.34900
C  24.19000 -8.14900 48.00100
C  25.63100 -7.65100 48.44800
C  25.66600 -6.25800 47.84100
C  23.41900 -8.80300 49.14500
C  26.83200 -8.61400 47.95200
C  27.53400 -8.18000 46.62200
N  26.08500 -3.56300 46.67000
C  27.09700 -4.25300 47.33200
C  28.42400 -3.61600 47.17200
C  28.13500 -2.59300 46.25100
C  26.74100 -2.60900 45.91000
C  29.72100 -3.94100 47.92700
C  28.75200 -1.50900 45.49800
O  29.91800 -1.14100 45.56400
C  27.55700 -0.81800 44.62100
C  27.47200 0.67500 44.88200
O  26.62600 1.25300 45.54900
O  28.48100 1.26700 44.14300
C  28.69100 2.73800 44.21300
H  20.76400 -2.12000 44.03100
H  21.78900 -7.75100 46.89000
H  27.68500 -5.89200 48.51900
H  24.79500 0.46400 43.65800
H  22.32600 -0.49100 42.83700
H  22.95600 1.37300 44.68300
H  22.21300 0.20900 45.74700
H  21.34300 0.87600 44.27100
H  23.91000 -1.51700 41.73400
H  25.58000 -1.58100 41.97600
H  26.04100 0.55100 41.31000
H  24.41400 1.11300 41.61000
H  19.01600 -5.17100 42.88900
H  19.12400 -3.37200 43.25900
H  18.19000 -4.43400 44.29300
H  18.46700 -8.81100 45.94200
H  19.35800 -7.98000 47.25200
H  20.22100 -8.85000 45.92900
H  24.40700 -8.95100 47.29500
H  25.69300 -7.51600 49.52800
H  22.44800 -8.34000 49.32200
H  23.96300 -8.86700 50.08700
H  23.19900 -9.78900 48.73600
H  26.52200 -9.62700 47.69800
H  27.52100 -8.76800 48.78200
H  26.81800 -7.78600 45.90000
H  27.99400 -9.06600 46.18300
H  28.32000 -7.44700 46.80000
H  29.66000 -4.92100 48.40000
H  30.02500 -3.19300 48.65900
H  30.45200 -4.00700 47.12200
H  27.87200 -0.89300 43.58100
H  27.72100 3.19500 44.01800
H  29.40200 3.03700 43.44300
H  29.06300 3.03800 45.19200
Mg 28.53800 57.40100 41.76600
C  25.87000 55.39900 40.50700
C  30.69600 55.40500 40.08600
C  30.77500 59.71100 42.19000
C  25.96400 59.68200 42.69200
N  28.33100 55.64600 40.53300
C  27.19800 54.96100 40.15400
C  27.50500 53.85200 39.20900
C  29.00300 53.57000 39.45900
C  29.41300 54.95500 40.14500
C  29.43800 52.52400 40.40400
C  27.10300 54.26100 37.72000
C  26.46300 53.25300 36.81300
H  26.91500 53.22300 35.36600
N  30.56700 57.47100 41.32200
C  31.25000 56.55400 40.57400
C  32.69700 56.94100 40.54400
C  32.73900 58.21900 41.17400
C  31.36900 58.52600 41.64500
C  33.73900 56.03200 39.90500
C  34.03200 58.98600 41.36800
O  35.02900 58.56800 40.86400
C  34.05500 60.19500 42.20400
N  28.36100 59.39100 42.28700
C  29.46000 60.12400 42.50300
C  29.16000 61.52900 42.87000
C  27.61400 61.54300 43.00200
C  27.26700 60.08300 42.72600
C  29.80000 62.02700 44.19700
C  26.86200 62.55900 42.13300
C  25.72700 63.33700 42.74800
N  26.34400 57.45600 41.84100
C  25.50000 58.41400 42.27500
C  24.11500 57.96800 42.15600
C  24.21800 56.73900 41.46200
C  25.58500 56.54300 41.28100
C  22.81400 58.60000 42.72400
C  23.48000 55.69600 40.84900
O  22.28800 55.52300 40.70500
C  24.51600 54.74800 40.13800
C  24.37400 53.42500 40.74200
O  24.75500 53.07800 41.83400
O  23.75000 52.53500 39.85700
C  23.62000 51.08600 40.22800
H  31.41500 54.86100 39.47000
H  31.48400 60.54100 42.23400
H  25.14700 60.34200 42.99300
H  27.02300 52.92100 39.50800
H  29.56300 53.35700 38.54900
H  29.83800 52.88000 41.35300
H  30.14400 51.85100 39.91700
H  28.64700 51.81100 40.63500
H  28.04800 54.44700 37.20900
H  26.54200 55.19500 37.67800
H  25.37700 53.28200 36.90100
H  26.53400 52.29700 37.33100
H  33.74800 56.03500 38.81500
H  33.57000 54.97600 40.11600
H  34.72300 56.17300 40.35100
H  33.76500 60.99700 41.52500
H  35.00000 60.58900 42.57700
H  33.40100 59.93300 43.03500
H  29.47300 62.08200 41.98500
H  27.41400 61.70300 44.06100
H  30.68700 62.57300 43.87800
H  30.10600 61.21000 44.85100
H  29.23800 62.78000 44.74900
H  26.60300 62.15900 41.15200
H  27.65100 63.26600 41.87700
H  26.08000 64.36700 42.78900
H  25.41200 63.06800 43.75600
H  24.87700 63.40100 42.06800
H  22.67800 58.33500 43.77200
H  21.92800 58.24800 42.19500
H  22.76100 59.68300 42.61500
H  24.45000 54.78200 39.05100
H  24.39400 50.59200 40.81600
H  23.57200 50.50700 39.30600
H  22.70900 51.11100 40.82800

