158

Mg 47.63100 34.37500 27.28100
C  45.79100 33.15300 29.90700
C  48.22300 37.22800 29.13900
C  48.96000 35.62900 24.54300
C  46.93800 31.37100 25.48500
N  46.92000 35.21100 29.26200
C  46.39800 34.42100 30.20000
C  46.53700 35.00300 31.65900
C  47.02400 36.46000 31.35100
C  47.36100 36.35000 29.80600
C  45.93500 37.59600 31.49700
C  47.58600 34.19400 32.50400
C  47.48000 34.44100 34.03700
H  48.38500 35.59000 34.61100
N  48.35300 36.20000 26.83200
C  48.56400 37.18800 27.72600
C  49.07900 38.30900 27.07300
C  49.41300 37.87800 25.73800
C  48.90500 36.53500 25.61400
C  49.32000 39.66100 27.75600
C  50.18800 38.58300 24.58900
O  50.24800 38.15600 23.45300
C  50.76100 39.96800 24.90500
N  47.72000 33.64900 25.16800
C  48.50200 34.33200 24.32300
C  48.97100 33.56000 23.09700
C  48.42500 32.12200 23.49900
C  47.61800 32.36600 24.80100
C  48.47500 33.97600 21.72300
C  49.37300 30.91700 23.57400
C  48.78400 29.66100 22.90500
N  46.60100 32.58500 27.58800
C  46.46400 31.46200 26.82300
C  45.69100 30.49600 27.56700
C  45.39800 31.13600 28.73500
C  45.94000 32.36900 28.74300
C  45.26600 29.13300 27.15900
C  44.67000 30.91500 29.95100
O  43.84000 30.07800 30.32600
C  44.71300 32.38800 30.73500
C  45.02900 32.07300 32.14800
O  45.87300 31.27100 32.50700
O  44.11300 32.62600 33.02400
C  43.95600 32.06600 34.31900
H  48.60500 38.10100 29.67200
H  49.58600 36.04200 23.74900
H  46.92400 30.33200 25.14800
H  45.58100 34.92600 32.17600
H  47.94900 36.72000 31.86500
H  45.98900 38.31500 30.67900
H  46.04300 38.17000 32.41700
H  44.91900 37.21200 31.58500
H  48.58300 34.58800 32.30600
H  47.62600 33.13200 32.26200
H  47.94900 33.53700 34.42600
H  46.45300 34.42300 34.40000
H  49.36700 40.44500 27.00100
H  50.24200 39.70200 28.33700
H  48.45800 39.89800 28.38000
H  51.51000 40.07200 24.12000
H  51.20500 40.04800 25.89800
H  49.91100 40.63100 24.74800
H  50.06100 33.55000 23.10300
H  47.71600 31.82700 22.72600
H  47.47200 34.30800 21.98900
H  48.54400 33.09700 21.08200
H  49.05600 34.84900 21.42400
H  49.78300 30.73900 24.56700
H  50.29300 31.15700 23.04100
H  49.29300 29.53800 21.94900
H  47.71500 29.74700 22.71100
H  48.89000 28.83200 23.60400
H  45.38000 28.91300 26.09700
H  44.24000 29.07100 27.52200
H  45.81700 28.32300 27.63700
H  43.74800 32.87400 30.59500
H  43.14800 31.33400 34.33200
H  43.75100 32.81400 35.08400
H  44.81800 31.47000 34.61900
Mg 16.32000 51.51900 25.62900
C  18.09200 50.12900 28.44200
C  13.92800 52.43500 27.91400
C  14.28100 51.87200 23.06600
C  18.83800 50.35600 23.55100
N  16.16900 51.33200 27.98000
C  17.03300 50.85700 28.90900
C  16.58800 51.16000 30.31800
C  15.12300 51.65600 30.11300
C  15.07800 51.86900 28.59100
C  13.96300 50.73300 30.54600
C  17.55600 52.10100 31.05800
C  18.16800 51.61900 32.41500
H  17.30100 50.81500 33.37900
N  14.42600 52.12200 25.45500
C  13.58000 52.59800 26.51200
C  12.32600 52.99700 25.97600
C  12.34300 52.63700 24.57900
C  13.71600 52.21600 24.30100
C  11.20800 53.58900 26.87600
C  11.19600 52.75900 23.58400
O  11.31100 52.41000 22.42100
C  9.90100 53.44000 23.97000
N  16.64000 51.21900 23.58800
C  15.61600 51.47000 22.71300
C  16.12200 51.28900 21.25300
C  17.65300 51.11500 21.43800
C  17.72200 50.86300 22.97900
C  15.45000 50.15400 20.42400
C  18.61200 52.21100 21.03600
C  18.34900 53.67400 21.59800
N  18.14000 50.46700 25.94800
C  19.04300 50.07000 24.94200
C  20.16900 49.41500 25.58400
C  19.78900 49.43100 26.98400
C  18.54400 50.04500 27.08700
C  21.44800 48.96200 25.02200
C  20.29700 49.02900 28.29600
O  21.37700 48.56800 28.66600
C  19.16300 49.49500 29.29100
C  18.67200 48.28400 30.16800
O  17.62700 47.68200 30.03300
O  19.51100 48.11000 31.27500
C  19.09100 47.00800 32.19500
H  13.21500 52.62500 28.71800
H  13.70200 52.20400 22.20100
H  19.69900 49.93500 23.02700
H  16.47600 50.31200 30.99200
H  15.03800 52.56900 30.70100
H  14.31500 49.85300 31.08400
H  13.23000 50.32400 29.85100
H  13.36000 51.21000 31.31800
H  17.10700 53.08200 31.21200
H  18.42300 52.27500 30.42100
H  18.40300 52.43700 33.09700
H  18.99800 50.97200 32.13300
H  10.47800 52.78800 26.99400
H  10.76200 54.42900 26.34300
H  11.74600 54.02100 27.71900
H  9.09000 53.14100 23.30600
H  10.19700 54.48900 23.93700
H  9.71300 53.00800 24.95300
H  16.00400 52.20400 20.67400
H  18.00500 50.22300 20.92000
H  14.37800 49.96400 20.47600
H  15.83400 49.16300 20.66800
H  15.66000 50.27300 19.36100
H  18.55600 52.32600 19.95400
H  19.65000 51.90700 21.17700
H  18.36100 54.44900 20.83200
H  19.14300 53.91700 22.30400
H  17.34300 53.66500 22.01800
H  21.85700 49.60700 24.24300
H  21.29800 47.97200 24.59200
H  22.24600 48.88300 25.76100
H  19.67700 50.27100 29.85900
H  18.50100 46.19800 31.76600
H  18.43500 47.30700 33.01200
H  20.00100 46.53400 32.56400

