158

Mg 36.81700 50.18800 24.59200
C  37.06600 48.38800 27.38800
C  35.56100 52.81900 26.41500
C  35.99500 51.88300 21.60100
C  37.52600 47.42100 22.65000
N  36.40800 50.57600 26.65800
C  36.55300 49.65800 27.64500
C  36.34300 50.32900 29.03300
C  35.57800 51.56600 28.62600
C  35.86300 51.68300 27.14400
C  34.04200 51.62800 28.92300
C  37.79000 50.58500 29.68400
C  38.03300 50.19100 31.13300
H  36.87700 50.34600 32.05900
N  36.01700 52.13100 24.11100
C  35.62200 53.03600 24.98800
C  35.09500 54.25300 24.32000
C  35.25500 53.99900 22.97000
C  35.83600 52.65800 22.81200
C  34.52200 55.47400 25.08400
C  34.71200 54.85900 21.83000
O  34.93500 54.51700 20.60700
C  33.88000 56.06500 22.09000
N  36.70100 49.73400 22.47600
C  36.40100 50.57100 21.47800
C  36.44400 49.90100 20.07100
C  37.22800 48.64400 20.43400
C  37.21300 48.60000 21.96500
C  34.99400 49.78800 19.43700
C  38.59900 48.44700 19.78900
C  39.81000 49.20100 20.35200
N  37.18700 48.21100 24.93100
C  37.60100 47.23700 24.08800
C  37.99700 46.06400 24.82900
C  37.80300 46.44600 26.14600
C  37.37600 47.80100 26.15700
C  38.57400 44.77400 24.19900
C  37.85700 46.03300 27.52700
O  38.11800 44.91600 28.04700
C  37.36500 47.31200 28.38400
C  36.25900 46.89800 29.32900
O  35.14000 46.59200 29.04100
O  36.80900 46.70200 30.57000
C  35.96300 46.23100 31.66500
H  35.11200 53.63000 26.99100
H  35.64100 52.29100 20.65200
H  37.96200 46.62500 22.04300
H  35.74700 49.64800 29.64000
H  35.91600 52.49900 29.07700
H  33.55200 50.90600 29.57700
H  33.45200 51.78100 28.02000
H  33.87100 52.61300 29.35600
H  38.07500 51.63600 29.64800
H  38.60500 50.09700 29.14900
H  38.94700 50.61600 31.54800
H  38.26400 49.12600 31.15700
H  34.90800 55.62400 26.09200
H  33.44100 55.34100 25.11000
H  34.62700 56.38500 24.49400
H  33.48200 56.41300 21.13700
H  34.47300 56.90400 22.45400
H  33.07300 55.89300 22.80200
H  37.04200 50.52700 19.40900
H  36.58100 47.83800 20.08900
H  34.33000 50.62500 19.65000
H  34.50600 48.83400 19.63700
H  35.25000 49.76300 18.37800
H  38.60100 48.50600 18.70100
H  38.74700 47.38600 19.99200
H  39.62100 49.98100 21.08900
H  40.39700 49.61900 19.53400
H  40.46000 48.43300 20.77100
H  39.05300 45.08900 23.27100
H  37.73700 44.13500 23.91800
H  39.40400 44.35400 24.76800
H  38.12500 47.73600 29.04100
H  36.59100 45.61100 32.30500
H  35.17100 45.62200 31.23000
H  35.59500 46.94900 32.39800
Mg -5.74300 24.91200 25.75900
C  -4.12300 26.06700 28.68600
C  -7.66700 22.72000 27.71700
C  -6.62500 23.29600 23.00100
C  -3.25000 26.73200 23.95200
N  -5.80500 24.34500 27.90100
C  -5.12000 25.06300 28.92500
C  -5.66100 24.61000 30.31700
C  -6.58500 23.37400 29.99000
C  -6.75700 23.48000 28.46100
C  -5.98000 21.97300 30.32200
C  -6.51000 25.83000 30.92800
C  -6.30000 26.02500 32.52200
H  -5.49200 24.95200 33.28600
N  -7.14600 23.37000 25.36300
C  -7.82000 22.59500 26.28300
C  -8.67400 21.67600 25.60400
C  -8.44200 21.87400 24.21000
C  -7.37900 22.87200 24.13700
C  -9.58700 20.72500 26.28400
C  -9.02500 21.14700 22.95800
O  -8.68400 21.40500 21.81500
C  -10.12200 20.12400 23.07500
N  -4.98300 25.03300 23.71400
C  -5.57100 24.22200 22.77500
C  -4.93200 24.46400 21.40100
C  -4.05000 25.70500 21.64400
C  -4.02200 25.85400 23.19400
C  -4.11800 23.27200 20.88600
C  -4.57100 26.97400 20.88200
C  -3.65600 27.62200 19.74200
N  -4.11600 26.20800 26.19400
C  -3.26900 26.96800 25.33000
C  -2.46700 27.93700 26.14400
C  -2.80600 27.54600 27.47900
C  -3.76200 26.51700 27.46300
C  -1.40300 28.96700 25.69000
C  -2.37900 27.81200 28.87400
O  -1.54300 28.51900 29.35400
C  -3.36000 26.86400 29.68500
C  -2.57100 26.13000 30.66600
O  -1.99900 25.06900 30.46000
O  -2.65100 26.77400 31.88700
C  -1.73800 26.11100 32.82800
H  -8.17800 21.97100 28.32500
H  -6.81300 22.87000 22.01300
H  -2.67300 27.42800 23.33900
H  -4.79000 24.40000 30.93700
H  -7.60800 23.40600 30.36600
H  -4.96400 21.93100 30.71300
H  -5.99600 21.38900 29.40300
H  -6.77600 21.60000 30.96700
H  -7.57400 25.66700 30.76200
H  -6.26600 26.74900 30.39500
H  -7.31400 26.21900 32.87300
H  -5.75000 26.96300 32.59700
H  -10.58100 20.78100 25.84000
H  -9.81300 20.98200 27.31800
H  -9.27100 19.68200 26.25100
H  -10.25600 19.73900 22.06500
H  -11.02200 20.61500 23.44600
H  -9.73800 19.30700 23.68600
H  -5.74200 24.67300 20.70200
H  -3.05000 25.46000 21.28500
H  -3.62100 22.65200 21.63300
H  -3.30900 23.63200 20.25000
H  -4.69400 22.56500 20.28800
H  -4.60200 27.73500 21.66200
H  -5.59700 26.84000 20.54200
H  -2.74000 27.04100 19.63500
H  -3.32600 28.62300 20.02100
H  -4.16700 27.74700 18.78700
H  -0.64500 29.15100 26.45100
H  -1.82600 29.95000 25.48300
H  -1.06000 28.61500 24.71700
H  -4.09200 27.39300 30.29600
H  -1.86500 26.65000 33.76700
H  -0.73900 26.07900 32.39300
H  -2.00000 25.05500 32.88000

