158

Mg 24.20500 -5.19100 45.72000
C  26.05200 -2.63300 44.13000
C  21.57000 -4.29300 43.72100
C  22.74900 -8.07400 46.56600
C  27.18400 -6.20800 47.39900
N  23.94800 -3.71500 43.96600
C  24.79100 -2.74200 43.62800
C  24.19300 -1.95100 42.47000
C  22.62600 -2.16100 42.72800
C  22.70500 -3.45500 43.50900
C  22.01300 -0.90700 43.47900
C  24.72600 -2.30800 41.06300
C  24.98400 -1.06000 40.18300
H  24.96300 -1.48000 38.73400
N  22.39700 -6.09100 45.20100
C  21.40400 -5.53000 44.40000
C  20.25200 -6.41900 44.30900
C  20.58000 -7.53400 45.14000
C  21.95400 -7.27100 45.72000
C  19.04100 -6.16400 43.45800
C  19.51900 -8.64500 45.48200
O  18.37700 -8.61400 45.00500
C  19.89300 -9.65700 46.50300
N  24.87400 -6.86500 46.96200
C  23.99000 -7.98000 47.13700
C  24.68700 -9.08200 47.90300
C  26.08700 -8.46000 48.22200
C  26.07800 -7.11200 47.46800
C  23.84400 -9.59100 49.07100
C  27.38100 -9.34800 47.91300
C  28.25800 -9.67900 49.15800
N  26.21900 -4.57000 45.83600
C  27.29400 -5.02100 46.63000
C  28.31500 -4.14500 46.42700
C  27.87500 -3.17900 45.49500
C  26.58900 -3.51800 45.13000
C  29.55100 -4.13400 47.11100
C  28.28700 -2.01800 44.77400
O  29.31600 -1.44200 44.70200
C  27.14000 -1.61700 43.81100
C  26.85500 -0.21000 44.03400
O  26.21600 0.20600 44.97500
O  27.46500 0.58000 43.07300
C  27.36400 2.01200 43.21200
H  20.63100 -3.89400 43.33200
H  22.25000 -8.99000 46.88800
H  28.04200 -6.64500 47.91500
H  24.45700 -0.90300 42.61800
H  22.16800 -2.40600 41.77000
H  21.11300 -0.54400 42.98300
H  22.70700 -0.06700 43.51200
H  21.86100 -1.26000 44.49900
H  24.08300 -2.99300 40.50900
H  25.67900 -2.83600 41.06800
H  26.01200 -0.81400 40.44900
H  24.36400 -0.18000 40.35500
H  19.33900 -5.74000 42.49900
H  18.41000 -5.44300 43.97900
H  18.43300 -6.98800 43.08600
H  18.99900 -10.28000 46.54200
H  20.14500 -9.27100 47.49000
H  20.74400 -10.20000 46.09300
H  24.71400 -9.93300 47.22300
H  26.06100 -8.13000 49.26100
H  24.28100 -9.48100 50.06400
H  23.55800 -10.62900 48.90100
H  23.00900 -8.89300 49.12800
H  27.85600 -8.93200 47.02500
H  27.09800 -10.37300 47.67200
H  29.15000 -10.19900 48.80700
H  27.72000 -10.22200 49.93400
H  28.48600 -8.73300 49.64900
H  30.04200 -3.16400 47.19800
H  30.27100 -4.61900 46.45200
H  29.38100 -4.64000 48.06100
H  27.56000 -1.73100 42.81100
H  26.75400 2.37400 42.38500
H  28.35400 2.46600 43.25700
H  26.76700 2.25800 44.09000
Mg 47.08500 16.83700 28.88000
C  45.13300 16.85400 31.86100
C  49.39700 18.53300 30.41900
C  48.58200 17.21600 25.82400
C  44.49600 15.19700 27.18300
N  47.28700 17.45700 30.98700
C  46.38200 17.39100 32.01000
C  46.94100 18.07700 33.30300
C  48.32500 18.64300 32.83400
C  48.34000 18.21900 31.33800
C  48.38600 20.15100 32.98100
C  47.00700 17.07600 34.51100
C  47.46600 17.66700 35.85800
H  47.28700 19.19900 36.21700
N  48.82000 17.56100 28.25500
C  49.68600 18.24100 29.03300
C  50.88200 18.53400 28.32100
C  50.66900 18.12900 26.97900
C  49.29000 17.60200 26.98400
C  52.12500 19.14600 28.95300
C  51.65100 18.28000 25.74100
O  51.33100 17.94400 24.57100
C  53.02600 18.95100 25.90900
N  46.53400 16.28100 26.82800
C  47.31300 16.54200 25.75400
C  46.83500 16.02400 24.41600
C  45.59000 15.25600 24.87300
C  45.47300 15.62800 26.38600
C  46.56900 17.08600 23.33700
C  45.59400 13.76000 24.50200
C  44.99200 13.41300 23.14500
N  45.22400 16.11600 29.43800
C  44.26600 15.48700 28.58600
C  43.07400 15.20700 29.35000
C  43.36300 15.70200 30.64100
C  44.70800 16.26800 30.61100
C  41.84000 14.57900 28.79800
C  42.78600 15.87600 32.01500
O  41.66800 15.52500 32.43900
C  43.91200 16.60600 32.84900
C  43.39900 17.83500 33.59100
O  42.94300 18.81900 33.01200
O  43.39200 17.71700 34.92900
C  42.44600 18.51300 35.66300
H  50.14800 19.13700 30.93300
H  49.17500 17.34600 24.91600
H  43.75300 14.61800 26.63100
H  46.20800 18.84600 33.54900
H  49.15800 18.10300 33.28200
H  47.53600 20.52900 33.55100
H  48.24200 20.61700 32.00700
H  49.26600 20.66400 33.36900
H  47.65600 16.22500 34.30500
H  46.07100 16.55000 34.69700
H  48.50000 17.32300 35.80800
H  46.98300 17.17700 36.70300
H  52.89900 18.37900 28.92900
H  51.83000 19.46200 29.95300
H  52.41200 20.00600 28.34700
H  53.54700 18.46800 26.73500
H  52.82900 19.98100 26.20400
H  53.68400 18.90700 25.04200
H  47.58900 15.29000 24.13100
H  44.64600 15.61100 24.45800
H  46.46500 18.06700 23.80100
H  45.75300 16.81200 22.66900
H  47.54200 17.13900 22.84900
H  45.15400 13.16100 25.30000
H  46.65000 13.49500 24.46800
H  43.97300 13.07000 23.32100
H  45.53000 12.58200 22.68900
H  44.93900 14.17400 22.36600
H  41.69000 14.88400 27.76300
H  40.99500 14.88900 29.41200
H  41.92100 13.50500 28.96700
H  44.34700 16.05400 33.68200
H  42.66600 19.57200 35.53300
H  42.57400 18.25100 36.71400
H  41.42900 18.19300 35.43700

