158

Mg 41.03100 41.20300 26.11400
C  40.79100 43.80400 28.62100
C  42.02300 39.07900 28.67600
C  42.19400 38.90000 23.74900
C  40.77100 43.64500 23.75200
N  41.36800 41.43800 28.40100
C  40.98400 42.48900 29.15600
C  40.82800 42.22000 30.64000
C  41.34000 40.67900 30.74800
C  41.60100 40.36100 29.21400
C  42.54100 40.51000 31.70900
C  39.27600 42.40400 31.03200
C  38.94300 43.19900 32.33700
H  39.71300 42.86000 33.67400
N  41.93500 39.21300 26.15400
C  42.33400 38.55100 27.32800
C  42.97400 37.30300 26.96400
C  42.90400 37.23500 25.56600
C  42.35000 38.47600 25.06400
C  43.48600 36.25300 28.00900
C  43.43800 36.06600 24.71800
O  43.39600 36.23000 23.51000
C  43.98800 34.77000 25.33400
N  41.33800 41.22100 24.10400
C  41.59000 40.07100 23.33200
C  41.59400 40.47900 21.85100
C  40.93900 41.84900 21.81300
C  40.95100 42.28100 23.29900
C  43.01100 40.42800 21.14400
C  39.49700 41.78000 21.21400
C  38.37600 41.20000 22.19900
N  40.68600 43.30200 26.14300
C  40.60000 44.21000 25.03800
C  40.36300 45.47600 25.55100
C  40.28900 45.37500 26.96000
C  40.61100 44.04400 27.24500
C  40.26400 46.66800 24.70200
C  40.12600 46.08700 28.17200
O  39.82700 47.24000 28.27800
C  40.39300 45.09400 29.32600
C  41.46700 45.64700 30.16600
O  42.58500 46.04900 29.84400
O  40.92200 45.82300 31.42500
C  41.88500 46.25700 32.50700
H  42.25000 38.39300 29.49500
H  42.22200 38.08800 23.01900
H  40.62400 44.43000 23.00800
H  41.51000 42.89000 31.16300
H  40.50500 40.05500 31.06800
H  43.35800 40.17700 31.06900
H  42.18400 39.87500 32.52000
H  42.84600 41.48900 32.08100
H  38.81100 41.42100 31.10500
H  38.74500 42.89300 30.21600
H  37.96900 42.77800 32.58800
H  38.81700 44.26700 32.16400
H  42.93000 35.32500 27.87800
H  43.35100 36.57200 29.04200
H  44.54300 36.03000 27.85900
H  43.35600 34.35100 26.11700
H  44.89400 35.11100 25.83500
H  44.21000 34.04600 24.55000
H  41.00100 39.73100 21.32500
H  41.58200 42.48700 21.20600
H  43.06500 39.38900 20.81900
H  43.83500 40.47400 21.85500
H  43.21600 41.17200 20.37400
H  39.47300 41.22600 20.27500
H  39.24800 42.81300 20.97200
H  38.74600 40.96600 23.19700
H  37.86900 40.31300 21.81700
H  37.55000 41.90000 22.32400
H  41.18000 46.64900 24.11000
H  40.18400 47.54200 25.34800
H  39.42200 46.48600 24.03500
H  39.40600 45.05000 29.78700
H  41.43500 46.06800 33.48100
H  41.89500 47.34600 32.46500
H  42.92700 45.93700 32.47100
Mg -11.71500 37.82700 42.03900
C  -9.10900 35.32800 41.33200
C  -9.76000 40.13200 40.67900
C  -14.33600 39.69100 42.32200
C  -13.73100 35.03000 43.06400
N  -9.56000 37.71500 41.04600
C  -8.74100 36.61100 40.82700
C  -7.68900 37.07200 39.82900
C  -7.66500 38.67200 39.99800
C  -9.09300 38.86000 40.60800
C  -6.55700 39.17400 41.02000
C  -7.80400 36.57700 38.34000
C  -6.53000 35.99500 37.75200
H  -5.63200 36.69900 36.75900
N  -11.96700 39.66700 41.59800
C  -11.01700 40.48600 41.09200
C  -11.51600 41.82400 41.08500
C  -12.85800 41.72400 41.52900
C  -13.13600 40.28100 41.78900
C  -10.79800 42.96400 40.49600
C  -13.82400 42.91500 41.64900
O  -13.35700 44.02400 41.37700
C  -15.27100 42.76600 42.01500
N  -13.85900 37.38000 42.40300
C  -14.73100 38.41900 42.61800
C  -16.14800 37.92400 42.98100
C  -15.90800 36.37900 43.29600
C  -14.37900 36.25100 42.91500
C  -16.77600 38.68800 44.12000
C  -16.72600 35.39400 42.46600
C  -18.07100 35.06500 42.98300
N  -11.53400 35.63100 42.27800
C  -12.37500 34.72400 42.73600
C  -11.68000 33.46500 42.88700
C  -10.48300 33.66300 42.27500
C  -10.38200 35.01500 41.94700
C  -12.30500 32.21500 43.57700
C  -9.24400 33.04700 41.97600
O  -8.91400 31.89600 42.25900
C  -8.26900 34.11000 41.25500
C  -7.00400 34.17400 42.06600
O  -6.81600 34.67600 43.15700
O  -6.06200 33.35900 41.39000
C  -4.96900 33.07300 42.28900
H  -9.11100 40.94400 40.34400
H  -15.16700 40.39200 42.41700
H  -14.32700 34.21900 43.48900
H  -6.75300 36.81500 40.32500
H  -7.67400 39.14900 39.01800
H  -6.87700 39.16200 42.06200
H  -6.21300 40.15900 40.70500
H  -5.64400 38.59900 41.17500
H  -7.91700 37.43000 37.67000
H  -8.65300 35.90700 38.20000
H  -6.84400 35.07700 37.25400
H  -5.83700 35.80900 38.57300
H  -11.02500 43.16900 39.45000
H  -9.73800 42.87000 40.73200
H  -10.95200 43.87700 41.07200
H  -15.74000 42.37500 41.11200
H  -15.61300 43.79900 42.07000
H  -15.36700 42.24800 42.96900
H  -16.84100 38.06900 42.15200
H  -16.17100 36.09900 44.31600
H  -17.75800 38.94800 43.72500
H  -16.18300 39.55600 44.40700
H  -16.92600 38.17100 45.06800
H  -16.15500 34.49400 42.23800
H  -16.83300 35.85500 41.48400
H  -18.07900 33.97500 42.98400
H  -18.74900 35.46700 42.23000
H  -18.25700 35.43500 43.99100
H  -11.88100 31.30900 43.14300
H  -13.38200 32.28100 43.42400
H  -12.26700 32.20600 44.66600
H  -8.08700 33.63900 40.29000
H  -5.36400 32.37100 43.02300
H  -4.54900 33.94100 42.79500
H  -4.11100 32.60800 41.80200

