158

Mg 54.37100 24.19800 45.42200
C  52.04300 26.50100 44.56800
C  52.55700 21.77000 43.89500
C  57.10700 22.01200 45.49300
C  56.47100 26.67100 46.69700
N  52.47800 24.18300 44.38200
C  51.65100 25.24900 44.12500
C  50.37700 24.80800 43.34200
C  50.46400 23.29200 43.55500
C  51.92900 23.00700 44.06700
C  49.35700 22.63100 44.47200
C  50.37300 25.42100 41.94300
C  50.73300 24.49700 40.80700
H  50.94300 25.01200 39.31200
N  54.74500 22.12000 45.00900
C  53.85400 21.33700 44.33400
C  54.37900 19.96300 44.30800
C  55.70500 20.03400 44.64700
C  55.91500 21.41400 45.11600
C  53.52900 18.79300 43.84200
C  56.67400 18.86100 44.65500
O  56.31100 17.76400 44.24900
C  57.98400 18.95700 45.24000
N  56.44300 24.34800 46.12400
C  57.38200 23.31000 45.92700
C  58.78500 23.67300 46.53900
C  58.57000 25.20500 46.92300
C  57.07800 25.41200 46.61500
C  59.27100 22.75900 47.63300
C  59.48100 26.27000 46.32000
C  60.12200 27.21800 47.40600
N  54.33600 26.21100 45.48700
C  55.24600 27.08000 46.17700
C  54.54700 28.37500 46.23200
C  53.32400 28.20600 45.58200
C  53.27100 26.89200 45.10500
C  55.06900 29.65200 46.90700
C  52.13100 28.88100 45.22300
O  51.78500 30.04000 45.31300
C  51.21900 27.78700 44.61800
C  50.67000 28.23400 43.26800
O  51.34900 28.65900 42.37200
O  49.31300 28.09900 43.23300
C  48.57100 28.68200 42.03200
H  51.80600 21.01600 43.65200
H  58.00400 21.39200 45.55800
H  57.05000 27.55400 46.97600
H  49.47800 25.15300 43.85100
H  50.47900 22.68600 42.64900
H  48.61900 23.32400 44.87600
H  49.78900 21.90100 45.15600
H  48.81400 21.96500 43.80100
H  51.16700 26.15200 41.79200
H  49.40900 25.86400 41.69200
H  49.94100 23.75300 40.72000
H  51.56300 23.86700 41.12500
H  53.55100 18.72900 42.75400
H  52.47800 18.93500 44.09500
H  53.80800 17.83400 44.27700
H  58.51700 18.00700 45.19800
H  57.94800 19.19100 46.30500
H  58.58800 19.66300 44.67100
H  59.43300 23.51400 45.67700
H  58.64500 25.36300 47.99900
H  59.81800 21.93200 47.17900
H  58.51400 22.36000 48.30900
H  59.99600 23.20800 48.31100
H  58.76700 26.83200 45.71900
H  60.19700 25.65500 45.77400
H  60.77700 26.58500 48.00400
H  59.33500 27.52000 48.09700
H  60.41000 28.12300 46.87100
H  55.26200 30.38200 46.12100
H  55.97200 29.42300 47.47300
H  54.36400 30.06300 47.63000
H  50.34400 27.67800 45.25800
H  48.31000 27.98900 41.23200
H  49.01800 29.56100 41.56700
H  47.67000 29.14500 42.43200
Mg 26.40400 49.56500 25.61600
C  24.57400 50.94100 28.33100
C  28.65900 48.40300 28.02100
C  28.15600 48.31200 23.17800
C  24.03100 50.90300 23.42600
N  26.56600 49.76600 27.99500
C  25.67100 50.27300 28.83500
C  25.97500 49.93000 30.27400
C  27.40100 49.28900 30.15900
C  27.52400 49.06300 28.63000
C  28.67100 50.07300 30.65000
C  24.85100 49.09600 30.98900
C  25.33200 48.32600 32.29700
H  24.70400 48.52300 33.64000
N  28.25600 48.43400 25.59200
C  29.02000 48.09200 26.65700
C  30.24600 47.36200 26.09100
C  30.10000 47.34200 24.63400
C  28.81900 48.06800 24.41400
C  31.36000 46.88200 26.98100
C  31.11700 46.86700 23.53900
O  30.88100 47.13000 22.35000
C  32.44600 46.24100 23.85400
N  26.14500 49.65700 23.51600
C  26.97000 48.86700 22.78800
C  26.47000 48.89900 21.26900
C  25.07400 49.58900 21.42900
C  25.10000 50.17800 22.83300
C  27.41100 49.50200 20.18000
C  23.82500 48.73300 21.07500
C  23.60700 47.50000 21.96300
N  24.72300 50.79800 25.78200
C  23.85400 51.32600 24.80300
C  22.88000 52.13000 25.49100
C  23.09400 51.94100 26.86700
C  24.24800 51.17600 26.97300
C  21.74600 52.85500 24.82600
C  22.55600 52.24800 28.15500
O  21.51000 52.74700 28.51500
C  23.53500 51.57700 29.16800
C  24.04200 52.58400 30.10900
O  24.84600 53.41400 29.78900
O  23.51500 52.37600 31.35600
C  23.96500 53.33200 32.36400
H  29.38000 47.98800 28.72900
H  28.63100 47.76700 22.35900
H  23.28700 51.28700 22.72600
H  25.98600 50.88500 30.79800
H  27.48200 48.34200 30.69300
H  29.17700 50.38300 29.73600
H  29.21800 49.27000 31.14400
H  28.37700 50.90000 31.29600
H  24.33000 48.47300 30.26100
H  24.08900 49.81700 31.28500
H  26.35400 48.66300 32.46500
H  25.39100 47.26700 32.04500
H  32.33900 46.70900 26.53300
H  30.89800 46.09000 27.57100
H  31.48700 47.73100 27.65300
H  32.83200 45.71300 22.98200
H  32.15600 45.46500 24.56200
H  33.19700 46.89700 24.29300
H  26.21800 47.88500 20.95900
H  25.04000 50.44300 20.75300
H  26.98000 50.36200 19.66700
H  27.45000 48.77300 19.37000
H  28.38900 49.59500 20.65100
H  23.74800 48.45500 20.02400
H  22.93700 49.33600 21.26400
H  24.07800 47.73600 22.91700
H  24.21600 46.66000 21.62900
H  22.52900 47.36600 22.05100
H  22.12800 53.47700 24.01700
H  21.17000 53.42300 25.55700
H  21.08400 52.08600 24.42800
H  22.94300 50.82500 29.69000
H  23.60500 52.89300 33.29400
H  23.59900 54.35800 32.32900
H  25.04700 53.30500 32.49400

