158

Mg 1.77800 -2.20400 43.12600
C  5.15100 -1.50000 42.35000
C  0.98000 0.69200 41.45000
C  -1.40100 -3.11600 43.23200
C  2.77500 -5.48900 43.90700
N  3.00700 -0.66800 41.95100
C  4.31300 -0.53700 41.88800
C  4.71900 0.84000 41.20500
C  3.35200 1.57100 41.11300
C  2.38000 0.46400 41.50800
C  3.19100 2.88900 42.00500
C  5.48700 0.68500 39.86300
C  6.49100 1.76400 39.59900
H  6.62300 2.41900 38.18400
N  -0.00200 -1.23900 42.53300
C  -0.11500 -0.01700 41.93800
C  -1.51100 0.33800 41.86700
C  -2.21400 -0.81800 42.31900
C  -1.23100 -1.79700 42.77200
C  -1.92100 1.63800 41.20800
C  -3.75800 -0.96000 42.36200
O  -4.55500 -0.08300 42.00800
C  -4.42800 -2.12200 43.08000
N  0.81000 -4.06200 43.45300
C  -0.49800 -4.15400 43.53100
C  -0.94600 -5.49700 44.17600
C  0.41100 -6.32300 44.18600
C  1.37100 -5.28200 43.69600
C  -1.73400 -5.48300 45.44400
C  0.33200 -7.63300 43.35900
C  1.28700 -8.78200 43.73200
N  3.56300 -3.29400 43.24600
C  3.84100 -4.57100 43.63700
C  5.28400 -4.75600 43.81200
C  5.79900 -3.62800 43.27700
C  4.72200 -2.76100 42.87800
C  5.90200 -6.04200 44.40700
C  7.04400 -2.89200 42.97800
O  8.21900 -3.11900 43.13000
C  6.59500 -1.49300 42.39600
C  7.02400 -0.39200 43.30500
O  6.67800 -0.16800 44.43800
O  7.97600 0.35000 42.71800
C  8.60100 1.40500 43.56700
H  0.73800 1.65700 40.99900
H  -2.41600 -3.50300 43.34600
H  3.11700 -6.46200 44.26600
H  5.39600 1.38900 41.86000
H  3.00700 1.87500 40.12500
H  3.86800 2.85000 42.85800
H  2.19900 2.99600 42.44300
H  3.44800 3.75300 41.39200
H  4.80300 0.74900 39.01600
H  5.99100 -0.28000 39.82100
H  7.44900 1.28400 39.79800
H  6.34100 2.67500 40.18000
H  -1.77100 1.53700 40.13300
H  -1.24900 2.44500 41.49900
H  -2.94600 1.95600 41.39900
H  -5.47900 -1.86900 43.21400
H  -3.91200 -2.24800 44.03200
H  -4.35400 -3.04900 42.51100
H  -1.55000 -6.00800 43.42600
H  0.60400 -6.49100 45.24500
H  -1.60800 -4.52600 45.95100
H  -1.47800 -6.26400 46.15900
H  -2.80000 -5.59200 45.24200
H  0.57700 -7.51400 42.30400
H  -0.67400 -8.05200 43.33600
H  1.83600 -8.65500 44.66500
H  1.96400 -9.05400 42.92200
H  0.59300 -9.62100 43.78800
H  6.95300 -5.96600 44.68600
H  5.78900 -6.93900 43.79800
H  5.36600 -6.18100 45.34600
H  7.05500 -1.41400 41.41100
H  9.59100 1.49100 43.12100
H  8.55000 1.43700 44.65500
H  8.06800 2.32300 43.31800
Mg 24.76300 -6.67400 45.86800
C  26.83600 -4.12500 44.32500
C  22.25800 -5.58300 43.82400
C  23.26200 -9.49100 46.41200
C  27.63000 -7.71600 47.59100
N  24.64200 -5.05900 44.22200
C  25.56700 -4.13300 43.75200
C  24.84400 -3.06200 42.86000
C  23.35100 -3.49800 42.90700
C  23.40700 -4.77900 43.72400
C  22.29900 -2.46700 43.50900
C  25.44500 -3.02500 41.47200
C  25.69800 -1.63800 40.76600
H  25.06700 -1.33000 39.38300
N  22.95800 -7.42700 45.35300
C  22.06500 -6.80900 44.50200
C  20.94700 -7.64100 44.27200
C  21.19200 -8.78100 45.05100
C  22.48600 -8.59300 45.64100
C  19.73500 -7.29200 43.51900
C  20.25800 -9.99300 45.13400
O  19.08200 -9.94300 44.70600
C  20.72700 -11.18300 45.74400
N  25.41700 -8.42900 46.75800
C  24.54500 -9.44500 46.97100
C  25.31100 -10.62500 47.66200
C  26.57800 -9.95700 48.22600
C  26.58800 -8.65200 47.47100
C  24.52000 -11.47800 48.68000
C  27.92000 -10.84500 48.09300
C  29.11800 -10.69900 49.10300
N  26.85100 -6.01200 46.09200
C  27.79200 -6.54800 46.78300
C  29.02400 -5.70600 46.61600
C  28.65000 -4.70800 45.64100
C  27.31500 -5.00100 45.31800
C  30.31700 -5.78100 47.38700
C  29.16300 -3.62600 44.87600
O  30.33000 -3.25200 44.72300
C  27.99300 -3.20300 43.92900
C  27.61600 -1.79000 44.25100
O  27.22400 -1.29500 45.34700
O  27.87300 -0.99300 43.14400
C  27.57600 0.47900 43.11100
H  21.42300 -5.18200 43.24600
H  22.87500 -10.47600 46.68400
H  28.49500 -8.10500 48.13200
H  24.96800 -2.05700 43.26400
H  22.96600 -3.74100 41.91700
H  22.66200 -1.46100 43.71500
H  21.84000 -2.73100 44.46200
H  21.50700 -2.47100 42.76000
H  24.82000 -3.48600 40.70800
H  26.33200 -3.65000 41.57600
H  26.76700 -1.62600 40.55400
H  25.39900 -0.77200 41.35700
H  19.01900 -8.09300 43.33600
H  20.03300 -6.79300 42.59700
H  19.14300 -6.56000 44.06900
H  19.90600 -11.88500 45.88800
H  21.05100 -10.82200 46.72000
H  21.53800 -11.63300 45.17100
H  25.54500 -11.23200 46.78700
H  26.46000 -9.76100 49.29100
H  23.46300 -11.21200 48.66600
H  24.85600 -11.19200 49.67700
H  24.57100 -12.55300 48.50800
H  28.36100 -10.64900 47.11600
H  27.57800 -11.88000 48.06400
H  29.46900 -11.60000 49.60600
H  28.93400 -9.98000 49.90200
H  29.98100 -10.26900 48.59500
H  30.90300 -4.92200 47.06000
H  30.81900 -6.70000 47.08300
H  30.11300 -5.73600 48.45600
H  28.17000 -3.39100 42.87000
H  26.96900 0.62900 42.21800
H  28.49200 1.03200 42.90600
H  27.03400 0.74400 44.02000

