158

Mg -1.84900 17.13600 27.80100
C  -2.29300 14.96300 30.53700
C  -2.25500 19.73100 30.04400
C  -1.78000 19.38100 25.22100
C  -2.06100 14.46000 25.71300
N  -2.00400 17.35400 30.05700
C  -2.25200 16.31900 30.97000
C  -2.45400 16.85000 32.43200
C  -2.37700 18.40400 32.16800
C  -2.21900 18.49000 30.65900
C  -3.57500 19.25300 32.74900
C  -1.38300 16.23500 33.44400
C  -0.69300 17.09400 34.47100
H  -0.29100 16.56200 35.82300
N  -1.97100 19.23600 27.67900
C  -2.02000 20.13100 28.71100
C  -1.90500 21.45900 28.22000
C  -1.68700 21.42300 26.84000
C  -1.88500 19.95700 26.49800
C  -1.98400 22.69200 29.12000
C  -1.46600 22.55600 25.83800
O  -1.36900 22.28000 24.67500
C  -1.30700 24.01000 26.21600
N  -1.89100 16.94300 25.79600
C  -1.88500 18.01800 24.90200
C  -2.08700 17.59500 23.42900
C  -2.16100 15.98700 23.63100
C  -2.04500 15.78200 25.15500
C  -3.33200 18.14700 22.62400
C  -1.18600 15.10700 22.79400
C  0.23500 14.86700 23.31900
N  -1.91600 15.15700 27.97800
C  -2.00500 14.18200 27.07600
C  -2.12000 12.85500 27.64600
C  -2.15000 13.08200 29.02400
C  -2.12400 14.52100 29.18600
C  -2.26200 11.55600 26.87200
C  -2.37100 12.41100 30.25000
O  -2.52300 11.26500 30.50300
C  -2.50700 13.68000 31.33100
C  -1.35800 13.22400 32.22600
O  -0.15400 13.40800 31.99100
O  -1.75600 12.58800 33.37100
C  -0.73200 12.52700 34.41200
H  -2.47400 20.51100 30.77700
H  -1.88300 20.09500 24.40200
H  -2.04700 13.60900 25.02900
H  -3.44200 16.47600 32.70300
H  -1.51200 18.89000 32.62000
H  -3.22500 19.93100 33.52800
H  -4.13200 18.45300 33.23600
H  -4.06300 19.77000 31.92300
H  -0.64400 15.79200 32.77600
H  -1.98300 15.44700 33.90000
H  -1.26300 17.99100 34.71100
H  0.16900 17.51300 33.95200
H  -2.88800 23.22700 28.83200
H  -1.02800 23.20700 29.02300
H  -2.14200 22.46800 30.17500
H  -0.95500 24.57200 25.35000
H  -0.64400 23.97400 27.08100
H  -2.30300 24.30100 26.54800
H  -1.19300 17.84500 22.85800
H  -3.16900 15.59500 23.49800
H  -4.15500 17.43400 22.56700
H  -2.94100 18.41900 21.64400
H  -3.61000 19.00200 23.24000
H  -0.96600 15.72700 21.92500
H  -1.68000 14.24200 22.35100
H  0.83400 15.67200 22.89300
H  0.47300 13.85000 23.00900
H  0.41100 14.97700 24.38900
H  -1.62700 11.48200 25.98900
H  -3.32300 11.48900 26.63100
H  -2.11400 10.73200 27.56900
H  -3.38500 13.64900 31.97600
H  -0.24100 11.56400 34.27400
H  -1.33600 12.60400 35.31600
H  0.07700 13.24900 34.52000
Mg 0.85400 42.72800 26.42400
C  1.98900 43.42500 29.65000
C  -2.13500 41.52000 27.81400
C  -0.12300 41.99100 23.32200
C  3.88700 43.63500 25.16300
N  -0.04000 42.63000 28.59600
C  0.61800 43.04400 29.69500
C  -0.32300 42.91500 30.92100
C  -1.52500 42.17000 30.35500
C  -1.15700 41.97000 28.81700
C  -2.01100 40.76900 31.05100
C  -0.69900 44.24300 31.77900
C  0.01100 44.39700 33.07600
H  -0.61200 43.73500 34.46100
N  -0.82900 41.92600 25.71700
C  -1.96200 41.53800 26.41300
C  -2.93900 41.05800 25.52300
C  -2.39400 41.25400 24.21100
C  -1.06800 41.82700 24.37000
C  -4.41300 40.55900 25.93400
C  -3.05600 40.85800 22.88100
O  -2.75400 41.18600 21.79100
C  -4.33400 39.95500 22.89900
N  1.84600 42.59600 24.51500
C  1.16700 42.39900 23.36200
C  1.96700 42.64100 22.11500
C  3.16800 43.37800 22.76900
C  2.94300 43.20700 24.21900
C  2.37600 41.31300 21.35000
C  3.24600 44.83400 22.22700
C  3.26100 45.07200 20.72900
N  2.63100 43.28700 27.21800
C  3.79300 43.57300 26.55000
C  4.79600 43.99700 27.52300
C  4.08400 43.95000 28.73600
C  2.77500 43.48400 28.49800
C  6.15700 44.51900 27.32600
C  4.29100 44.17900 30.16000
O  5.26000 44.56800 30.82900
C  2.93800 43.75300 30.84900
C  3.08500 42.57000 31.79300
O  3.15500 41.43000 31.34800
O  3.26400 43.00500 33.04500
C  3.57300 41.93000 34.02200
H  -3.06900 41.06900 28.15800
H  -0.55900 41.91300 22.32400
H  4.72500 44.24400 24.81700
H  0.00200 42.22500 31.70100
H  -2.45600 42.70400 30.54600
H  -2.02600 39.93700 30.34600
H  -3.00800 40.88600 31.47600
H  -1.41100 40.44500 31.90200
H  -1.78000 44.31500 31.90500
H  -0.43100 45.13200 31.20800
H  -0.00100 45.47800 33.21600
H  1.06500 44.13200 32.99400
H  -5.18500 40.94600 25.26800
H  -4.74400 40.90700 26.91300
H  -4.45100 39.47000 25.94800
H  -5.23600 40.39100 23.32900
H  -4.01400 38.96900 23.23700
H  -4.51100 39.72800 21.84800
H  1.37400 43.30100 21.48300
H  4.14200 42.97100 22.49600
H  1.99000 40.46100 21.90900
H  3.41700 41.13500 21.08000
H  1.82600 41.29300 20.40900
H  4.16600 45.29000 22.59200
H  2.47700 45.47900 22.65300
H  4.08000 45.78300 20.62400
H  2.41800 45.64900 20.35000
H  3.64600 44.22600 20.16000
H  6.41700 45.24900 28.09200
H  6.11200 45.02900 26.36400
H  6.92300 43.74600 27.26100
H  2.43300 44.50300 31.45700
H  3.21000 40.97400 33.64700
H  3.05800 42.03300 34.97800
H  4.65400 41.89800 34.15400

