158

Mg -2.31500 17.24400 27.28200
C  -2.82900 15.39700 30.15600
C  -2.82600 20.12600 29.22200
C  -2.44200 19.13700 24.53500
C  -2.29700 14.33100 25.39900
N  -2.71800 17.63400 29.50600
C  -2.77700 16.75000 30.51000
C  -2.89300 17.43200 31.79000
C  -3.11900 18.88200 31.46800
C  -2.77200 18.87200 29.99300
C  -4.39800 19.55600 31.98000
C  -1.70200 17.19300 32.76000
C  -1.50600 18.05600 34.07800
H  -1.14100 17.39100 35.42700
N  -2.49900 19.35500 26.98400
C  -2.80800 20.31100 27.84200
C  -2.91700 21.56700 27.16300
C  -2.51400 21.35400 25.77600
C  -2.43000 19.86600 25.70400
C  -3.24100 22.86200 27.98000
C  -2.42100 22.36300 24.63100
O  -2.20500 22.02400 23.50500
C  -2.61800 23.81100 24.92200
N  -2.46400 16.67900 25.24300
C  -2.48600 17.68700 24.34400
C  -2.50800 17.07600 22.89600
C  -2.11200 15.63200 23.21500
C  -2.36000 15.47900 24.65600
C  -3.96800 17.28800 22.26500
C  -0.71500 15.20700 22.83300
C  0.41600 16.11700 23.17200
N  -2.40900 15.20400 27.66300
C  -2.41300 14.18600 26.80600
C  -2.58100 12.92000 27.52500
C  -2.69500 13.35300 28.85300
C  -2.59300 14.72300 28.90400
C  -2.80800 11.50200 26.99200
C  -3.05400 12.90100 30.20000
O  -3.38000 11.83100 30.77900
C  -2.93700 14.16900 31.07900
C  -1.73000 13.86500 31.83800
O  -0.62300 14.24600 31.52300
O  -2.01300 13.43500 33.04800
C  -0.92000 13.41100 34.09900
H  -3.03700 20.99800 29.84400
H  -2.47500 19.68100 23.58900
H  -1.98700 13.45400 24.82700
H  -3.80700 17.14400 32.30900
H  -2.27400 19.42400 31.89300
H  -4.12900 20.32400 32.70600
H  -4.97400 18.83300 32.55800
H  -5.04300 19.91500 31.17900
H  -0.79800 17.29200 32.16000
H  -1.69200 16.21300 33.23700
H  -2.26600 18.82900 34.19300
H  -0.57000 18.56000 33.83800
H  -3.65000 22.68100 28.97400
H  -3.95900 23.47500 27.43500
H  -2.38900 23.52300 28.14100
H  -2.32300 24.33600 24.01300
H  -2.02300 24.09500 25.79000
H  -3.69700 23.89400 25.05200
H  -1.80500 17.61800 22.26300
H  -2.73400 14.84500 22.78800
H  -4.54100 17.97500 22.88700
H  -4.57300 16.39100 22.39200
H  -3.81400 17.50700 21.20800
H  -0.76900 15.16100 21.74600
H  -0.45700 14.17700 23.08100
H  -0.08100 16.64100 23.98800
H  0.77900 16.81100 22.41500
H  1.24300 15.54100 23.58700
H  -3.85000 11.40100 27.29400
H  -2.10400 10.92300 27.58900
H  -2.73100 11.38400 25.91100
H  -3.81700 14.24000 31.71700
H  -0.87600 14.33600 34.67300
H  0.12000 13.32300 33.78300
H  -0.86500 12.64000 34.86700
Mg 42.19900 41.12600 25.97000
C  41.35600 43.41400 28.39900
C  42.95900 38.89600 28.44600
C  42.82700 38.87800 23.52800
C  41.57000 43.55100 23.44700
N  42.21800 41.17100 28.05900
C  41.82500 42.20700 28.86400
C  41.78300 41.93200 30.37600
C  42.37900 40.45500 30.32000
C  42.54200 40.15800 28.83600
C  43.72700 40.39200 31.16600
C  40.35600 42.08600 31.11000
C  40.13000 41.05000 32.28400
H  39.19200 41.54000 33.42200
N  42.96500 39.11300 25.98900
C  43.20000 38.37100 27.13200
C  43.58800 37.01200 26.66100
C  43.42700 36.99300 25.27500
C  43.05100 38.34800 24.84100
C  43.83400 35.85100 27.65200
C  43.74000 35.94100 24.26000
O  43.46700 36.03800 23.06200
C  44.37000 34.67500 24.74000
N  42.54100 41.33100 23.71300
C  42.55100 40.14600 23.00900
C  42.45200 40.43000 21.46500
C  41.77800 41.86000 21.55000
C  41.98400 42.30800 22.93900
C  43.81500 40.24000 20.76100
C  40.35700 42.11500 20.97500
C  40.34400 43.21600 19.83800
N  41.51500 43.14800 25.87400
C  41.41600 44.01400 24.83100
C  40.90700 45.26300 25.38000
C  40.94100 45.10100 26.80500
C  41.27600 43.75300 27.00200
C  40.54700 46.48500 24.61800
C  40.69600 45.81800 27.99600
O  40.30100 47.01600 28.19100
C  40.89400 44.67300 29.11200
C  41.95700 45.22500 30.01600
O  43.14800 45.47500 29.82200
O  41.34400 45.45900 31.20900
C  42.10900 45.99300 32.37000
H  43.05900 38.10600 29.19400
H  42.95900 38.16600 22.71000
H  41.32600 44.21900 22.61800
H  42.35300 42.70100 30.89600
H  41.67800 39.67700 30.62300
H  43.66000 39.68100 31.98900
H  43.94700 41.32800 31.67900
H  44.59400 40.12400 30.56300
H  39.56900 41.94400 30.36900
H  40.30100 43.09600 31.51500
H  41.08200 40.70600 32.68800
H  39.57500 40.23000 31.82800
H  43.56200 36.25600 28.62700
H  44.89500 35.60200 27.68300
H  43.11100 35.05500 27.47800
H  44.68400 34.10900 23.86200
H  43.59900 34.16100 25.31300
H  45.25600 34.90000 25.33300
H  41.65700 39.81700 21.04100
H  42.46000 42.45300 20.94100
H  44.66400 39.94900 21.37900
H  44.10400 41.11300 20.17600
H  43.60700 39.36700 20.14300
H  39.72300 42.42100 21.80700
H  39.94300 41.21400 20.52200
H  39.55200 43.93400 20.05300
H  40.06600 42.87800 18.84000
H  41.28700 43.75200 19.73000
H  39.72400 46.98500 25.12900
H  40.35000 46.15100 23.59900
H  41.41600 47.13800 24.53400
H  39.99000 44.37900 29.64500
H  43.17000 46.19200 32.22500
H  42.03200 45.25200 33.16600
H  41.80200 46.95700 32.77400

