158

Mg 25.45200 1.03100 29.24300
C  27.39600 0.94600 32.23600
C  22.67600 1.16500 31.28900
C  23.59100 0.65800 26.57100
C  28.43100 0.19000 27.47700
N  25.08600 1.04600 31.47100
C  26.03200 1.18100 32.51700
C  25.40600 1.50100 33.85600
C  23.93900 1.35300 33.46400
C  23.86200 1.08600 31.96500
C  23.18700 0.33800 34.33600
C  25.80100 2.93600 34.37500
C  26.50700 2.91900 35.77100
H  25.77900 3.82700 36.80100
N  23.42900 0.97900 28.99500
C  22.42700 1.07600 29.93100
C  21.13500 1.11200 29.23900
C  21.42600 1.00100 27.87600
C  22.83700 0.83900 27.75400
C  19.84800 1.33600 29.93600
C  20.49100 0.97600 26.63200
O  20.83400 0.93000 25.47300
C  18.90600 0.87600 26.83800
N  25.99700 0.42000 27.32300
C  24.95800 0.42400 26.36200
C  25.50600 0.18500 25.01000
C  27.03300 0.39800 25.23600
C  27.25100 0.35800 26.78500
C  25.01100 -1.19500 24.41100
C  27.81000 1.65200 24.71400
C  27.31700 3.00600 25.28400
N  27.53600 0.61900 29.72300
C  28.59300 0.29100 28.91400
C  29.72300 0.18200 29.67000
C  29.34300 0.52100 30.96300
C  27.97200 0.70500 31.00400
C  31.07000 -0.13300 29.15000
C  29.92100 0.87500 32.26800
O  31.05100 0.87000 32.69700
C  28.55700 1.07100 33.15700
C  28.62700 0.10700 34.26800
O  28.10700 -1.03600 34.25300
O  29.18600 0.68300 35.38800
C  29.34400 -0.21000 36.54600
H  21.80400 1.28700 31.93400
H  23.10800 0.52100 25.60100
H  29.33900 0.13500 26.87200
H  25.74700 0.65300 34.45000
H  23.48100 2.33000 33.62100
H  23.83100 -0.37000 34.85900
H  22.63600 -0.36600 33.71200
H  22.60000 0.79800 35.13100
H  24.89600 3.53500 34.47300
H  26.46300 3.45800 33.68400
H  27.44400 3.41200 35.51200
H  26.52100 1.88200 36.10400
H  19.45700 2.34000 29.77200
H  19.99100 1.26900 31.01500
H  19.01500 0.73000 29.58000
H  18.59000 -0.02700 27.36100
H  18.46600 0.93000 25.84300
H  18.68900 1.79300 27.38700
H  25.10000 1.01000 24.42500
H  27.51200 -0.49200 24.82500
H  24.46700 -1.66200 25.23100
H  25.84100 -1.88800 24.27300
H  24.39200 -1.14900 23.51400
H  27.87700 1.73600 23.63000
H  28.87600 1.55800 24.92100
H  26.77000 2.98200 26.22600
H  26.75000 3.47700 24.48100
H  28.19900 3.59900 25.52700
H  31.07900 -0.45900 28.11000
H  31.49800 -0.93900 29.74700
H  31.80000 0.67200 29.23600
H  28.66400 2.04200 33.63900
H  28.61100 0.06300 37.30500
H  30.26000 0.08400 37.05800
H  29.49800 -1.28300 36.43100
Mg 36.15100 48.78200 25.06500
C  36.28200 46.65600 27.85100
C  34.76600 51.20700 27.14600
C  35.38200 50.56600 22.25200
C  37.10600 46.04400 22.99700
N  35.37000 48.84700 27.25900
C  35.72400 47.86700 28.19400
C  35.51300 48.51700 29.61200
C  34.75000 49.86300 29.38400
C  34.99400 50.04500 27.89800
C  33.25800 49.82700 29.92900
C  36.87600 48.53100 30.35400
C  36.81600 48.79700 31.86400
H  35.44000 48.82900 32.62900
N  35.24700 50.63100 24.73700
C  34.85600 51.54400 25.72700
C  34.64200 52.81300 25.07700
C  34.71100 52.57900 23.69800
C  35.03400 51.20200 23.50600
C  34.41100 54.01500 25.88900
C  34.31300 53.57500 22.65300
O  34.11600 53.22500 21.44500
C  33.91800 54.99800 22.91100
N  36.08000 48.26400 23.00000
C  35.85800 49.28800 22.01900
C  36.25800 48.76000 20.58500
C  37.10000 47.47400 20.92000
C  36.79900 47.29600 22.39100
C  35.11400 48.47600 19.61700
C  38.61200 47.75400 20.93000
C  39.36000 47.50400 19.62000
N  36.61500 46.75200 25.28200
C  37.00900 45.73200 24.42000
C  37.25800 44.55300 25.16600
C  37.05900 44.87500 26.50500
C  36.52400 46.18600 26.49600
C  37.68400 43.17000 24.61400
C  37.04600 44.32800 27.77500
O  37.32300 43.21100 28.21600
C  36.69900 45.52200 28.78300
C  35.65900 45.02100 29.78200
O  34.49900 44.70600 29.57900
O  36.22600 44.94900 30.95600
C  35.22500 44.77700 32.06800
H  34.41100 51.96900 27.84200
H  35.24600 51.22100 21.38900
H  37.59200 45.31000 22.35200
H  34.81600 47.88400 30.16000
H  35.38900 50.61600 29.84500
H  32.48300 49.95300 29.17300
H  33.18700 50.68300 30.60000
H  33.04600 48.93300 30.51500
H  37.43300 49.39900 30.00200
H  37.55400 47.68500 30.24100
H  37.34200 49.70500 32.15800
H  37.24500 47.86200 32.22500
H  33.64600 54.66700 25.46800
H  35.25400 54.69000 25.74200
H  34.24300 53.82700 26.94900
H  32.94200 55.21700 23.34300
H  34.04300 55.41400 21.91100
H  34.69300 55.54800 23.44500
H  36.84400 49.54700 20.11200
H  36.93000 46.56700 20.34100
H  35.10300 47.40100 19.44100
H  35.40900 48.86500 18.64200
H  34.10700 48.77900 19.90400
H  39.14200 47.28200 21.75700
H  38.72000 48.82200 21.11900
H  38.78500 47.05600 18.81000
H  40.24800 46.90700 19.82400
H  39.62700 48.47300 19.19600
H  37.21900 43.08000 23.63200
H  37.29200 42.33700 25.19800
H  38.76300 43.04200 24.52800
H  37.62700 45.83200 29.26400
H  35.63700 45.34500 32.90200
H  35.00800 43.73400 32.30000
H  34.22400 45.13900 31.83200

