158

Mg 17.44600 -1.91800 28.19500
C  16.22700 -0.01100 30.81100
C  19.31800 -3.71000 30.51300
C  18.72600 -3.68600 25.66300
C  15.42100 -0.07300 25.99700
N  17.90400 -1.62900 30.43900
C  17.09200 -0.93500 31.33300
C  17.35000 -1.47000 32.80300
C  18.54600 -2.40600 32.63000
C  18.57500 -2.62000 31.06300
C  19.87800 -1.95300 33.42900
C  16.02000 -1.97700 33.45300
C  15.82200 -1.35500 34.83700
H  17.00200 -0.89300 35.69700
N  18.91900 -3.39400 28.10600
C  19.42500 -4.09600 29.09100
C  20.15900 -5.33700 28.64800
C  19.90200 -5.34700 27.22600
C  19.14300 -4.10200 26.95900
C  20.67400 -6.45200 29.53400
C  20.25000 -6.40600 26.22900
O  19.59300 -6.63100 25.21100
C  21.36200 -7.39600 26.52900
N  17.26700 -1.74200 26.15500
C  17.88400 -2.56900 25.29300
C  17.42900 -2.48200 23.81300
C  16.33600 -1.30600 23.87400
C  16.28500 -1.01600 25.42500
C  18.55600 -2.27000 22.74000
C  14.87800 -1.45000 23.35800
C  14.10100 -2.81200 23.53100
N  16.12700 -0.29400 28.28700
C  15.35600 0.32600 27.35500
C  14.49100 1.27200 27.94700
C  14.79000 1.16500 29.26500
C  15.82500 0.18700 29.46400
C  13.44400 2.12400 27.42800
C  14.37900 1.69000 30.60000
O  13.60900 2.55900 30.95600
C  15.38800 0.94700 31.60000
C  16.07200 2.07500 32.30600
O  16.71700 3.03800 31.80500
O  16.08200 1.81200 33.68700
C  16.79000 2.84700 34.38700
H  19.79700 -4.33200 31.27200
H  19.15800 -4.25200 24.83600
H  14.63300 0.52100 25.53000
H  17.64000 -0.53100 33.27500
H  18.13300 -3.30200 33.09200
H  19.81100 -0.88500 33.63700
H  20.78700 -1.96500 32.82900
H  19.96800 -2.36600 34.43400
H  16.08200 -3.04600 33.65700
H  15.17100 -1.68700 32.83300
H  15.38300 -2.13200 35.46300
H  15.09600 -0.54100 34.82500
H  20.17300 -7.39900 29.33300
H  20.43900 -6.18000 30.56300
H  21.76200 -6.49300 29.48600
H  22.13700 -6.80900 27.02200
H  21.69300 -7.69900 25.53600
H  21.07800 -8.23700 27.16000
H  16.81400 -3.36100 23.61600
H  16.77600 -0.37800 23.50900
H  18.53600 -1.30400 22.23700
H  18.55200 -3.04800 21.97700
H  19.46900 -2.16300 23.32600
H  14.96100 -1.20600 22.29900
H  14.20800 -0.69700 23.77300
H  13.03700 -2.63600 23.69000
H  14.42100 -3.47300 24.33700
H  14.26100 -3.32100 22.58100
H  12.81400 1.48700 26.80600
H  13.84800 2.77000 26.64900
H  12.93800 2.61200 28.26100
H  14.68400 0.55600 32.33500
H  16.48300 3.86800 34.15700
H  17.85400 2.71600 34.18700
H  16.58600 2.51200 35.40300
Mg 1.64000 41.14600 24.87300
C  3.92800 41.62400 27.71500
C  -0.61100 39.97300 27.04300
C  -0.19200 40.48700 22.22500
C  4.35800 42.04400 22.78100
N  1.67700 40.84900 27.19700
C  2.64300 41.24400 28.12200
C  2.23200 41.07200 29.54600
C  0.75700 40.32000 29.28400
C  0.58100 40.40400 27.76400
C  0.63300 38.88600 29.84100
C  2.15700 42.49300 30.27000
C  1.93000 42.45900 31.76200
H  1.65600 41.09800 32.42900
N  -0.15100 40.34600 24.67000
C  -0.99900 39.97600 25.67100
C  -2.20900 39.45800 25.01400
C  -2.04700 39.51700 23.61000
C  -0.74100 40.17800 23.45700
C  -3.26600 38.94600 25.88800
C  -2.97300 38.95100 22.48600
O  -2.57400 38.90900 21.33100
C  -4.33600 38.35100 22.88700
N  1.99900 41.30500 22.81700
C  1.06600 41.00000 21.90800
C  1.52800 41.29000 20.51800
C  2.85600 42.17500 20.74400
C  3.15200 41.77600 22.19100
C  1.61000 40.11000 19.47100
C  2.73500 43.68300 20.66500
C  3.19500 44.40400 19.36900
N  3.74200 41.67300 25.12400
C  4.73200 41.93600 24.19100
C  6.02500 42.13300 24.86000
C  5.74900 42.04500 26.21800
C  4.37200 41.75200 26.35100
C  7.28800 42.34100 24.17100
C  6.36800 42.14000 27.51100
O  7.51100 42.30700 27.90800
C  5.15900 41.96300 28.53700
C  5.41000 40.89900 29.61700
O  5.44700 39.72500 29.46100
O  5.48800 41.47500 30.91000
C  5.50800 40.53400 32.03600
H  -1.33900 39.63800 27.78400
H  -0.88700 40.49900 21.38300
H  5.12000 42.36800 22.07000
H  2.92500 40.42100 30.08000
H  -0.00600 40.96500 29.72000
H  1.61000 38.49900 30.12900
H  0.20300 38.24200 29.07300
H  -0.03800 38.87300 30.70000
H  1.40800 43.06100 29.71800
H  3.10800 43.01300 30.15600
H  1.07600 43.07000 32.05300
H  2.82700 42.81800 32.26500
H  -2.95300 37.94400 26.18300
H  -4.29000 38.94100 25.51400
H  -3.37900 39.55800 26.78200
H  -4.88900 39.05600 23.50700
H  -4.15200 37.40200 23.39000
H  -5.00100 38.21100 22.03400
H  0.72500 41.98400 20.27000
H  3.61000 41.77000 20.06900
H  0.99900 40.47900 18.64700
H  1.25800 39.21700 19.98800
H  2.67600 40.01600 19.26500
H  3.39800 44.07000 21.43800
H  1.71600 43.95900 20.93500
H  2.29400 44.86100 18.95800
H  3.65800 43.69400 18.68300
H  3.92500 45.12700 19.73200
H  7.98400 41.54700 24.44300
H  7.66900 43.32600 24.44200
H  7.11500 42.14400 23.11300
H  4.96100 42.93300 28.99400
H  6.55800 40.38500 32.28600
H  5.03500 39.59800 31.73800
H  4.86200 40.85700 32.85300

