158

Mg 16.90400 -1.60700 27.70300
C  16.57700 0.73300 30.31100
C  19.02000 -3.48600 30.03500
C  18.19700 -3.28100 25.25400
C  15.56900 0.79900 25.52400
N  17.78100 -1.36700 29.88400
C  17.31200 -0.41500 30.73600
C  17.73800 -0.71000 32.17700
C  18.84100 -1.89300 31.93600
C  18.50300 -2.32400 30.53600
C  20.42100 -1.45600 32.14700
C  16.47100 -1.04100 33.01200
C  16.35300 -0.38900 34.46600
H  17.53900 0.39100 35.11300
N  18.31100 -3.26200 27.60300
C  18.96800 -3.91900 28.68100
C  19.59900 -5.08200 28.07200
C  19.37000 -4.99900 26.69800
C  18.59400 -3.79800 26.48400
C  20.24400 -6.14800 28.89000
C  19.90900 -5.98400 25.61200
O  19.63900 -5.88200 24.42200
C  20.72000 -7.22800 26.08000
N  16.81800 -1.27900 25.60500
C  17.50300 -2.16400 24.87800
C  17.37400 -1.71600 23.38500
C  16.42600 -0.52400 23.41000
C  16.23600 -0.29800 24.93100
C  18.67500 -1.56500 22.54800
C  15.11500 -0.57400 22.53000
C  15.11700 0.34900 21.31200
N  16.13900 0.24100 27.86300
C  15.52500 1.11700 26.87800
C  14.83500 2.23800 27.55200
C  15.22100 2.11100 28.86200
C  16.03200 0.93700 29.00100
C  14.17100 3.29100 26.77800
C  15.15500 2.77700 30.11900
O  14.54200 3.81500 30.49300
C  16.04800 1.86600 31.14200
C  17.13900 2.56800 31.82500
O  18.32500 2.70400 31.55900
O  16.50300 3.36500 32.86600
C  17.39600 4.31500 33.53900
H  19.66800 -4.01500 30.73800
H  18.64300 -3.79100 24.39700
H  15.01500 1.46700 24.86200
H  18.21300 0.18200 32.58500
H  18.70800 -2.73100 32.61900
H  20.87100 -1.38600 31.15600
H  20.90700 -2.24900 32.71400
H  20.53900 -0.45300 32.55700
H  16.41100 -2.12900 33.05700
H  15.59000 -0.61000 32.53400
H  16.01400 -1.12200 35.19800
H  15.46100 0.23600 34.43500
H  21.30500 -5.91000 28.81300
H  19.98500 -7.15400 28.55800
H  19.95300 -6.14700 29.94000
H  20.10600 -8.02900 26.49100
H  21.54700 -7.01400 26.75800
H  21.10200 -7.71600 25.18300
H  16.86600 -2.48700 22.80600
H  16.94800 0.33200 22.98200
H  18.37100 -0.78500 21.85100
H  18.83800 -2.50100 22.01400
H  19.55900 -1.28100 23.11900
H  14.22400 -0.44200 23.14400
H  14.94900 -1.56800 22.11400
H  15.90200 -0.02500 20.65500
H  15.33100 1.36000 21.65800
H  14.23800 0.37000 20.66800
H  13.28600 2.90800 26.27000
H  14.93600 3.71600 26.12800
H  13.96500 4.08300 27.49700
H  15.41000 1.54100 31.96300
H  18.43000 3.99200 33.65700
H  16.98900 4.31800 34.55000
H  17.37000 5.34800 33.19200
Mg -9.71800 40.17200 42.54100
C  -8.48400 37.11500 41.37700
C  -7.02500 41.66100 41.03300
C  -11.24700 43.03300 42.91800
C  -12.76500 38.44100 43.10900
N  -7.89900 39.49400 41.30100
C  -7.65700 38.20400 41.05300
C  -6.25600 38.02700 40.34600
C  -5.62700 39.53700 40.37000
C  -6.91700 40.27000 40.87700
C  -4.53700 39.69000 41.44300
C  -6.39100 37.49600 38.91300
C  -5.66200 36.21100 38.57900
H  -4.77000 36.04800 37.36200
N  -9.10100 42.03100 42.29600
C  -7.95900 42.49500 41.67700
C  -7.99300 43.94800 41.57200
C  -9.19700 44.39800 42.23700
C  -9.95600 43.15700 42.49100
C  -7.01000 44.87200 40.87200
C  -9.56400 45.81200 42.49700
O  -8.77600 46.68700 42.10000
C  -10.90900 46.27200 43.13300
N  -11.69500 40.67400 42.91000
C  -12.08000 41.94100 43.04000
C  -13.59200 42.07700 43.12100
C  -14.09100 40.60900 43.31500
C  -12.78400 39.82100 43.10400
C  -14.05500 43.03800 44.30600
C  -15.16500 40.19000 42.19900
C  -16.40400 41.12100 42.13100
N  -10.50800 38.18200 42.42700
C  -11.73400 37.63700 42.73600
C  -11.64200 36.18100 42.63200
C  -10.44100 36.00000 42.11600
C  -9.74800 37.16200 41.97400
C  -12.61700 35.24400 43.15200
C  -9.47300 34.95700 41.72000
O  -9.57000 33.77800 41.78000
C  -8.21600 35.65800 41.19500
C  -7.11200 35.10200 41.91700
O  -6.77200 35.52200 43.01300
O  -6.33300 34.25700 41.17700
C  -5.04700 33.83300 41.70600
H  -6.10700 42.13100 40.67300
H  -11.78400 43.98100 42.84300
H  -13.68200 37.86600 43.25200
H  -5.78000 37.30000 41.00300
H  -5.39400 40.00100 39.41100
H  -3.61100 39.81600 40.88200
H  -4.59500 38.75700 42.00500
H  -4.55900 40.53500 42.13100
H  -6.04100 38.21900 38.17600
H  -7.44900 37.29800 38.74100
H  -6.40100 35.41500 38.48900
H  -4.95700 36.15000 39.40900
H  -7.52100 45.18800 39.96200
H  -6.20600 44.18500 40.60700
H  -6.48100 45.66400 41.40200
H  -11.05200 47.28600 43.50600
H  -11.23500 45.72100 44.01500
H  -11.67900 46.14500 42.37200
H  -13.86500 42.45600 42.13700
H  -14.50500 40.53400 44.32100
H  -13.25400 43.64800 44.72300
H  -14.50500 42.49600 45.13800
H  -14.81500 43.62900 43.79500
H  -15.42300 39.13800 42.32800
H  -14.51600 40.37900 41.34500
H  -16.48000 41.51200 41.11700
H  -16.40200 41.99600 42.78100
H  -17.24500 40.45100 42.30800
H  -13.64800 35.50200 42.91200
H  -12.54800 35.27400 44.24000
H  -12.49200 34.22700 42.78000
H  -7.98900 35.42400 40.15500
H  -4.51300 33.33900 40.89400
H  -5.25500 33.07000 42.45600
H  -4.44100 34.65800 42.08000

