158

Mg 26.64500 50.09700 26.91600
C  24.43100 51.38100 29.17700
C  28.85200 49.30800 29.33200
C  28.58500 48.88300 24.48700
C  24.48100 51.45000 24.39500
N  26.60900 50.33000 29.04600
C  25.51500 50.72700 29.80200
C  25.82600 50.49900 31.30700
C  27.36000 50.06100 31.31000
C  27.68000 50.03600 29.81000
C  28.32600 50.83100 32.22000
C  24.76100 49.51700 31.97200
C  24.24500 49.89300 33.34800
H  24.12000 48.80200 34.38200
N  28.46600 49.10100 26.93500
C  29.27000 48.89300 28.06300
C  30.44900 48.19000 27.65200
C  30.24600 47.92100 26.22500
C  29.07500 48.65700 25.80900
C  31.63100 47.92700 28.66300
C  31.17900 47.10100 25.30800
O  31.02200 47.03100 24.12400
C  32.34500 46.30400 26.02400
N  26.58200 50.26900 24.69700
C  27.53000 49.60200 23.96100
C  27.23900 49.70800 22.40500
C  25.76100 50.36000 22.45800
C  25.54200 50.69500 23.92700
C  28.32800 50.46300 21.55900
C  24.69600 49.46600 21.77900
C  23.69400 48.65900 22.61600
N  24.84100 51.38200 26.76100
C  24.09300 51.85700 25.69400
C  22.83100 52.49500 26.15400
C  22.97200 52.37400 27.55700
C  24.10800 51.64000 27.80400
C  21.75200 53.14600 25.36300
C  22.31800 52.66000 28.83600
O  21.25100 53.29300 29.00000
C  23.31400 52.11100 29.97100
C  23.83000 53.32800 30.69500
O  24.89900 53.86200 30.59400
O  22.94800 53.63200 31.68500
C  23.42100 54.68100 32.66800
H  29.49900 48.87000 30.09600
H  29.10500 48.39600 23.65900
H  23.81000 51.81900 23.61700
H  25.72900 51.46300 31.80500
H  27.36700 49.06900 31.76300
H  29.17100 51.19200 31.63400
H  28.60400 50.22900 33.08400
H  27.97800 51.69800 32.78100
H  25.16500 48.50700 31.90200
H  23.90000 49.61600 31.31200
H  23.27300 50.36800 33.22100
H  24.87900 50.69800 33.71800
H  32.44000 47.23800 28.42100
H  31.20500 47.66400 29.63100
H  32.07700 48.89500 28.88800
H  31.92300 45.73500 26.85300
H  33.02200 47.05400 26.43400
H  32.79100 45.57300 25.35100
H  27.27700 48.69800 21.99600
H  25.81300 51.30100 21.91000
H  29.05200 50.78600 22.30800
H  27.92800 51.33600 21.04300
H  28.93300 49.84900 20.89200
H  25.10000 48.85200 20.97400
H  24.06000 50.22100 21.31700
H  22.81900 49.30000 22.51300
H  24.01200 48.60300 23.65700
H  23.57100 47.66500 22.18700
H  21.20300 52.31200 24.92600
H  22.30200 53.76600 24.65500
H  21.15500 53.72800 26.06500
H  22.66000 51.52000 30.61200
H  23.93800 55.46700 32.11700
H  24.27400 54.39300 33.28300
H  22.64500 55.00100 33.36300
Mg -5.97700 25.19400 26.01900
C  -4.63000 26.51100 29.16400
C  -7.65500 22.83800 27.97100
C  -6.48700 23.60000 23.38400
C  -3.81300 27.48700 24.50100
N  -6.10600 24.73600 28.30300
C  -5.47600 25.38400 29.34700
C  -5.92500 24.83100 30.79300
C  -6.64400 23.44300 30.29300
C  -6.88000 23.65400 28.76000
C  -5.86500 22.18000 30.64600
C  -6.74500 25.96000 31.47600
C  -6.65100 26.15500 32.99400
H  -6.07800 24.98400 33.77600
N  -7.15300 23.56300 25.64300
C  -7.80700 22.70800 26.54400
C  -8.51800 21.76600 25.85000
C  -8.23800 21.90300 24.43500
C  -7.26500 23.02800 24.43200
C  -9.44000 20.78000 26.57700
C  -8.75000 21.14100 23.27900
O  -8.30300 21.43300 22.14000
C  -9.86900 20.16300 23.42200
N  -5.33200 25.57700 24.24500
C  -5.63300 24.71100 23.25000
C  -4.91700 25.03600 21.89100
C  -4.22500 26.40200 22.33800
C  -4.51000 26.55700 23.81100
C  -3.92900 23.92700 21.47000
C  -4.74600 27.54000 21.41700
C  -3.73400 28.56000 20.93400
N  -4.66500 26.81900 26.67900
C  -3.95300 27.68700 25.88600
C  -3.24700 28.64500 26.71200
C  -3.42400 28.22300 27.99500
C  -4.30200 27.08000 27.92200
C  -2.42300 29.75900 26.09200
C  -3.09200 28.48200 29.35900
O  -2.44000 29.33400 29.89400
C  -3.93300 27.41300 30.17100
C  -2.99300 26.65500 31.07400
O  -2.19300 25.82400 30.70800
O  -3.16700 26.94100 32.37200
C  -2.34200 26.39500 33.38300
H  -8.14800 22.14200 28.65300
H  -6.56100 23.03500 22.45300
H  -3.27500 28.23300 23.91300
H  -4.99900 24.58100 31.31000
H  -7.58200 23.35000 30.84000
H  -4.88800 22.38500 31.08300
H  -5.74000 21.60400 29.72800
H  -6.47000 21.55800 31.30500
H  -7.80600 25.78100 31.30300
H  -6.45100 26.95600 31.14600
H  -7.67200 26.30200 33.34500
H  -5.98400 26.98600 33.22100
H  -10.50400 20.86600 26.35600
H  -9.38900 20.73900 27.66500
H  -9.03900 19.79800 26.32700
H  -9.59800 19.36900 24.11700
H  -9.99900 19.68300 22.45200
H  -10.77200 20.66300 23.77000
H  -5.72000 25.17500 21.16700
H  -3.15600 26.33900 22.13200
H  -4.09500 23.74500 20.40800
H  -4.10100 22.99500 22.00900
H  -2.91600 24.30300 21.61700
H  -5.41400 28.17100 22.00400
H  -5.22100 27.24400 20.48200
H  -4.15800 29.56300 20.98600
H  -3.41300 28.23300 19.94500
H  -2.95300 28.53700 21.69300
H  -2.99200 30.33200 25.36000
H  -1.56400 29.31900 25.58500
H  -2.09200 30.39000 26.91800
H  -4.59200 28.02400 30.78900
H  -1.96900 25.41700 33.07900
H  -2.78700 26.11100 34.33700
H  -1.50000 27.04900 33.60900

