158

Mg 17.56300 -1.15000 28.12200
C  15.88700 0.73200 30.72700
C  19.28600 -2.71200 30.63000
C  19.08000 -2.80900 25.69300
C  15.65600 0.68200 25.86500
N  17.54500 -0.99500 30.43600
C  16.87300 -0.14000 31.26400
C  17.19600 -0.33000 32.75600
C  18.39500 -1.36100 32.66200
C  18.50800 -1.69900 31.15800
C  19.71700 -0.88100 33.37300
C  15.93400 -0.85000 33.57100
C  16.00400 -0.60800 35.05200
H  17.35700 -0.21000 35.76300
N  19.01500 -2.56100 28.16200
C  19.48500 -3.14000 29.26300
C  20.28300 -4.29500 28.85300
C  20.28800 -4.31400 27.43900
C  19.45800 -3.17800 27.01000
C  20.90200 -5.31200 29.85600
C  20.99700 -5.23200 26.48200
O  20.74700 -5.12500 25.28700
C  21.95900 -6.21800 27.04600
N  17.55200 -0.97100 26.11800
C  18.18500 -1.80600 25.25900
C  17.83500 -1.48100 23.78600
C  16.71100 -0.45300 23.95200
C  16.56100 -0.26000 25.47100
C  19.01500 -0.98700 22.95400
C  15.40600 -0.97600 23.17200
C  14.34000 -1.81000 23.96700
N  16.00600 0.42200 28.20400
C  15.29400 1.02100 27.19700
C  14.37400 2.01700 27.65200
C  14.54800 1.96000 29.06300
C  15.52500 0.93600 29.34900
C  13.58800 2.93900 26.71400
C  14.17700 2.48500 30.32700
O  13.37300 3.36300 30.51000
C  15.03200 1.83200 31.46500
C  15.78200 2.94100 32.23300
O  16.82700 3.48500 31.92000
O  15.12700 3.04400 33.50300
C  15.69500 4.07500 34.40400
H  19.80600 -3.27000 31.41100
H  19.43900 -3.27800 24.77400
H  15.09300 1.24000 25.11400
H  17.56700 0.63000 33.11400
H  18.03200 -2.28200 33.11700
H  19.69200 -1.15600 34.42700
H  19.78300 0.20500 33.43700
H  20.62900 -1.25800 32.91000
H  15.76100 -1.92400 33.50200
H  15.07400 -0.27800 33.22200
H  15.64800 -1.45800 35.63400
H  15.35500 0.24600 35.24900
H  20.35400 -5.17600 30.78800
H  21.92100 -4.97200 30.04400
H  20.84600 -6.36200 29.56900
H  22.54000 -6.58200 26.19800
H  21.40100 -7.10200 27.35500
H  22.68600 -5.83700 27.76200
H  17.44500 -2.40800 23.36400
H  16.92300 0.55300 23.59000
H  19.44100 -0.08300 23.38800
H  18.61300 -0.79400 21.95900
H  19.82000 -1.72100 22.91400
H  15.59700 -1.50400 22.23700
H  14.88200 -0.09600 22.79900
H  13.92900 -2.66300 23.42700
H  13.51700 -1.20300 24.34400
H  14.82100 -2.34000 24.78900
H  14.20200 3.67400 26.19400
H  12.83100 3.38600 27.35800
H  13.15800 2.19700 26.04100
H  14.22100 1.33100 31.99400
H  14.87000 4.74900 34.63600
H  16.44000 4.71900 33.93700
H  16.03200 3.59000 35.32000
Mg -1.80300 33.72300 25.45500
C  -3.46000 32.10700 28.20200
C  -0.44000 35.85400 27.84900
C  -0.36600 35.34600 23.01700
C  -3.22500 31.47100 23.33900
N  -1.96100 33.94000 27.81500
C  -2.60800 33.09400 28.69300
C  -2.40600 33.59300 30.13100
C  -1.53600 34.90600 29.95900
C  -1.30400 34.92800 28.42100
C  -2.15800 36.24900 30.51000
C  -1.89300 32.64200 31.23100
C  -2.75600 32.63300 32.52400
H  -2.03600 32.52400 33.88200
N  -0.49700 35.38000 25.42200
C  -0.08300 36.12500 26.47500
C  0.88300 37.21800 25.99300
C  0.96800 37.00200 24.52300
C  0.01800 35.90800 24.23700
C  1.73300 38.02000 26.93200
C  1.82300 37.65800 23.51300
O  1.75800 37.32900 22.31300
C  2.77000 38.84200 23.83600
N  -1.75200 33.39700 23.48900
C  -1.15800 34.25200 22.63700
C  -1.45700 33.95800 21.16200
C  -2.24300 32.61500 21.26100
C  -2.40600 32.44800 22.77900
C  -2.23800 35.10900 20.45000
C  -1.53500 31.36200 20.61700
C  -0.47200 30.65400 21.47800
N  -3.10300 32.13800 25.66700
C  -3.61500 31.30500 24.65300
C  -4.56000 30.40800 25.26800
C  -4.49200 30.64500 26.62000
C  -3.59700 31.75100 26.88500
C  -5.44300 29.41700 24.53000
C  -5.05200 30.29600 27.93800
O  -5.95600 29.50200 28.18400
C  -4.37100 31.25700 28.96500
C  -5.38700 31.95100 29.84200
O  -5.74200 33.14200 29.63800
O  -5.78500 31.15300 30.94500
C  -6.35200 31.89900 32.06000
H  -0.06700 36.50100 28.64600
H  0.04500 35.77300 22.10000
H  -3.89800 30.96100 22.64700
H  -3.35400 34.01400 30.46400
H  -0.56300 34.77500 30.43300
H  -1.40300 36.83200 31.03700
H  -3.08600 36.03700 31.04100
H  -2.49700 36.88700 29.69400
H  -0.85300 32.90400 31.42400
H  -1.85400 31.60000 30.91600
H  -3.12000 31.60900 32.44100
H  -3.53700 33.39300 32.56200
H  2.78100 37.91100 26.65400
H  1.56800 37.65700 27.94700
H  1.54500 39.09300 26.89200
H  3.04400 39.39500 22.93700
H  3.74800 38.47800 24.14900
H  2.32700 39.46300 24.61400
H  -0.44300 33.68100 20.87400
H  -3.26500 32.75200 20.90700
H  -2.19400 35.97400 21.11200
H  -3.27700 34.78800 20.38200
H  -1.73200 35.31500 19.50700
H  -1.09400 31.72300 19.68800
H  -2.42900 30.76400 20.44000
H  -0.08700 31.20300 22.33800
H  0.41900 30.62000 20.85000
H  -0.71800 29.61800 21.70800
H  -4.92300 28.87700 23.74000
H  -6.37800 29.94000 24.32900
H  -5.79000 28.69600 25.27100
H  -3.83800 30.59000 29.64100
H  -6.71500 31.27300 32.87500
H  -7.22000 32.36400 31.59300
H  -5.60700 32.62600 32.38300

