158

Mg 7.80900 3.34500 27.79400
C  8.93300 1.73400 30.80300
C  6.21300 5.58900 29.70300
C  6.76900 4.61900 24.94800
C  9.69300 0.93500 25.98300
N  7.55000 3.50900 30.04700
C  8.17000 2.81000 31.04200
C  7.94000 3.49200 32.42700
C  6.77100 4.53600 32.07700
C  6.87100 4.64700 30.52700
C  5.38700 4.17700 32.51800
C  9.23600 4.17000 33.06500
C  8.98200 4.85900 34.39700
H  9.87100 4.63400 35.60100
N  6.60000 4.94500 27.36200
C  5.98600 5.70200 28.29200
C  5.17800 6.67400 27.59700
C  5.44300 6.48500 26.16500
C  6.30400 5.35500 26.10800
C  4.41300 7.74100 28.31500
C  4.93900 7.35500 25.01300
O  5.22400 7.12400 23.82400
C  3.97900 8.45100 25.31600
N  8.03700 2.71200 25.74600
C  7.44900 3.41100 24.81200
C  7.64300 2.75400 23.41300
C  8.81100 1.78800 23.70400
C  8.93700 1.82400 25.23900
C  6.35500 1.97000 22.90900
C  10.15400 1.96000 22.94800
C  10.88700 0.66100 22.59400
N  8.94500 1.70000 28.23500
C  9.74800 0.91800 27.39000
C  10.44500 -0.06200 28.21000
C  10.18100 0.22500 29.50500
C  9.20400 1.28900 29.49000
C  11.31800 -1.16500 27.70000
C  10.46800 -0.17200 30.75500
O  11.18500 -1.09000 31.12600
C  9.76500 0.85000 31.69900
C  9.02700 0.10400 32.67400
O  7.96300 -0.57800 32.50400
O  9.67800 0.27800 33.82000
C  9.16100 -0.34500 35.02300
H  5.77200 6.31500 30.38800
H  6.30800 5.02900 24.04700
H  10.24100 0.17400 25.42200
H  7.68300 2.69300 33.12300
H  7.14000 5.38000 32.66000
H  5.44400 3.27400 33.12600
H  4.70100 4.04900 31.68000
H  5.13700 5.01700 33.16500
H  9.59800 4.97400 32.42500
H  9.96100 3.37200 33.22400
H  7.94400 4.79100 34.72400
H  9.09200 5.90900 34.12800
H  4.74200 8.76200 28.12200
H  4.56700 7.58500 29.38300
H  3.35400 7.60100 28.09700
H  3.88600 9.04000 24.40300
H  4.43700 9.09200 26.07000
H  3.00400 8.15900 25.70600
H  7.93900 3.53200 22.71000
H  8.46900 0.76600 23.54100
H  5.42700 2.27000 23.39600
H  6.44700 0.89600 22.74400
H  6.15800 2.29400 21.88700
H  10.82300 2.40900 23.68200
H  10.02500 2.54400 22.03700
H  11.75400 0.50700 23.23600
H  11.09400 0.52100 21.53300
H  10.16800 -0.14400 22.74100
H  12.07200 -1.45500 28.43100
H  11.85300 -0.83100 26.81000
H  10.70100 -1.95900 27.28000
H  10.56800 1.38200 32.21000
H  9.74700 -1.20100 35.35800
H  8.20500 -0.81800 34.80000
H  9.11900 0.46400 35.75400
Mg 50.22300 44.88100 42.38500
C  47.01900 45.44900 40.66400
C  50.05300 41.54300 41.31200
C  53.57000 44.36900 42.93300
C  50.61400 48.18000 42.73800
N  48.74600 43.69600 41.06500
C  47.48600 44.12800 40.57200
C  46.68800 42.88400 40.17000
C  47.56100 41.59900 40.48000
C  48.85900 42.29700 41.06200
C  46.78500 40.49200 41.32000
C  46.11000 42.92600 38.69300
C  46.83700 43.65200 37.51000
H  47.20500 42.82700 36.26100
N  51.63800 43.18600 42.27100
C  51.34100 41.96800 41.71000
C  52.57500 41.16600 41.60600
C  53.59800 41.93300 42.18900
C  52.95300 43.25900 42.44500
C  52.61400 39.80300 41.13000
C  55.06500 41.51500 42.40200
O  55.35400 40.36100 42.19100
C  56.13000 42.46000 42.78900
N  51.80000 46.08000 42.94200
C  53.03900 45.62900 43.28200
C  53.98700 46.83700 43.52900
C  52.99400 47.99100 43.79700
C  51.72800 47.42400 43.12200
C  55.02900 46.67800 44.64300
C  53.49900 49.36500 43.27100
C  53.46400 50.38700 44.34700
N  48.95700 46.50800 42.01000
C  49.29600 47.80500 42.17700
C  48.17000 48.59900 41.90200
C  47.23900 47.78900 41.27400
C  47.77900 46.47800 41.30200
C  48.14000 50.15000 42.03800
C  45.91300 47.69000 40.70900
O  45.00700 48.50100 40.58400
C  45.77800 46.10000 40.18100
C  44.47000 45.53100 40.68400
O  43.53200 45.24400 39.98100
O  44.32000 45.63900 42.06100
C  43.14700 45.03700 42.65700
H  50.01800 40.46900 41.11900
H  54.64000 44.29900 43.14300
H  50.77400 49.25900 42.77700
H  45.82800 42.88500 40.84100
H  47.93700 41.15100 39.56100
H  45.90900 40.80400 41.88900
H  47.46700 40.16700 42.10600
H  46.43300 39.68000 40.68400
H  45.03300 43.08800 38.63100
H  46.10900 41.88300 38.37500
H  47.69500 44.24200 37.83200
H  46.19100 44.42800 37.10000
H  53.47400 39.61700 40.48700
H  51.67400 39.54600 40.64400
H  52.66900 39.07500 41.93900
H  56.11300 43.35200 42.16400
H  57.12300 42.01000 42.78600
H  55.89000 42.66500 43.83200
H  54.43200 46.95900 42.54200
H  52.88300 47.94800 44.88100
H  54.80400 45.73900 45.15000
H  54.98400 47.44200 45.42000
H  56.01200 46.61300 44.17600
H  52.98900 49.58700 42.33400
H  54.52300 49.15200 42.96300
H  52.77500 49.93500 45.06100
H  53.00800 51.33500 44.06400
H  54.47700 50.61300 44.68000
H  47.43000 50.54300 41.31000
H  49.11900 50.61300 41.91300
H  47.73200 50.35500 43.02800
H  45.82600 46.03800 39.09400
H  43.11100 45.27800 43.72000
H  43.10800 43.97000 42.44200
H  42.22000 45.46400 42.27600

