158

Mg 8.52100 2.41100 27.95000
C  10.10100 1.18900 30.85200
C  6.42100 4.28500 29.87300
C  7.19300 3.70600 25.15800
C  10.61700 0.29100 26.05700
N  8.38700 2.66800 30.13800
C  9.08800 2.10500 31.11800
C  8.69100 2.61300 32.49300
C  7.44600 3.49600 32.07900
C  7.35300 3.51400 30.63300
C  6.12900 3.22400 32.89100
C  9.76800 3.44800 33.23400
C  9.30900 4.13300 34.60300
H  10.04300 3.64600 35.92200
N  6.96100 3.80900 27.58200
C  6.27100 4.49600 28.49300
C  5.26400 5.25500 27.84200
C  5.46300 5.08300 26.45300
C  6.67700 4.24400 26.33800
C  4.13500 5.96100 28.54300
C  4.71800 5.68300 25.29300
O  5.01200 5.49500 24.12800
C  3.61500 6.62800 25.57600
N  8.83100 2.00700 25.96400
C  8.21500 2.79900 25.01900
C  8.66500 2.34500 23.58200
C  9.83700 1.43000 23.91200
C  9.67200 1.13100 25.38200
C  7.50200 1.63300 22.76400
C  11.21200 2.06100 23.53700
C  11.67600 3.20600 24.44000
N  10.00300 0.89200 28.37500
C  10.73900 0.13900 27.47400
C  11.62000 -0.66700 28.23400
C  11.44100 -0.31900 29.57200
C  10.44600 0.68600 29.60600
C  12.56700 -1.62100 27.63600
C  11.82100 -0.56000 30.94600
O  12.52900 -1.43300 31.38300
C  10.95900 0.49600 31.84200
C  10.21700 -0.27600 32.91000
O  9.40400 -1.15400 32.77400
O  10.78400 0.03300 34.09400
C  10.22400 -0.74200 35.24600
H  5.79000 4.99400 30.41100
H  6.99500 4.10200 24.16000
H  11.35800 -0.29000 25.50400
H  8.46900 1.72200 33.08100
H  7.61200 4.53700 32.35800
H  5.74200 4.11900 33.37800
H  6.44600 2.54800 33.68500
H  5.30400 2.78900 32.32700
H  10.10800 4.11200 32.43900
H  10.65100 2.85000 33.45900
H  8.22400 4.05100 34.67300
H  9.43500 5.20600 34.45600
H  4.36900 7.02400 28.50100
H  3.99000 5.61400 29.56600
H  3.19200 5.83400 28.01100
H  4.04900 7.33800 26.28000
H  2.64400 6.28300 25.92900
H  3.54700 7.14600 24.62000
H  9.00100 3.25200 23.08000
H  9.64600 0.48700 23.40000
H  7.34000 2.14800 21.81600
H  6.54900 1.80200 23.26600
H  7.51100 0.55500 22.60700
H  11.15100 2.57500 22.57800
H  11.98000 1.29400 23.43900
H  11.45600 4.18700 24.02000
H  12.73200 3.10700 24.69100
H  11.24300 3.17000 25.44000
H  12.97500 -1.35100 26.66200
H  12.08200 -2.59300 27.55300
H  13.36300 -1.57000 28.37900
H  11.61100 1.23600 32.30400
H  9.36600 -1.34300 34.94500
H  9.93200 0.02100 35.96800
H  11.02900 -1.36500 35.63700
Mg 27.26100 51.16800 26.46000
C  24.95800 52.17700 28.91300
C  29.36100 50.27500 29.08500
C  29.30000 50.20000 24.17600
C  25.19200 52.76500 24.13100
N  27.07800 51.04000 28.74000
C  26.07700 51.56500 29.50800
C  26.35300 51.43600 31.01100
C  27.90500 51.03300 31.02800
C  28.17600 50.79300 29.49900
C  28.85600 52.13500 31.71400
C  25.44700 50.31800 31.62000
C  25.20700 50.28900 33.12500
H  26.14300 51.08200 34.05800
N  29.13200 50.41100 26.60900
C  29.78800 50.09200 27.77000
C  31.14400 49.57600 27.35100
C  31.10100 49.39000 25.90600
C  29.84500 50.08200 25.49200
C  32.25700 49.21700 28.32400
C  32.09700 48.75800 25.11100
O  32.06900 48.79800 23.86000
C  33.29100 48.15900 25.70900
N  27.17300 51.44500 24.43400
C  28.11900 50.81500 23.68200
C  27.75300 50.92900 22.18000
C  26.52500 51.90800 22.09400
C  26.27000 52.04100 23.61400
C  28.96600 51.13700 21.23000
C  25.26500 51.37100 21.28800
C  24.49100 50.09800 21.81700
N  25.45800 52.28400 26.44400
C  24.70100 52.74600 25.44500
C  23.44500 53.24500 25.95100
C  23.52200 53.06400 27.31200
C  24.75400 52.47400 27.57900
C  22.27500 53.57100 25.12700
C  22.73300 53.31000 28.45700
O  21.70700 53.91200 28.63300
C  23.66800 52.78500 29.59400
C  24.07600 53.87900 30.37500
O  24.92000 54.72900 30.08000
O  23.45300 53.86300 31.60300
C  23.89100 54.74500 32.67400
H  30.02400 49.98500 29.90300
H  29.94500 49.77800 23.40200
H  24.54500 53.19100 23.36200
H  26.20700 52.41400 31.46700
H  28.18500 50.10100 31.51800
H  29.14000 51.71600 32.68000
H  28.34700 53.05700 31.99700
H  29.68500 52.45100 31.08000
H  25.81900 49.35400 31.27200
H  24.49500 50.46800 31.11200
H  25.34600 49.25200 33.43200
H  24.16000 50.48900 33.35500
H  33.23700 49.67200 28.18000
H  32.50400 48.15800 28.39800
H  31.96100 49.52800 29.32600
H  33.94300 48.91800 26.14000
H  33.80500 47.71300 24.85800
H  32.93200 47.45700 26.46200
H  27.41800 49.94600 21.84700
H  26.83100 52.88700 21.72600
H  28.67700 51.82000 20.43200
H  29.26900 50.24500 20.68300
H  29.87600 51.50900 21.70200
H  25.62000 51.16600 20.27800
H  24.51600 52.13900 21.09300
H  24.47000 49.30100 21.07400
H  23.47600 50.34700 22.12600
H  24.90400 49.68100 22.73600
H  21.32800 53.49300 25.66100
H  22.24200 52.98800 24.20600
H  22.43800 54.57900 24.74600
H  23.21800 52.07000 30.28300
H  24.75900 55.34800 32.41100
H  24.20900 54.01600 33.42000
H  23.20500 55.35200 33.26500

