158

Mg 53.55500 23.32000 44.88100
C  51.31000 25.58300 43.49600
C  52.01100 20.87600 43.20200
C  56.23800 21.47900 45.44900
C  55.40500 26.20100 46.01000
N  51.84700 23.23700 43.48500
C  51.09500 24.30300 43.10600
C  50.08100 23.83700 42.10300
C  50.10200 22.25100 42.22900
C  51.37900 22.04500 43.05300
C  48.85200 21.58400 42.94100
C  50.58900 24.17700 40.66900
C  49.42700 24.43700 39.72300
H  49.82600 24.82100 38.27300
N  53.93300 21.35700 44.56600
C  53.15700 20.46000 43.89300
C  53.64500 19.17100 44.05300
C  54.87200 19.33300 44.69700
C  55.01500 20.78300 44.98300
C  52.80500 18.00200 43.76300
C  55.76800 18.11500 45.00200
O  55.39000 17.00400 44.61100
C  57.00100 18.18800 45.95400
N  55.56200 23.82600 45.48600
C  56.46200 22.82900 45.65300
C  57.85400 23.49900 46.03800
C  57.37900 24.76600 46.67000
C  55.99700 24.98300 45.98000
C  58.83000 22.60100 46.85700
C  58.37800 25.99600 46.60200
C  58.53600 26.60400 45.26900
N  53.37300 25.47400 44.89800
C  54.15800 26.43500 45.49900
C  53.42300 27.70400 45.37300
C  52.32100 27.42400 44.55800
C  52.37900 26.09000 44.29100
C  53.82700 29.04500 45.98100
C  51.09300 27.96900 44.02100
O  50.63400 29.07700 44.07600
C  50.38400 26.82300 43.28000
C  50.10200 27.32900 41.91600
O  50.95900 27.82500 41.17200
O  48.68800 27.40600 41.66000
C  48.10300 27.97400 40.46700
H  51.42600 20.16400 42.61600
H  57.12300 20.93400 45.78300
H  55.93100 27.03400 46.47900
H  49.14100 24.35900 42.28300
H  50.12000 21.84700 41.21700
H  48.42100 20.84900 42.26100
H  48.04800 22.30800 43.07200
H  49.19400 21.05100 43.82800
H  51.29800 23.43200 40.30700
H  51.07900 25.14300 40.79600
H  48.80000 25.25200 40.08400
H  48.87600 23.49600 39.72200
H  52.90900 17.45400 44.69900
H  52.96400 17.41600 42.85800
H  51.73800 18.22000 43.70700
H  56.97400 18.68400 46.92400
H  57.86700 18.48700 45.36300
H  57.25300 17.14500 46.14900
H  58.36300 23.76700 45.11200
H  57.13700 24.54500 47.71000
H  59.09000 23.24100 47.70000
H  59.72300 22.45600 46.24900
H  58.34700 21.70200 47.23800
H  59.36100 25.63600 46.90400
H  58.18500 26.74600 47.36900
H  57.68100 26.37800 44.63200
H  59.41600 26.08800 44.88600
H  58.56100 27.68600 45.40000
H  52.99900 29.51800 46.50900
H  54.24000 29.63400 45.16300
H  54.53500 28.91400 46.79900
H  49.45300 26.64800 43.81900
H  48.81800 28.65200 40.00100
H  47.24800 28.54400 40.82900
H  47.94200 27.31200 39.61600
Mg 16.59600 52.64400 26.67200
C  18.71600 50.94800 28.97200
C  14.54800 53.41800 29.36100
C  14.62000 54.13200 24.48200
C  18.67300 51.44700 24.18200
N  16.56800 52.23300 28.81100
C  17.58300 51.57600 29.52900
C  17.24800 51.64700 31.04200
C  15.79000 51.93800 31.02000
C  15.61900 52.62500 29.66200
C  14.88100 50.72900 31.25000
C  18.06600 52.75200 31.70000
C  18.16500 52.75100 33.22500
H  17.03800 52.00400 33.92400
N  14.81600 53.71700 26.87500
C  14.18300 53.90300 28.06800
C  12.94700 54.61300 27.77500
C  12.95800 54.94700 26.38400
C  14.17000 54.29300 25.84200
C  12.00700 55.13900 28.87900
C  11.98400 55.82500 25.57200
O  12.20200 55.99100 24.35900
C  10.83400 56.42000 26.20400
N  16.62700 52.64300 24.65200
C  15.75400 53.46100 23.97800
C  16.05300 53.41100 22.46000
C  17.58500 52.93800 22.42200
C  17.63000 52.32500 23.84800
C  15.09700 52.52500 21.60100
C  18.68400 53.99400 22.10400
C  19.97200 53.54600 21.54000
N  18.25200 51.28000 26.49900
C  19.02900 50.90900 25.43900
C  20.14900 50.15800 25.86600
C  20.05900 50.08500 27.30300
C  18.93100 50.88200 27.62500
C  21.17900 49.50600 25.02200
C  20.66900 49.56200 28.52500
O  21.62400 48.88300 28.82400
C  19.82300 50.21900 29.71800
C  19.36100 49.15200 30.55800
O  18.68800 48.20300 30.18300
O  19.78400 49.47300 31.82600
C  19.37300 48.60200 32.91300
H  13.91100 53.67700 30.20900
H  13.95000 54.48600 23.69500
H  19.45400 51.23400 23.44800
H  17.50700 50.69900 31.51400
H  15.48500 52.73600 31.69700
H  14.15800 50.64300 30.43900
H  14.30200 50.77100 32.17300
H  15.49900 49.83900 31.36500
H  17.46600 53.65700 31.60300
H  18.98900 52.67100 31.12700
H  18.09900 53.77400 33.59700
H  19.07900 52.23500 33.51800
H  11.82100 56.21200 28.86200
H  12.40400 54.85800 29.85400
H  10.97400 54.83000 28.71600
H  9.96900 55.79500 26.42900
H  10.51700 57.22400 25.53900
H  11.13400 56.91000 27.13000
H  16.16800 54.45400 22.16700
H  17.66700 52.05300 21.79100
H  14.55900 51.78400 22.19200
H  15.59400 51.96300 20.81000
H  14.30500 53.12400 21.15000
H  18.93800 54.44900 23.06200
H  18.32400 54.77300 21.43200
H  20.48800 54.30400 20.95100
H  19.85300 52.66600 20.90800
H  20.60200 53.27300 22.38600
H  21.74700 48.84900 25.68100
H  21.79100 50.21400 24.46400
H  20.73400 48.83700 24.28600
H  20.43000 50.97900 30.21100
H  19.38000 47.57100 32.55900
H  18.39500 48.84300 33.32900
H  20.14500 48.75100 33.66700

