158

Mg 41.79200 41.06200 26.10000
C  40.99700 43.31200 28.67300
C  42.86300 38.74400 28.57100
C  42.84300 39.07800 23.68600
C  41.13800 43.60300 23.76600
N  41.79600 41.03800 28.35000
C  41.39800 42.10000 29.15600
C  41.45600 41.65200 30.65600
C  42.25800 40.23600 30.55000
C  42.21200 39.94200 29.07800
C  43.66600 40.28800 31.10000
C  40.13400 41.45400 31.40200
C  39.67300 42.61300 32.32200
H  39.78000 42.50800 33.84000
N  42.63900 39.13100 26.13200
C  43.12200 38.39100 27.21900
C  43.66000 37.14100 26.68700
C  43.54700 37.18000 25.26800
C  42.97900 38.45600 24.96300
C  44.02000 36.09600 27.60800
C  43.99200 36.16900 24.15400
O  43.97000 36.39500 22.95000
C  44.52800 34.82300 24.61300
N  42.04700 41.31500 24.09700
C  42.39800 40.24400 23.32000
C  42.17100 40.55600 21.80700
C  41.30100 41.83000 21.83200
C  41.56700 42.33500 23.30000
C  43.51900 40.70700 21.06700
C  39.81100 41.75100 21.47600
C  38.96100 40.74000 22.29500
N  41.22600 43.06200 26.11500
C  41.00900 44.01200 25.06000
C  40.51800 45.23700 25.61000
C  40.44300 45.00500 26.97300
C  40.91900 43.72100 27.20100
C  40.08100 46.46900 24.82700
C  40.16900 45.59300 28.22900
O  39.85500 46.74800 28.51100
C  40.57500 44.51000 29.37000
C  41.66300 45.15600 30.18800
O  42.83600 45.26100 29.83300
O  41.18500 45.54300 31.40600
C  42.20400 46.32900 32.21300
H  43.20900 37.95300 29.24000
H  43.10400 38.53100 22.77700
H  40.77200 44.27900 22.99000
H  42.03600 42.44200 31.13300
H  41.73300 39.38200 30.97800
H  43.68600 39.98400 32.14700
H  43.96900 41.33100 31.00600
H  44.32000 39.70700 30.44900
H  40.14800 40.51600 31.95800
H  39.44900 41.28800 30.57100
H  38.66000 42.82300 31.97800
H  40.35200 43.41000 32.01800
H  43.16400 35.42100 27.62400
H  44.31500 36.35300 28.62500
H  44.83800 35.53800 27.15100
H  43.88100 34.24700 25.27500
H  45.44000 35.03100 25.17300
H  44.76800 34.29200 23.69200
H  41.56400 39.75500 21.38600
H  41.73600 42.56500 21.15500
H  43.95300 39.74000 20.81400
H  44.21700 41.34700 21.60700
H  43.26400 41.27300 20.17100
H  39.72400 41.61800 20.39800
H  39.37600 42.74500 21.57800
H  38.04600 41.20300 22.66500
H  39.54000 40.35300 23.13300
H  38.66000 39.90000 21.66900
H  39.13700 46.22700 24.33800
H  40.88000 46.78000 24.15400
H  39.94200 47.23800 25.58600
H  39.84500 44.43100 30.17600
H  42.25400 47.37300 31.90200
H  43.14100 45.77300 32.23100
H  41.81900 46.26700 33.23100
Mg -2.30900 35.37100 27.29500
C  -3.57700 33.43900 29.82500
C  -1.11000 37.59100 29.53900
C  -1.24600 37.05200 24.68700
C  -3.48400 32.87300 25.01200
N  -2.48300 35.54200 29.38200
C  -2.98900 34.64300 30.26800
C  -2.61500 34.94900 31.75600
C  -2.04200 36.42000 31.58200
C  -1.88100 36.55800 30.07600
C  -2.92800 37.54600 32.16600
C  -1.63100 33.97400 32.34400
C  -2.09200 33.11800 33.56000
H  -1.23100 32.97900 34.70500
N  -1.34200 37.12900 27.05500
C  -0.85800 37.85000 28.14200
C  -0.14900 38.99300 27.58700
C  -0.30100 38.91900 26.13100
C  -1.01800 37.68100 25.90500
C  0.61600 40.07500 28.43100
C  0.16600 39.90400 25.08500
O  -0.05500 39.79200 23.82200
C  0.93500 41.20000 25.60000
N  -2.52400 35.06900 25.16100
C  -1.84100 35.84800 24.29300
C  -1.97100 35.42800 22.82400
C  -2.45900 33.93400 22.96200
C  -2.92000 33.94000 24.41300
C  -2.82300 36.29700 21.86200
C  -1.44300 32.85800 22.61200
C  -0.36700 32.62100 23.71200
N  -3.38500 33.53000 27.37100
C  -3.86000 32.71500 26.32600
C  -4.58800 31.60800 26.96800
C  -4.39700 31.81100 28.38000
C  -3.79800 33.05600 28.55000
C  -5.26400 30.61400 26.15500
C  -4.69000 31.29200 29.69100
O  -5.28600 30.25900 29.97000
C  -4.09600 32.28200 30.68600
C  -5.17800 32.75100 31.59200
O  -6.11100 33.51800 31.39500
O  -5.06200 32.01200 32.69800
C  -5.89100 32.33600 33.90200
H  -0.70800 38.24400 30.31700
H  -0.91400 37.65000 23.83600
H  -3.70900 32.04100 24.34000
H  -3.42900 35.11000 32.46300
H  -1.08100 36.56500 32.07400
H  -3.93800 37.21000 32.40300
H  -3.00300 38.43500 31.54000
H  -2.51700 37.72900 33.15900
H  -0.71200 34.48100 32.63600
H  -1.44700 33.18600 31.61400
H  -2.17800 32.10800 33.16000
H  -3.08300 33.35800 33.94600
H  1.68200 39.91800 28.26000
H  0.36300 39.97800 29.48700
H  0.33000 41.09300 28.16800
H  1.83600 41.01500 26.18500
H  0.30700 41.87600 26.18100
H  1.16600 41.76900 24.69900
H  -0.92100 35.37500 22.53600
H  -3.39400 33.68300 22.46200
H  -3.28500 35.64400 21.12100
H  -2.06800 36.91300 21.37300
H  -3.55000 36.99200 22.28400
H  -0.97100 33.23000 21.70200
H  -1.97900 31.97200 22.27000
H  -0.66700 32.71000 24.75600
H  0.60400 33.07900 23.52500
H  -0.00600 31.59900 23.59600
H  -6.21800 30.98200 25.77800
H  -5.62700 29.79500 26.77700
H  -4.70400 30.04500 25.41300
H  -3.22500 31.79600 31.12500
H  -6.81000 32.87900 33.68300
H  -5.31200 32.91200 34.62300
H  -6.09700 31.33900 34.29200

