158

Mg -1.93800 17.82300 26.89600
C  -2.55900 15.72100 29.77200
C  -2.52200 20.54600 28.81200
C  -1.66400 19.54500 24.17300
C  -2.31700 14.85200 25.00700
N  -2.48000 18.07400 29.00900
C  -2.53800 17.12100 30.03700
C  -2.62200 17.96800 31.31400
C  -3.31000 19.30600 30.89400
C  -2.76200 19.37400 29.44500
C  -4.86200 19.09300 30.81900
C  -1.32000 18.02900 32.15900
C  -1.48300 18.27600 33.66400
H  -0.91900 17.29000 34.65800
N  -1.85800 19.79800 26.57000
C  -2.03600 20.81900 27.50000
C  -1.85900 22.06500 26.96000
C  -1.57700 21.82900 25.56200
C  -1.63400 20.28400 25.38000
C  -2.14500 23.34700 27.63200
C  -1.22700 22.73900 24.45200
O  -1.06200 22.35400 23.29600
C  -1.10000 24.23600 24.76300
N  -2.00800 17.25300 24.90800
C  -1.86700 18.17900 23.93000
C  -2.16300 17.70300 22.47700
C  -2.11500 16.19900 22.75500
C  -2.14600 16.06100 24.30600
C  -3.56200 18.30300 21.97200
C  -0.87400 15.40100 22.23600
C  0.46900 15.50700 22.99300
N  -2.29800 15.69200 27.27300
C  -2.32700 14.64200 26.40300
C  -2.55500 13.39500 27.14200
C  -2.63800 13.81000 28.43000
C  -2.46800 15.20200 28.48700
C  -2.62800 11.97000 26.59600
C  -2.75700 13.32100 29.80800
O  -2.87700 12.18700 30.25000
C  -2.74500 14.55500 30.70900
C  -1.58900 14.37700 31.67200
O  -0.42100 14.54100 31.45100
O  -2.11400 13.91100 32.83700
C  -1.17500 13.40200 33.87400
H  -2.76400 21.36300 29.49500
H  -1.68400 20.10300 23.23500
H  -2.28900 13.93500 24.41400
H  -3.26500 17.49700 32.05800
H  -3.01400 20.10800 31.57000
H  -5.24600 19.33600 29.82800
H  -5.25900 19.87700 31.46400
H  -5.29000 18.13400 31.11200
H  -0.73400 18.80300 31.66400
H  -0.72500 17.15100 31.90500
H  -2.49900 18.42600 34.02800
H  -1.01400 19.25200 33.79300
H  -2.23000 23.28200 28.71700
H  -3.07100 23.69600 27.17600
H  -1.37300 24.05500 27.32900
H  -0.48200 24.54000 25.60800
H  -2.14300 24.39600 25.03600
H  -0.70400 24.76300 23.89500
H  -1.36400 17.84300 21.74900
H  -3.01600 15.71600 22.37800
H  -3.38600 18.97000 21.12900
H  -4.04400 18.87700 22.76400
H  -4.22800 17.54600 21.55500
H  -0.63400 15.91200 21.30400
H  -0.97500 14.34400 21.98900
H  0.85100 14.49000 23.09100
H  0.38100 15.85400 24.02200
H  1.15800 16.15600 22.45300
H  -2.81300 12.12400 25.53200
H  -3.49300 11.52100 27.08400
H  -1.71200 11.38100 26.65200
H  -3.63600 14.58300 31.33600
H  -0.80400 12.40100 33.65300
H  -1.62100 13.38600 34.86800
H  -0.29100 14.03600 33.92800
Mg 41.21000 9.17200 30.02400
C  43.23400 10.34900 32.62200
C  38.97700 8.03500 32.43300
C  39.43300 7.79000 27.62900
C  43.78900 10.06500 27.75400
N  41.24400 9.10100 32.25400
C  42.09600 9.74000 33.09600
C  41.66500 9.78300 34.57700
C  40.43900 8.78100 34.46300
C  40.16400 8.59200 32.92700
C  40.70600 7.37100 35.05500
C  41.38000 11.22000 35.04900
C  40.43000 11.39700 36.25600
H  40.77100 12.41300 37.44100
N  39.38800 8.25300 29.96800
C  38.56200 7.88200 31.06300
C  37.38200 7.30900 30.55100
C  37.48900 7.24400 29.18500
C  38.81700 7.80400 28.86400
C  36.25000 6.82600 31.45000
C  36.49300 6.78500 28.15600
O  36.66800 6.70300 26.98500
C  35.09600 6.52400 28.53800
N  41.62100 8.85600 27.94600
C  40.67600 8.26900 27.16700
C  41.09500 8.24200 25.70300
C  42.55700 8.88800 25.71000
C  42.67500 9.42900 27.14700
C  40.84200 7.07400 24.76200
C  42.75400 9.89100 24.56100
C  42.38700 11.35200 24.95000
N  43.10500 10.00600 30.12800
C  44.04400 10.31900 29.08500
C  45.23200 10.94300 29.76300
C  44.89300 11.07100 31.13700
C  43.63800 10.40800 31.30000
C  46.47400 11.43100 29.09200
C  45.32700 11.57300 32.35800
O  46.26200 12.25500 32.63700
C  44.32000 11.00800 33.39200
C  45.02700 10.10500 34.27500
O  45.44200 9.01300 33.96700
O  44.79300 10.52300 35.52100
C  45.07500 9.66600 36.63600
H  38.21400 7.80300 33.17800
H  38.87000 7.52700 26.73100
H  44.61000 10.27000 27.06200
H  42.47300 9.39900 35.20000
H  39.61500 9.16600 35.06300
H  40.48200 6.56000 34.36200
H  40.13700 7.27500 35.97900
H  41.78100 7.39300 35.23600
H  40.83700 11.70700 34.23900
H  42.28900 11.81500 35.13600
H  40.23700 10.48700 36.82300
H  39.45200 11.70800 35.88900
H  36.57500 6.60700 32.46700
H  35.91300 5.84300 31.12000
H  35.59000 7.66600 31.23700
H  35.06700 5.87300 29.41200
H  34.61400 6.00300 27.71100
H  34.44900 7.38700 28.69600
H  40.48100 8.99000 25.20100
H  43.29000 8.08200 25.68100
H  41.75700 6.94900 24.18300
H  40.03200 7.40300 24.11200
H  40.58300 6.21300 25.37800
H  42.37100 9.43300 23.64900
H  43.81400 9.75000 24.35400
H  43.27200 11.98600 24.99900
H  41.93200 11.44400 25.93600
H  41.67000 11.65300 24.18600
H  47.13600 10.64900 28.72100
H  47.12200 12.00300 29.75600
H  46.26400 12.02900 28.20600
H  43.97700 11.90500 33.90800
H  45.21600 8.62400 36.35200
H  44.32500 9.91700 37.38700
H  46.06600 9.90700 37.02000

