158

Mg -1.69600 18.38700 27.19500
C  -2.10900 16.08800 29.78400
C  -2.15100 20.88900 29.35100
C  -1.53400 20.46500 24.62000
C  -1.54700 15.67400 24.94200
N  -2.26000 18.45900 29.30400
C  -2.28000 17.43700 30.20100
C  -2.51000 17.85300 31.74400
C  -2.57500 19.44900 31.43600
C  -2.29700 19.63700 29.95700
C  -3.92000 20.14500 31.85000
C  -1.41600 17.50600 32.78500
C  -1.19200 18.41300 34.01400
H  -0.88900 17.77500 35.35100
N  -1.97700 20.42000 27.02000
C  -2.10400 21.29400 28.00200
C  -2.16100 22.63600 27.47600
C  -1.75800 22.53500 26.07700
C  -1.77000 21.08000 25.85700
C  -2.21400 23.87300 28.29300
C  -1.48300 23.66400 25.03000
O  -1.03500 23.33900 23.94200
C  -1.63800 25.05300 25.36100
N  -1.74500 18.11100 25.07100
C  -1.50100 19.16400 24.21400
C  -1.37000 18.70300 22.73700
C  -0.99500 17.21300 22.96100
C  -1.55800 16.96300 24.35700
C  -2.68800 18.95400 21.81700
C  0.49700 16.72700 22.80000
C  0.76500 15.27100 22.37000
N  -1.73200 16.31700 27.29700
C  -1.64300 15.34600 26.30700
C  -1.65100 14.01300 26.98700
C  -1.92500 14.27600 28.31100
C  -1.86800 15.73100 28.48600
C  -1.60900 12.69200 26.31300
C  -2.17500 13.70600 29.63300
O  -2.28100 12.52700 30.00700
C  -2.27400 14.82100 30.62700
C  -1.18400 14.66500 31.56300
O  -0.04000 15.11500 31.39900
O  -1.71500 14.01300 32.67200
C  -0.77900 13.76400 33.74400
H  -2.14900 21.72100 30.05900
H  -1.44500 21.12000 23.75100
H  -1.29300 14.82500 24.30400
H  -3.44900 17.38800 32.04500
H  -1.77800 20.00000 31.93600
H  -3.57100 21.03800 32.37000
H  -4.55500 19.51100 32.46900
H  -4.51600 20.48900 31.00500
H  -0.45500 17.30200 32.31300
H  -1.62500 16.61700 33.38000
H  -2.03800 19.09800 34.06900
H  -0.29000 18.94600 33.71500
H  -1.17500 24.19400 28.37200
H  -2.57200 23.56400 29.27500
H  -2.87800 24.66800 27.95400
H  -2.65200 25.38100 25.13600
H  -0.90100 25.59300 24.76700
H  -1.29500 25.27800 26.37100
H  -0.49800 19.16900 22.27900
H  -1.56200 16.64600 22.22200
H  -3.43200 19.62200 22.25100
H  -3.16600 18.03600 21.47700
H  -2.26100 19.57500 21.02900
H  1.10200 16.91500 23.68600
H  0.90800 17.33300 21.99200
H  1.66000 14.91500 22.88100
H  0.86800 15.24000 21.28500
H  -0.12000 14.65900 22.54200
H  -1.14800 11.79000 26.71400
H  -1.11300 12.75100 25.34400
H  -2.57900 12.44500 25.88100
H  -3.25800 14.80500 31.09400
H  -0.61700 14.63600 34.37800
H  0.14500 13.43200 33.27000
H  -1.23000 12.91800 34.26200
Mg 35.76300 3.01300 30.76200
C  33.41400 4.30800 33.03000
C  38.11400 2.94000 33.31400
C  38.03800 2.20200 28.45300
C  33.43300 3.60300 28.21800
N  35.82600 3.76600 32.91000
C  34.65500 3.97700 33.64000
C  34.92600 3.88500 35.19800
C  36.48900 3.61400 35.22400
C  36.87500 3.46300 33.72400
C  37.23600 4.79600 35.85500
C  34.08800 2.69000 35.73000
C  33.35300 3.01200 37.10200
H  33.99200 4.14800 37.93900
N  37.70300 2.45200 30.89000
C  38.50300 2.51200 32.02400
C  39.80900 1.99600 31.73300
C  39.78700 1.65200 30.30300
C  38.48300 2.14800 29.80800
C  40.88300 1.67800 32.82400
C  40.79200 0.96400 29.43600
O  40.53500 0.67900 28.24500
C  42.16500 0.55200 30.05100
N  35.69500 2.82800 28.59700
C  36.73700 2.41500 27.88400
C  36.41900 2.45200 26.45900
C  34.85200 2.40400 26.34500
C  34.65200 3.05000 27.78600
C  37.04300 3.71100 25.83800
C  34.21500 0.98000 26.16100
C  33.47300 0.80700 24.87800
N  33.86500 3.91900 30.62200
C  33.04100 3.99200 29.51100
C  31.78500 4.56700 29.86500
C  31.82900 4.70400 31.26300
C  33.13500 4.30900 31.67800
C  30.63300 4.83000 28.85400
C  31.14900 5.13000 32.44400
O  30.06600 5.61900 32.42400
C  32.13400 4.81600 33.65900
C  32.23700 6.02200 34.55300
O  33.04500 6.97400 34.39400
O  31.36800 5.88900 35.54800
C  31.38300 6.80300 36.66800
H  38.70100 2.88400 34.23300
H  38.75600 1.99900 27.65500
H  32.63700 3.56700 27.47100
H  34.58400 4.80900 35.66700
H  36.77900 2.71400 35.76400
H  38.01500 5.10900 35.16000
H  37.84500 4.48100 36.70200
H  36.69200 5.69800 36.13300
H  34.75800 1.83300 35.80300
H  33.30900 2.32000 35.06200
H  33.49300 2.07000 37.63100
H  32.28000 3.12100 36.94500
H  41.90700 2.02800 32.69800
H  40.99400 0.60100 32.95200
H  40.59300 2.14100 33.76700
H  42.50800 -0.21800 29.35900
H  41.87600 0.11800 31.00800
H  42.90700 1.34100 30.17400
H  36.81600 1.48500 26.15000
H  34.55800 3.08800 25.54900
H  37.38600 4.44500 26.56700
H  36.38700 4.28000 25.17900
H  37.92800 3.35600 25.31000
H  33.72700 0.75600 27.11000
H  35.01700 0.24400 26.10900
H  33.61900 1.62400 24.17100
H  32.39900 0.73000 25.04600
H  33.85300 -0.12600 24.46300
H  30.01500 5.66300 29.18900
H  30.03300 3.94300 29.05800
H  30.83300 4.95700 27.79000
H  31.69300 4.02000 34.26000
H  30.75000 7.67900 36.52300
H  32.37000 7.12800 36.99700
H  31.01700 6.10200 37.41900

