158

Mg 2.13500 -2.19100 44.99100
C  5.47300 -1.24300 44.62600
C  1.32500 0.67500 43.07800
C  -1.08700 -3.14800 45.17800
C  3.21300 -5.26400 46.25500
N  3.22100 -0.44500 44.02700
C  4.64200 -0.29500 43.96400
C  5.11200 0.93700 43.18300
C  3.76500 1.51400 42.75800
C  2.72000 0.53100 43.34600
C  3.56800 2.99400 43.32500
C  6.15800 0.62700 41.97300
C  7.30600 1.64300 41.72500
H  7.35500 2.38700 40.37000
N  0.38700 -1.40100 44.19600
C  0.22600 -0.17700 43.56700
C  -1.18700 0.03300 43.36300
C  -1.89200 -1.08100 43.90200
C  -0.87200 -1.93700 44.50400
C  -1.76500 1.27600 42.81900
C  -3.38700 -1.18300 43.94000
O  -4.10200 -0.25100 43.58600
C  -4.24000 -2.34700 44.52500
N  1.22300 -3.98600 45.47800
C  -0.14100 -4.08700 45.65800
C  -0.54500 -5.45800 46.17400
C  0.81200 -6.16600 46.50800
C  1.81400 -5.03700 46.11100
C  -1.47700 -5.42900 47.36800
C  1.01600 -7.50900 45.76600
C  1.02300 -8.75100 46.59300
N  3.91800 -3.05300 45.46300
C  4.21100 -4.33900 45.93900
C  5.65200 -4.52600 46.06800
C  6.19900 -3.30400 45.62600
C  5.07700 -2.47800 45.20100
C  6.44700 -5.73200 46.58600
C  7.44700 -2.50700 45.54400
O  8.64300 -2.76800 45.82200
C  7.02100 -1.17400 44.82000
C  7.30900 0.05600 45.52500
O  6.68100 0.49400 46.48500
O  8.30100 0.76600 44.88000
C  8.61600 2.07700 45.47100
H  1.02500 1.50400 42.43400
H  -2.13100 -3.40000 45.37500
H  3.38100 -6.26700 46.65400
H  5.49000 1.64600 43.92000
H  3.69400 1.46800 41.67100
H  4.45500 3.62700 43.29800
H  3.08800 2.86800 44.29600
H  2.76000 3.30000 42.66000
H  5.64000 0.54900 41.01700
H  6.60800 -0.36200 42.05500
H  8.26400 1.26900 42.08500
H  7.13600 2.45700 42.42900
H  -2.26600 2.01600 43.44300
H  -2.50000 1.03600 42.05100
H  -0.88600 1.81100 42.46000
H  -4.38500 -2.39100 45.60500
H  -3.89700 -3.26900 44.05600
H  -5.22400 -2.26000 44.06400
H  -1.01200 -5.95000 45.32100
H  0.99900 -6.35100 47.56600
H  -1.10300 -6.10700 48.13500
H  -2.52500 -5.68500 47.21400
H  -1.40200 -4.40000 47.72200
H  1.97500 -7.40200 45.25900
H  0.38100 -7.74200 44.91200
H  1.75600 -9.39800 46.11000
H  0.06500 -9.25800 46.48100
H  1.27200 -8.50400 47.62500
H  7.33100 -5.26300 47.01900
H  6.72300 -6.41400 45.78100
H  5.90500 -6.25100 47.37600
H  7.53200 -1.18700 43.85700
H  7.87500 2.71100 44.98400
H  9.66000 2.30200 45.25000
H  8.36300 2.26100 46.51600
Mg 47.49700 34.34400 27.63700
C  45.52100 32.76300 30.12100
C  47.75900 37.04500 29.81700
C  48.98400 35.91400 25.07000
C  46.56600 31.81700 25.45700
N  46.86900 34.72000 29.76600
C  46.18800 33.86700 30.60700
C  46.23400 34.41700 32.09800
C  46.39600 35.93800 31.80400
C  47.10700 35.92000 30.40500
C  45.07800 36.73000 31.72400
C  47.51400 33.88400 32.80700
C  47.38900 33.73400 34.30200
H  46.26000 34.56000 34.98500
N  48.28300 36.22100 27.42400
C  48.39800 37.13700 28.50100
C  49.26700 38.26100 28.03700
C  49.47600 38.00000 26.64000
C  48.98000 36.66800 26.29900
C  49.70100 39.35100 29.02400
C  50.20400 38.89700 25.66200
O  50.46300 38.44000 24.50800
C  50.70800 40.28500 26.04200
N  47.89300 33.83700 25.53000
C  48.50100 34.66700 24.71500
C  48.27700 34.27200 23.22300
C  47.78200 32.77600 23.39000
C  47.36300 32.78300 24.84300
C  47.14000 35.22700 22.54400
C  48.88100 31.70700 23.06000
C  50.07700 31.56200 24.00400
N  46.31000 32.63200 27.69600
C  46.04800 31.69200 26.69400
C  45.34000 30.57400 27.32500
C  45.10200 31.03200 28.65300
C  45.67100 32.23100 28.83700
C  44.96900 29.28300 26.73800
C  44.34200 30.62700 29.84500
O  43.72800 29.58700 30.01800
C  44.40700 31.85000 30.82100
C  44.52600 31.47200 32.23900
O  45.56300 31.28500 32.77600
O  43.28400 31.63900 32.84100
C  43.25600 31.51300 34.32400
H  47.69900 37.90700 30.48500
H  49.42600 36.33200 24.16300
H  46.25700 30.92500 24.90800
H  45.27400 34.22900 32.58000
H  46.94500 36.50400 32.55600
H  44.58000 36.59900 30.76300
H  45.16500 37.74000 32.12400
H  44.42600 36.20800 32.42400
H  48.38800 34.49900 32.59300
H  47.57300 32.92700 32.28800
H  48.32100 33.88200 34.84800
H  47.16400 32.67300 34.40700
H  50.75500 39.62900 29.02600
H  49.47000 38.97100 30.01900
H  49.06000 40.22900 28.94800
H  49.90300 40.80600 26.56100
H  50.95700 40.75100 25.08900
H  51.49000 40.10900 26.78100
H  49.24100 34.39500 22.72800
H  46.94500 32.53200 22.73600
H  46.82300 36.02400 23.21700
H  46.28200 34.62400 22.24900
H  47.56600 35.61100 21.61700
H  49.14500 31.91500 22.02300
H  48.40600 30.72800 23.00300
H  50.87800 31.93700 23.36600
H  50.06400 30.48900 24.19600
H  50.13300 32.12100 24.93800
H  45.76200 28.94300 26.07100
H  44.01600 29.34300 26.21200
H  45.00600 28.51400 27.50900
H  43.50600 32.44400 30.66900
H  43.83100 30.61900 34.56500
H  42.24300 31.34100 34.68700
H  43.57400 32.43200 34.81600

