158

Mg 16.08900 51.72100 25.60900
C  18.00600 50.70700 28.39500
C  13.83700 53.14100 27.69600
C  14.33500 52.48300 22.95800
C  18.60600 50.20400 23.62300
N  16.11100 52.01400 27.83200
C  16.86800 51.45500 28.76800
C  16.40500 51.80200 30.29600
C  14.93700 52.37800 30.02200
C  14.94000 52.51300 28.38600
C  13.70000 51.47000 30.48900
C  17.36500 52.74600 31.02800
C  17.69500 52.40500 32.48300
H  16.72500 51.52100 33.26100
N  14.38500 52.86500 25.31900
C  13.57800 53.33200 26.32400
C  12.46900 54.03500 25.70300
C  12.54500 53.88600 24.24900
C  13.78700 53.01500 24.12500
C  11.37900 54.63500 26.54100
C  11.59300 54.26100 23.15200
O  11.89900 53.97100 21.99400
C  10.42500 55.13700 23.47600
N  16.40900 51.28800 23.59400
C  15.51000 51.82000 22.63200
C  15.98400 51.49400 21.24000
C  17.45200 50.86000 21.46900
C  17.52000 50.87000 22.97600
C  15.09400 50.46300 20.48900
C  18.61100 51.72600 20.90000
C  19.30400 51.15000 19.63200
N  17.85700 50.67500 25.90300
C  18.78400 50.15200 25.00600
C  19.88300 49.44400 25.75400
C  19.57900 49.67400 27.06900
C  18.37900 50.40100 27.06400
C  20.99000 48.65700 25.15200
C  20.03600 49.38600 28.45400
O  21.00500 48.82400 28.88400
C  19.03700 50.10700 29.34800
C  18.60300 49.03700 30.20400
O  17.81100 48.17800 29.82100
O  19.24500 49.09300 31.45600
C  19.08500 47.91900 32.33800
H  13.08900 53.57400 28.36400
H  13.85300 52.84100 22.04600
H  19.36900 49.63700 23.08400
H  16.37900 50.86200 30.84800
H  14.84300 53.40100 30.38700
H  14.06800 50.51200 30.85500
H  13.04700 51.31200 29.63000
H  13.06200 51.90000 31.26100
H  16.98600 53.75800 30.88200
H  18.28100 52.74600 30.43700
H  17.85200 53.27500 33.12000
H  18.61800 51.83300 32.38600
H  11.12900 55.65700 26.26000
H  11.77600 54.80300 27.54200
H  10.60800 53.86500 26.49800
H  10.83700 56.10600 23.75800
H  9.80500 54.78400 24.30000
H  9.72900 55.35400 22.66500
H  16.10700 52.47600 20.78200
H  17.37900 49.80600 21.20200
H  14.52300 49.95400 21.26600
H  15.64400 49.84500 19.78000
H  14.47300 51.05300 19.81500
H  19.41900 51.81800 21.62400
H  18.32000 52.75200 20.67400
H  20.36100 51.35000 19.81200
H  19.04500 51.74100 18.75400
H  19.16100 50.08700 19.43800
H  20.56800 47.96300 24.42500
H  21.33500 48.03300 25.97700
H  21.71800 49.32600 24.69400
H  19.51900 50.78100 30.05600
H  18.98800 46.94200 31.86400
H  18.17700 47.97900 32.93800
H  19.90600 47.88000 33.05400
Mg -11.76500 17.02900 42.33500
C  -8.27200 18.22600 42.23700
C  -12.55200 20.38500 41.66900
C  -14.75800 16.06000 42.07100
C  -10.44900 13.77900 42.47600
N  -10.51300 19.05400 41.83200
C  -9.16300 19.27900 42.03400
C  -8.75100 20.73800 41.85900
C  -10.19800 21.38400 41.93800
C  -11.18000 20.23400 41.70500
C  -10.42100 22.07800 43.34000
C  -8.05900 20.96000 40.50700
C  -6.66000 21.53200 40.42600
H  -5.71000 20.74500 39.62700
N  -13.43600 17.96500 41.81600
C  -13.62300 19.34100 41.64400
C  -15.07600 19.59300 41.45000
C  -15.77200 18.37000 41.58200
C  -14.65400 17.38600 41.81600
C  -15.57100 20.97900 41.12100
C  -17.28600 18.14900 41.46400
O  -17.99400 19.13900 41.30700
C  -17.92000 16.78100 41.33200
N  -12.48000 15.10400 41.95900
C  -13.83200 15.05600 42.24100
C  -14.23700 13.59200 42.59200
C  -12.88000 12.89700 42.76600
C  -11.86900 13.95600 42.41700
C  -15.19100 13.40500 43.82000
C  -12.63300 11.62300 41.99100
C  -13.78600 10.59300 41.97500
N  -9.74000 16.14600 42.29300
C  -9.39000 14.80400 42.34000
C  -7.91400 14.68800 42.56700
C  -7.44700 16.05600 42.66800
C  -8.56900 16.87000 42.34400
C  -7.07000 13.42600 42.67300
C  -6.27300 16.85400 42.83000
O  -5.07600 16.64200 43.01900
C  -6.82900 18.34400 42.50700
C  -6.42000 19.10700 43.69700
O  -6.83800 18.95600 44.85000
O  -5.49200 19.99100 43.35500
C  -4.70500 20.76000 44.32600
H  -12.84400 21.42900 41.54200
H  -15.77500 15.76100 42.33400
H  -10.14100 12.76000 42.72300
H  -8.13900 20.99000 42.72500
H  -10.37000 22.23400 41.27900
H  -9.49900 22.05000 43.92100
H  -11.21500 21.58700 43.90400
H  -10.57000 23.14700 43.18900
H  -8.64000 21.72900 39.99900
H  -8.10000 20.04300 39.92000
H  -6.19400 21.55000 41.41100
H  -6.55900 22.60200 40.24700
H  -16.55400 21.08700 40.66200
H  -14.80000 21.41200 40.48400
H  -15.48000 21.51700 42.06400
H  -18.82400 16.81000 40.72400
H  -18.12000 16.26800 42.27300
H  -17.20800 16.27600 40.67900
H  -14.83300 13.17900 41.77800
H  -12.74500 12.73100 43.83400
H  -14.67200 12.79800 44.56100
H  -16.09500 12.84000 43.59100
H  -15.37600 14.33400 44.35800
H  -11.85300 10.95700 42.35900
H  -12.27000 11.89700 41.00100
H  -13.66400 9.73900 42.64200
H  -13.95800 10.22700 40.96200
H  -14.73400 11.05000 42.25800
H  -6.05800 13.63800 42.32800
H  -7.49300 12.58200 42.12900
H  -7.01300 12.90100 43.62700
H  -6.29800 18.72800 41.63600
H  -3.87700 21.24900 43.81200
H  -4.27800 20.08400 45.06700
H  -5.34900 21.48200 44.82700

