158

Mg 16.78200 -0.97900 27.63600
C  16.11000 1.00200 30.54100
C  18.80900 -2.93400 29.72400
C  18.13500 -2.24900 24.93300
C  15.06500 1.37900 25.79300
N  17.39300 -0.88000 29.74800
C  16.96500 -0.01900 30.85100
C  17.45500 -0.42100 32.22300
C  18.45200 -1.60000 31.82700
C  18.23800 -1.83300 30.34100
C  19.90300 -1.44100 32.21700
C  16.31500 -0.71800 33.30800
C  16.33400 0.10400 34.66800
H  17.75700 0.63900 35.17300
N  18.22200 -2.42300 27.31400
C  18.80700 -3.22800 28.33800
C  19.58500 -4.23000 27.69100
C  19.40800 -4.09900 26.23100
C  18.54100 -2.88300 26.07700
C  20.32500 -5.33300 28.48900
C  19.91700 -4.83100 24.97800
O  19.62000 -4.62100 23.82500
C  21.04600 -5.87600 25.21300
N  16.66300 -0.52700 25.57700
C  17.38000 -1.14500 24.67900
C  17.16200 -0.49200 23.26800
C  15.98400 0.54900 23.56000
C  15.83700 0.42200 25.05200
C  18.48400 0.18300 22.65900
C  14.64700 0.19300 22.82200
C  14.73200 0.23900 21.23600
N  15.70200 0.74100 28.01700
C  15.03100 1.58800 27.19800
C  14.44700 2.66700 28.01100
C  14.80800 2.41800 29.30400
C  15.66600 1.32300 29.26300
C  13.68500 3.89500 27.43600
C  14.64200 2.85200 30.66200
O  13.91300 3.74600 31.04100
C  15.58000 2.03100 31.49400
C  16.44600 3.07700 32.08500
O  17.44500 3.55200 31.54600
O  15.90300 3.54100 33.24700
C  16.57700 4.64000 33.96600
H  19.45700 -3.55900 30.34100
H  18.76000 -2.58900 24.10400
H  14.45700 2.09100 25.23000
H  18.11100 0.32300 32.67400
H  18.19400 -2.59200 32.19700
H  20.58300 -1.90800 31.50500
H  20.16000 -2.05800 33.07800
H  20.11700 -0.38900 32.41000
H  16.41000 -1.80000 33.40100
H  15.42700 -0.41200 32.75500
H  15.88700 -0.51500 35.44600
H  15.62700 0.91400 34.49000
H  20.27900 -6.30000 27.98800
H  19.84700 -5.36600 29.46800
H  21.37100 -5.06000 28.63300
H  20.64800 -6.77100 25.69100
H  21.87200 -5.55200 25.84600
H  21.41800 -6.15900 24.22800
H  16.82900 -1.31500 22.63500
H  16.32300 1.50300 23.15500
H  18.40800 1.26800 22.72600
H  18.56900 -0.13200 21.61900
H  19.40800 -0.18200 23.10800
H  13.84500 0.77900 23.27100
H  14.40800 -0.83800 23.08300
H  14.95100 1.30100 21.12500
H  13.77700 0.09500 20.73200
H  15.54600 -0.36500 20.83600
H  13.79100 4.10800 26.37300
H  14.16000 4.75100 27.91500
H  12.65400 3.81200 27.78300
H  14.89600 1.62300 32.23800
H  16.80700 5.52500 33.37200
H  17.54800 4.21800 34.22700
H  16.10000 4.88400 34.91500
Mg 47.46300 24.32100 28.09600
C  48.54000 26.68500 30.44000
C  47.12400 21.99200 30.45300
C  46.86500 22.24700 25.64800
C  48.49000 26.70300 25.50800
N  47.71500 24.36500 30.27800
C  48.01500 25.48300 31.08700
C  47.95400 25.03300 32.55800
C  47.52000 23.54000 32.51700
C  47.52100 23.24800 30.98600
C  48.30500 22.55700 33.44300
C  47.11800 26.00000 33.29800
C  46.50600 25.52700 34.58000
H  46.33600 26.58800 35.66400
N  46.93900 22.39700 28.08400
C  46.84600 21.54800 29.14800
C  46.53000 20.19300 28.68400
C  46.43900 20.28600 27.34500
C  46.75600 21.73100 26.98300
C  46.49600 19.03600 29.63000
C  46.29300 19.07800 26.35300
O  46.38900 19.19200 25.13100
C  45.87900 17.63200 26.86400
N  47.78000 24.48900 25.90200
C  47.28300 23.49800 25.16600
C  47.42300 23.68800 23.57800
C  47.85900 25.18900 23.56500
C  48.07800 25.41400 25.03700
C  48.55500 22.68100 22.94400
C  46.87500 26.15400 22.87500
C  47.54300 27.32900 22.12600
N  48.38500 26.29400 27.95200
C  48.58300 27.10100 26.85800
C  49.06200 28.33700 27.42600
C  49.15200 28.25300 28.82500
C  48.68400 26.95400 29.09300
C  49.57200 29.51400 26.56200
C  49.44600 28.95700 30.10400
O  49.91500 30.11600 30.33200
C  48.97200 27.92300 31.14200
C  49.94800 27.77600 32.37100
O  50.87900 27.03000 32.52400
O  49.71700 28.80700 33.30000
C  49.98000 28.51300 34.69500
H  46.95700 21.21800 31.20500
H  46.66800 21.59200 24.79700
H  48.61700 27.56000 24.84300
H  48.96400 25.08100 32.96300
H  46.52300 23.40800 32.93700
H  47.69900 21.72900 33.81100
H  48.73100 23.08400 34.29700
H  49.15300 22.17700 32.87400
H  46.29900 26.31100 32.64800
H  47.77500 26.85500 33.45700
H  47.18800 24.80500 35.03000
H  45.53900 25.13600 34.26500
H  47.44100 18.49300 29.65100
H  45.61100 18.41500 29.49000
H  46.49700 19.47300 30.62900
H  45.97500 16.90300 26.05900
H  44.85800 17.61700 27.24600
H  46.58300 17.29400 27.62400
H  46.41600 23.49500 23.20500
H  48.84600 25.38900 23.14700
H  48.84500 21.97600 23.72300
H  49.40300 23.19500 22.49100
H  48.00500 22.29800 22.08400
H  46.09400 26.50300 23.55100
H  46.43200 25.54900 22.08400
H  47.46500 27.10800 21.06200
H  48.58400 27.61700 22.27500
H  46.94800 28.20100 22.40000
H  49.02800 29.57500 25.62000
H  50.63100 29.34300 26.36600
H  49.55600 30.47800 27.07100
H  48.06400 28.35700 31.56100
H  49.10100 28.71800 35.30400
H  50.70300 29.27500 34.98600
H  50.36400 27.51800 34.91800

