158

Mg 54.96200 23.91500 44.64700
C  52.35000 26.10300 43.32000
C  53.51800 21.40000 42.84200
C  57.63900 22.15400 45.36300
C  56.47000 26.81600 46.01500
N  53.19000 23.86700 43.10700
C  52.27500 24.81000 42.76500
C  51.24000 24.32400 41.74500
C  51.53900 22.75300 41.80800
C  52.80400 22.62500 42.65200
C  50.33200 21.91200 42.34800
C  51.45400 24.92000 40.31900
C  50.24600 25.15400 39.37200
H  50.53800 25.85300 38.05700
N  55.47200 21.99300 44.24400
C  54.70200 21.10100 43.53300
C  55.43300 19.87800 43.47400
C  56.58600 19.99300 44.28000
C  56.61500 21.42400 44.74100
C  54.94800 18.60000 42.74200
C  57.57300 18.85800 44.65000
O  57.51900 17.85800 43.97900
C  58.75500 19.01900 45.69400
N  56.78200 24.47600 45.43800
C  57.75100 23.46900 45.68700
C  59.01400 24.13200 46.37100
C  58.67800 25.67900 46.38800
C  57.25700 25.70600 45.87500
C  59.19000 23.66500 47.83200
C  59.57300 26.58500 45.47600
C  61.11600 26.37800 45.50800
N  54.44300 26.00700 44.79200
C  55.10400 27.01000 45.51100
C  54.28800 28.19700 45.64000
C  53.16900 27.90500 44.76900
C  53.33700 26.55300 44.22000
C  54.61600 29.42600 46.48600
C  51.93900 28.42600 44.25000
O  51.45000 29.51900 44.46600
C  51.32000 27.27300 43.34000
C  50.99300 27.84900 42.02400
O  51.69900 28.63900 41.38000
O  49.67900 27.61800 41.80500
C  48.83600 28.45300 40.94700
H  53.06600 20.51200 42.39600
H  58.50700 21.58500 45.70200
H  57.03400 27.62300 46.48800
H  50.21400 24.57400 42.01400
H  51.77600 22.32400 40.83400
H  49.98900 21.32000 41.49900
H  49.43600 22.43500 42.68100
H  50.68900 21.35900 43.21700
H  52.16000 24.30700 39.75900
H  51.89200 25.91800 40.32500
H  49.47300 25.62000 39.98300
H  49.85700 24.15000 39.20000
H  55.64700 17.87300 42.32900
H  54.34700 18.94200 41.89900
H  54.17100 18.15000 43.36100
H  58.52900 19.43100 46.67800
H  59.52800 19.58600 45.17700
H  58.92900 17.94600 45.77600
H  59.84400 23.93100 45.69400
H  58.69100 26.17600 47.35800
H  60.06200 23.01400 47.89700
H  58.29900 23.14500 48.18300
H  59.39700 24.47400 48.53200
H  59.34600 27.61800 45.74000
H  59.19800 26.44800 44.46200
H  61.66800 27.20600 45.95300
H  61.55700 26.15500 44.53600
H  61.34400 25.55200 46.18200
H  55.00800 29.15400 47.46600
H  53.69300 29.95600 46.72100
H  55.25200 30.08600 45.89600
H  50.46100 26.77500 43.79000
H  49.16200 29.48000 41.11300
H  47.79200 28.29500 41.22000
H  48.86700 28.23200 39.88000
Mg 16.94700 51.54600 26.25500
C  18.77700 50.41100 28.87100
C  14.42700 52.52400 28.56900
C  15.02300 52.66500 23.62600
C  19.12200 50.22300 23.95600
N  16.63900 51.41500 28.50400
C  17.56400 50.97900 29.35000
C  17.27400 51.25400 30.84800
C  15.70800 51.67900 30.68500
C  15.52200 51.88900 29.16000
C  14.71700 50.63700 31.26900
C  18.17800 52.35500 31.54100
C  18.68900 52.06400 32.92200
H  17.75000 51.46900 33.98600
N  15.00900 52.46100 26.16600
C  14.13900 52.77300 27.18100
C  13.01100 53.50200 26.62900
C  13.23400 53.58000 25.23500
C  14.42400 52.83600 24.96800
C  11.94200 54.17300 27.47000
C  12.35800 54.30900 24.17800
O  12.70800 54.50200 23.01200
C  11.16400 55.10700 24.76300
N  17.02100 51.50200 24.08700
C  16.22500 52.11300 23.25700
C  16.59800 51.90300 21.82700
C  18.06700 51.39500 21.97800
C  18.07400 50.96700 23.39500
C  15.73100 51.01100 20.97700
C  19.13600 52.51700 21.81300
C  20.34800 52.06500 20.95700
N  18.53800 50.58800 26.32200
C  19.38600 50.04900 25.32500
C  20.47100 49.36400 25.95400
C  20.19700 49.52900 27.29000
C  19.06900 50.26600 27.47800
C  21.54400 48.70900 25.21600
C  20.76500 49.09500 28.53500
O  21.71600 48.36200 28.84300
C  19.96700 49.95700 29.63300
C  19.71400 48.94000 30.69600
O  18.79700 48.13900 30.68900
O  20.68200 48.94200 31.66800
C  20.53300 48.09100 32.83600
H  13.74900 52.93800 29.31800
H  14.58700 53.25300 22.81600
H  19.83700 49.76000 23.27200
H  17.33500 50.28000 31.33300
H  15.54300 52.64300 31.16600
H  14.18700 51.17300 32.05700
H  15.27800 49.84300 31.76300
H  14.04400 50.17400 30.54700
H  17.59100 53.27300 31.58500
H  19.12100 52.41600 30.99900
H  18.97800 53.08400 33.17400
H  19.67100 51.59400 32.87100
H  10.91800 53.91500 27.19900
H  12.17300 55.23800 27.45900
H  11.99200 53.94500 28.53500
H  11.31400 55.75400 25.62800
H  10.39900 54.34800 24.92300
H  10.75600 55.81800 24.04500
H  16.46200 52.86400 21.33100
H  18.33700 50.56900 21.32000
H  14.78100 50.71700 21.42500
H  16.29600 50.18000 20.55500
H  15.43100 51.71600 20.20200
H  19.61800 52.81900 22.74300
H  18.64000 53.38400 21.37600
H  20.72000 52.80300 20.24700
H  20.07500 51.26100 20.27300
H  21.28700 51.79000 21.43900
H  21.17200 48.24500 24.30300
H  22.11300 47.98100 25.79400
H  22.16600 49.58600 25.03900
H  20.56100 50.78200 30.02500
H  20.16000 48.81900 33.55800
H  21.56100 47.90600 33.14800
H  19.73200 47.35400 32.77400

