158

Mg 28.55300 59.10000 42.44500
C  25.94000 57.30800 40.87300
C  30.73900 56.86300 41.30100
C  30.88100 61.43400 42.91100
C  26.07600 61.49000 43.40700
N  28.38200 57.31900 41.07500
C  27.19700 56.70200 40.66600
C  27.53600 55.31200 39.97500
C  29.09200 55.14600 40.30200
C  29.41100 56.48700 40.92200
C  29.40000 53.89900 41.15500
C  27.07000 55.36800 38.50400
C  26.72100 54.03200 37.87800
H  27.41200 53.64500 36.55400
N  30.56200 59.09800 42.22100
C  31.32600 58.07300 41.69400
C  32.73200 58.46400 41.64000
C  32.77300 59.81100 42.08100
C  31.35200 60.20700 42.42400
C  33.85000 57.55800 41.16700
C  34.06600 60.61500 42.22700
O  35.08500 60.15500 41.71900
C  34.11600 61.88900 42.93400
N  28.49300 61.17800 42.98200
C  29.62400 61.89900 43.16900
C  29.36900 63.27900 43.46900
C  27.81600 63.35500 43.78200
C  27.43400 61.92100 43.36500
C  30.22400 63.93600 44.58600
C  27.06500 64.40000 42.93000
C  25.97900 65.29600 43.62700
N  26.45600 59.29400 42.29800
C  25.62100 60.26900 42.83100
C  24.21700 59.80800 42.69200
C  24.32200 58.69300 41.84200
C  25.70800 58.42300 41.66200
C  23.04000 60.51100 43.27100
C  23.59600 57.68800 41.20700
O  22.36600 57.56400 41.15200
C  24.55400 56.72300 40.52500
C  24.31700 55.33700 41.02100
O  24.17500 54.95900 42.19400
O  24.23400 54.56800 39.89900
C  24.06400 53.11500 39.97400
H  31.54400 56.12700 41.25300
H  31.70400 62.11700 43.12800
H  25.32400 62.23500 43.67600
H  26.89200 54.56000 40.43000
H  29.51400 55.21100 39.29900
H  28.50400 53.28100 41.18200
H  29.75500 54.12500 42.16100
H  30.24900 53.38500 40.70400
H  27.89500 55.70400 37.87500
H  26.25100 56.03600 38.23700
H  25.64300 53.94000 37.74000
H  26.88100 53.21700 38.58500
H  34.19600 57.90100 40.19200
H  33.69400 56.48200 41.08000
H  34.70700 57.58900 41.84000
H  33.54400 62.54300 42.27700
H  35.11900 62.26600 43.13500
H  33.63100 61.77100 43.90300
H  29.52600 63.85100 42.55500
H  27.58700 63.38000 44.84700
H  30.94300 64.61200 44.12300
H  30.69300 63.08900 45.08600
H  29.63100 64.41500 45.36600
H  26.68600 63.83700 42.07700
H  27.89300 65.00800 42.56500
H  26.41100 66.29600 43.64900
H  25.87400 64.95900 44.65800
H  24.99800 65.20900 43.15900
H  22.50800 59.86800 43.97300
H  22.27900 60.73700 42.52500
H  23.21400 61.40600 43.86900
H  24.50400 56.67500 39.43800
H  25.03200 52.73300 40.29600
H  23.72500 52.82100 38.98000
H  23.41500 52.78900 40.78700
Mg -11.68100 38.99300 41.89400
C  -9.55400 36.28800 41.02900
C  -9.76700 41.01900 39.96600
C  -14.07200 41.33400 42.19500
C  -13.91100 36.54600 43.19200
N  -9.93400 38.67100 40.59200
C  -9.20500 37.58100 40.43900
C  -7.90800 37.80100 39.62200
C  -7.93600 39.38900 39.31900
C  -9.30400 39.72400 40.00700
C  -6.65700 40.04500 39.90400
C  -7.92100 36.91400 38.27900
C  -6.82900 35.88400 38.28300
H  -5.68300 36.05700 37.32200
N  -11.81400 40.97300 41.38300
C  -10.91800 41.62300 40.60900
C  -11.28600 43.05000 40.58300
C  -12.47200 43.16500 41.30300
C  -12.84000 41.80200 41.65000
C  -10.39300 44.14700 39.98800
C  -13.28300 44.40300 41.68200
O  -12.93400 45.51100 41.35100
C  -14.59800 44.27000 42.59900
N  -13.61800 39.00000 42.65700
C  -14.44100 40.11400 42.63900
C  -15.91600 39.74800 42.96000
C  -15.79500 38.22700 43.39400
C  -14.37500 37.88000 43.07700
C  -16.53800 40.60000 44.05700
C  -16.85700 37.22700 42.73500
C  -18.06900 36.91800 43.69200
N  -11.65700 36.79400 42.21000
C  -12.66500 36.02200 42.76400
C  -12.16000 34.62500 42.73900
C  -10.91900 34.68900 42.17000
C  -10.72800 36.03000 41.74400
C  -12.83100 33.40200 43.24900
C  -9.79300 33.95100 41.79400
O  -9.47400 32.79400 41.98200
C  -8.95100 34.90200 40.88200
C  -7.56800 34.72600 41.53800
O  -6.79800 33.76200 41.39200
O  -7.21900 35.91200 42.09200
C  -5.95000 35.90700 42.77800
H  -9.15700 41.57800 39.25400
H  -14.94900 41.98500 42.20900
H  -14.66300 35.92600 43.68400
H  -7.07000 37.52900 40.26400
H  -7.99200 39.81800 38.31900
H  -5.87900 39.87900 39.15900
H  -6.45500 39.53800 40.84700
H  -6.86400 41.10000 40.08400
H  -7.70200 37.73100 37.59200
H  -8.83700 36.45100 37.91300
H  -7.32500 34.91900 38.17200
H  -6.39700 35.83900 39.28300
H  -10.86300 44.93300 39.39700
H  -9.75200 43.67100 39.24600
H  -9.73300 44.60000 40.72700
H  -14.86000 45.22200 43.06000
H  -14.44100 43.64100 43.47600
H  -15.46900 43.89200 42.06400
H  -16.54500 39.73500 42.06900
H  -15.88500 38.26600 44.48000
H  -16.95600 39.96900 44.84100
H  -17.29000 41.19300 43.53600
H  -15.92200 41.37300 44.51600
H  -16.33300 36.31500 42.45000
H  -17.37100 37.49300 41.81100
H  -18.19400 37.70700 44.43400
H  -17.85300 35.95800 44.16000
H  -19.02300 36.89600 43.16400
H  -12.59300 32.53300 42.63500
H  -13.91400 33.49900 43.16700
H  -12.41500 33.18500 44.23300
H  -9.02700 34.54200 39.85600
H  -6.12000 36.74000 43.45900
H  -5.10900 36.08000 42.10600
H  -5.78400 34.95600 43.28500

