158

Mg -0.02400 7.19600 26.29400
C  0.88900 9.15100 29.02800
C  0.11600 4.33200 28.22300
C  -0.32700 5.41400 23.47200
C  0.49600 10.03400 24.31700
N  0.49700 6.84100 28.32200
C  0.64600 7.77800 29.32500
C  0.59800 7.14900 30.66100
C  0.28200 5.65400 30.42500
C  0.25100 5.61000 28.89000
C  1.25100 4.54100 31.06200
C  -0.56300 7.84900 31.54500
C  -0.19200 8.13200 33.01700
H  1.01500 7.27500 33.53700
N  -0.05000 5.10400 25.91500
C  0.05400 4.10200 26.82500
C  -0.15400 2.87400 26.10500
C  -0.35000 3.19100 24.74500
C  -0.21700 4.60100 24.63500
C  -0.32700 1.52900 26.80800
C  -0.58100 2.23100 23.55600
O  -0.71300 2.55600 22.36300
C  -0.87300 0.79400 23.86300
N  0.02200 7.68600 24.27500
C  -0.20500 6.78600 23.30100
C  -0.17300 7.39600 21.88800
C  -0.24700 8.91700 22.21600
C  0.17800 8.89100 23.65300
C  0.99400 7.05500 20.93900
C  -1.59800 9.66800 21.86300
C  -2.92900 9.08800 22.40100
N  0.46900 9.25100 26.62400
C  0.63500 10.22900 25.71900
C  1.12400 11.49300 26.31700
C  1.12600 11.11100 27.68600
C  0.83400 9.71600 27.77600
C  1.45600 12.76600 25.72500
C  1.39600 11.70700 28.96600
O  1.73500 12.82000 29.35700
C  1.22200 10.41000 29.92300
C  2.35700 10.22400 30.85900
O  3.38400 9.71000 30.41300
O  2.09400 10.75600 32.11200
C  3.36100 11.10400 32.77800
H  -0.01200 3.39000 28.76100
H  -0.29700 4.96800 22.47600
H  0.61800 10.95700 23.74700
H  1.49800 7.51300 31.15700
H  -0.72200 5.45200 30.79800
H  1.83400 3.99200 30.32200
H  0.82200 3.70600 31.61600
H  2.03000 5.03300 31.64400
H  -1.45800 7.23200 31.61400
H  -0.87300 8.78500 31.08000
H  -1.10300 8.02300 33.60600
H  0.05500 9.18600 33.15200
H  -1.27400 1.22200 26.36200
H  -0.52300 1.61500 27.87700
H  0.52100 0.90400 26.53000
H  -1.71900 0.58700 24.51900
H  -0.00100 0.26900 24.25200
H  -1.05400 0.26700 22.92600
H  -1.16100 7.13700 21.50800
H  0.53500 9.45500 21.68100
H  1.44600 7.92900 20.47000
H  0.73500 6.35100 20.14800
H  1.76500 6.65700 21.59900
H  -1.77000 9.93000 20.81900
H  -1.63900 10.53900 22.51800
H  -3.60800 9.11900 21.55000
H  -3.41900 9.62600 23.21300
H  -2.95200 8.04200 22.70800
H  2.05300 12.52200 24.84700
H  1.99400 13.47100 26.35800
H  0.53200 13.25200 25.41200
H  0.44800 10.67500 30.64400
H  3.51200 10.46200 33.64500
H  3.16100 12.12600 33.10000
H  4.29000 11.07400 32.20900
Mg 35.47600 2.45000 29.19700
C  33.55800 3.80800 31.94700
C  38.20500 2.48200 31.15800
C  37.21500 1.77500 26.44700
C  32.56300 2.99900 27.22500
N  35.80600 3.10600 31.32900
C  34.85400 3.38900 32.27900
C  35.56700 3.41500 33.67200
C  37.09500 3.15200 33.38500
C  37.05400 2.91400 31.82000
C  38.14200 4.19700 33.77000
C  34.88800 2.59700 34.87200
C  35.66500 1.63400 35.78500
H  36.65300 2.19300 36.76300
N  37.48400 1.97500 28.91100
C  38.45300 2.03100 29.81300
C  39.67100 1.52100 29.24600
C  39.46000 1.32500 27.83600
C  38.00600 1.71300 27.65900
C  40.85500 1.25500 30.06200
C  40.27000 1.01000 26.66300
O  39.95100 0.99700 25.50100
C  41.66500 0.67900 26.96400
N  34.95900 2.43000 27.16000
C  35.81000 1.99700 26.24500
C  35.19100 1.90300 24.89100
C  33.68600 2.00000 25.16400
C  33.72300 2.48400 26.61700
C  35.76300 2.87900 23.86700
C  32.93900 0.62100 25.12700
C  32.99100 -0.36700 23.90800
N  33.41100 3.16000 29.50700
C  32.44800 3.42300 28.57600
C  31.25100 3.97700 29.27900
C  31.71000 4.13800 30.67000
C  32.99600 3.61900 30.73100
C  29.83700 4.33600 28.74100
C  31.26500 4.43100 31.96000
O  30.17000 4.77700 32.28800
C  32.42800 4.17300 32.88900
C  32.66000 5.39300 33.73000
O  33.44900 6.26200 33.53600
O  31.71500 5.39900 34.75100
C  31.58400 6.70400 35.40200
H  39.09000 2.32100 31.77800
H  37.66000 1.49000 25.49200
H  31.71700 3.04900 26.53600
H  35.57800 4.44700 34.02500
H  37.52900 2.28700 33.88500
H  38.51900 4.80400 32.94700
H  39.04200 3.66000 34.07100
H  37.76900 4.79400 34.60200
H  34.17800 1.97400 34.32700
H  34.21300 3.16700 35.51000
H  36.09300 0.84000 35.17300
H  34.94400 1.06400 36.37200
H  41.00600 0.17800 30.13200
H  40.76900 1.58200 31.09800
H  41.74800 1.71400 29.63600
H  41.79800 -0.10200 27.71300
H  42.21100 1.59600 27.18500
H  42.05200 0.24100 26.04400
H  35.40400 0.90700 24.50300
H  33.18200 2.81300 24.64000
H  36.74800 3.25200 24.14800
H  35.22600 3.82300 23.76500
H  35.99100 2.40900 22.91000
H  31.96000 1.06700 24.95300
H  33.10100 0.09900 26.07000
H  31.98900 -0.76500 23.74400
H  33.66700 -1.18600 24.15400
H  33.45400 0.15400 23.07100
H  29.28400 3.44500 28.44400
H  30.02200 4.94500 27.85700
H  29.21900 4.79000 29.51600
H  32.23400 3.27300 33.47300
H  31.12400 7.30100 34.61500
H  32.45500 7.10200 35.92300
H  30.86800 6.67500 36.22300

