158

Mg 35.48500 2.11300 30.41700
C  33.37300 3.38100 32.99400
C  38.12400 2.11800 32.62500
C  37.33600 1.21500 27.76700
C  32.74500 2.66500 28.05500
N  35.65300 2.59200 32.50000
C  34.69500 3.10700 33.35400
C  35.19700 3.43400 34.76600
C  36.73000 3.44600 34.45100
C  36.85600 2.65000 33.08100
C  37.38000 4.87000 34.51600
C  34.74300 2.40600 35.88000
C  34.43200 2.99900 37.35000
H  35.20800 4.21200 37.82900
N  37.45400 1.49300 30.31500
C  38.41600 1.53700 31.29700
C  39.65000 0.97900 30.80500
C  39.45400 0.73800 29.43600
C  38.03500 1.13600 29.08600
C  40.90500 0.95200 31.67400
C  40.43000 0.14600 28.35400
O  40.08300 0.04200 27.15500
C  41.82100 -0.22000 28.67400
N  35.06200 1.83200 28.28900
C  36.06300 1.59300 27.46300
C  35.65300 1.73400 26.02800
C  34.12500 2.15200 26.05000
C  33.94200 2.22700 27.56700
C  36.54800 2.61200 25.15500
C  33.20100 1.18000 25.27300
C  32.04400 1.95800 24.54900
N  33.46300 2.75100 30.50000
C  32.46400 2.86000 29.45000
C  31.25100 3.26400 30.09600
C  31.52200 3.43900 31.47300
C  32.87400 3.15800 31.65600
C  29.90500 3.46300 29.37900
C  30.96700 3.79400 32.78500
O  29.88900 4.11700 33.13900
C  32.13600 3.74000 33.82900
C  32.30200 5.08900 34.49700
O  32.77500 6.07200 33.97500
O  31.58500 5.09400 35.63800
C  31.36600 6.31900 36.42500
H  38.90300 2.14400 33.39000
H  37.86500 0.89900 26.86600
H  31.86400 2.71800 27.41200
H  34.84900 4.44000 34.99800
H  37.32800 2.99900 35.24500
H  37.71400 5.10900 33.50700
H  38.17900 4.82800 35.25700
H  36.68100 5.59700 34.92800
H  35.55300 1.68700 36.00200
H  33.81800 2.01200 35.46000
H  34.45700 2.18300 38.07200
H  33.41500 3.38900 37.31700
H  41.81700 0.98400 31.07800
H  40.85400 0.02000 32.23700
H  40.94100 1.85700 32.28000
H  42.49300 0.62100 28.50200
H  42.06400 -1.10800 28.09000
H  41.89600 -0.58800 29.69800
H  35.87500 0.72600 25.67700
H  33.84500 3.17900 25.81700
H  35.91800 3.08700 24.40300
H  37.32100 2.00200 24.68800
H  37.04700 3.33400 25.80200
H  32.81000 0.33400 25.83800
H  33.78800 0.76400 24.45400
H  32.23600 3.02400 24.42800
H  31.14800 1.78700 25.14500
H  31.96000 1.59400 23.52500
H  29.04500 3.74100 29.98800
H  29.68100 2.49500 28.93000
H  30.09400 4.14700 28.55100
H  31.98100 2.98400 34.59900
H  30.32300 6.63400 36.38700
H  31.90200 7.17400 36.01200
H  31.74500 5.99700 37.39500
Mg 30.63100 59.09400 40.90800
C  28.19500 57.13700 39.45700
C  33.02000 56.85000 39.64200
C  33.13500 61.39200 41.47900
C  28.28700 61.56800 41.35600
N  30.62200 57.18800 39.68500
C  29.48100 56.63600 39.27300
C  29.82200 55.46500 38.38000
C  31.34900 55.15900 38.67400
C  31.72900 56.42000 39.43000
C  31.71200 53.97900 39.64500
C  29.56700 55.72900 36.90800
C  28.67200 54.67600 36.11700
H  27.69500 55.38600 35.11400
N  32.68500 59.05900 40.71400
C  33.48900 58.00700 40.23100
C  34.93200 58.29000 40.46100
C  34.97700 59.58600 41.08000
C  33.56000 60.05400 41.14600
C  35.95900 57.26600 40.02000
C  36.27700 60.29700 41.56600
O  37.38800 59.72500 41.48700
C  36.21500 61.54100 42.33800
N  30.74100 61.34400 41.13300
C  31.85900 61.98200 41.64400
C  31.48900 63.35400 42.31800
C  29.95400 63.37600 42.15700
C  29.62800 61.99500 41.51600
C  32.06800 63.39300 43.70700
C  29.24700 64.57200 41.35500
C  29.31900 64.62700 39.83800
N  28.59300 59.31800 40.64800
C  27.73600 60.35000 40.92500
C  26.36500 59.92300 40.57800
C  26.50300 58.65000 39.93900
C  27.90800 58.35200 40.05800
C  25.21700 60.80800 40.71700
C  25.78500 57.59400 39.29500
O  24.57200 57.44200 38.98900
C  26.93400 56.47500 39.02100
C  26.51000 55.22700 39.72200
O  26.97700 54.92500 40.81900
O  25.45900 54.64100 39.07800
C  25.02800 53.30100 39.64400
H  33.75000 56.10300 39.32300
H  33.96100 62.09000 41.63200
H  27.48100 62.29400 41.48100
H  29.18400 54.61900 38.63600
H  32.02600 55.23600 37.82400
H  32.19700 53.15600 39.12000
H  30.76000 53.68500 40.08800
H  32.44600 54.32300 40.37300
H  30.51900 55.81200 36.38400
H  29.34400 56.77800 36.71200
H  28.01700 54.02100 36.69100
H  29.35400 54.02600 35.56800
H  36.97500 57.56400 40.27700
H  35.94300 57.21400 38.93200
H  35.64900 56.27400 40.35100
H  37.22300 61.83900 42.62700
H  35.47000 61.61100 43.13100
H  35.91800 62.34700 41.66700
H  31.92800 64.24600 41.87100
H  29.52900 63.33600 43.16000
H  31.59700 62.66700 44.36900
H  31.68200 64.29000 44.19100
H  33.15700 63.38900 43.74900
H  29.70700 65.45200 41.80600
H  28.19500 64.54500 41.63900
H  29.50300 65.67300 39.59300
H  28.38300 64.20600 39.47100
H  30.16500 64.08100 39.42200
H  24.39600 60.22300 40.30200
H  25.20400 61.70700 40.10100
H  25.08400 61.21100 41.72100
H  26.94200 56.28900 37.94700
H  24.19400 52.93400 39.04400
H  24.76100 53.43400 40.69200
H  25.74300 52.48100 39.70600

