158

Mg 35.74600 2.89900 30.28500
C  33.19600 3.70900 32.44300
C  38.08500 3.12900 32.79200
C  38.16300 2.25400 27.97600
C  33.41200 2.86200 27.69500
N  35.62400 3.27900 32.32000
C  34.47100 3.54600 33.05700
C  34.76400 3.39800 34.51000
C  36.29200 3.71300 34.57200
C  36.70800 3.30300 33.08900
C  36.67600 5.14600 34.91500
C  34.35400 2.08600 35.20700
C  33.88300 2.27500 36.65900
H  34.66100 3.32200 37.47100
N  37.85800 2.64400 30.36000
C  38.61100 2.71100 31.57100
C  40.01100 2.43800 31.22200
C  40.08900 2.19800 29.77000
C  38.68200 2.36400 29.29000
C  41.01700 2.45000 32.31100
C  41.19600 1.79300 28.90600
O  41.19000 1.70300 27.68400
C  42.49600 1.45600 29.57200
N  35.71000 2.66200 28.11300
C  36.86700 2.50500 27.40400
C  36.57400 2.11100 25.93300
C  35.01700 2.28300 25.86600
C  34.66300 2.43700 27.31500
C  37.39100 2.82900 24.90200
C  34.40400 1.00900 25.23300
C  34.00400 1.18900 23.73000
N  33.76700 3.32600 30.12200
C  32.94400 3.21900 28.97700
C  31.58900 3.63200 29.32400
C  31.57200 3.73500 30.70000
C  32.94400 3.56100 31.11400
C  30.46900 3.55100 28.43800
C  30.85400 3.88100 31.89800
O  29.64800 3.96300 32.16200
C  31.91000 3.86900 33.06200
C  31.73500 5.11900 33.85900
O  31.66600 6.23600 33.40200
O  31.75900 4.82200 35.20900
C  31.64300 5.95900 36.10800
H  38.81600 3.32800 33.57900
H  38.88600 1.96200 27.21200
H  32.61000 2.94200 26.95900
H  34.21400 4.25000 34.90800
H  36.80200 3.00400 35.22400
H  35.95100 5.70700 35.50400
H  37.02400 5.70700 34.04700
H  37.53500 5.08100 35.58300
H  35.09700 1.29000 35.17000
H  33.51500 1.66600 34.65200
H  33.85000 1.31600 37.17700
H  32.81000 2.47100 36.66200
H  41.60900 3.29600 31.96000
H  41.56000 1.51000 32.40400
H  40.69600 2.68600 33.32600
H  43.22300 1.36700 28.76400
H  42.41100 0.47400 30.03500
H  42.99700 2.15500 30.24200
H  36.92400 1.07900 25.95300
H  34.76500 3.24500 25.42100
H  38.22400 2.19400 24.60000
H  37.87800 3.76000 25.19300
H  36.73300 2.95100 24.04100
H  33.50700 0.68900 25.76400
H  35.08500 0.16300 25.32700
H  34.79400 1.63500 23.12600
H  33.10400 1.80300 23.69100
H  33.55900 0.26400 23.36400
H  30.57300 2.93000 27.54800
H  30.09200 4.53200 28.14900
H  29.69900 3.00900 28.98700
H  31.84100 2.96500 33.66600
H  32.33600 6.74800 35.81800
H  31.90900 5.62200 37.11000
H  30.58900 6.22800 36.03800
Mg -10.47700 17.22800 42.08900
C  -6.95400 16.81300 42.32300
C  -9.75200 20.61800 41.24600
C  -13.59500 17.55100 41.00100
C  -10.70400 13.73300 41.78500
N  -8.56200 18.54800 41.74600
C  -7.30400 18.07900 41.84700
C  -6.31400 19.20100 41.35900
C  -7.18400 20.47300 41.57800
C  -8.59300 19.87300 41.52500
C  -6.95600 21.11800 42.96700
C  -5.93400 18.85400 39.82800
C  -4.48200 18.35400 39.53300
H  -4.26700 17.03700 38.80100
N  -11.53100 18.93800 41.46400
C  -11.05900 20.20800 41.15600
C  -12.24600 21.03300 40.86300
C  -13.35800 20.17400 40.81700
C  -12.91100 18.79800 41.11800
C  -12.17300 22.58300 40.68200
C  -14.73700 20.58000 40.35800
O  -14.80100 21.66700 39.80900
C  -15.96400 19.69800 40.48800
N  -11.93400 15.85900 41.46800
C  -13.16900 16.21300 41.19400
C  -14.11700 15.00000 41.08800
C  -13.06300 13.81200 40.94500
C  -11.81700 14.48600 41.54500
C  -15.28700 14.82100 42.14200
C  -12.81100 13.13700 39.50400
C  -13.75600 11.89000 39.28400
N  -9.17400 15.58000 42.30800
C  -9.38600 14.20100 42.20300
C  -8.14400 13.47600 42.45700
C  -7.14000 14.43300 42.49000
C  -7.78600 15.69200 42.36200
C  -7.92900 12.03800 42.61100
C  -5.73900 14.73800 42.68400
O  -4.83000 14.00200 42.92400
C  -5.53000 16.32000 42.46900
C  -4.85600 16.99900 43.64000
O  -5.15200 16.89400 44.81200
O  -3.77100 17.69100 43.26400
C  -2.98000 18.50200 44.24800
H  -9.73200 21.70900 41.21100
H  -14.57200 17.61600 40.51800
H  -10.73500 12.67300 41.52500
H  -5.36100 19.26500 41.88500
H  -6.86300 21.18700 40.82000
H  -7.78900 21.15500 43.66800
H  -6.60700 22.13800 42.80300
H  -6.20100 20.59000 43.55000
H  -6.07300 19.74400 39.21400
H  -6.61000 18.14500 39.35000
H  -3.89000 18.35800 40.44900
H  -3.99200 19.10700 38.91600
H  -12.53200 22.88900 39.69900
H  -11.19700 23.06800 40.68600
H  -12.81100 22.95800 41.48300
H  -16.74100 20.46300 40.46400
H  -15.74700 19.28700 41.47400
H  -16.11500 19.06700 39.61200
H  -14.47500 15.19600 40.07700
H  -13.48300 13.05200 41.60400
H  -14.96700 15.41300 43.00000
H  -15.59400 13.79500 42.34400
H  -16.16900 15.37500 41.82100
H  -11.77100 12.81600 39.44500
H  -12.89300 13.97400 38.81100
H  -14.30200 11.53300 40.15700
H  -13.20900 11.11000 38.75400
H  -14.61100 12.00400 38.61700
H  -7.06600 11.73600 42.01700
H  -8.78800 11.36700 42.62100
H  -7.55100 11.86300 43.61800
H  -4.90000 16.56700 41.61500
H  -1.97500 18.11400 44.41600
H  -3.40700 18.62800 45.24300
H  -2.84700 19.49500 43.81800

