158

Mg 54.24200 24.40700 44.41700
C  51.67400 26.65800 43.66200
C  52.23300 21.86100 43.19900
C  56.95300 22.51600 44.43800
C  56.34600 27.28500 44.66500
N  52.22000 24.25100 43.65000
C  51.35000 25.31500 43.45400
C  49.97900 24.75300 42.93900
C  50.07800 23.22400 43.28300
C  51.59900 23.06700 43.37200
C  49.38700 22.71100 44.58500
C  49.72300 24.96500 41.44100
C  48.26100 25.25900 41.01000
H  48.05300 24.79100 39.57400
N  54.55000 22.38500 43.96200
C  53.59800 21.46300 43.44700
C  54.22700 20.20500 43.41400
C  55.60400 20.34800 43.85200
C  55.79000 21.78800 44.12600
C  53.45200 19.01400 42.85200
C  56.64300 19.19400 43.83600
O  56.41600 18.13500 43.28200
C  57.98300 19.35000 44.46200
N  56.37000 24.83400 44.29700
C  57.26900 23.89200 44.57300
C  58.64500 24.47700 44.93100
C  58.41300 25.91600 45.04700
C  56.95400 26.01000 44.65800
C  59.34600 23.83600 46.18700
C  59.34800 26.75900 44.14300
C  59.91400 27.97500 44.75400
N  54.06100 26.60600 44.34400
C  55.01200 27.65000 44.54900
C  54.34400 28.90800 44.69600
C  53.01900 28.57500 44.31600
C  52.91200 27.13000 44.10900
C  54.91100 30.21100 44.93000
C  51.64900 29.12400 44.13700
O  51.26600 30.28900 44.32100
C  50.83400 27.92100 43.44900
C  50.45300 28.22800 42.07500
O  51.24700 28.24200 41.14400
O  49.09100 28.71200 41.98700
C  48.74700 29.19300 40.61400
H  51.54000 21.09400 42.84700
H  57.76700 21.78800 44.44900
H  57.08400 28.07000 44.84300
H  49.20900 25.31000 43.47300
H  49.86200 22.54500 42.45900
H  50.07500 22.05900 45.12300
H  48.43100 22.20800 44.43600
H  49.22500 23.53400 45.28100
H  50.11000 24.14300 40.83900
H  50.40100 25.73900 41.08100
H  48.06400 26.33000 41.04300
H  47.53400 24.85300 41.71400
H  53.62500 18.81000 41.79600
H  52.37800 19.17300 42.94800
H  53.65500 18.20700 43.55700
H  58.46200 18.38600 44.63700
H  57.75600 19.88100 45.38600
H  58.69300 19.99400 43.94300
H  59.18500 24.24400 44.01300
H  58.38300 26.22000 46.09300
H  58.59300 23.37900 46.82900
H  59.87200 24.52900 46.84300
H  60.07100 23.11600 45.80800
H  58.91200 27.13600 43.21900
H  60.23900 26.20000 43.85600
H  59.77900 28.90900 44.20900
H  61.00000 27.90700 44.81100
H  59.49800 28.02600 45.76000
H  54.28000 30.55300 45.75100
H  54.62800 30.82500 44.07500
H  55.95800 30.18500 45.23100
H  50.04600 27.73000 44.17700
H  49.55300 29.51500 39.95500
H  48.20900 30.14000 40.59000
H  48.14800 28.36800 40.22800
Mg -12.85100 16.28500 40.72100
C  -9.99000 14.23900 40.28700
C  -11.07000 18.97600 39.54800
C  -15.76600 17.86200 40.64800
C  -14.63400 13.19200 41.35800
N  -10.78700 16.51300 40.06900
C  -9.78800 15.54800 39.99500
C  -8.42200 16.20100 39.49100
C  -8.71800 17.72500 39.42700
C  -10.27800 17.82000 39.73500
C  -7.81300 18.70300 40.29500
C  -8.02100 15.49600 38.07300
C  -6.55600 15.11600 38.08900
H  -5.60800 16.00800 37.23700
N  -13.32100 18.13200 40.23100
C  -12.49600 19.16100 39.82200
C  -13.24500 20.36000 39.76500
C  -14.61200 20.08700 40.04500
C  -14.61800 18.65900 40.33400
C  -12.65400 21.67700 39.36900
C  -15.81700 21.03200 39.93600
O  -15.64300 22.17700 39.58700
C  -17.17100 20.79000 40.54400
N  -14.92200 15.60100 40.67500
C  -15.89700 16.52400 40.86800
C  -17.27200 15.89600 40.93400
C  -16.78000 14.45500 41.44100
C  -15.33300 14.39900 41.18300
C  -18.40500 16.49000 41.78100
C  -17.56900 13.17000 40.87700
C  -18.26900 12.42600 42.06600
N  -12.42700 14.15700 40.90100
C  -13.26400 13.00100 41.19600
C  -12.44300 11.82500 41.21700
C  -11.10000 12.26800 40.85700
C  -11.22600 13.69100 40.69400
C  -13.00300 10.49900 41.51400
C  -9.71000 11.81600 40.74400
O  -9.17800 10.68700 40.79600
C  -8.90700 13.12400 40.40400
C  -7.96200 13.48000 41.53700
O  -8.15200 14.33500 42.38400
O  -6.69400 13.01700 41.20200
C  -5.52100 13.59400 41.84200
H  -10.54900 19.83300 39.11500
H  -16.64100 18.47800 40.43100
H  -15.07900 12.26700 41.73000
H  -7.70700 16.00700 40.29100
H  -8.51400 18.06800 38.41300
H  -7.19700 19.23400 39.56800
H  -7.02400 18.29800 40.92900
H  -8.43300 19.48400 40.73500
H  -8.18600 16.24800 37.30100
H  -8.57600 14.56700 37.93900
H  -6.60400 14.10100 37.69300
H  -6.20100 15.15100 39.11900
H  -12.68400 21.68300 38.27900
H  -11.58900 21.73900 39.59000
H  -13.15400 22.55200 39.78300
H  -17.88800 20.30200 39.88300
H  -17.75400 21.69400 40.72400
H  -17.11600 20.22500 41.47500
H  -17.52700 15.75300 39.88400
H  -16.80200 14.41900 42.53000
H  -19.37300 16.63300 41.30000
H  -18.11800 17.52200 41.97900
H  -18.57700 15.98300 42.73000
H  -17.05800 12.54300 40.14700
H  -18.33500 13.63500 40.25700
H  -18.32600 12.81500 43.08300
H  -17.66600 11.52500 42.17900
H  -19.29800 12.08000 41.97100
H  -14.07900 10.35500 41.61400
H  -12.47300 10.04200 42.35000
H  -12.71700 9.90600 40.64500
H  -8.40500 13.05000 39.43900
H  -5.16300 12.87100 42.57400
H  -5.62000 14.57900 42.29800
H  -4.72400 13.65200 41.10100

