158

Mg 40.79300 8.98700 28.11100
C  42.36200 10.41000 30.80200
C  38.28300 7.92900 30.21600
C  39.46400 7.32700 25.51800
C  43.39500 10.04100 26.01700
N  40.48100 9.04600 30.26800
C  41.20700 9.81000 31.19400
C  40.57600 9.72200 32.60300
C  39.29200 8.93100 32.34000
C  39.30000 8.66600 30.83500
C  39.08700 7.63100 33.14900
C  40.26100 11.10400 33.25300
C  39.78500 11.02000 34.69900
H  40.65000 11.56700 35.85200
N  39.05000 7.76300 27.87500
C  38.25600 7.38400 28.91300
C  37.16500 6.59600 28.34400
C  37.45700 6.43000 26.93300
C  38.73300 7.13900 26.68200
C  36.08500 6.00000 29.17600
C  36.62900 5.78100 25.80500
O  37.09900 5.67700 24.65600
C  35.29200 5.32300 26.04800
N  41.48000 8.58400 26.17200
C  40.60800 8.00000 25.25700
C  41.16500 7.96600 23.80400
C  42.30800 9.00200 24.00600
C  42.44200 9.23300 25.45500
C  41.57900 6.57400 23.24900
C  42.09600 10.27200 23.10000
C  41.26800 11.36000 23.78300
N  42.56300 9.90700 28.27900
C  43.59300 10.32100 27.36200
C  44.64100 11.05200 28.04600
C  44.17600 10.95900 29.34400
C  42.88300 10.35400 29.49100
C  45.84300 11.64100 27.38800
C  44.52000 11.49500 30.65000
O  45.52000 12.09800 31.03000
C  43.38200 11.12600 31.64800
C  44.00000 10.32300 32.74100
O  44.10100 9.09500 32.89600
O  44.41500 11.11800 33.70100
C  44.90500 10.57800 35.03400
H  37.51400 7.62600 30.93000
H  39.23200 6.67700 24.67100
H  44.23900 10.39200 25.41800
H  41.29100 9.18400 33.22500
H  38.36300 9.47800 32.50100
H  38.90600 6.75100 32.53100
H  38.32300 7.67500 33.92500
H  40.04600 7.31400 33.55900
H  39.56700 11.62700 32.59500
H  41.23500 11.59300 33.28400
H  39.65500 9.94700 34.83600
H  38.89900 11.64400 34.80900
H  35.99500 4.91600 29.12000
H  35.15300 6.49200 28.89800
H  36.14500 6.23800 30.23800
H  35.58800 4.67500 26.87300
H  34.83000 4.80200 25.21000
H  34.74400 6.24400 26.24600
H  40.43100 8.42900 23.14400
H  43.24400 8.52700 23.71400
H  40.91800 6.26000 22.44100
H  41.54100 5.86300 24.07400
H  42.62200 6.50900 22.93700
H  41.72100 9.92000 22.13900
H  43.10600 10.67800 23.04500
H  41.94000 12.09100 24.23000
H  40.58100 10.87000 24.47300
H  40.69500 11.75900 22.94500
H  46.53100 11.99500 28.15500
H  45.52400 12.57200 26.91700
H  46.32500 10.89500 26.75600
H  42.94800 12.03500 32.06500
H  44.75300 9.50000 35.08700
H  44.30200 11.03300 35.82000
H  45.95300 10.85700 35.14000
Mg 41.91100 41.93900 27.40400
C  40.74700 44.34500 29.86100
C  42.58100 39.74800 29.95300
C  43.12200 39.78600 25.15500
C  41.46400 44.46100 25.05000
N  41.36000 41.90300 29.57700
C  41.01600 42.98200 30.41400
C  41.03000 42.66100 31.88700
C  41.55500 41.16800 31.85900
C  41.83100 40.91600 30.38100
C  42.83700 40.92100 32.76400
C  39.72200 42.99700 32.58200
C  39.37900 42.21900 33.83100
H  39.01600 43.15300 35.01000
N  42.66900 40.02100 27.52700
C  42.89200 39.29700 28.64300
C  43.54800 38.06700 28.27500
C  43.61700 38.07500 26.90800
C  43.10200 39.33100 26.48800
C  43.87100 37.00600 29.34100
C  44.13800 36.94000 26.02300
O  44.16700 36.98900 24.78200
C  44.59700 35.62500 26.59800
N  42.30300 42.13000 25.31800
C  42.59400 40.98800 24.58300
C  42.48000 41.29100 23.08800
C  42.00100 42.80900 23.06800
C  41.85900 43.17900 24.57300
C  43.69600 40.98300 22.17100
C  40.66400 43.05700 22.33800
C  39.51400 42.31600 22.84800
N  41.32900 43.99200 27.38100
C  41.23200 44.85700 26.33700
C  40.87400 46.18500 26.80500
C  40.62300 45.98200 28.17900
C  40.97600 44.64200 28.49800
C  40.70700 47.36600 26.01500
C  40.26200 46.58900 29.42100
O  39.96200 47.75600 29.67700
C  40.26500 45.58100 30.51500
C  41.32300 46.11200 31.52400
O  42.46800 46.31400 31.25900
O  40.78600 46.12400 32.82300
C  41.57900 46.48700 33.90500
H  42.57300 38.91700 30.66100
H  43.45900 39.03400 24.43900
H  41.27900 45.23400 24.30200
H  41.76900 43.37800 32.24500
H  40.65400 40.58300 32.04100
H  43.04200 41.77800 33.40500
H  43.65000 40.63700 32.09700
H  42.57600 40.09400 33.42500
H  39.01100 42.92100 31.75900
H  39.70100 44.04100 32.89500
H  40.22900 41.62000 34.15600
H  38.53500 41.55200 33.65300
H  44.86700 36.62000 29.12400
H  43.19900 36.16200 29.18900
H  43.75100 37.25900 30.39400
H  43.83400 35.03500 27.10500
H  45.48300 35.55500 27.23000
H  44.75000 34.91300 25.78800
H  41.66000 40.73200 22.63500
H  42.72700 43.47200 22.59500
H  43.42500 40.05300 21.67100
H  44.55900 40.80900 22.81300
H  43.95500 41.83800 21.54600
H  40.76200 42.77400 21.29000
H  40.39300 44.11000 22.26800
H  39.57500 42.11200 23.91700
H  39.33000 41.37700 22.32600
H  38.65200 42.96700 22.70100
H  39.71300 47.78500 26.17300
H  40.85000 47.17000 24.95200
H  41.47400 48.10800 26.23600
H  39.22800 45.59600 30.85000
H  40.97900 46.36500 34.80700
H  41.85100 47.53100 33.74800
H  42.42700 45.80100 33.90500

