158

Mg 7.62200 53.61700 41.60900
C  7.15000 50.01700 41.25400
C  10.70000 53.31500 40.45300
C  7.44000 56.87000 41.31500
C  3.88300 53.61500 42.07100
N  8.72000 51.86900 41.11100
C  8.40700 50.55000 40.84900
C  9.43500 49.83700 39.93700
C  10.66800 50.69200 40.23000
C  9.99400 52.08400 40.62700
C  11.49700 50.13400 41.46000
C  8.95700 49.79000 38.41200
C  9.45800 48.53800 37.66100
H  8.61700 47.88800 36.63700
N  8.92500 54.90500 41.00300
C  10.19900 54.62200 40.63500
C  10.90300 55.81400 40.38900
C  9.98300 56.81900 40.58100
C  8.69800 56.25800 40.99100
C  12.36600 55.91700 40.01200
C  10.35000 58.30300 40.55200
O  11.44900 58.59000 40.03400
C  9.51200 59.49000 40.96600
N  5.88300 54.96100 41.54100
C  6.14000 56.29200 41.54200
C  4.76500 57.11300 41.61800
C  3.70200 56.07800 41.74400
C  4.51400 54.81400 41.77200
C  4.60700 58.32700 42.61900
C  2.56800 56.11600 40.56700
C  2.77600 55.21400 39.37800
N  5.90800 52.22600 41.87000
C  4.51900 52.38500 42.06700
C  3.86800 51.10000 42.16800
C  4.93600 50.16700 41.94000
C  6.09700 50.90000 41.66700
C  2.45600 50.83800 42.40800
C  5.26200 48.78100 42.00800
O  4.52100 47.81200 42.32600
C  6.73300 48.59900 41.49600
C  6.82700 47.77200 40.25800
O  6.24400 47.94600 39.23300
O  7.61700 46.66400 40.48400
C  7.39300 45.54600 39.51400
H  11.72700 53.30600 40.08200
H  7.33400 57.95700 41.31600
H  2.80000 53.71100 42.17900
H  9.52000 48.81900 40.31800
H  11.27700 50.80300 39.33300
H  12.50300 50.52800 41.31900
H  11.53800 49.04700 41.38600
H  11.08100 50.58200 42.36200
H  9.42100 50.67900 37.98500
H  7.90100 49.84100 38.14800
H  9.71700 47.79600 38.41600
H  10.37000 48.84300 37.14800
H  12.77900 54.91800 39.86800
H  12.93700 56.34700 40.83400
H  12.49500 56.30000 38.99900
H  9.20900 59.39000 42.00800
H  8.62100 59.62900 40.35300
H  10.11700 60.38300 40.80800
H  4.76900 57.48600 40.59400
H  3.33000 56.33000 42.73700
H  5.32000 58.35000 43.44300
H  3.63400 58.37600 43.10800
H  4.79400 59.24500 42.06300
H  2.44700 57.13400 40.19600
H  1.64700 55.85000 41.08600
H  3.77400 54.77800 39.40100
H  2.79500 55.89000 38.52300
H  2.03400 54.44700 39.15600
H  1.89700 51.09300 41.50800
H  2.13400 51.56700 43.15200
H  2.17900 49.88000 42.84800
H  7.35700 48.09900 42.23700
H  8.25600 45.52300 38.84800
H  6.54600 45.54700 38.82800
H  7.42300 44.54200 39.93700
Mg 10.25200 47.31000 25.85700
C  8.25100 47.50700 28.57500
C  12.81300 48.75500 27.88900
C  12.23900 47.69500 23.16700
C  7.49000 46.98100 23.80000
N  10.51200 48.06300 28.08500
C  9.54500 47.94400 29.00500
C  10.05800 48.27500 30.41700
C  11.34800 49.16100 30.05100
C  11.64900 48.44100 28.66600
C  11.09000 50.70400 30.10200
C  10.45600 46.97500 31.19500
C  10.03200 47.04000 32.64700
H  10.48000 45.96200 33.67700
N  12.31300 47.85400 25.59300
C  13.22400 48.31500 26.56200
C  14.52300 48.60500 25.94400
C  14.40200 48.14100 24.57000
C  12.95800 47.87700 24.36900
C  15.79700 49.10100 26.70800
C  15.46900 47.89900 23.49700
O  15.19600 47.49700 22.38600
C  16.94000 48.28700 23.73100
N  9.93500 47.49600 23.80400
C  10.88800 47.57200 22.91300
C  10.41800 47.29800 21.44500
C  8.89300 47.14800 21.64300
C  8.75800 47.11900 23.18200
C  10.73700 48.40100 20.43400
C  8.23800 45.93000 20.84800
C  7.07500 46.33600 19.93000
N  8.31500 47.19800 26.12100
C  7.24600 47.07500 25.19900
C  6.08300 46.78300 25.95700
C  6.39600 47.02700 27.28600
C  7.78300 47.27000 27.29500
C  4.81400 46.42100 25.37400
C  5.86700 46.96700 28.57900
O  4.72100 46.84800 28.89600
C  6.98900 47.29400 29.51400
C  7.14700 46.17900 30.49300
O  7.82700 45.19200 30.30300
O  6.18600 46.38900 31.45000
C  6.12900 45.30900 32.46300
H  13.61100 49.35500 28.33200
H  12.90000 47.66200 22.29800
H  6.59400 46.87400 23.18500
H  9.35900 48.82400 31.04700
H  12.24900 49.05600 30.65500
H  10.08800 51.03600 30.37300
H  11.42300 51.10400 29.14400
H  11.74600 51.17400 30.83400
H  11.53500 46.84100 31.27100
H  10.10000 46.14700 30.58200
H  8.97100 46.79100 32.64300
H  10.16700 48.01100 33.12300
H  15.68100 49.31900 27.77000
H  16.07300 50.06500 26.28000
H  16.51100 48.27900 26.65800
H  17.23700 47.65900 24.57100
H  17.02000 49.36300 23.88600
H  17.56800 48.09900 22.86000
H  10.94100 46.43100 21.04100
H  8.36700 48.02700 21.26900
H  10.48300 49.38300 20.83500
H  10.12300 48.14200 19.57200
H  11.80800 48.31700 20.25000
H  7.89500 45.23700 21.61600
H  9.00700 45.50600 20.20300
H  6.23800 45.68000 20.17000
H  7.29000 46.19800 18.87000
H  6.85700 47.40500 19.93400
H  4.20200 47.32200 25.36500
H  4.23100 45.87400 26.11500
H  4.79600 46.03300 24.35600
H  6.72900 48.21700 30.03100
H  5.88800 44.39100 31.92800
H  5.27900 45.57100 33.09400
H  7.01400 45.20700 33.09100

