158

Mg 48.18100 23.96700 28.06200
C  49.09800 26.39600 30.60000
C  47.46300 21.88100 30.64200
C  47.57400 21.75200 25.78500
C  49.29300 26.28900 25.65300
N  48.29900 24.20600 30.41600
C  48.58900 25.24100 31.19400
C  48.47400 24.95300 32.69200
C  48.10000 23.39900 32.62500
C  47.93300 23.11600 31.16600
C  49.12700 22.42800 33.27000
C  47.43700 25.90900 33.39000
C  46.56800 25.47600 34.59100
H  46.54200 26.38100 35.82700
N  47.54500 22.01100 28.18000
C  47.30600 21.30000 29.32300
C  46.82900 20.01900 28.93400
C  46.74500 20.02700 27.52200
C  47.29100 21.27000 27.08600
C  46.47900 18.94900 29.94500
C  46.29700 19.01700 26.53100
O  46.39000 19.06700 25.32100
C  45.61200 17.80000 27.06300
N  48.68900 23.84500 26.08200
C  48.18600 22.85700 25.28900
C  48.35500 23.14300 23.78900
C  49.07300 24.52400 23.77100
C  48.98700 24.94100 25.27900
C  49.20500 22.03600 23.09200
C  48.37000 25.50300 22.83900
C  49.21600 25.59800 21.45800
N  48.90700 25.98600 28.05600
C  49.31100 26.80000 26.94600
C  49.67000 28.14100 27.44000
C  49.69400 27.96700 28.84600
C  49.14000 26.67000 29.19400
C  50.18200 29.23700 26.66600
C  50.00200 28.70100 30.04700
O  50.43600 29.78800 30.14700
C  49.49200 27.76200 31.19900
C  50.57200 27.77200 32.25000
O  51.67000 27.27900 32.18600
O  50.16200 28.68900 33.17900
C  50.86100 28.66500 34.46500
H  47.20500 21.18300 31.44200
H  47.30900 21.08900 24.95800
H  49.65800 26.86700 24.80200
H  49.48400 25.07600 33.08100
H  47.11600 23.19200 33.04500
H  49.57800 21.72800 32.56700
H  48.53100 21.82500 33.95500
H  49.80300 23.04500 33.86100
H  46.83600 26.49100 32.69300
H  47.93500 26.78600 33.80300
H  46.91700 24.55200 35.05200
H  45.53100 25.27900 34.31800
H  45.47200 18.55700 29.80800
H  46.59200 19.29800 30.97100
H  47.08600 18.05300 29.81800
H  46.23800 17.18600 27.71100
H  45.26000 17.07300 26.33100
H  44.79000 18.20400 27.65400
H  47.35800 23.04100 23.35900
H  50.10600 24.30500 23.50100
H  49.77300 21.40900 23.77900
H  49.87500 22.44200 22.33400
H  48.51000 21.36600 22.58500
H  48.35900 26.47900 23.32300
H  47.34900 25.17900 22.63500
H  48.66900 25.01300 20.71900
H  50.25700 25.28100 21.51100
H  49.22400 26.66300 21.22400
H  49.48900 30.06000 26.84400
H  50.27200 28.97500 25.61200
H  51.11600 29.50000 27.16300
H  48.66800 28.32600 31.63800
H  51.90900 28.36500 34.45800
H  50.23300 28.25400 35.25600
H  50.84600 29.73900 34.65000
Mg 9.38300 48.63000 25.60000
C  7.24500 48.67000 28.45500
C  11.95000 49.51500 27.70000
C  11.24000 48.18200 23.01200
C  6.44000 48.04900 23.64700
N  9.57100 49.01700 27.81100
C  8.54800 48.97600 28.73600
C  9.07000 49.48400 30.15200
C  10.52500 50.09400 29.71800
C  10.71100 49.51300 28.34000
C  10.64400 51.66200 29.71900
C  9.12900 48.35200 31.20000
C  8.93800 48.61900 32.71000
H  8.69800 47.46600 33.75200
N  11.32500 48.79400 25.47500
C  12.28600 49.14400 26.38000
C  13.56400 49.13700 25.68300
C  13.38500 48.53000 24.40100
C  11.94500 48.48100 24.21800
C  14.85400 49.41300 26.38300
C  14.37300 48.18700 23.35700
O  13.93000 47.62700 22.34300
C  15.78100 48.46300 23.50300
N  8.86800 48.24400 23.54700
C  9.88000 48.06100 22.68000
C  9.41000 47.61700 21.29300
C  7.84400 47.68300 21.44000
C  7.69500 47.98300 22.95900
C  9.93500 48.48700 20.17800
C  6.97900 46.50000 20.94000
C  6.45100 46.58200 19.51700
N  7.26300 48.46200 25.90900
C  6.18000 48.35100 25.01200
C  4.97400 48.31400 25.74700
C  5.31900 48.50100 27.04500
C  6.73900 48.57300 27.13800
C  3.61100 48.20200 25.25600
C  4.76200 48.64100 28.39700
O  3.63700 48.74100 28.82500
C  6.01200 48.70700 29.32900
C  5.93700 47.59100 30.29600
O  6.37500 46.45000 30.15200
O  5.37100 48.05500 31.42700
C  5.15600 47.08200 32.48200
H  12.74900 50.03200 28.23500
H  11.82900 48.05900 22.10100
H  5.55600 47.91400 23.02100
H  8.47300 50.31900 30.52000
H  11.30700 49.62700 30.31800
H  11.50500 52.09900 30.22500
H  9.76800 52.18200 30.10600
H  10.68100 52.13000 28.73500
H  10.17500 48.06100 31.29600
H  8.60700 47.43300 30.93300
H  8.07900 49.24100 32.96000
H  9.80900 49.15600 33.08700
H  15.34800 50.21100 25.82800
H  15.49300 48.53000 26.36200
H  14.70400 49.72700 27.41500
H  16.30000 48.31200 22.55700
H  16.21700 47.87000 24.30700
H  15.97200 49.47700 23.85400
H  9.85900 46.62400 21.30900
H  7.33500 48.43600 20.83800
H  10.39400 49.34900 20.66300
H  9.13400 48.78100 19.50100
H  10.66500 47.99200 19.53700
H  6.12900 46.32900 21.60000
H  7.46200 45.52500 20.99500
H  7.10900 47.29100 19.01400
H  5.42300 46.94300 19.51700
H  6.51200 45.59300 19.06400
H  3.29700 49.21400 25.00200
H  2.98200 47.75000 26.02300
H  3.60300 47.49400 24.42800
H  5.98600 49.64100 29.89000
H  4.33400 46.42000 32.20900
H  4.95800 47.50500 33.46700
H  6.12300 46.61200 32.66100

