158

Mg 17.53900 -0.99800 27.87100
C  16.50100 0.83600 30.65000
C  19.67800 -2.78000 29.91500
C  19.29600 -2.10600 25.14600
C  15.65900 1.18400 25.76600
N  17.99200 -0.91000 29.95700
C  17.45100 -0.09200 30.96000
C  17.92700 -0.48100 32.33800
C  19.17600 -1.45900 32.07000
C  18.91200 -1.77000 30.56400
C  20.61100 -0.89900 32.36300
C  16.85900 -1.04700 33.28900
C  16.82800 -0.42600 34.67900
H  18.17600 -0.17400 35.28900
N  19.16200 -2.40900 27.57700
C  19.80300 -3.13800 28.56100
C  20.73400 -4.09400 27.91400
C  20.56000 -3.83900 26.50900
C  19.72200 -2.69100 26.36900
C  21.68100 -4.97400 28.78700
C  21.25000 -4.51700 25.45100
O  21.19400 -4.17900 24.25100
C  21.89200 -5.83800 25.75200
N  17.49700 -0.47400 25.83500
C  18.38100 -0.97800 24.94100
C  18.15500 -0.50600 23.50800
C  16.81200 0.30800 23.70700
C  16.63900 0.35000 25.18800
C  19.35200 0.31200 22.80500
C  15.49300 -0.05500 22.94000
C  15.42200 0.55400 21.47800
N  16.19700 0.51600 28.10900
C  15.46200 1.30600 27.20400
C  14.65900 2.23600 27.93700
C  14.96000 2.06900 29.34400
C  15.95300 1.03100 29.34300
C  13.82200 3.37500 27.31000
C  14.70700 2.53800 30.65800
O  14.04200 3.48300 31.02600
C  15.65700 1.68700 31.59100
C  16.44900 2.68800 32.34700
O  17.52400 3.13700 31.97600
O  15.71400 3.02500 33.45400
C  16.29500 3.98400 34.37900
H  20.30900 -3.29900 30.64000
H  19.69300 -2.54100 24.22600
H  15.08300 1.88500 25.15800
H  18.33400 0.41200 32.81400
H  19.00300 -2.36200 32.65500
H  20.95400 -1.50800 33.19900
H  20.57600 0.15600 32.63500
H  21.35000 -0.95800 31.56400
H  17.13700 -2.10000 33.30200
H  15.94400 -0.92100 32.70900
H  16.29400 -1.06400 35.38300
H  16.19400 0.45200 34.55600
H  21.59500 -4.66400 29.82800
H  22.72200 -4.78500 28.52700
H  21.32500 -5.98900 28.61000
H  21.14100 -6.51500 26.16000
H  22.84500 -5.79400 26.27900
H  22.26500 -6.18900 24.79000
H  17.86600 -1.35700 22.89000
H  17.17200 1.31500 23.49600
H  20.19100 0.50700 23.47300
H  18.95900 1.24800 22.40700
H  19.70500 -0.30200 21.97700
H  14.57800 0.22400 23.46300
H  15.63500 -1.10500 22.68300
H  14.81000 1.45600 21.47100
H  15.26200 -0.21000 20.71700
H  16.43100 0.89200 21.24100
H  12.78600 3.17800 27.58300
H  13.79100 3.35800 26.22000
H  14.21100 4.35700 27.58000
H  14.94200 1.07700 32.14200
H  17.00400 3.34000 34.90000
H  15.48500 4.23000 35.06600
H  16.63100 4.85100 33.81000
Mg 0.93300 43.54200 25.76700
C  3.08900 43.36500 28.43200
C  -1.68300 43.52700 28.02800
C  -1.04600 42.73900 23.32200
C  3.57600 43.96300 23.65700
N  0.73200 43.41900 27.97200
C  1.75700 43.31000 28.85000
C  1.29300 43.39200 30.29700
C  -0.30400 43.23700 30.16600
C  -0.38100 43.45300 28.64200
C  -0.94600 41.79900 30.50700
C  1.67900 44.66700 31.08300
C  1.76000 44.68200 32.65900
H  1.27100 43.46700 33.39200
N  -1.07000 43.31500 25.64300
C  -1.99600 43.38600 26.64100
C  -3.29700 43.16000 26.11400
C  -3.23700 42.77600 24.71400
C  -1.76600 42.92400 24.48300
C  -4.50100 43.12200 27.05800
C  -4.32800 42.22900 23.82400
O  -4.06700 41.79700 22.71700
C  -5.75000 42.06300 24.29500
N  1.22900 43.16300 23.67500
C  0.22400 42.89800 22.85900
C  0.81000 42.76800 21.40000
C  2.13000 43.66800 21.59900
C  2.35000 43.60700 23.07300
C  1.12100 41.24100 20.96800
C  2.02900 45.12000 21.23100
C  3.31000 45.72800 20.48100
N  2.92200 43.59000 25.95700
C  3.94300 43.85300 25.05100
C  5.26700 43.78900 25.65000
C  4.91400 43.49900 26.97500
C  3.57000 43.45500 27.11800
C  6.59800 43.89600 24.92900
C  5.49700 43.29800 28.26800
O  6.65000 43.10600 28.64900
C  4.25300 43.39200 29.31500
C  4.39000 42.17600 30.19500
O  4.06700 41.04700 29.82200
O  5.01000 42.43900 31.38400
C  5.07300 41.26900 32.24400
H  -2.43900 43.70200 28.79600
H  -1.67800 42.44000 22.48300
H  4.42800 44.19800 23.01600
H  1.83500 42.57400 30.77300
H  -0.86400 44.02000 30.67800
H  -1.56400 41.42900 29.68900
H  -1.63500 41.89200 31.34700
H  -0.08800 41.15600 30.70300
H  0.95100 45.45700 30.90000
H  2.68600 44.95600 30.78100
H  1.36300 45.60600 33.07800
H  2.79600 44.76100 32.98800
H  -5.24400 43.74000 26.55400
H  -4.36100 43.60100 28.02700
H  -4.89100 42.11100 27.17400
H  -5.79200 41.31000 25.08200
H  -6.27500 41.67800 23.42100
H  -6.10600 43.00900 24.70500
H  0.15400 43.23200 20.66400
H  2.91000 43.18400 21.01100
H  2.18700 41.11000 20.78300
H  0.48500 41.02600 20.10900
H  0.88700 40.52500 21.75600
H  1.65800 45.69900 22.07700
H  1.29100 45.21900 20.43600
H  3.24500 46.78900 20.72100
H  3.41500 45.49600 19.42100
H  4.19000 45.30200 20.96300
H  7.42100 43.56900 25.56500
H  6.69100 44.90700 24.53400
H  6.53900 43.27800 24.03300
H  4.50300 44.24000 29.95200
H  5.65600 40.54000 31.68200
H  4.04500 40.96100 32.43200
H  5.62500 41.61800 33.11700

