158

Mg 48.87400 34.20000 26.41900
C  46.70100 33.01500 28.81300
C  49.42600 37.11400 28.23200
C  50.57100 35.39100 23.77300
C  47.86400 31.46300 24.38100
N  48.10900 35.00600 28.29200
C  47.40400 34.22800 29.21200
C  47.66200 34.74700 30.61600
C  48.00700 36.25200 30.31400
C  48.58000 36.12800 28.87400
C  46.79000 37.29200 30.47300
C  48.72600 34.07400 31.51200
C  48.35300 33.82200 32.92600
H  47.35900 34.73200 33.70000
N  49.96300 36.02400 26.04400
C  50.11700 37.05700 26.95000
C  50.89900 38.08000 26.26700
C  51.24500 37.60300 25.04200
C  50.62000 36.25700 24.92800
C  51.22100 39.43300 26.89100
C  52.14900 38.13700 23.97700
O  52.56500 37.50300 22.97900
C  52.60300 39.57200 24.13300
N  49.06800 33.60300 24.31000
C  49.94200 34.20900 23.53500
C  50.17900 33.47300 22.19200
C  49.37500 32.13200 22.46800
C  48.73200 32.44000 23.80300
C  49.72600 34.32600 20.95400
C  50.10300 30.76500 22.48500
C  51.38800 30.64100 21.59200
N  47.65700 32.51400 26.53500
C  47.26800 31.49300 25.65400
C  46.41900 30.56500 26.34700
C  46.10100 31.15600 27.57600
C  46.90800 32.32500 27.64200
C  46.07300 29.20700 25.82300
C  45.38300 31.01600 28.76800
O  44.74000 30.05900 29.19200
C  45.73500 32.23300 29.61600
C  46.26200 31.66500 30.86400
O  47.33500 31.11700 31.07900
O  45.28700 31.84700 31.82400
C  45.39100 31.03100 33.02400
H  49.71600 37.97400 28.83900
H  51.11200 35.78100 22.90800
H  47.62200 30.56200 23.81400
H  46.74600 34.61600 31.19300
H  48.78700 36.52600 31.02400
H  45.92500 36.90800 31.01300
H  46.50600 37.55500 29.45400
H  47.19100 38.11300 31.06800
H  49.64100 34.66000 31.59900
H  49.07100 33.18100 30.99000
H  49.30500 33.62500 33.42000
H  48.01500 32.79000 33.01500
H  50.87500 39.52600 27.92100
H  50.76600 40.15300 26.21100
H  52.26300 39.75400 26.91800
H  53.55800 39.63100 24.65500
H  51.87700 40.27000 24.55000
H  52.71500 40.00100 23.13700
H  51.25400 33.30700 22.13000
H  48.61500 32.02900 21.69400
H  49.38400 35.32300 21.23000
H  48.97800 33.76800 20.39000
H  50.59500 34.30900 20.29600
H  49.51800 29.88700 22.20600
H  50.44200 30.74700 23.52100
H  52.30700 30.94200 22.09400
H  51.27500 31.09700 20.60800
H  51.55600 29.58800 21.36500
H  45.01000 29.20100 25.58100
H  46.27100 28.56900 26.68500
H  46.83900 28.97500 25.08400
H  44.85700 32.85900 29.77400
H  45.74600 30.05300 32.69800
H  44.57200 30.93000 33.73600
H  46.15900 31.41600 33.69500
Mg -11.84900 15.65300 42.03300
C  -8.92400 13.81800 41.94400
C  -10.13900 18.29000 40.69100
C  -14.78700 17.23300 40.94800
C  -13.64500 12.76100 42.74100
N  -9.73600 15.97300 41.37900
C  -8.70600 15.09900 41.49000
C  -7.44900 15.63100 40.86600
C  -7.82600 17.12400 40.82000
C  -9.31100 17.16700 40.97000
C  -7.08100 17.97600 41.88600
C  -7.24300 14.93200 39.46200
C  -5.87400 14.38500 39.16400
H  -5.08800 14.80900 38.00700
N  -12.37400 17.50500 41.10500
C  -11.50100 18.44300 40.73100
C  -12.17100 19.63100 40.20600
C  -13.54500 19.26700 40.06000
C  -13.62600 17.92500 40.69500
C  -11.41000 20.89600 39.84600
C  -14.54100 19.94400 39.18000
O  -14.34500 21.02400 38.61600
C  -15.80800 19.13200 38.76800
N  -13.93300 15.11700 41.90000
C  -15.01800 15.94900 41.51700
C  -16.35200 15.17800 41.51100
C  -15.92100 13.76300 41.98300
C  -14.37500 13.86400 42.18400
C  -17.45900 15.84100 42.39100
C  -16.36600 12.60600 41.10700
C  -17.84200 12.14500 41.42700
N  -11.44500 13.67900 42.49000
C  -12.23600 12.60900 42.82900
C  -11.41800 11.49500 43.10500
C  -10.09700 11.87100 42.71000
C  -10.15700 13.25200 42.33400
C  -11.93900 10.07200 43.54100
C  -8.66300 11.46600 42.72900
O  -8.10300 10.53000 43.18400
C  -7.87600 12.71100 42.13600
C  -6.80100 13.12300 43.02600
O  -6.97000 13.40600 44.21000
O  -5.60400 13.28700 42.38200
C  -4.62000 14.15200 43.11400
H  -9.61000 19.21800 40.46300
H  -15.70300 17.78300 40.72100
H  -14.24300 11.86900 42.94200
H  -6.61700 15.48200 41.55500
H  -7.61900 17.56200 39.84300
H  -6.42600 17.38900 42.53000
H  -7.86000 18.54400 42.39500
H  -6.44200 18.70600 41.38900
H  -7.42600 15.57900 38.60400
H  -8.01400 14.16400 39.39100
H  -5.84600 13.30100 39.06200
H  -5.19100 14.60400 39.98500
H  -12.02600 21.76600 39.62000
H  -10.75300 20.77700 38.98500
H  -10.69000 21.21800 40.59900
H  -15.57800 18.08800 38.55000
H  -15.90700 19.44500 37.72800
H  -16.70300 19.42500 39.31700
H  -16.73500 15.12700 40.49200
H  -16.29600 13.53000 42.97900
H  -18.37200 15.82000 41.79600
H  -17.12600 16.82600 42.71700
H  -17.64200 15.27000 43.30100
H  -15.87100 11.67800 41.39300
H  -16.26300 12.79400 40.03800
H  -17.87300 11.51000 42.31300
H  -18.45000 11.67800 40.65200
H  -18.33600 13.06500 41.73800
H  -11.90500 9.32200 42.75200
H  -12.97800 10.16000 43.86000
H  -11.31000 9.79200 44.38600
H  -7.55800 12.31500 41.17200
H  -3.83200 13.55100 43.56800
H  -4.98600 14.88900 43.82800
H  -4.01700 14.64700 42.35200

