158

Mg 24.55000 -6.00100 45.83700
C  26.91200 -3.81000 44.58800
C  22.21700 -4.90500 43.78900
C  22.87900 -8.83700 46.54800
C  27.25000 -7.32600 47.90100
N  24.61600 -4.62500 44.31600
C  25.63000 -3.72100 44.02600
C  25.16200 -2.75100 42.93500
C  23.63400 -2.98000 42.94100
C  23.48800 -4.23600 43.75800
C  22.92900 -1.71400 43.58700
C  25.77900 -2.94600 41.57000
C  26.29300 -1.76900 40.75900
H  25.72300 -1.49900 39.37600
N  22.67800 -6.65200 45.29400
C  21.84200 -6.07100 44.37400
C  20.62600 -6.83000 44.28200
C  20.88300 -8.04000 45.01200
C  22.20500 -7.87600 45.69900
C  19.39000 -6.26500 43.52400
C  19.77500 -9.10600 45.18100
O  18.72900 -9.12400 44.59900
C  19.94800 -10.24500 46.03900
N  24.98600 -7.75900 47.05600
C  24.13800 -8.84000 47.16200
C  24.65500 -9.99000 47.99300
C  25.82700 -9.28600 48.72200
C  26.04500 -8.04500 47.81900
C  23.53000 -10.62400 48.90400
C  27.06700 -10.19100 49.07300
C  27.43500 -10.16500 50.58000
N  26.60900 -5.66400 46.28200
C  27.53700 -6.24400 47.13900
C  28.81500 -5.61200 47.01700
C  28.60800 -4.64700 46.02300
C  27.28500 -4.73700 45.54700
C  30.10000 -6.08600 47.67900
C  29.25900 -3.58600 45.34600
O  30.41500 -3.26900 45.45200
C  28.23900 -3.02000 44.36300
C  28.05300 -1.54700 44.52400
O  27.23100 -1.07400 45.28200
O  28.81600 -0.83000 43.64000
C  28.32500 0.49400 43.37500
H  21.48900 -4.36400 43.18100
H  22.53900 -9.86200 46.70800
H  28.03900 -7.57500 48.61400
H  25.31700 -1.75200 43.34200
H  23.17300 -3.08300 41.95900
H  23.56900 -1.46700 44.43400
H  21.89700 -1.82100 43.92100
H  22.94700 -0.98000 42.78200
H  25.05200 -3.43800 40.92400
H  26.54800 -3.71000 41.68200
H  27.35400 -1.96600 40.60200
H  26.26500 -0.82900 41.31000
H  18.44300 -6.52900 43.99500
H  19.47100 -6.62000 42.49700
H  19.54100 -5.18500 43.53000
H  18.97400 -10.73100 46.07500
H  20.19300 -9.86200 47.03000
H  20.79400 -10.86700 45.74700
H  25.05800 -10.73600 47.30800
H  25.43000 -9.00300 49.69700
H  23.93700 -10.69400 49.91300
H  23.22400 -11.59000 48.50200
H  22.65700 -9.97400 48.84300
H  27.88800 -9.87000 48.43200
H  26.86300 -11.23100 48.81900
H  27.50500 -11.18600 50.95500
H  26.73800 -9.56700 51.16700
H  28.48400 -9.87200 50.53200
H  30.92200 -5.39000 47.51500
H  30.37100 -7.07400 47.30500
H  29.84600 -6.11600 48.73900
H  28.69400 -3.14700 43.38100
H  28.60200 1.05000 44.27100
H  27.24400 0.50600 43.23700
H  28.84500 1.02700 42.57900
Mg 1.08100 43.29400 26.47600
C  3.30500 43.17300 29.14200
C  -1.36500 42.40300 28.64000
C  -0.89500 42.88600 23.72300
C  3.77400 43.75600 24.26400
N  0.95000 42.91200 28.70200
C  2.00000 42.91700 29.54700
C  1.63000 42.64200 31.02900
C  0.20400 42.13500 30.79300
C  -0.16700 42.55400 29.31900
C  -0.10200 40.71000 31.16000
C  1.62800 43.96500 31.87900
C  1.38200 43.93000 33.38400
H  1.11100 42.60100 34.09600
N  -0.87800 42.86500 26.20500
C  -1.69600 42.50800 27.24200
C  -3.01800 42.27300 26.69300
C  -2.92200 42.55100 25.24500
C  -1.51000 42.78600 25.00300
C  -4.10800 41.64100 27.48900
C  -3.99400 42.42900 24.13300
O  -3.81800 42.52300 22.89900
C  -5.46300 42.08600 24.56000
N  1.41900 43.23200 24.29400
C  0.45200 43.08000 23.33700
C  0.95000 43.26400 21.86500
C  2.40500 43.76100 22.13200
C  2.59200 43.56000 23.65200
C  0.81400 41.93600 20.98300
C  2.71200 45.26300 21.73700
C  4.02800 45.44700 20.92300
N  3.09900 43.57600 26.62200
C  4.07900 43.76500 25.69000
C  5.32200 43.91300 26.34800
C  5.08400 43.63800 27.63200
C  3.70000 43.47400 27.80900
C  6.63200 44.14900 25.65400
C  5.77200 43.49000 28.92700
O  6.93100 43.48600 29.19400
C  4.58900 43.16200 29.89800
C  4.85200 41.91300 30.61200
O  5.20500 40.92800 30.04100
O  4.66300 42.10300 31.97100
C  5.21300 41.21000 33.02200
H  -2.14100 41.97600 29.27700
H  -1.61500 42.84500 22.90300
H  4.67400 44.04100 23.71500
H  2.23400 41.88200 31.52400
H  -0.46300 42.79800 31.34500
H  0.73000 40.20900 31.65500
H  -0.27000 40.18400 30.22000
H  -1.05000 40.59900 31.68600
H  0.91800 44.68700 31.47500
H  2.63300 44.36500 31.74600
H  0.44300 44.48000 33.45700
H  2.14600 44.54400 33.86000
H  -5.07400 41.56800 26.98900
H  -4.19000 42.22300 28.40700
H  -3.84700 40.61600 27.75300
H  -5.90400 42.60600 25.41100
H  -5.37300 41.06900 24.93900
H  -6.15000 42.05900 23.71400
H  0.33600 44.07600 21.47500
H  3.09800 43.03100 21.71500
H  0.80900 41.09800 21.68000
H  1.76300 41.86900 20.45200
H  -0.09000 41.98900 20.37600
H  2.75400 45.88200 22.63300
H  1.93800 45.50300 21.00800
H  4.48800 44.46600 20.79900
H  4.53200 46.28600 21.40200
H  3.83300 45.86400 19.93500
H  7.34300 44.42700 26.43200
H  6.60300 44.96600 24.93300
H  7.05300 43.24400 25.21500
H  4.35800 43.98300 30.57600
H  4.43200 40.67400 33.56100
H  5.70900 41.80700 33.78700
H  5.92000 40.54600 32.52500

