158

Mg 17.26700 -1.29400 27.76900
C  16.12100 0.66500 30.46400
C  19.42200 -2.75000 29.82700
C  18.66600 -2.71100 24.98000
C  15.20600 0.70400 25.66600
N  17.75300 -1.01100 29.93500
C  17.04000 -0.27300 30.86400
C  17.38200 -0.73000 32.27200
C  18.55400 -1.71300 32.01600
C  18.59700 -1.83900 30.47800
C  19.91700 -1.34000 32.75900
C  16.15300 -1.34100 33.09200
C  16.14300 -0.73100 34.54600
H  17.45700 -0.28600 35.26400
N  18.88300 -2.65800 27.47400
C  19.57600 -3.21300 28.51300
C  20.32700 -4.33300 27.94800
C  20.17000 -4.31400 26.56300
C  19.20100 -3.17300 26.28500
C  21.16200 -5.24900 28.88700
C  20.78000 -5.22400 25.50300
O  20.52800 -5.12800 24.29600
C  21.76200 -6.29200 25.86000
N  16.96500 -1.07400 25.67800
C  17.66200 -1.77100 24.69700
C  17.24300 -1.29700 23.29600
C  16.14700 -0.30300 23.53300
C  15.99100 -0.26400 25.05900
C  18.54000 -0.94600 22.45100
C  14.75300 -0.45200 22.81300
C  14.68400 0.26600 21.46000
N  15.87700 0.31200 27.93100
C  15.14900 0.98900 27.03500
C  14.28700 1.92800 27.69600
C  14.66100 1.86200 29.00600
C  15.66100 0.88800 29.14300
C  13.29000 2.83200 27.01400
C  14.41700 2.38400 30.33500
O  13.61500 3.20300 30.71000
C  15.31300 1.57700 31.33900
C  16.18400 2.55000 32.17300
O  17.15300 3.14800 31.84900
O  15.61400 2.56900 33.41600
C  16.27300 3.38300 34.40300
H  20.11400 -3.35400 30.41700
H  19.18900 -3.09500 24.10200
H  14.59200 1.29500 24.98400
H  17.72500 0.11700 32.86600
H  18.27900 -2.73000 32.29500
H  20.12000 -2.19800 33.39900
H  19.93200 -0.45600 33.39600
H  20.69200 -1.14000 32.01900
H  16.30100 -2.42000 33.03900
H  15.25500 -0.96600 32.60100
H  15.61100 -1.49600 35.11100
H  15.41400 0.07700 34.48600
H  20.90100 -6.27700 28.63400
H  21.03200 -5.14500 29.96400
H  22.24400 -5.14900 28.79700
H  21.26900 -7.07600 26.43500
H  22.39200 -5.81900 26.61200
H  22.26000 -6.56500 24.92900
H  16.85000 -2.12700 22.70900
H  16.58700 0.67100 23.32000
H  19.47400 -1.14400 22.97600
H  18.40900 0.11700 22.24400
H  18.64300 -1.47500 21.50400
H  13.98100 -0.18100 23.53300
H  14.65000 -1.52500 22.65500
H  15.67300 0.70700 21.33900
H  13.99300 1.10900 21.45100
H  14.49500 -0.59600 20.82000
H  12.35700 2.28400 26.88300
H  13.65400 3.10100 26.02200
H  13.18600 3.84800 27.39400
H  14.63800 1.00700 31.97800
H  15.99600 4.39300 34.10100
H  17.32100 3.10300 34.29700
H  15.84900 3.00300 35.33300
Mg 36.16100 2.82700 30.93700
C  33.27100 3.19100 32.86400
C  37.97500 3.19900 33.76800
C  38.81200 2.01200 29.18900
C  34.30800 3.00400 28.04200
N  35.57900 3.09800 33.03900
C  34.40900 3.13600 33.65200
C  34.54100 3.10200 35.17200
C  36.06900 3.44700 35.36100
C  36.61100 3.25100 33.95200
C  36.26500 4.96600 35.82100
C  34.17700 1.71100 35.67400
C  33.89900 1.67700 37.21400
H  34.40500 2.77900 38.19100
N  38.15200 2.60500 31.40100
C  38.72300 2.87000 32.61600
C  40.17400 2.49900 32.54400
C  40.38500 1.97600 31.24800
C  39.08700 2.17700 30.53000
C  41.24500 2.62400 33.74400
C  41.55200 1.14600 30.72500
O  41.55500 0.61900 29.60900
C  42.67700 0.90500 31.69700
N  36.59600 2.88800 28.82400
C  37.80200 2.42500 28.32700
C  37.79800 2.03900 26.87800
C  36.25200 2.29900 26.51400
C  35.70600 2.82200 27.86400
C  38.82000 2.76900 26.07900
C  35.45700 1.12600 25.84900
C  35.10600 1.35100 24.33700
N  34.18800 2.97000 30.50500
C  33.59200 3.15000 29.28400
C  32.13600 3.48300 29.50100
C  31.91100 3.41500 30.88500
C  33.23900 3.18100 31.43000
C  31.08500 3.78600 28.35600
C  30.99300 3.52500 32.04500
O  29.79100 3.67500 32.07200
C  31.86700 3.42700 33.33600
C  31.66700 4.71200 34.00900
O  32.27000 5.75100 33.70200
O  30.89700 4.57200 35.15600
C  31.19900 5.48700 36.26300
H  38.71000 3.27500 34.57200
H  39.59400 1.39100 28.74800
H  33.65600 2.98300 27.16700
H  33.92600 3.93700 35.50600
H  36.56300 2.80400 36.08900
H  36.83800 5.49700 35.06100
H  36.79400 4.99400 36.77300
H  35.34300 5.54100 35.91300
H  34.95500 0.95100 35.60500
H  33.35100 1.28300 35.10600
H  34.22800 0.69100 37.54500
H  32.81000 1.67000 37.26700
H  40.81400 3.17500 34.58000
H  42.14800 3.08000 33.33700
H  41.43600 1.59700 34.05700
H  43.08200 1.86100 32.02900
H  43.40700 0.40200 31.06300
H  42.32600 0.22900 32.47700
H  38.03300 0.98500 26.73200
H  36.25200 3.22000 25.93000
H  38.33700 3.51500 25.44800
H  39.53600 2.10300 25.59800
H  39.35800 3.38400 26.80000
H  34.53500 0.92400 26.39300
H  36.00000 0.18100 25.81600
H  35.74800 0.75300 23.69000
H  35.04800 2.39500 24.02800
H  34.08600 1.06200 24.08500
H  31.44900 4.34200 27.49200
H  30.30100 4.42100 28.76700
H  30.66700 2.79800 28.16500
H  31.38800 2.70700 34.00000
H  32.25600 5.74400 36.20800
H  31.01000 4.84200 37.12100
H  30.50500 6.32800 36.27100

