158

Mg -0.19000 7.58200 25.17600
C  1.05200 9.56300 27.80600
C  0.03200 4.81900 27.21800
C  -0.98500 5.69300 22.56400
C  0.57000 10.23400 22.98500
N  0.57700 7.24100 27.27100
C  0.64400 8.21100 28.23600
C  0.63000 7.57100 29.64300
C  0.64600 6.04300 29.27800
C  0.43500 6.00800 27.77700
C  1.96100 5.24400 29.69400
C  -0.58400 8.02200 30.40800
C  -0.43400 7.94000 31.97000
H  0.88000 7.51900 32.59700
N  -0.66500 5.55100 24.99100
C  -0.56400 4.49900 25.91300
C  -1.19900 3.35700 25.46800
C  -1.37500 3.62600 24.03300
C  -0.97300 4.98300 23.79800
C  -1.41400 2.18700 26.46500
C  -1.88300 2.66500 23.02900
O  -2.19200 3.03400 21.87800
C  -2.16600 1.25800 23.39000
N  0.09800 7.78600 22.98400
C  -0.50700 6.93000 22.14600
C  -0.74000 7.59800 20.79600
C  -0.04000 8.97700 20.88300
C  0.23700 9.04500 22.39300
C  -0.19000 6.71100 19.57400
C  -0.83700 10.13600 20.38400
C  -2.10000 10.52600 21.23600
N  0.58200 9.56600 25.28000
C  0.78400 10.54500 24.35900
C  1.17500 11.79500 25.04500
C  1.33800 11.41400 26.35100
C  1.02500 10.03400 26.44600
C  1.38200 13.12300 24.35500
C  1.67700 11.92000 27.66800
O  1.99800 13.00800 28.02600
C  1.48500 10.74600 28.68500
C  2.68600 10.53400 29.58000
O  3.43100 9.62100 29.46000
O  2.69600 11.45400 30.60700
C  3.83400 11.44700 31.52200
H  -0.06100 4.04700 27.98500
H  -1.41400 5.22600 21.67500
H  0.78700 11.07900 22.32800
H  1.53700 7.83200 30.18900
H  -0.14300 5.48400 29.78100
H  2.73600 5.80800 30.21300
H  2.32500 4.83900 28.75000
H  1.68200 4.43300 30.36700
H  -1.44700 7.38800 30.20600
H  -0.86400 9.05700 30.21300
H  -1.17100 7.21500 32.31400
H  -0.62900 8.90600 32.43600
H  -0.68900 1.40300 26.24800
H  -2.45200 1.85700 26.49800
H  -1.27100 2.54500 27.48400
H  -1.40800 0.75000 23.98500
H  -2.40300 0.66400 22.50700
H  -3.11500 1.29500 23.92400
H  -1.81700 7.74500 20.72700
H  0.90600 9.02400 20.34300
H  -0.96800 6.02400 19.24000
H  0.52300 5.98200 19.96000
H  0.24300 7.28300 18.75300
H  -1.14800 10.00000 19.34800
H  -0.19100 11.00200 20.24100
H  -2.99100 10.69000 20.63000
H  -1.79600 11.50700 21.60200
H  -2.44900 10.03600 22.14400
H  0.52300 13.52300 23.81600
H  2.14400 13.07200 23.57700
H  1.80000 13.90600 24.98700
H  0.67200 10.98600 29.37000
H  4.73400 11.45700 30.90800
H  3.77800 10.53400 32.11600
H  3.78500 12.29700 32.20200
Mg 35.46000 2.86800 29.33200
C  33.35200 3.59900 32.07200
C  38.10600 3.25300 31.32500
C  37.34900 2.27700 26.50700
C  32.60200 2.98200 27.21500
N  35.70400 3.53700 31.53800
C  34.73700 3.45500 32.48200
C  35.37800 3.44000 33.88700
C  36.98800 3.53200 33.60500
C  36.91400 3.48100 32.06700
C  37.68600 4.78200 34.08000
C  34.87400 2.25000 34.82600
C  34.36300 2.55200 36.20400
H  34.98800 3.78300 36.84300
N  37.37600 2.80900 28.96700
C  38.31700 2.93600 29.92900
C  39.69100 2.81100 29.34400
C  39.46800 2.58000 27.92800
C  37.99500 2.59500 27.73300
C  41.06100 2.92300 30.03300
C  40.48400 2.32700 26.81400
O  40.18900 2.34200 25.64000
C  41.86400 2.03400 27.17100
N  35.06400 2.64100 27.14900
C  35.97400 2.34300 26.23100
C  35.30400 2.37800 24.78100
C  33.80400 2.26800 25.13000
C  33.79600 2.69300 26.60000
C  35.72400 3.65400 24.00300
C  33.13400 0.90600 24.88000
C  33.15400 -0.07500 26.11200
N  33.41700 3.32600 29.51900
C  32.39800 3.42000 28.62400
C  31.19500 3.78000 29.28500
C  31.49200 3.83400 30.65800
C  32.87000 3.56000 30.70900
C  29.86300 3.97600 28.63900
C  30.95900 4.16200 31.93800
O  29.87700 4.56500 32.17300
C  32.14100 3.92400 32.98800
C  32.31400 5.12700 33.79500
O  32.62900 6.23700 33.32300
O  31.86400 4.88000 35.07800
C  31.56500 6.06700 35.97300
H  39.03600 3.25700 31.89700
H  37.92400 1.95100 25.63800
H  31.69000 2.86200 26.62800
H  35.15600 4.40300 34.34700
H  37.57200 2.71600 34.03100
H  38.53200 4.50900 34.71100
H  36.95200 5.23200 34.74800
H  37.87200 5.44200 33.23300
H  35.65000 1.48900 34.91300
H  34.07200 1.83100 34.21800
H  34.62600 1.66600 36.78200
H  33.29900 2.75900 36.09200
H  41.68600 3.57400 29.42100
H  41.53400 1.94500 30.12300
H  41.00200 3.31400 31.04800
H  42.05300 1.39100 28.03000
H  42.42300 2.96700 27.24500
H  42.27500 1.43800 26.35600
H  35.63600 1.56700 24.13300
H  33.26800 3.01000 24.53800
H  36.55400 4.15100 24.50600
H  34.89200 4.28000 23.68200
H  36.16100 3.29600 23.07100
H  33.69500 0.34900 24.12900
H  32.05600 0.95700 24.72700
H  33.56700 -1.06700 25.92600
H  32.15300 -0.04100 26.54200
H  33.85900 0.30700 26.85000
H  29.58700 3.14300 27.99300
H  29.90200 4.86600 28.01200
H  29.11300 4.17200 29.40600
H  31.85500 3.08200 33.61900
H  30.49100 6.17200 35.81700
H  32.04900 7.03500 35.84500
H  31.63400 5.76000 37.01600

