158

Mg 1.03600 8.18300 26.33500
C  1.60300 9.96000 29.36200
C  0.94700 5.32800 28.33900
C  0.71900 6.30700 23.56200
C  1.31300 11.06300 24.60900
N  1.24800 7.75000 28.58900
C  1.31500 8.61900 29.64200
C  1.19200 7.95700 30.94800
C  1.39700 6.48700 30.57600
C  1.14400 6.50100 29.07800
C  2.69100 5.78000 30.90100
C  -0.09400 8.41100 31.69200
C  0.01700 8.51800 33.22800
H  1.25400 7.93600 33.95300
N  0.83900 6.07500 26.02400
C  0.85100 5.11900 26.94400
C  0.55300 3.84500 26.28500
C  0.68300 4.11900 24.92500
C  0.74800 5.53800 24.77800
C  0.35400 2.52600 26.99600
C  0.60200 3.12400 23.66900
O  0.60100 3.53000 22.51200
C  0.57200 1.60900 23.86500
N  0.94000 8.60400 24.43000
C  0.82300 7.71300 23.41600
C  0.76300 8.45100 22.01500
C  0.83400 9.96000 22.39500
C  0.99700 9.85900 23.92100
C  1.71400 7.97000 20.87300
C  -0.46500 10.77400 21.91300
C  -1.73400 10.51600 22.74700
N  1.37700 10.10400 26.78600
C  1.51000 11.17100 25.96400
C  1.81800 12.37600 26.77200
C  1.83100 11.89000 28.06100
C  1.55800 10.53600 28.05200
C  2.04400 13.81900 26.21300
C  2.20000 12.28800 29.39000
O  2.57200 13.39800 29.84200
C  1.93400 11.01300 30.31900
C  3.15600 10.67200 31.07900
O  4.09000 9.87100 30.83900
O  3.17900 11.52100 32.18300
C  4.40600 11.54600 33.08100
H  0.82600 4.38700 28.88000
H  0.66400 5.89700 22.55100
H  1.22200 11.95700 23.98800
H  2.11800 8.15800 31.48600
H  0.60200 5.87500 31.00200
H  2.48100 5.07300 31.70300
H  3.45000 6.39800 31.38100
H  3.09700 5.17400 30.09100
H  -0.91200 7.72200 31.47700
H  -0.42800 9.37800 31.31800
H  -0.88000 8.07900 33.66400
H  0.08700 9.59800 33.35700
H  1.34400 2.08400 26.88100
H  -0.43600 1.95200 26.51200
H  0.01800 2.67100 28.02300
H  1.56500 1.18800 24.02300
H  0.31300 1.15500 22.90900
H  -0.13100 1.24800 24.61600
H  -0.26000 8.16900 21.76500
H  1.77900 10.39400 22.06700
H  2.42300 7.22000 21.22700
H  2.27900 8.88100 20.67800
H  1.23000 7.44200 20.05200
H  -0.54800 10.57000 20.84500
H  -0.27700 11.84200 22.02000
H  -1.58400 9.99900 23.69500
H  -2.40200 9.80800 22.25700
H  -2.18500 11.48900 22.94100
H  2.47100 13.72900 25.21400
H  2.76700 14.29800 26.87200
H  1.14300 14.42200 26.09400
H  1.08000 11.19900 30.96900
H  5.29300 11.02000 32.72900
H  4.13100 11.15700 34.06200
H  4.75800 12.57000 33.20800
Mg 5.73200 52.75700 41.88700
C  5.23900 49.30100 41.23100
C  9.05700 52.28400 40.73400
C  6.27400 56.09600 42.04400
C  2.40800 53.08200 42.64700
N  6.91000 51.02300 40.89000
C  6.52700 49.71300 40.84400
C  7.68200 48.85500 40.27400
C  8.92300 49.73600 40.75300
C  8.30100 51.14300 40.79400
C  9.50000 49.28900 42.16900
C  7.61600 48.44500 38.79000
C  6.45400 49.07500 37.98400
H  5.76900 48.26100 36.84800
N  7.41400 54.02200 41.61900
C  8.62400 53.65700 41.03800
C  9.45600 54.83000 40.79700
C  8.71500 55.96200 41.16900
C  7.37800 55.41500 41.65500
C  10.80800 54.76800 40.07700
C  9.24200 57.38400 41.05100
O  10.39800 57.64300 40.65900
C  8.36200 58.51700 41.48200
N  4.45400 54.32600 42.22400
C  4.97300 55.62400 42.37200
C  3.67100 56.48900 42.74000
C  2.46300 55.52800 42.87600
C  3.17100 54.25900 42.61500
C  3.90100 57.65300 43.73200
C  1.29600 55.85800 41.98800
C  -0.11000 55.94900 42.65800
N  4.05100 51.45700 41.87700
C  2.77300 51.72100 42.33200
C  2.00500 50.42100 42.54000
C  2.97400 49.45100 42.20300
C  4.20100 50.12100 41.67500
C  0.65300 50.30400 43.06700
C  3.19700 48.03500 42.10300
O  2.40600 47.12100 42.35200
C  4.71600 47.91500 41.50100
C  4.59200 47.07800 40.29200
O  3.92100 47.37000 39.32700
O  5.34900 45.95900 40.38000
C  5.03100 44.93500 39.44200
H  10.13600 52.14800 40.64600
H  6.33200 57.17900 42.17800
H  1.41100 53.29800 43.03700
H  7.68600 47.91700 40.82800
H  9.63700 49.61100 39.93900
H  9.12200 48.31900 42.49200
H  9.19000 49.89200 43.02300
H  10.59000 49.29500 42.17500
H  7.39200 47.37800 38.75700
H  8.59700 48.45900 38.31500
H  7.07800 49.80000 37.46300
H  5.69800 49.72300 38.42900
H  11.23500 53.77100 39.97200
H  11.56500 55.39300 40.55000
H  10.73600 55.13800 39.05400
H  8.98500 59.41100 41.46400
H  8.06200 58.46900 42.52900
H  7.54900 58.61900 40.76300
H  3.58900 57.06500 41.81800
H  2.10800 55.43400 43.90200
H  3.78200 58.66200 43.33600
H  4.91700 57.59500 44.12300
H  3.18500 57.58000 44.55000
H  1.28600 55.13800 41.16900
H  1.50800 56.89000 41.70900
H  -0.56400 56.93600 42.56800
H  0.04800 55.82000 43.72900
H  -0.86300 55.20200 42.40600
H  0.56700 49.30000 43.48300
H  -0.02000 50.54400 42.24400
H  0.49000 51.05300 43.84200
H  5.51400 47.45900 42.08600
H  5.50100 44.03600 39.84100
H  5.42100 45.18000 38.45400
H  3.95000 44.78900 39.44500

