158

Mg 1.96600 -1.18400 45.33500
C  5.23600 0.05400 44.83000
C  0.79100 1.21400 43.24500
C  -0.89300 -2.74600 45.19500
C  3.52600 -4.13900 46.70300
N  2.91600 0.48700 44.12400
C  4.25400 0.79800 44.13700
C  4.44600 2.09300 43.28600
C  2.98800 2.48000 42.90600
C  2.15100 1.37400 43.54000
C  2.56300 3.80000 43.58100
C  5.34500 1.95200 42.05400
C  6.49200 2.94500 41.83100
H  7.41200 2.50000 40.69000
N  0.09000 -0.70300 44.59700
C  -0.18100 0.34200 43.69900
C  -1.55800 0.34400 43.35400
C  -2.07500 -0.87300 44.01400
C  -0.94700 -1.50000 44.63600
C  -2.31100 1.31000 42.36800
C  -3.52300 -1.35100 43.95600
O  -4.40500 -0.81100 43.26100
C  -4.02500 -2.51200 44.68000
N  1.47200 -3.21700 45.59800
C  0.12900 -3.53400 45.65800
C  -0.09000 -4.90700 46.30400
C  1.33400 -5.37800 46.74200
C  2.17800 -4.15800 46.34500
C  -1.00600 -4.86900 47.54300
C  1.80700 -6.78100 46.20700
C  1.86100 -8.00900 47.19700
N  3.91500 -1.96900 45.66000
C  4.40000 -3.12400 46.28500
C  5.87800 -3.02900 46.44800
C  6.13400 -1.77400 45.96700
C  4.96400 -1.18700 45.50700
C  6.71700 -4.10000 47.09200
C  7.26400 -0.86700 45.74600
O  8.38000 -0.98400 46.01700
C  6.66600 0.37800 44.96300
C  6.81900 1.56200 45.84600
O  6.41700 1.69200 47.03400
O  7.46300 2.58200 45.17400
C  7.79600 3.78800 45.93800
H  0.38800 1.87600 42.47600
H  -1.85500 -3.24400 45.33000
H  3.91700 -5.06500 47.13000
H  4.95800 2.83300 43.90200
H  2.81800 2.59300 41.83500
H  1.94900 3.57100 44.45200
H  2.01000 4.40000 42.85800
H  3.45800 4.36300 43.84500
H  4.75100 2.18000 41.16900
H  5.71200 0.94400 41.85900
H  7.08500 2.99000 42.74500
H  6.05100 3.93300 41.69700
H  -1.73300 2.21400 42.17400
H  -3.34000 1.43600 42.70500
H  -2.32600 0.71500 41.45500
H  -3.69400 -2.39200 45.71200
H  -3.59800 -3.44200 44.30300
H  -5.11100 -2.42100 44.64800
H  -0.40500 -5.61300 45.53500
H  1.47500 -5.44400 47.82000
H  -1.70200 -5.69000 47.36900
H  -1.61500 -3.96600 47.58700
H  -0.44900 -4.98900 48.47200
H  2.82200 -6.64200 45.83500
H  1.17900 -7.17500 45.40800
H  1.56500 -8.94200 46.71600
H  1.14500 -7.81200 47.99500
H  2.88100 -8.05100 47.57800
H  6.18400 -5.03400 47.26800
H  7.05400 -3.82500 48.09200
H  7.60400 -4.27400 46.48400
H  7.18100 0.40500 44.00300
H  8.49300 4.34400 45.31200
H  8.43800 3.57700 46.79300
H  6.89800 4.35300 46.18800
Mg 29.13600 56.66400 41.21000
C  26.38800 54.85200 39.77000
C  31.21600 54.44300 39.92000
C  31.39900 59.14800 41.27600
C  26.67900 59.21900 41.91400
N  28.79000 54.95700 39.77200
C  27.67300 54.30700 39.52300
C  28.05700 53.05000 38.65200
C  29.49800 52.64500 39.23100
C  29.88100 54.10200 39.65900
C  29.49400 51.60200 40.38400
C  28.10900 53.49900 37.16000
C  27.02600 52.89300 36.25600
H  26.34500 53.80800 35.25700
N  31.03400 56.68100 40.88300
C  31.72700 55.64500 40.33100
C  33.12200 56.01400 40.41400
C  33.21900 57.35400 40.74900
C  31.86900 57.80900 40.97600
C  34.21800 54.99200 40.01400
C  34.55500 58.07500 40.69900
O  35.63400 57.57000 40.41400
C  34.66700 59.48200 41.00000
N  29.08300 58.92800 41.57300
C  30.18300 59.65100 41.64900
C  29.93900 61.08800 42.06400
C  28.41800 61.03600 42.50000
C  28.03300 59.66400 41.89900
C  30.92300 61.60000 43.16500
C  27.56300 62.23400 41.92600
C  26.80600 62.99600 42.93000
N  27.00300 57.01800 40.98300
C  26.17100 58.04000 41.35600
C  24.74500 57.77100 41.02600
C  24.85800 56.42200 40.52000
C  26.25400 56.06700 40.44300
C  23.57700 58.64700 41.31300
C  24.08700 55.33300 40.02600
O  22.88400 55.24200 39.86000
C  25.00400 54.23100 39.52500
C  24.75800 53.10400 40.32400
O  25.27500 52.86300 41.41200
O  23.90100 52.15200 39.64100
C  23.58300 50.98600 40.49900
H  31.92400 53.64800 39.67700
H  32.14000 59.94700 41.34100
H  26.00900 60.01900 42.23700
H  27.38100 52.19900 38.74000
H  30.10500 52.37700 38.36700
H  29.83100 50.64100 39.99600
H  28.54700 51.50700 40.91500
H  30.12400 51.86500 41.23400
H  29.05800 53.27300 36.67600
H  27.89600 54.56800 37.16900
H  26.32000 52.30600 36.84200
H  27.51200 52.14400 35.63000
H  34.68200 55.35500 39.09700
H  33.79000 54.00700 39.82200
H  34.95500 54.85700 40.80500
H  34.09100 60.14000 40.34900
H  35.71500 59.74100 41.15700
H  34.31900 59.57100 42.02900
H  30.14500 61.62200 41.13600
H  28.31600 60.82500 43.56500
H  31.52600 62.38600 42.71000
H  31.61000 60.90200 43.64500
H  30.24000 62.11800 43.83700
H  26.88600 61.79400 41.19400
H  28.19700 62.84300 41.28200
H  26.89600 62.59000 43.93700
H  25.76800 62.80800 42.65400
H  27.10100 64.04100 42.83700
H  23.10200 58.53400 42.28800
H  22.87600 58.43400 40.50600
H  23.94000 59.66300 41.15800
H  24.79800 54.02100 38.47500
H  23.55300 51.25300 41.55600
H  24.34600 50.21500 40.39400
H  22.65100 50.49400 40.21800

