158

Mg 52.70200 25.09500 45.21600
C  49.71700 26.77100 44.07900
C  51.20600 22.15800 44.02900
C  55.53700 23.58300 45.70800
C  53.75400 27.99200 46.67200
N  50.71200 24.63500 43.95400
C  49.68400 25.40600 43.76700
C  48.41100 24.64400 43.33200
C  48.94300 23.16700 43.49000
C  50.39800 23.33500 43.86300
C  48.05800 22.39300 44.53100
C  47.86400 24.95200 41.87800
C  48.93100 25.41600 40.96300
H  48.50300 25.56900 39.47100
N  53.34900 23.12100 44.84800
C  52.54700 22.07600 44.53300
C  53.46400 20.93500 44.40300
C  54.76300 21.29100 44.85000
C  54.56400 22.68900 45.28400
C  53.08100 19.65000 43.80300
C  55.95700 20.46900 44.66900
O  55.83000 19.24700 44.35300
C  57.38000 20.95200 44.95600
N  54.45800 25.70400 45.96700
C  55.55100 24.95500 45.99900
C  56.74600 25.71700 46.52300
C  56.10400 27.01500 47.03900
C  54.66300 26.95500 46.50700
C  57.50700 24.91700 47.64200
C  56.79600 28.39500 46.62900
C  57.38600 29.25600 47.77900
N  51.91700 27.04900 45.36900
C  52.45800 28.09000 46.08900
C  51.44700 29.20000 46.06900
C  50.36200 28.65100 45.30100
C  50.71500 27.36600 44.81900
C  51.61600 30.56100 46.75200
C  49.06900 29.01000 44.80800
O  48.38700 30.04900 44.90800
C  48.60700 27.80700 43.98400
C  48.33800 28.40500 42.70400
O  49.12300 29.07200 42.05900
O  47.11600 27.97100 42.29100
C  46.60000 28.65200 41.10700
H  50.70400 21.18900 43.97700
H  56.50800 23.16100 45.97500
H  53.98400 28.94200 47.15800
H  47.69300 24.87600 44.11900
H  48.88400 22.76400 42.47900
H  47.91800 22.84300 45.51400
H  48.66100 21.50800 44.73400
H  47.02200 22.23100 44.23300
H  47.02500 25.64800 41.88400
H  47.63700 23.97600 41.45000
H  49.79700 24.76700 41.09500
H  49.34300 26.37300 41.28400
H  52.01100 19.52000 43.96700
H  53.53300 18.83200 44.36400
H  53.29400 19.54200 42.73900
H  57.59700 21.85800 44.39100
H  58.12300 20.20500 44.67600
H  57.56200 21.24000 45.99100
H  57.45400 25.79400 45.69800
H  56.02400 27.06200 48.12500
H  58.43200 24.66100 47.12600
H  57.03400 24.02000 48.04300
H  57.85000 25.52000 48.48300
H  56.32300 29.03000 45.87900
H  57.74800 28.08700 46.19700
H  57.71700 28.61400 48.59500
H  56.60200 29.99100 47.96600
H  58.31900 29.69200 47.42400
H  50.57100 30.82600 46.91000
H  52.06800 31.21200 46.00400
H  52.22900 30.32800 47.62300
H  47.61500 27.50200 44.31900
H  46.26000 29.63000 41.44900
H  45.71600 28.24800 40.61500
H  47.36800 28.71100 40.33600
Mg 46.19200 24.37600 28.45600
C  46.59800 26.63500 31.17700
C  45.27900 21.84400 30.78100
C  46.33000 22.24900 26.01600
C  47.61600 26.90700 26.32000
N  46.02100 24.27100 30.73400
C  46.09700 25.40100 31.59100
C  45.60100 25.03000 33.06200
C  45.41300 23.46300 32.90100
C  45.55500 23.10800 31.35200
C  46.29000 22.59500 33.89900
C  44.41700 25.81500 33.55900
C  44.74000 26.67800 34.81400
H  43.76700 26.70000 35.96400
N  45.80000 22.38800 28.37100
C  45.33800 21.56300 29.34200
C  45.02800 20.28600 28.75600
C  45.50200 20.28900 27.42900
C  45.90900 21.67200 27.20500
C  44.30400 19.17600 29.52500
C  45.39700 19.17700 26.34600
O  45.86300 19.24300 25.20100
C  44.80500 17.88600 26.76500
N  46.74900 24.59900 26.44200
C  46.72300 23.49500 25.65100
C  47.33400 23.75600 24.29400
C  47.52100 25.31200 24.32700
C  47.27800 25.66600 25.76500
C  48.58400 22.89500 23.97400
C  46.67600 26.18300 23.39100
C  45.16200 26.18500 23.48300
N  46.90500 26.42000 28.62400
C  47.36400 27.28600 27.65700
C  47.72300 28.50800 28.33900
C  47.37700 28.35600 29.69200
C  46.90300 27.03600 29.80400
C  48.33100 29.72200 27.71400
C  47.29600 29.02900 30.94200
O  47.62100 30.12200 31.36200
C  46.85000 27.85100 31.96900
C  47.97500 27.68100 32.93100
O  48.94900 26.98000 32.78100
O  47.69200 28.35500 34.08300
C  48.44800 28.15100 35.36600
H  44.85700 21.15800 31.51800
H  46.17400 21.54200 25.19800
H  48.15000 27.55700 25.62400
H  46.45500 25.13100 33.73100
H  44.38900 23.10900 33.01800
H  46.04500 23.20200 34.77100
H  47.37000 22.64500 33.75900
H  45.88800 21.58200 33.87300
H  43.66800 25.05500 33.78200
H  43.92600 26.42400 32.80100
H  44.72300 27.68200 34.39000
H  45.71500 26.55800 35.28500
H  44.90700 18.27200 29.61000
H  43.37400 18.83100 29.07400
H  44.11100 19.35000 30.58400
H  45.35700 17.52600 27.63400
H  44.87100 17.14500 25.96900
H  43.75400 18.15000 26.88900
H  46.59000 23.47700 23.54800
H  48.55400 25.55100 24.07600
H  48.34300 21.83200 23.94000
H  49.35600 23.03800 24.73000
H  48.77900 23.26200 22.96600
H  46.82100 25.81600 22.37500
H  47.06500 27.19700 23.49200
H  44.77700 25.51400 24.25000
H  44.79800 25.74100 22.55600
H  44.83300 27.21300 23.63300
H  48.86000 29.61800 26.76600
H  48.89100 30.16300 28.53800
H  47.53400 30.46200 27.63600
H  45.94300 28.15000 32.49400
H  49.32200 27.51200 35.23700
H  47.79300 27.74100 36.13500
H  48.74000 29.13400 35.73800

