158

Mg 25.37700 0.99700 29.92300
C  27.56200 0.70400 32.53400
C  22.85700 1.73900 32.06500
C  23.29100 1.03200 27.36600
C  27.99700 0.17900 27.66800
N  25.16800 1.02500 32.14600
C  26.27100 1.12700 32.95500
C  25.81000 1.62400 34.31000
C  24.19400 1.70500 34.26500
C  24.00600 1.50800 32.75200
C  23.32100 0.84300 35.16400
C  26.49900 2.86800 34.75600
C  27.24600 2.70700 36.09600
H  26.90700 3.78900 37.15500
N  23.28600 1.26700 29.69900
C  22.46200 1.56800 30.72700
C  21.09700 1.69000 30.25100
C  21.17900 1.50000 28.79500
C  22.65700 1.29300 28.54300
C  19.93600 1.89200 31.12600
C  20.06500 1.54000 27.77300
O  20.21400 1.29600 26.59900
C  18.67400 1.79600 28.21900
N  25.60200 0.87300 27.82300
C  24.55300 0.89500 26.98100
C  25.10300 0.89300 25.54000
C  26.62800 0.58600 25.63700
C  26.76100 0.58800 27.13000
C  24.37400 -0.09100 24.60000
C  27.56300 1.66600 24.90800
C  28.37000 1.16300 23.73100
N  27.34900 0.46600 30.04400
C  28.33500 0.17100 29.07100
C  29.55500 -0.11800 29.78100
C  29.30500 0.14300 31.18400
C  27.97800 0.44200 31.22100
C  30.84100 -0.41400 29.09100
C  29.95900 0.24700 32.44700
O  31.11800 0.11200 32.73400
C  28.79000 0.58300 33.46200
C  28.67800 -0.55300 34.41000
O  27.77300 -1.41200 34.45700
O  29.60700 -0.35800 35.43800
C  29.54100 -1.14700 36.68300
H  22.20600 2.13400 32.84700
H  22.58700 1.05300 26.53100
H  28.74800 -0.14200 26.94300
H  26.07000 0.81700 34.99600
H  23.80300 2.70400 34.45900
H  22.70000 1.39700 35.86700
H  23.96100 0.12800 35.68200
H  22.63300 0.38200 34.45600
H  25.75200 3.66200 34.73100
H  27.31200 3.10100 34.06800
H  28.30300 2.93200 35.95200
H  27.15000 1.67300 36.42600
H  19.41200 2.77800 30.76800
H  20.29100 2.01900 32.14900
H  19.31000 1.00000 31.13000
H  17.96800 1.70800 27.39400
H  18.76400 2.77900 28.68200
H  18.37600 1.12600 29.02500
H  24.90100 1.88500 25.13800
H  26.90900 -0.36700 25.18700
H  23.72500 -0.76600 25.15900
H  25.03500 -0.74300 24.02900
H  23.75200 0.46100 23.89500
H  28.23800 2.06700 25.66400
H  26.94900 2.38000 24.35900
H  27.80900 1.34500 22.81500
H  28.62300 0.13100 23.97200
H  29.31100 1.71300 23.69500
H  31.67200 0.18100 29.47000
H  30.75400 -0.14200 28.03900
H  31.01000 -1.49000 29.07900
H  29.02500 1.48800 34.02200
H  30.49800 -1.01700 37.18800
H  29.39800 -2.20600 36.46700
H  28.70200 -0.83400 37.30500
Mg 54.05700 24.59900 44.40800
C  51.46800 26.98500 44.02100
C  51.68800 22.20500 43.53100
C  56.56100 22.61100 43.54300
C  56.31100 27.30800 45.04000
N  51.87100 24.65100 43.73400
C  51.02700 25.70700 43.78500
C  49.62800 25.21100 43.38000
C  49.67800 23.77700 43.87300
C  51.15900 23.54400 43.69500
C  49.03100 23.57400 45.22300
C  49.29600 25.32300 41.80100
C  50.48000 25.51100 40.81000
H  51.22000 24.31300 40.47000
N  54.14200 22.61600 43.67800
C  53.06800 21.81700 43.43100
C  53.54600 20.47900 43.14300
C  54.95400 20.60200 43.09000
C  55.29900 21.97600 43.43100
C  52.60800 19.33700 42.75900
C  55.89500 19.45900 42.81500
O  55.46600 18.35900 42.50600
C  57.41900 19.58800 43.11200
N  56.10200 24.84100 44.51400
C  56.95000 23.82600 44.11300
C  58.36900 24.24900 44.38200
C  58.30400 25.77900 44.53600
C  56.80900 26.01300 44.75000
C  59.10500 23.44500 45.44600
C  58.80900 26.63100 43.44500
C  58.09800 26.53800 42.03300
N  53.89700 26.68200 44.69600
C  54.93100 27.67300 45.04400
C  54.34500 28.92600 45.14100
C  52.98500 28.67400 44.73400
C  52.77800 27.35200 44.41900
C  55.06000 30.14700 45.61700
C  51.76000 29.29800 44.51400
O  51.48600 30.46600 44.48200
C  50.71900 28.31200 43.90900
C  50.29700 28.73100 42.49400
O  51.07700 29.01400 41.60200
O  48.99900 28.66500 42.32900
C  48.47000 29.02600 41.03900
H  50.93000 21.42200 43.46600
H  57.53300 22.16600 43.31600
H  57.06100 28.09800 45.12200
H  48.88100 25.85000 43.85000
H  49.22600 23.11000 43.13900
H  48.20200 22.86700 45.23700
H  48.52800 24.48900 45.53300
H  49.77700 23.27100 45.95800
H  48.65400 26.18700 41.62800
H  48.68800 24.45900 41.53300
H  51.07500 26.34400 41.18200
H  50.13600 25.95500 39.87600
H  53.25500 18.45900 42.74400
H  52.13800 19.55800 41.80100
H  51.78200 19.21200 43.45900
H  57.98000 20.08800 42.32200
H  57.84600 18.58900 43.20600
H  57.68700 20.16300 43.99800
H  58.94900 23.93700 43.51300
H  58.77400 26.02500 45.48800
H  59.68200 22.66100 44.95800
H  58.37700 22.89700 46.04500
H  59.75000 24.06200 46.07200
H  59.83800 26.27700 43.38300
H  58.78500 27.69200 43.69500
H  57.79800 27.55600 41.78600
H  57.22800 25.88300 42.07000
H  58.66000 26.05000 41.23700
H  55.02400 30.16700 46.70600
H  54.44500 31.01200 45.36900
H  56.06100 30.15600 45.18600
H  49.86800 28.49600 44.56500
H  47.58900 29.66700 41.01900
H  48.22700 28.23400 40.33100
H  49.05000 29.79100 40.52200

