158

Mg 27.27700 50.15600 25.71300
C  25.41000 51.51200 28.46700
C  29.50800 49.08300 28.10600
C  28.97200 48.99900 23.24100
C  25.02600 51.69100 23.45300
N  27.39600 50.25800 28.04700
C  26.47000 50.70500 28.92300
C  26.92900 50.46400 30.37600
C  28.25500 49.62700 30.17300
C  28.41900 49.67700 28.72000
C  29.36100 50.11100 31.06100
C  25.79200 49.71700 31.14500
C  25.22700 50.33300 32.51200
H  26.29100 50.61300 33.63900
N  28.98500 49.23400 25.63800
C  29.80600 48.93800 26.69300
C  30.91900 48.17300 26.18600
C  30.78000 48.07700 24.82600
C  29.58000 48.83700 24.47900
C  32.04900 47.65300 27.06000
C  31.55900 47.23000 23.84800
O  31.23400 47.16500 22.66400
C  32.87400 46.48300 24.28300
N  27.06600 50.40200 23.68300
C  27.85500 49.69500 22.80000
C  27.61800 50.11800 21.35400
C  26.15700 50.65200 21.41100
C  26.04500 50.97100 22.93700
C  28.59300 51.12300 20.85000
C  25.20600 49.59000 20.90300
C  24.59600 48.42100 21.79700
N  25.61900 51.42000 25.88700
C  24.76700 51.89900 24.84500
C  23.67900 52.64400 25.54700
C  23.89700 52.50200 26.93800
C  25.06000 51.70500 27.11000
C  22.53100 53.31000 24.90100
C  23.27600 52.84000 28.22100
O  22.30300 53.50200 28.48800
C  24.28900 52.21900 29.27600
C  24.80000 53.31600 30.10900
O  25.87100 53.92900 29.93000
O  23.90400 53.49600 31.16100
C  24.23300 54.44900 32.17800
H  30.17600 48.56100 28.79500
H  29.50800 48.76200 22.32000
H  24.30400 52.00800 22.69800
H  27.13200 51.41700 30.86200
H  28.06900 48.59400 30.46500
H  30.25300 50.10300 30.43400
H  29.61200 49.51000 31.93500
H  29.30100 51.17200 31.30200
H  26.17600 48.71300 31.32400
H  24.89300 49.57900 30.54400
H  24.58700 49.55200 32.91900
H  24.78800 51.23900 32.09400
H  32.96800 47.85200 26.50800
H  31.94800 46.58700 27.25900
H  32.13900 48.21400 27.99000
H  33.02600 45.91100 23.36800
H  32.64300 45.72100 25.02700
H  33.78200 47.06000 24.45700
H  27.69100 49.25400 20.69400
H  26.09000 51.54800 20.79500
H  29.29600 51.30100 21.66400
H  28.04300 51.99500 20.49600
H  29.21800 50.68500 20.07200
H  25.63800 49.02900 20.07400
H  24.34600 50.15700 20.54500
H  24.69800 48.55200 22.87400
H  25.15500 47.50700 21.59700
H  23.55300 48.27600 21.51700
H  21.66900 52.64400 24.92500
H  22.74100 53.59900 23.87100
H  22.35600 54.18900 25.52200
H  23.64800 51.59700 29.90100
H  25.12900 54.10900 32.69800
H  23.39800 54.67000 32.84300
H  24.48900 55.42300 31.76000
Mg 9.42500 48.45300 24.64000
C  7.33800 48.70100 27.46500
C  11.94600 49.75800 26.66500
C  11.48500 48.30100 22.01500
C  6.69800 47.57400 22.71900
N  9.54500 49.24600 26.74500
C  8.58000 49.26600 27.69900
C  9.06900 49.79300 29.04200
C  10.37900 50.60000 28.57500
C  10.69200 49.86900 27.21400
C  10.29700 52.09000 28.44000
C  9.34600 48.63900 30.00300
C  8.83700 48.77900 31.48100
H  8.93300 47.53600 32.33200
N  11.46400 48.95000 24.36100
C  12.35400 49.37400 25.33200
C  13.70000 49.38800 24.72700
C  13.53800 48.89300 23.41300
C  12.08300 48.74400 23.18400
C  15.02600 49.79200 25.41400
C  14.63100 48.36900 22.46600
O  14.36300 47.66400 21.44900
C  16.07200 48.53500 22.70200
N  9.08200 48.15100 22.58000
C  10.12800 48.04600 21.71900
C  9.72800 47.39700 20.42400
C  8.21400 47.26600 20.57600
C  7.91300 47.73600 22.04800
C  10.02000 48.18600 19.17200
C  7.86500 45.75900 20.48400
C  8.32100 44.80400 21.57900
N  7.42200 48.14900 25.02100
C  6.42200 47.78300 24.11800
C  5.23800 47.62200 24.79000
C  5.59200 47.89900 26.13000
C  6.89200 48.24400 26.24500
C  3.82000 47.35000 24.22000
C  5.00800 47.98900 27.47900
O  3.86000 47.75200 27.80100
C  6.17600 48.37300 28.44400
C  6.40400 47.16900 29.30000
O  7.04800 46.20400 28.97000
O  5.73400 47.27400 30.47100
C  5.50600 46.03200 31.31100
H  12.69300 50.22400 27.31100
H  12.12400 48.05700 21.16300
H  5.86400 47.27200 22.08200
H  8.36200 50.49300 29.48800
H  11.16500 50.40900 29.30600
H  10.54500 52.52400 27.47100
H  11.07500 52.43500 29.12000
H  9.37900 52.61700 28.70300
H  10.42100 48.48200 30.09700
H  8.95700 47.67000 29.68800
H  7.80400 49.12700 31.48900
H  9.56200 49.48600 31.88400
H  14.78800 50.18400 26.40200
H  15.62600 50.54600 24.90400
H  15.53700 48.84200 25.57200
H  16.45400 49.46800 23.11600
H  16.58500 48.24000 21.78600
H  16.33900 47.82900 23.48800
H  10.27800 46.45800 20.49100
H  7.73400 47.85400 19.79400
H  10.34600 49.20600 19.37400
H  9.13100 48.21700 18.54300
H  10.91100 47.83200 18.65200
H  8.27300 45.39200 19.54300
H  6.79100 45.69800 20.30900
H  8.54800 45.32700 22.50800
H  9.18700 44.25700 21.20500
H  7.54900 44.05500 21.75500
H  4.04600 46.68200 23.38800
H  3.35200 48.27600 23.88700
H  3.16900 46.85100 24.93700
H  5.87300 49.25600 29.00500
H  5.95700 46.20200 32.28800
H  5.97800 45.16700 30.84600
H  4.45200 45.75400 31.32800

