158

Mg 9.93100 47.34000 25.50200
C  7.86200 47.41700 28.34000
C  12.33600 48.62400 27.38400
C  11.80200 47.29100 22.70900
C  7.00800 46.86800 23.62700
N  9.98500 48.15000 27.62300
C  9.15500 47.82600 28.60700
C  9.77900 48.21200 30.00200
C  11.05900 48.98700 29.60200
C  11.11800 48.68700 28.06900
C  11.06400 50.52200 29.93700
C  10.05200 46.95300 30.95100
C  9.88500 47.22600 32.43800
H  10.17900 46.14200 33.50000
N  11.80700 47.71400 25.06600
C  12.74400 48.13500 26.07800
C  14.02800 48.11500 25.49200
C  13.86300 47.87000 24.13100
C  12.46700 47.65600 23.92600
C  15.30900 48.51500 26.20300
C  14.81700 47.88600 23.01000
O  14.43400 47.96000 21.87000
C  16.28600 47.86600 23.25200
N  9.51300 47.03100 23.46500
C  10.46700 47.03900 22.49600
C  9.84900 46.58000 21.11200
C  8.31100 46.60400 21.42200
C  8.24100 46.78000 22.93000
C  10.29100 47.36700 19.87100
C  7.54000 45.34900 20.86500
C  6.62300 45.49600 19.62300
N  7.86400 47.07000 25.83900
C  6.84800 46.91900 25.00200
C  5.62100 46.92100 25.68800
C  6.00800 47.09000 27.03600
C  7.34700 47.11000 27.11000
C  4.30100 46.68700 25.17500
C  5.43500 47.19800 28.35600
O  4.23400 47.18500 28.64400
C  6.68700 47.26600 29.28400
C  6.68800 46.03700 30.08000
O  7.03600 44.97200 29.56800
O  6.15500 46.13000 31.38000
C  5.94200 44.86200 32.07100
H  13.23400 48.89200 27.94500
H  12.22700 47.05400 21.73100
H  6.09100 46.66600 23.06900
H  9.19100 48.96100 30.53200
H  11.93100 48.62700 30.14800
H  10.47900 50.97600 30.73700
H  10.75000 50.97400 28.99600
H  12.08600 50.84400 30.14000
H  10.99300 46.44400 30.74300
H  9.27100 46.26300 30.63100
H  8.83500 47.48100 32.58300
H  10.48300 48.07300 32.77400
H  15.18800 48.65900 27.27600
H  15.74000 49.40300 25.74000
H  16.04800 47.71900 26.11300
H  16.57900 46.92700 23.72100
H  16.49400 48.66400 23.96400
H  16.73500 47.98400 22.26600
H  10.19600 45.56700 20.91200
H  7.89300 47.55800 21.10100
H  11.09200 48.08600 20.04500
H  9.46400 47.85900 19.36000
H  10.83000 46.68200 19.21600
H  6.97300 44.80000 21.61700
H  8.32000 44.66600 20.52700
H  6.27800 46.52800 19.69000
H  5.81400 44.77100 19.70800
H  7.23300 45.39500 18.72500
H  3.67800 46.78400 26.06300
H  4.14700 45.66600 24.82700
H  4.15100 47.47800 24.44000
H  6.63700 48.17800 29.88000
H  5.69800 45.08000 33.11100
H  6.82200 44.21900 32.05500
H  5.11100 44.25900 31.70700
Mg -12.41000 16.21400 42.45900
C  -9.75500 14.05100 42.08300
C  -10.61500 18.65500 40.79900
C  -15.29600 17.99700 42.30000
C  -14.22100 13.47400 43.90100
N  -10.52300 16.30000 41.37600
C  -9.58800 15.25200 41.36200
C  -8.18400 15.68500 40.75100
C  -8.47800 17.23600 40.42700
C  -9.88600 17.45800 41.00000
C  -7.39900 18.17800 41.00700
C  -7.89300 14.82200 39.48700
C  -6.35700 14.62100 39.28200
H  -5.61300 15.41900 38.28700
N  -12.86100 18.12500 41.74800
C  -11.92600 18.97100 41.16400
C  -12.64300 20.22700 40.89900
C  -14.00400 20.07100 41.30800
C  -14.07600 18.69500 41.86000
C  -11.98100 21.35600 40.23900
C  -15.09700 21.09100 41.09600
O  -14.87800 22.16100 40.51700
C  -16.49800 20.84300 41.49000
N  -14.52900 15.84700 43.04900
C  -15.49400 16.72400 42.90800
C  -16.84100 16.12100 43.33500
C  -16.49700 14.75400 43.94500
C  -14.95200 14.67900 43.65600
C  -17.75700 16.93000 44.30500
C  -17.22200 13.55200 43.29200
C  -18.01400 12.56700 44.11600
N  -12.09100 14.20900 42.97700
C  -12.85900 13.24300 43.61300
C  -12.09000 11.95500 43.76600
C  -10.82000 12.31900 43.29800
C  -10.93700 13.65600 42.74600
C  -12.51900 10.65200 44.46700
C  -9.49000 11.91400 43.18500
O  -8.94500 10.86900 43.55300
C  -8.71000 13.04400 42.42800
C  -7.64500 13.70800 43.28500
O  -7.87100 14.38400 44.28300
O  -6.43800 13.35100 42.75800
C  -5.27300 14.04900 43.30400
H  -10.05000 19.43300 40.28100
H  -16.28900 18.45000 42.32800
H  -14.84800 12.72100 44.38400
H  -7.38100 15.71600 41.48700
H  -8.62800 17.29600 39.34900
H  -7.50500 18.42800 42.06200
H  -7.15100 19.13200 40.54000
H  -6.47400 17.60300 40.96500
H  -8.27600 15.39500 38.64300
H  -8.37500 13.86400 39.68100
H  -6.11100 13.56100 39.22000
H  -5.86300 14.93800 40.20000
H  -11.00700 21.08400 39.83200
H  -11.83400 22.13800 40.98400
H  -12.67300 21.62300 39.44000
H  -17.08900 21.75600 41.42900
H  -16.47700 20.56700 42.54400
H  -16.98100 19.98800 41.01700
H  -17.29700 15.97400 42.35600
H  -16.55900 14.74800 45.03300
H  -17.25000 17.79100 44.74000
H  -18.07800 16.23500 45.08100
H  -18.63400 17.16700 43.70400
H  -16.49600 12.96000 42.73500
H  -17.89700 14.02100 42.57700
H  -17.51000 11.64100 44.39500
H  -18.83200 12.25000 43.46900
H  -18.30800 13.15700 44.98400
H  -13.15600 10.86000 45.32600
H  -11.63500 10.09100 44.76900
H  -13.09000 9.99500 43.81000
H  -8.29300 12.41400 41.64300
H  -5.60000 15.01100 43.69700
H  -4.61900 14.15900 42.43900
H  -4.83500 13.33300 43.99800

