158

Mg 53.94300 24.12000 44.26100
C  51.26700 26.35200 43.42900
C  52.02600 21.60500 43.24100
C  56.73900 22.39000 43.71000
C  55.80800 26.82100 45.19600
N  52.00900 24.04900 43.21100
C  51.05700 25.04600 43.02300
C  49.79700 24.46400 42.38700
C  49.84800 22.98300 42.85800
C  51.41000 22.88000 43.16500
C  48.90000 22.58300 43.94600
C  49.74400 24.42400 40.80800
C  51.09300 24.68800 40.06900
H  52.03300 23.53400 39.88500
N  54.32400 22.19800 43.68100
C  53.36000 21.29800 43.43000
C  53.96300 20.04600 43.16600
C  55.40800 20.18400 43.19000
C  55.54500 21.59000 43.46000
C  53.17400 18.81300 42.96000
C  56.39800 19.05800 43.07600
O  56.13600 17.90800 42.77100
C  57.89700 19.37200 43.48200
N  56.04900 24.59000 44.33700
C  56.97200 23.64500 44.23500
C  58.34300 24.22800 44.47700
C  58.05900 25.60800 45.12700
C  56.56400 25.78700 44.77200
C  59.19900 23.34300 45.43600
C  58.96200 26.83800 44.68200
C  58.65700 27.37700 43.30300
N  53.55800 26.15800 44.47000
C  54.41700 27.12200 44.99900
C  53.67400 28.38600 45.18600
C  52.42000 28.12400 44.57300
C  52.46900 26.77700 44.11600
C  54.22500 29.74800 45.70400
C  51.09000 28.72200 44.14800
O  50.61700 29.76300 44.34800
C  50.40100 27.62100 43.33500
C  50.22900 28.19100 41.95500
O  51.11100 28.39500 41.22000
O  48.88400 28.33600 41.65500
C  48.74400 28.65500 40.21800
H  51.40500 20.71500 43.12400
H  57.66300 21.88700 43.41400
H  56.24500 27.69100 45.69000
H  48.98100 25.04600 42.81600
H  49.54600 22.27900 42.08200
H  48.49800 21.58200 43.78600
H  48.13300 23.34700 44.07200
H  49.44700 22.43600 44.87700
H  49.02500 25.14000 40.40900
H  49.32000 23.47800 40.47200
H  51.51400 25.64300 40.38500
H  50.86200 24.95200 39.03700
H  53.87200 17.97700 42.90200
H  52.60100 18.75200 42.03500
H  52.52500 18.65200 43.82000
H  58.34600 19.77600 42.57500
H  58.47800 18.50900 43.80700
H  57.89800 20.02000 44.35900
H  58.85800 24.39100 43.53000
H  58.06600 25.49900 46.21100
H  58.63500 22.41000 45.44100
H  59.31200 23.74200 46.44400
H  60.11700 23.18100 44.87100
H  60.03700 26.66500 44.71600
H  58.74300 27.65800 45.36700
H  58.56400 28.46100 43.35400
H  57.81700 26.82500 42.88000
H  59.44500 27.14400 42.58700
H  54.16000 29.80400 46.79100
H  53.65600 30.41900 45.06000
H  55.28000 29.81200 45.43700
H  49.57800 27.35500 43.99700
H  48.69100 29.74200 40.27700
H  47.70200 28.53200 39.92400
H  49.46700 28.19200 39.54500
Mg 16.66800 52.21800 26.38000
C  18.56700 50.97000 29.05800
C  14.17100 53.04600 28.47800
C  15.27400 53.90100 23.81800
C  19.17700 51.03600 24.19900
N  16.32800 51.81500 28.44200
C  17.31000 51.51400 29.41800
C  16.81900 51.71600 30.85600
C  15.37300 52.06700 30.56100
C  15.24600 52.30800 29.08500
C  14.40100 50.98900 31.04800
C  17.52200 52.90800 31.61100
C  17.36600 52.95600 33.17000
H  16.26300 52.07900 33.74700
N  14.84300 53.15100 26.18000
C  14.05900 53.52300 27.14300
C  13.10200 54.50200 26.65300
C  13.36900 54.68400 25.29700
C  14.54300 53.89400 25.06800
C  12.03200 54.94300 27.51500
C  12.58200 55.50900 24.28300
O  12.83700 55.63100 23.05400
C  11.48100 56.41100 24.84500
N  17.03200 52.36500 24.18700
C  16.44200 53.21700 23.42600
C  17.12000 53.26600 22.07400
C  18.42600 52.37100 22.22500
C  18.24600 51.88600 23.61500
C  16.11500 52.76700 21.02100
C  19.73500 53.15500 21.96600
C  21.01100 52.42400 21.46000
N  18.41700 51.21800 26.53400
C  19.34800 50.74700 25.57600
C  20.45100 50.25200 26.20800
C  20.22900 50.30300 27.60500
C  18.96200 50.87600 27.73100
C  21.68200 49.68000 25.49800
C  20.77100 50.10500 28.87800
O  21.89800 49.68200 29.21300
C  19.70400 50.56300 29.90300
C  19.37800 49.40700 30.73900
O  18.86700 48.31900 30.46200
O  19.65400 49.72000 32.07000
C  19.26900 48.72100 33.04500
H  13.49600 53.34900 29.28000
H  14.96500 54.60400 23.04100
H  20.01200 50.71500 23.57200
H  16.96300 50.74700 31.33300
H  15.06400 53.04100 30.93800
H  13.54100 50.83500 30.39700
H  14.04500 51.38500 31.99900
H  14.90900 50.03700 31.20500
H  17.23600 53.86400 31.17300
H  18.58400 52.72400 31.45400
H  17.23200 54.00300 33.44000
H  18.28500 52.56900 33.61100
H  11.03700 54.61400 27.21600
H  12.00500 56.02600 27.63800
H  12.20500 54.62100 28.54200
H  10.64100 55.80400 25.18300
H  10.98300 56.99900 24.07400
H  11.91800 57.05500 25.60800
H  17.43700 54.29400 21.89700
H  18.43800 51.57400 21.48200
H  16.60500 52.43000 20.10700
H  15.44100 53.55400 20.68300
H  15.57600 51.90500 21.41400
H  20.07200 53.67600 22.86200
H  19.57600 53.91300 21.19900
H  21.66000 52.24600 22.31700
H  21.59100 52.94000 20.69500
H  20.67500 51.43500 21.14700
H  21.28700 49.10800 24.65800
H  22.12300 48.88800 26.10300
H  22.46400 50.38300 25.21000
H  19.97500 51.43900 30.49300
H  18.20100 48.50000 33.03500
H  19.48400 48.93800 34.09100
H  19.87200 47.87900 32.70600

