158

Mg 24.05000 -4.42100 45.14300
C  26.23000 -2.18100 43.58900
C  21.36800 -3.16700 43.18600
C  22.37700 -7.34100 45.51200
C  26.85500 -5.85600 46.69300
N  23.82600 -2.95300 43.62700
C  24.82000 -2.12000 43.17100
C  24.21200 -1.01000 42.25000
C  22.70700 -1.26900 42.30800
C  22.55200 -2.49800 43.22300
C  21.85000 -0.07200 42.82100
C  24.75800 -1.05600 40.83900
C  24.50000 0.19300 39.98800
H  23.99900 -0.16500 38.59500
N  22.03200 -5.04400 44.58000
C  21.13200 -4.37700 43.74900
C  19.99400 -5.25000 43.52100
C  20.25500 -6.48600 44.19300
C  21.60600 -6.33900 44.84200
C  18.85200 -4.71500 42.68500
C  19.29200 -7.57900 44.15400
O  18.23000 -7.54700 43.50800
C  19.63900 -8.90200 44.84300
N  24.55100 -6.25900 46.06500
C  23.63500 -7.26300 46.09100
C  24.27600 -8.55700 46.73900
C  25.74200 -8.00500 47.18600
C  25.73400 -6.61200 46.56800
C  23.41100 -9.27700 47.75700
C  26.96600 -8.87600 46.83300
C  27.58900 -9.60900 48.04600
N  26.09400 -3.98700 45.32700
C  27.13000 -4.58200 46.06000
C  28.29100 -3.67600 46.04300
C  27.97100 -2.78300 44.99600
C  26.66300 -3.04100 44.63000
C  29.54700 -3.68600 46.91600
C  28.49000 -1.65400 44.29200
O  29.56200 -1.07800 44.43000
C  27.46100 -1.34800 43.28800
C  27.19000 0.09200 43.32200
O  27.14400 0.81200 44.31400
O  27.13500 0.63200 42.08500
C  26.90800 2.06100 42.08400
H  20.53400 -2.75400 42.61500
H  21.85000 -8.24800 45.81400
H  27.60100 -6.34800 47.32200
H  24.38300 -0.02900 42.69300
H  22.46100 -1.61000 41.30300
H  21.38300 0.58200 42.08400
H  22.42900 0.47000 43.56800
H  21.07500 -0.33000 43.54300
H  24.37600 -1.98700 40.42000
H  25.84400 -1.06600 40.93000
H  25.36600 0.83900 39.84600
H  23.74800 0.80900 40.48200
H  18.68500 -3.64700 42.82600
H  17.96600 -5.16700 43.13000
H  18.97900 -4.93000 41.62400
H  19.48400 -8.70800 45.90500
H  20.68100 -9.17000 44.67400
H  18.92000 -9.69500 44.64200
H  24.39400 -9.30400 45.95400
H  25.61200 -7.99700 48.26800
H  22.82100 -8.59300 48.36700
H  24.10000 -9.76500 48.44600
H  22.83800 -9.98500 47.15800
H  27.67500 -8.37700 46.17200
H  26.45100 -9.68800 46.31900
H  27.28200 -9.10000 48.96000
H  28.66500 -9.58900 47.87800
H  27.32300 -10.66600 48.00800
H  29.61300 -3.08300 47.82200
H  30.28000 -3.32700 46.19500
H  29.66600 -4.73300 47.19700
H  27.75200 -1.61400 42.27100
H  27.76100 2.55200 42.55100
H  25.97000 2.38400 42.53600
H  26.98900 2.49500 41.08800
Mg 49.31700 34.55100 26.30900
C  47.30800 33.49500 28.83900
C  49.41200 37.76400 27.54600
C  51.24100 35.35300 23.69000
C  48.89100 31.23900 24.81700
N  48.43400 35.48700 27.94900
C  47.68800 34.85900 28.91500
C  47.37200 35.91700 29.98500
C  47.92800 37.23400 29.52500
C  48.58300 36.78200 28.21300
C  46.82500 38.33600 29.38300
C  47.91700 35.52900 31.44000
C  46.81200 35.43400 32.58400
H  47.04500 36.15300 33.91900
N  50.24900 36.34900 25.69000
C  50.22000 37.53500 26.41200
C  50.99500 38.46800 25.61700
C  51.50400 37.77700 24.44900
C  51.01600 36.42700 24.55900
C  51.24700 39.89400 26.02400
C  52.50200 38.29500 23.38400
O  53.07400 37.56900 22.60300
C  52.84700 39.77700 23.23500
N  49.80400 33.50600 24.39100
C  50.79800 34.06900 23.59600
C  51.06600 33.26700 22.34800
C  50.37800 31.89600 22.78400
C  49.55500 32.22700 24.06800
C  50.61700 33.90700 21.00000
C  51.29000 30.74300 22.98900
C  51.18700 29.62200 21.99300
N  48.26900 32.75900 26.66900
C  48.20800 31.50000 26.03000
C  47.30100 30.65700 26.74900
C  46.90300 31.36100 27.88900
C  47.54800 32.55900 27.83100
C  46.95900 29.19500 26.43100
C  46.08800 31.33400 29.08900
O  45.26300 30.39700 29.46800
C  46.42000 32.69000 29.86300
C  47.00100 32.16400 31.14600
O  48.15000 31.72900 31.35000
O  46.00900 32.18400 32.07300
C  46.20900 31.68700 33.44300
H  49.60300 38.74000 27.99600
H  51.77500 35.65700 22.78700
H  48.75400 30.28600 24.30400
H  46.29100 36.01700 30.08500
H  48.69500 37.52200 30.24400
H  46.29800 38.34200 30.33700
H  46.08800 38.05700 28.63000
H  47.22800 39.34100 29.25200
H  48.66200 36.21100 31.84800
H  48.37500 34.55500 31.26800
H  46.56900 34.37700 32.68800
H  45.89000 35.87900 32.21100
H  50.99300 40.10400 27.06300
H  50.83700 40.68600 25.39700
H  52.32300 40.01900 25.89900
H  53.40100 39.93800 22.31000
H  53.45000 39.97000 24.12300
H  51.95800 40.40600 23.18200
H  52.15000 33.20400 22.44200
H  49.63000 31.61100 22.04400
H  51.48600 34.43900 20.61300
H  49.83600 34.64700 21.16800
H  50.11300 33.20400 20.33700
H  51.23300 30.34000 24.00000
H  52.27500 31.20800 22.93700
H  52.14500 29.31900 21.56900
H  50.59300 29.88300 21.11800
H  50.81200 28.73500 22.50300
H  46.28500 29.14500 25.57600
H  46.38900 28.74600 27.24400
H  47.87400 28.65900 26.18300
H  45.57300 33.36800 29.96900
H  46.43000 32.47900 34.15900
H  47.05700 31.00500 33.49800
H  45.30100 31.20500 33.80700

