158

Mg 42.61100 41.90100 26.30800
C  42.32400 44.21100 28.91000
C  44.03900 39.64200 28.61500
C  43.10800 39.57800 23.82800
C  41.88100 44.27400 23.98600
N  43.13100 41.94500 28.54500
C  42.78500 42.95000 29.37200
C  42.98200 42.48700 30.86100
C  43.67400 41.08200 30.66000
C  43.62600 40.86300 29.14200
C  45.09200 40.86000 31.28100
C  41.51000 42.44700 31.49500
C  41.30900 43.49800 32.67300
H  40.65100 42.88000 34.01900
N  43.39800 39.91500 26.26900
C  43.88200 39.18500 27.30700
C  44.36200 37.85900 26.87400
C  43.94600 37.77600 25.48400
C  43.50800 39.14300 25.15700
C  45.06300 36.78500 27.79700
C  43.90000 36.59900 24.56400
O  43.46900 36.65100 23.39700
C  44.21200 35.21800 25.08700
N  42.74000 42.00200 24.18200
C  42.72900 40.87500 23.39700
C  42.40100 41.20000 21.97700
C  41.79500 42.65100 22.03600
C  42.11100 43.01900 23.50400
C  43.62600 41.18200 21.00200
C  40.20500 42.78800 21.83100
C  39.32900 41.68300 22.43700
N  42.17800 43.82500 26.36600
C  41.95600 44.69700 25.32700
C  41.70300 45.99700 25.87700
C  41.78600 45.87000 27.25800
C  42.14500 44.56600 27.53500
C  41.48900 47.17900 25.19800
C  41.77000 46.57800 28.45700
O  41.55400 47.77300 28.76100
C  42.07400 45.51900 29.62800
C  43.27400 45.92800 30.51100
O  44.40200 45.51300 30.33700
O  42.87200 46.87400 31.43000
C  43.91500 47.27000 32.33400
H  44.42500 38.92500 29.34300
H  43.02600 38.92600 22.95500
H  41.52700 45.05900 23.31300
H  43.69100 43.09200 31.42600
H  43.06700 40.36800 31.21600
H  45.82400 40.42600 30.60000
H  45.04900 40.27200 32.19900
H  45.53100 41.81800 31.56000
H  41.30200 41.43400 31.84000
H  40.77100 42.70500 30.73700
H  40.55700 44.26000 32.47000
H  42.30900 43.89900 32.83800
H  45.29300 37.18700 28.78300
H  46.01400 36.41300 27.41500
H  44.33300 35.98500 27.92200
H  43.47800 34.68000 25.68800
H  45.19300 35.31600 25.55300
H  44.36100 34.56700 24.22500
H  41.67800 40.43400 21.69900
H  42.36300 43.35300 21.42500
H  44.47800 40.77500 21.54700
H  43.90400 42.02700 20.37100
H  43.46900 40.38100 20.27900
H  40.13800 42.65500 20.75200
H  39.76900 43.76200 22.05600
H  38.67700 42.10200 23.20300
H  40.01700 40.96400 22.88000
H  38.68500 41.22400 21.68700
H  41.43100 48.05400 25.84500
H  40.52800 47.08100 24.69300
H  42.33000 47.22300 24.50600
H  41.30000 45.30600 30.36500
H  44.08400 46.36900 32.92400
H  43.44900 48.04500 32.94300
H  44.82200 47.67500 31.88700
Mg 16.47600 51.83400 26.60100
C  18.32600 50.24200 29.08100
C  14.00600 52.46000 28.83900
C  14.53600 52.83400 23.96700
C  18.91300 50.82500 24.22700
N  16.24100 51.36700 28.61500
C  17.09800 50.75300 29.50000
C  16.64900 50.96000 30.99200
C  15.14700 51.25300 30.80100
C  15.10900 51.74000 29.36000
C  14.15100 50.17400 31.12000
C  17.38500 52.11200 31.81500
C  18.00600 51.78500 33.24600
H  17.08800 51.04000 34.27100
N  14.56000 52.62800 26.47500
C  13.72400 52.90700 27.53700
C  12.65800 53.71500 27.02100
C  12.82400 53.88200 25.59100
C  14.02200 53.10700 25.26200
C  11.56400 54.39700 27.92700
C  12.11400 54.84500 24.59100
O  12.50500 54.93100 23.44000
C  10.96000 55.68600 25.10200
N  16.63700 51.58100 24.43500
C  15.74600 52.21500 23.63200
C  16.23300 52.31300 22.17700
C  17.72300 51.92900 22.30900
C  17.76500 51.33800 23.69300
C  15.34600 51.44200 21.21100
C  18.82400 52.91200 21.81800
C  20.01300 52.33700 21.11500
N  18.18400 50.76400 26.59600
C  19.07600 50.50700 25.58300
C  20.24900 49.87400 26.18100
C  20.02100 49.81700 27.56000
C  18.74800 50.32700 27.70200
C  21.46400 49.54900 25.36900
C  20.64500 49.46400 28.80900
O  21.80700 49.13200 29.18200
C  19.43200 49.56100 29.85500
C  19.12000 48.15000 30.28700
O  18.39800 47.33300 29.74700
O  19.79400 47.97000 31.44400
C  19.51000 46.69800 32.06900
H  13.37000 52.86400 29.62900
H  13.85500 53.08100 23.15000
H  19.75300 50.76600 23.53000
H  16.76600 50.02000 31.52900
H  14.94400 52.12300 31.42600
H  13.52900 49.97200 30.24800
H  13.44000 50.45900 31.89500
H  14.57800 49.19300 31.33200
H  16.73900 52.98800 31.86800
H  18.15000 52.38600 31.08800
H  18.33000 52.70000 33.74000
H  18.93300 51.21200 33.25700
H  11.86000 55.42000 28.16100
H  11.40400 53.91400 28.89100
H  10.62000 54.43300 27.38400
H  10.13500 55.04800 25.41800
H  10.59500 56.29500 24.27500
H  11.39600 56.33300 25.86300
H  16.16600 53.29400 21.70700
H  17.80200 51.01500 21.72100
H  15.94100 50.82500 20.53800
H  14.69800 52.13100 20.66900
H  14.77000 50.73600 21.80900
H  19.23700 53.38600 22.70800
H  18.32800 53.74400 21.31700
H  20.28300 52.81800 20.17500
H  19.91900 51.28700 20.83900
H  20.80900 52.47200 21.84800
H  22.21700 49.27100 26.10600
H  21.84400 50.50500 25.00800
H  21.31700 48.84000 24.55400
H  19.73200 50.13300 30.73300
H  18.48300 46.39900 31.86200
H  19.47000 46.86700 33.14500
H  20.23100 45.90400 31.87100

