158

Mg 8.36600 4.38600 28.24400
C  9.82100 2.87700 31.13600
C  6.39400 6.17100 30.36300
C  7.00000 5.69600 25.44000
C  10.03300 1.99900 26.17000
N  8.18000 4.51000 30.50100
C  8.86800 3.86100 31.50400
C  8.53100 4.32800 32.91900
C  7.36600 5.28000 32.58900
C  7.28700 5.35600 31.07000
C  5.93000 5.01500 33.22600
C  9.78300 4.83500 33.74200
C  9.45400 5.71100 34.91200
H  10.08300 5.35700 36.31300
N  6.91100 5.68000 27.94400
C  6.18400 6.31600 28.96200
C  5.32700 7.26700 28.28900
C  5.64600 7.21700 26.92000
C  6.54700 6.18500 26.69700
C  4.26700 8.12600 29.00100
C  5.14300 8.18000 25.74600
O  5.56500 8.06500 24.61500
C  4.31800 9.38500 25.99400
N  8.34800 3.75200 26.10900
C  7.82000 4.59100 25.14900
C  8.08900 4.13300 23.70900
C  9.21200 3.07600 24.00100
C  9.16700 2.84800 25.50100
C  6.88900 3.42600 23.03800
C  10.58400 3.31200 23.36200
C  11.56300 4.25900 24.00200
N  9.70900 2.85900 28.55700
C  10.24900 1.98100 27.60400
C  11.14200 1.05200 28.29200
C  11.04600 1.39900 29.71800
C  10.08500 2.43600 29.80400
C  11.92300 0.00400 27.63700
C  11.43500 1.01100 31.00100
O  12.16200 0.05500 31.37800
C  10.82700 2.08300 31.94500
C  10.29600 1.39800 33.17900
O  9.17600 0.91800 33.24700
O  11.28600 1.45100 34.13600
C  11.13300 0.57000 35.35600
H  5.89900 7.02100 30.83700
H  6.57400 6.01900 24.48800
H  10.47100 1.19600 25.57400
H  8.07000 3.49000 33.44200
H  7.58200 6.27400 32.98000
H  5.91700 3.97700 33.55600
H  5.13900 5.05100 32.47700
H  5.58600 5.68600 34.01400
H  10.50100 5.41900 33.16600
H  10.36700 4.04200 34.20700
H  8.37200 5.72200 35.04400
H  9.84200 6.70100 34.67400
H  4.59900 9.15800 28.88000
H  4.05100 7.92100 30.04900
H  3.30600 8.03200 28.49600
H  3.25900 9.20900 26.18300
H  4.45700 10.12300 25.20400
H  4.81400 9.86700 26.83600
H  8.50300 4.97100 23.14700
H  8.84400 2.15500 23.55000
H  7.02800 3.02400 22.03400
H  6.10000 4.16200 22.88800
H  6.60100 2.64000 23.73600
H  10.42100 3.69800 22.35600
H  11.14200 2.37900 23.29900
H  11.03400 4.79800 24.78700
H  12.04300 4.96800 23.32700
H  12.29300 3.63000 24.51200
H  11.32800 -0.62600 26.97600
H  12.33300 -0.63400 28.42000
H  12.81000 0.29300 27.07200
H  11.52400 2.81100 32.36200
H  10.78900 1.30100 36.08800
H  12.05200 0.07000 35.66300
H  10.33400 -0.15800 35.21100
Mg 48.26700 24.23100 27.85600
C  49.29200 26.67100 30.15200
C  47.47200 22.18400 30.35600
C  47.15500 22.12300 25.54900
C  49.90200 26.18100 25.34600
N  48.29800 24.56400 29.98700
C  48.72100 25.59500 30.77800
C  48.54800 25.23600 32.31900
C  48.27200 23.69800 32.24800
C  47.99700 23.44800 30.78200
C  49.38100 22.84600 32.90100
C  47.52900 26.09700 33.14900
C  48.02600 26.89100 34.37700
H  47.11300 26.88500 35.59200
N  47.29300 22.41600 27.91900
C  47.18700 21.71400 29.08600
C  46.49100 20.46700 28.77100
C  46.34000 20.46500 27.29300
C  46.95000 21.69200 26.83100
C  46.07100 19.37900 29.76800
C  45.68700 19.43700 26.47800
O  45.67100 19.52900 25.25300
C  44.94000 18.30400 27.14900
N  48.68600 24.06800 25.74500
C  48.04000 23.12200 25.03100
C  48.21600 23.41700 23.53800
C  49.27600 24.55300 23.50200
C  49.30300 25.03000 24.93200
C  48.82600 22.18200 22.83600
C  48.97500 25.63700 22.39500
C  47.85500 26.70500 22.55400
N  49.36300 26.08600 27.69000
C  49.88800 26.74500 26.64600
C  50.44700 28.01400 27.04000
C  50.14400 28.08300 28.41900
C  49.59300 26.81500 28.79900
C  51.19800 28.92600 26.12600
C  50.34800 28.87900 29.62800
O  50.90900 29.95600 29.83500
C  49.75000 27.95100 30.81400
C  50.77900 27.70600 31.91500
O  51.71600 26.93800 31.80800
O  50.49000 28.51300 33.01700
C  51.37400 28.56100 34.20000
H  47.18100 21.47400 31.13300
H  46.85500 21.45300 24.74000
H  50.31800 26.82300 24.56600
H  49.45300 25.46600 32.88100
H  47.35100 23.34900 32.71700
H  49.73200 23.40400 33.76900
H  50.19100 22.62600 32.20600
H  48.96100 21.87000 33.14200
H  46.80400 25.39100 33.55200
H  47.17100 26.86900 32.46800
H  48.06700 27.93900 34.08100
H  49.03900 26.70100 34.73300
H  46.45800 19.66800 30.74600
H  46.43800 18.42200 29.39600
H  44.99000 19.51500 29.78600
H  44.21400 18.82500 27.77400
H  45.54800 17.64600 27.77000
H  44.44400 17.76000 26.34500
H  47.23300 23.73000 23.18800
H  50.31000 24.22900 23.39100
H  49.80000 22.03700 23.30300
H  49.17100 22.28700 21.80700
H  48.10400 21.36700 22.80200
H  48.89300 25.20600 21.39700
H  49.88700 26.22600 22.48600
H  47.44400 27.01400 21.59300
H  48.37600 27.55500 22.99500
H  47.20100 26.22900 23.28500
H  51.74000 28.45300 25.30700
H  51.93000 29.40700 26.77400
H  50.49900 29.67200 25.74700
H  48.99700 28.54300 31.33400
H  50.89100 28.28500 35.13700
H  51.77000 29.57400 34.27400
H  52.26100 27.92900 34.13900

