158

Mg -2.50000 17.93600 26.78700
C  -2.64800 15.54000 29.52900
C  -2.52300 20.38900 29.13900
C  -2.56700 20.00000 24.27400
C  -2.90700 15.14600 24.59700
N  -2.45800 17.91300 29.13800
C  -2.49000 16.87500 30.00400
C  -2.36800 17.43100 31.45100
C  -2.28800 19.00000 31.18700
C  -2.51600 19.13700 29.73700
C  -3.32100 19.80800 32.12600
C  -1.15500 16.76100 32.24300
C  -0.17300 17.68400 33.02000
H  0.15400 17.13200 34.40200
N  -2.58600 19.93800 26.71300
C  -2.61700 20.80500 27.80700
C  -2.57900 22.16300 27.31000
C  -2.56700 22.08300 25.87600
C  -2.60900 20.63700 25.57300
C  -2.47200 23.36300 28.18000
C  -2.38600 23.16300 24.82100
O  -2.35200 22.91500 23.60400
C  -2.21900 24.54300 25.23900
N  -2.84900 17.60800 24.78700
C  -2.80300 18.65300 23.83600
C  -2.74700 18.11100 22.37400
C  -2.67000 16.54800 22.63500
C  -2.86000 16.42900 24.10000
C  -3.93600 18.48900 21.47500
C  -1.47200 15.86400 21.92300
C  -0.21300 15.67500 22.81000
N  -2.68800 15.84200 26.97000
C  -2.81400 14.89200 25.95300
C  -2.75900 13.62000 26.54400
C  -2.67300 13.76800 27.92300
C  -2.72000 15.19400 28.14000
C  -2.91400 12.28700 25.90100
C  -2.68900 13.04900 29.28400
O  -2.77600 11.86000 29.61400
C  -2.74200 14.20500 30.27400
C  -1.56000 13.81400 31.14200
O  -0.40800 13.74400 30.80500
O  -2.09000 13.35900 32.35200
C  -0.95500 12.96600 33.27700
H  -2.48800 21.21000 29.85800
H  -2.67200 20.73300 23.47200
H  -2.85200 14.24900 23.97700
H  -3.29600 17.02800 31.85600
H  -1.28900 19.41300 31.32400
H  -3.08200 19.49000 33.14000
H  -4.30900 19.56200 31.73600
H  -3.20700 20.88800 32.21900
H  -0.59900 16.39900 31.37800
H  -1.51000 15.95800 32.88900
H  -0.58900 18.68200 33.16000
H  0.78200 17.84600 32.52000
H  -1.70900 24.06000 27.83000
H  -2.40600 23.20600 29.25600
H  -3.43300 23.87300 28.10900
H  -3.12900 24.70900 25.81600
H  -2.09500 25.19400 24.37300
H  -1.26700 24.51100 25.77000
H  -1.89700 18.46800 21.79300
H  -3.60000 16.16200 22.21800
H  -4.74500 17.75900 21.50800
H  -3.59600 18.49400 20.44000
H  -4.25500 19.50800 21.69600
H  -1.04200 16.38400 21.06700
H  -1.72800 14.84200 21.64700
H  -0.32600 16.09700 23.80900
H  0.66000 16.12000 22.33300
H  0.19000 14.68200 23.00800
H  -2.51800 12.08600 24.90500
H  -3.96600 12.01000 25.82900
H  -2.39900 11.58900 26.56200
H  -3.60900 14.18300 30.93400
H  -1.35100 12.93500 34.29200
H  -0.10600 13.64700 33.22900
H  -0.65600 11.96700 32.96200
Mg 3.24700 -1.89300 44.31100
C  6.65200 -1.12300 43.75500
C  2.33300 0.72400 42.27400
C  0.11600 -3.21200 44.16900
C  4.38300 -5.01700 45.71200
N  4.36700 -0.41500 43.12800
C  5.75700 -0.22200 43.17100
C  6.12100 1.02900 42.39100
C  4.75800 1.62200 41.92000
C  3.69400 0.53100 42.33300
C  4.48500 3.04600 42.57200
C  7.00800 0.67900 41.15100
C  8.28200 1.56600 40.99600
H  8.80200 1.97400 39.60100
N  1.46700 -1.24000 43.53200
C  1.30100 -0.08700 42.78900
C  -0.13400 0.12300 42.59700
C  -0.83600 -1.01200 43.14300
C  0.23800 -1.88800 43.68500
C  -0.70500 1.39100 41.88400
C  -2.32600 -1.27100 43.11000
O  -3.10900 -0.45100 42.51000
C  -2.97700 -2.47300 43.81600
N  2.38100 -3.93700 44.78900
C  1.05300 -4.15700 44.63300
C  0.63600 -5.55200 45.15100
C  2.08300 -6.19700 45.61100
C  3.00800 -4.94200 45.43700
C  -0.39300 -5.66800 46.31700
C  2.67400 -7.37300 44.74900
C  2.42800 -8.82100 45.29600
N  5.10300 -2.91700 44.69800
C  5.39300 -4.10700 45.33800
C  6.84200 -4.17000 45.57900
C  7.31200 -3.06000 44.93800
C  6.25700 -2.32000 44.44700
C  7.58400 -5.27900 46.31100
C  8.54800 -2.35900 44.71700
O  9.69100 -2.69700 45.05700
C  8.12400 -0.96100 43.94800
C  8.54800 0.22700 44.70700
O  8.29900 0.36500 45.84100
O  9.09100 1.14800 43.91400
C  9.41700 2.43600 44.60500
H  2.11600 1.64600 41.72900
H  -0.87200 -3.66500 44.06900
H  4.80700 -5.92800 46.14100
H  6.68100 1.77800 42.95100
H  4.64800 1.75600 40.84400
H  3.88800 2.90800 43.47400
H  3.90200 3.76000 41.99100
H  5.41200 3.61200 42.66200
H  6.50200 0.86600 40.20300
H  7.38200 -0.34100 41.06600
H  9.17500 1.09900 41.41200
H  8.19400 2.54000 41.47700
H  0.06400 1.78400 41.21900
H  -0.92100 2.13600 42.65000
H  -1.63700 1.16000 41.36800
H  -2.66800 -2.77000 44.81700
H  -2.63700 -3.23800 43.11800
H  -4.05700 -2.33200 43.76200
H  0.32000 -6.12200 44.27700
H  2.07600 -6.47100 46.66600
H  -1.02500 -4.78700 46.42700
H  0.11600 -6.00100 47.22200
H  -1.16200 -6.35000 45.95600
H  3.74000 -7.16400 44.65400
H  2.18800 -7.25900 43.78000
H  1.63100 -8.90400 46.03500
H  3.35900 -9.25300 45.66100
H  2.10800 -9.35400 44.40100
H  6.84200 -5.79700 46.91800
H  8.30000 -4.82500 46.99600
H  8.09900 -6.05800 45.74800
H  8.74900 -0.89200 43.05800
H  10.38800 2.32300 45.08600
H  8.64100 2.76300 45.29600
H  9.50100 3.27200 43.91100

