158

Mg 46.85200 46.48000 43.91000
C  43.51900 46.40200 43.04500
C  47.19100 43.35200 42.30600
C  50.08700 46.64700 44.43200
C  46.49500 49.96900 44.39200
N  45.60700 45.23500 42.68600
C  44.21400 45.26900 42.64000
C  43.67700 44.25700 41.62800
C  44.79100 43.19200 41.68800
C  46.00500 43.98800 42.22200
C  44.33600 41.93500 42.56100
C  43.34000 44.91400 40.20300
C  42.05500 44.48900 39.56400
H  42.22900 43.42200 38.50500
N  48.40900 45.12800 43.48200
C  48.40900 43.90600 42.78200
C  49.74100 43.35500 42.75600
C  50.61500 44.31600 43.31200
C  49.70500 45.41100 43.80900
C  50.08200 41.97100 42.02000
C  52.11100 44.17100 43.50700
O  52.66300 43.19000 43.10900
C  52.95100 45.37400 43.95000
N  48.08600 48.09400 44.27100
C  49.43900 47.87300 44.60200
C  50.12700 49.24300 45.05200
C  48.95800 50.28100 44.80200
C  47.73800 49.41000 44.45900
C  50.60500 49.27200 46.50200
C  49.25400 51.29700 43.66600
C  49.02800 50.90600 42.18600
N  45.24900 48.00500 43.92600
C  45.26900 49.36600 44.06800
C  43.89700 49.81400 44.05800
C  43.15400 48.68800 43.66500
C  44.01400 47.61900 43.56200
C  43.48900 51.24100 44.23200
C  41.88700 48.16900 43.26900
O  40.89600 48.76700 43.06600
C  42.01400 46.68900 42.95000
C  41.05800 45.88500 43.74600
O  40.03200 45.49400 43.29500
O  41.46000 45.76400 45.06400
C  40.57100 44.99200 45.93900
H  47.25400 42.37500 41.82300
H  51.08800 46.71800 44.86200
H  46.46600 51.04100 44.59500
H  42.71400 43.86600 41.95700
H  45.09900 42.75300 40.74000
H  44.43200 41.01100 41.99100
H  43.29900 41.94700 42.89700
H  44.88700 41.97900 43.50100
H  44.06500 44.56300 39.46800
H  43.43700 45.99600 40.28800
H  41.58800 45.32900 39.04900
H  41.32100 44.07200 40.25400
H  49.18500 41.44700 41.69000
H  50.62300 41.27100 42.65800
H  50.70400 42.28000 41.18000
H  52.75000 46.27100 43.36400
H  54.00300 45.09100 43.96900
H  52.65500 45.55700 44.98300
H  51.00100 49.48900 44.44900
H  48.67100 50.87100 45.67300
H  51.67500 49.47900 46.49700
H  50.42400 48.33600 47.03100
H  50.14300 50.06200 47.09400
H  50.15500 51.91000 43.69300
H  48.52100 52.09400 43.78400
H  47.97800 50.74600 41.94300
H  49.58600 49.99200 41.98400
H  49.41700 51.69200 41.53800
H  44.29900 51.96900 44.20500
H  42.88600 51.29200 45.13800
H  42.97400 51.41600 43.28700
H  41.67800 46.55000 41.92300
H  40.86400 45.34300 46.92800
H  40.77200 43.93000 46.07500
H  39.52500 45.06600 45.64400
Mg -9.85900 17.66900 42.80000
C  -6.32600 17.54500 43.03900
C  -9.63100 21.15500 42.31400
C  -13.07300 17.77200 41.85100
C  -9.99800 14.21400 43.04500
N  -8.11200 19.16900 42.59000
C  -6.77000 18.84200 42.80700
C  -5.98500 20.19400 42.75700
C  -7.08100 21.28200 42.69900
C  -8.39200 20.53400 42.52900
C  -7.15600 22.29600 43.84300
C  -4.87100 20.30400 41.51600
C  -4.92700 19.29200 40.40900
H  -5.09300 19.84400 39.01300
N  -11.13800 19.25700 42.25400
C  -10.88800 20.62700 42.25200
C  -12.03100 21.36500 41.83000
C  -13.06900 20.42900 41.59500
C  -12.45400 19.06000 41.85900
C  -12.00900 22.82400 41.57000
C  -14.43300 20.78000 41.02300
O  -14.69500 21.91700 40.71100
C  -15.46700 19.72400 40.77100
N  -11.32000 16.21700 42.51000
C  -12.60400 16.50300 42.25100
C  -13.49900 15.27700 42.31500
C  -12.52100 14.12100 42.64200
C  -11.11600 14.89700 42.63200
C  -14.78200 15.33200 43.19900
C  -12.46600 12.98700 41.61500
C  -13.68900 12.15700 41.28800
N  -8.46200 16.15300 42.91200
C  -8.68500 14.83100 43.14500
C  -7.45700 14.15600 43.43700
C  -6.46100 15.15700 43.30900
C  -7.12700 16.34900 43.04900
C  -7.09700 12.72600 43.62700
C  -5.04800 15.44400 43.39800
O  -4.08500 14.77900 43.59400
C  -4.98300 16.99800 43.40000
C  -4.46200 17.50300 44.68000
O  -3.50200 18.23100 44.71700
O  -5.20300 17.09200 45.81000
C  -4.71000 17.41900 47.14400
H  -9.66000 22.24500 42.25500
H  -14.15000 17.67400 41.69800
H  -10.07100 13.12600 43.10200
H  -5.41900 20.33700 43.67700
H  -7.06600 21.90300 41.80300
H  -6.19300 22.46600 44.32400
H  -7.86400 21.90800 44.57700
H  -7.52600 23.26000 43.49500
H  -3.84500 20.33600 41.88200
H  -5.10700 21.26400 41.05700
H  -5.60700 18.44300 40.47700
H  -3.96500 18.78000 40.40400
H  -12.38400 23.06600 40.57500
H  -11.04000 23.32200 41.53800
H  -12.68800 23.39600 42.20200
H  -15.62400 19.22400 41.72700
H  -15.19100 19.02200 39.98400
H  -16.39300 20.16600 40.40200
H  -13.90000 15.07200 41.32200
H  -12.66300 13.57300 43.57400
H  -15.63600 15.37500 42.52200
H  -14.70500 16.23500 43.80400
H  -14.85900 14.44900 43.83300
H  -11.67200 12.28400 41.86700
H  -12.31600 13.54600 40.69100
H  -14.19900 12.07100 42.24700
H  -13.39900 11.18200 40.89500
H  -14.31100 12.66800 40.55400
H  -7.07700 12.47800 44.68800
H  -6.14900 12.43100 43.17800
H  -7.80800 12.10200 43.08400
H  -4.20800 17.31200 42.70100
H  -3.68900 17.78200 47.26300
H  -4.95900 16.68800 47.91400
H  -5.26300 18.27500 47.53000

