158

Mg 44.18800 5.58700 47.75600
C  42.11200 8.33300 47.36200
C  41.25500 3.46600 47.51400
C  46.02900 2.90400 47.60400
C  46.96600 7.64400 47.35600
N  41.99300 5.82300 47.31000
C  41.38400 7.11700 47.26800
C  39.86100 7.02500 47.31300
C  39.61500 5.46100 47.40500
C  41.03800 4.84500 47.40200
C  38.65900 5.03500 48.60400
C  39.11500 7.72200 46.18200
C  39.69900 7.86900 44.78000
H  38.80100 7.35400 43.66500
N  43.69100 3.46800 47.62800
C  42.50900 2.84500 47.55300
C  42.69900 1.43100 47.48500
C  44.03800 1.16600 47.61000
C  44.63800 2.59100 47.65900
C  41.52100 0.40500 47.23400
C  44.73600 -0.25100 47.59200
O  44.11600 -1.29500 47.48600
C  46.26100 -0.34600 47.72500
N  46.15900 5.31500 47.27900
C  46.73600 4.06400 47.48000
C  48.24000 4.06000 47.41200
C  48.49700 5.56600 47.18300
C  47.11500 6.26900 47.35900
C  48.90900 3.44800 48.60700
C  49.19000 5.87100 45.83600
C  50.59900 5.35600 45.81900
N  44.55600 7.60100 47.45800
C  45.76900 8.32000 47.36300
C  45.40800 9.75000 47.16500
C  44.00700 9.76900 47.15700
C  43.51800 8.45900 47.36800
C  46.45500 10.76600 46.81600
C  42.84500 10.66300 47.01600
O  42.70500 11.89800 46.96000
C  41.60200 9.72500 47.17800
C  40.52100 10.14300 48.08300
O  40.36800 9.69400 49.22800
O  39.74600 11.04000 47.48100
C  38.61600 11.54500 48.24900
H  40.39100 2.84900 47.26100
H  46.69900 2.04200 47.60000
H  47.78600 8.36400 47.30700
H  39.47200 7.57300 48.17100
H  39.14300 5.01400 46.53000
H  38.11500 5.85900 49.06500
H  39.13800 4.52800 49.44100
H  37.91000 4.35000 48.20600
H  38.77100 8.66900 46.59700
H  38.24700 7.07600 46.04800
H  40.63400 7.30800 44.78000
H  39.86600 8.93700 44.64200
H  41.86000 -0.45100 46.64900
H  40.60000 0.84600 46.85300
H  41.16900 0.03900 48.19800
H  46.78300 0.09600 46.87600
H  46.52900 -1.40200 47.73700
H  46.51700 -0.01900 48.73300
H  48.52000 3.54600 46.49200
H  49.12100 5.96100 47.98500
H  48.20100 3.07700 49.34800
H  49.55900 4.17600 49.09300
H  49.49000 2.60000 48.24500
H  49.09800 6.94600 45.67800
H  48.47300 5.46900 45.12000
H  50.59100 4.42400 45.25500
H  50.87800 5.14200 46.85100
H  51.31500 6.10400 45.47700
H  47.00400 11.16700 47.66800
H  45.81200 11.57200 46.46000
H  47.16400 10.50900 46.02900
H  41.16900 9.78800 46.18000
H  37.75700 10.89200 48.09000
H  38.43800 12.59300 48.01000
H  38.76100 11.52800 49.32900
Mg 35.06900 2.99500 29.88000
C  32.86200 4.28400 32.36500
C  37.31300 2.58600 32.13800
C  37.04900 1.88400 27.40700
C  32.43700 3.45600 27.59100
N  34.99400 3.40800 32.04800
C  34.03500 3.92800 32.88600
C  34.55200 3.76500 34.35800
C  36.07100 3.45100 34.24000
C  36.14500 3.12200 32.73400
C  37.11000 4.55800 34.52600
C  33.73300 2.69100 35.10000
C  33.30800 3.05800 36.54500
H  33.87200 4.25600 37.19500
N  36.90700 2.29300 29.75200
C  37.74500 2.19600 30.85500
C  38.90800 1.56800 30.51500
C  38.89400 1.35700 29.09900
C  37.59400 1.83900 28.69000
C  40.08100 1.22600 31.43300
C  39.98200 0.68000 28.28900
O  39.87200 0.51400 27.08200
C  41.28700 0.03300 28.92800
N  34.83100 2.83700 27.71700
C  35.82600 2.40800 26.89600
C  35.25500 2.32400 25.41800
C  33.71300 2.39500 25.64800
C  33.63000 2.95400 27.04100
C  35.75700 3.46700 24.45400
C  32.91900 1.05600 25.39900
C  33.10400 0.57600 23.94700
N  33.04200 3.75600 29.90300
C  32.08900 3.87500 28.83600
C  30.88000 4.40200 29.37300
C  31.11600 4.53600 30.76800
C  32.45300 4.15200 31.02300
C  29.55800 4.63900 28.59100
C  30.43100 4.90500 31.98800
O  29.33400 5.31700 32.28400
C  31.60300 4.73800 33.16100
C  31.54500 6.13800 33.75700
O  32.27400 7.07200 33.40700
O  30.72800 6.12300 34.88500
C  30.79100 7.22500 35.84200
H  38.17300 2.63800 32.80900
H  37.69000 1.56900 26.58100
H  31.65900 3.42300 26.82600
H  34.31800 4.73200 34.80300
H  36.28800 2.57600 34.85200
H  37.86400 4.13900 35.19300
H  36.54900 5.35600 35.01200
H  37.49500 4.95500 33.58600
H  34.27300 1.75000 35.21000
H  32.88100 2.38200 34.49400
H  33.52600 2.28100 37.27800
H  32.22700 3.18200 36.47700
H  40.34200 0.16900 31.40300
H  39.94500 1.51700 32.47400
H  40.97300 1.80900 31.20300
H  41.92500 0.75700 29.43400
H  41.93500 -0.49100 28.22500
H  41.01200 -0.70600 29.68100
H  35.52800 1.33400 25.05500
H  33.25300 3.19100 25.06200
H  34.98900 4.07300 23.97400
H  36.36100 3.06300 23.64200
H  36.37600 4.16900 25.01400
H  31.85200 1.17900 25.58200
H  33.28400 0.35000 26.14400
H  33.66500 1.35700 23.43300
H  32.22000 0.51100 23.31200
H  33.69000 -0.34200 23.99000
H  29.02500 3.70600 28.41000
H  29.75300 5.12500 27.63500
H  28.93100 5.34300 29.13900
H  31.34900 3.95400 33.87400
H  31.00000 6.70000 36.77300
H  29.82500 7.71900 35.94700
H  31.57400 7.97500 35.73200

