158

Mg 24.27000 -4.91200 46.24900
C  26.39700 -2.77900 44.55800
C  21.76100 -4.15800 43.84200
C  22.55800 -7.63900 47.16500
C  26.96100 -6.06100 48.23300
N  24.10900 -3.61500 44.38500
C  25.04600 -2.74400 44.02900
C  24.54900 -1.93800 42.84700
C  23.05400 -2.16400 42.87400
C  22.92100 -3.34700 43.80100
C  22.24400 -0.90300 43.24400
C  25.23600 -2.36400 41.56000
C  25.78000 -1.19500 40.72900
H  25.07600 -0.84900 39.43100
N  22.30200 -5.65800 45.72900
C  21.47300 -5.25300 44.68500
C  20.29500 -6.14300 44.66900
C  20.48500 -7.13000 45.64000
C  21.88100 -6.87000 46.22100
C  19.15600 -5.95800 43.63300
C  19.52600 -8.24800 45.86900
O  18.47600 -8.20300 45.20500
C  19.69100 -9.33500 46.88700
N  24.72300 -6.56400 47.61300
C  23.80500 -7.51500 47.77800
C  24.33100 -8.57400 48.87300
C  25.71500 -8.05500 49.16700
C  25.82400 -6.80100 48.30000
C  23.46100 -8.87000 50.17100
C  26.91600 -9.11700 48.87900
C  27.83700 -9.21700 50.06500
N  26.24600 -4.49300 46.47800
C  27.21100 -4.92700 47.36500
C  28.42300 -4.14400 47.25200
C  28.15200 -3.32600 46.06000
C  26.79900 -3.48600 45.68800
C  29.63600 -4.30100 48.03800
C  28.75300 -2.36700 45.17700
O  29.88200 -1.92900 45.19200
C  27.59300 -1.90900 44.14400
C  27.30400 -0.47100 44.39900
O  26.38900 -0.06600 45.04700
O  28.27500 0.25200 43.74200
C  28.10300 1.70800 44.04900
H  21.02600 -3.91900 43.07100
H  21.95600 -8.47800 47.52000
H  27.76300 -6.41500 48.88300
H  24.66800 -0.88400 43.09900
H  22.63800 -2.56100 41.94900
H  22.71800 -0.13300 42.63500
H  22.50900 -0.67300 44.27600
H  21.17000 -0.98600 43.08100
H  24.49800 -2.89600 40.96000
H  26.08200 -3.03200 41.72200
H  26.78100 -1.49300 40.41600
H  25.85700 -0.34100 41.40200
H  19.29200 -6.61800 42.77600
H  19.24500 -4.92900 43.28600
H  18.19200 -6.24600 44.05100
H  19.62500 -9.02800 47.93100
H  20.66000 -9.81600 46.75300
H  18.89000 -10.07000 46.80500
H  24.42800 -9.50100 48.30700
H  25.73800 -7.67900 50.19000
H  22.46100 -8.44500 50.08600
H  23.95000 -8.59400 51.10500
H  23.37100 -9.91000 50.48500
H  27.55900 -8.70500 48.10100
H  26.51900 -10.09000 48.58900
H  28.52800 -10.02200 49.81700
H  27.31400 -9.41500 51.00000
H  28.35400 -8.25700 50.05900
H  30.38800 -4.94700 47.58500
H  29.49700 -4.65600 49.06000
H  30.10600 -3.31800 48.04200
H  27.94700 -2.08200 43.12700
H  27.33200 2.01600 43.34300
H  29.11000 2.11300 43.95000
H  27.75800 1.90500 45.06400
Mg -12.34500 16.99900 42.20300
C  -9.19700 15.33000 41.78100
C  -10.91400 19.74000 40.64400
C  -15.46400 18.27400 41.79000
C  -13.75800 13.76500 43.02900
N  -10.31400 17.42600 41.18700
C  -9.14300 16.65800 41.29100
C  -7.85400 17.45500 40.89200
C  -8.44700 18.86000 40.72200
C  -9.98400 18.65300 40.84200
C  -7.99300 20.04000 41.70600
C  -7.14300 16.76400 39.62500
C  -5.65400 16.26500 39.69200
H  -5.36400 15.08900 38.64500
N  -13.10200 18.83500 41.35300
C  -12.33800 19.83200 40.77000
C  -13.23200 20.91300 40.37200
C  -14.51900 20.47800 40.73100
C  -14.45400 19.14400 41.35100
C  -12.70800 22.11700 39.66300
C  -15.74700 21.33800 40.45900
O  -15.66700 22.43300 39.89000
C  -17.09400 20.88200 40.83500
N  -14.31800 16.06700 42.41500
C  -15.44300 16.90500 42.30400
C  -16.72300 16.02900 42.46600
C  -16.14400 14.62200 43.04100
C  -14.67000 14.76800 42.76700
C  -17.81200 16.59500 43.37200
C  -16.79200 13.40900 42.23300
C  -17.12700 12.09200 42.98100
N  -11.59400 14.96300 42.47200
C  -12.30400 13.83600 42.82200
C  -11.31400 12.75100 42.93600
C  -10.07500 13.31600 42.61300
C  -10.31000 14.68500 42.26800
C  -11.56900 11.42500 43.44500
C  -8.61300 13.01900 42.44600
O  -7.91300 12.04900 42.79000
C  -7.97600 14.32200 41.93600
C  -7.19100 14.79700 43.11000
O  -7.52400 15.59800 44.00400
O  -5.93300 14.27000 43.01600
C  -4.99300 14.70300 44.13700
H  -10.51200 20.66500 40.22600
H  -16.51600 18.50600 41.61100
H  -14.17200 12.78000 43.25500
H  -7.12200 17.40000 41.69800
H  -8.34700 19.21900 39.69800
H  -8.89300 20.39400 42.20900
H  -7.53200 20.86000 41.15500
H  -7.15700 19.84700 42.37800
H  -7.05000 17.57100 38.89800
H  -7.74700 15.96600 39.19500
H  -5.41700 16.10400 40.74300
H  -4.96900 17.08800 39.49000
H  -13.15300 23.05600 39.99200
H  -12.78600 22.04300 38.57800
H  -11.64300 22.29300 39.81600
H  -17.25600 19.95900 40.27800
H  -17.82000 21.67400 40.65100
H  -16.92600 20.65100 41.88700
H  -17.15400 15.92200 41.47100
H  -16.25200 14.48800 44.11700
H  -17.48600 17.56800 43.73900
H  -18.12600 15.94600 44.18900
H  -18.70600 16.84200 42.80000
H  -15.99500 13.19400 41.52100
H  -17.66400 13.75400 41.67800
H  -16.46800 11.30300 42.61900
H  -18.17700 12.04500 42.69500
H  -16.87000 12.26200 44.02700
H  -11.74200 10.73400 42.62000
H  -12.42000 11.46400 44.12500
H  -10.61600 11.18000 43.91300
H  -7.38500 14.11900 41.04300
H  -4.81900 15.77800 44.17700
H  -4.02700 14.20800 44.03600
H  -5.42500 14.46400 45.10900

