158

Mg 24.66700 1.23600 29.86500
C  26.89600 1.33400 32.58900
C  22.10800 1.63100 32.03600
C  22.77500 1.01500 27.20500
C  27.46500 0.74600 27.82100
N  24.55600 1.50600 32.06300
C  25.53700 1.49000 32.98800
C  24.99600 1.66200 34.39900
C  23.45500 1.58000 34.22500
C  23.30100 1.65400 32.68300
C  22.71600 0.33500 34.85500
C  25.36000 2.96200 35.11000
C  26.01200 2.84400 36.53400
H  25.57300 3.79200 37.58900
N  22.73100 1.41400 29.64000
C  21.81500 1.61300 30.64900
C  20.50000 1.71900 30.05000
C  20.68200 1.38700 28.66900
C  22.13600 1.22600 28.48200
C  19.17900 2.02900 30.80800
C  19.60200 1.32200 27.58300
O  19.80800 0.95000 26.45300
C  18.18200 1.68800 27.86000
N  25.12000 0.87000 27.73100
C  24.09400 0.89500 26.90400
C  24.57700 0.84000 25.49900
C  26.14800 0.91700 25.58500
C  26.29700 0.91400 27.10300
C  23.94300 -0.35700 24.62600
C  26.77600 2.18200 24.98800
C  26.58300 3.50400 25.80000
N  26.74300 1.00000 30.07600
C  27.72900 0.80300 29.19300
C  29.04100 0.64200 29.83500
C  28.74500 0.97600 31.14400
C  27.37500 1.09700 31.29100
C  30.38700 0.39500 29.18800
C  29.29800 1.11600 32.50100
O  30.49200 0.98100 32.90300
C  28.06600 1.28500 33.49000
C  27.93900 0.18600 34.49100
O  27.48500 -0.95200 34.37200
O  28.62200 0.51500 35.66100
C  28.73800 -0.41200 36.80200
H  21.17100 1.77600 32.57900
H  22.24300 1.20300 26.27100
H  28.30900 0.69900 27.13000
H  25.29300 0.78200 34.97000
H  22.82700 2.38200 34.61200
H  21.82200 0.57300 35.43300
H  23.39500 -0.06300 35.60900
H  22.51100 -0.43800 34.11500
H  24.52900 3.66600 35.13700
H  26.11400 3.38500 34.44500
H  27.06400 2.96300 36.27400
H  25.78000 1.83000 36.85900
H  18.59400 1.11300 30.72600
H  18.63900 2.80300 30.26200
H  19.24500 2.32000 31.85600
H  17.64600 1.63600 26.91300
H  18.24300 2.71800 28.21000
H  17.71300 0.94700 28.50700
H  24.26300 1.79100 25.07000
H  26.54500 0.03100 25.08900
H  23.23300 -0.90500 25.24600
H  24.65000 -1.17600 24.49200
H  23.58400 -0.08500 23.63400
H  26.31300 2.22500 24.00200
H  27.85000 2.12800 24.80900
H  25.59200 3.80900 25.46300
H  27.30900 4.21700 25.40800
H  26.58400 3.46000 26.88900
H  31.10300 0.60000 29.98300
H  30.52500 1.10700 28.37400
H  30.42500 -0.68200 29.02400
H  28.23900 2.15000 34.13000
H  29.63600 -0.26600 37.40300
H  28.69000 -1.48300 36.60500
H  27.87600 -0.19300 37.43300
Mg 17.42300 52.24000 25.86300
C  19.59000 50.75800 28.24400
C  15.30100 53.02400 28.38400
C  15.48200 53.46100 23.52900
C  19.83800 51.28900 23.42100
N  17.48400 51.85400 28.05100
C  18.46700 51.28600 28.82400
C  18.11400 51.40700 30.34800
C  16.66600 52.01600 30.34600
C  16.48600 52.38300 28.85200
C  15.44200 51.14900 30.82900
C  18.97300 52.35600 31.12400
C  19.41100 51.90200 32.54100
H  18.38500 51.18000 33.38500
N  15.58500 52.99600 25.90800
C  14.80900 53.25800 27.03500
C  13.46200 53.75800 26.59600
C  13.52000 54.01100 25.21800
C  14.87400 53.47500 24.85600
C  12.37700 53.96400 27.48100
C  12.55500 54.55600 24.23100
O  12.67100 54.64600 23.01700
C  11.31400 55.31100 24.84600
N  17.60100 52.21700 23.76000
C  16.68200 52.92200 23.09400
C  17.01900 52.99500 21.59400
C  18.39900 52.41500 21.51800
C  18.65400 51.89300 22.96200
C  15.95200 52.40400 20.60900
C  19.55000 53.40100 21.06000
C  20.04600 54.44900 22.08900
N  19.34000 51.27400 25.77700
C  20.17300 50.97000 24.71800
C  21.38100 50.29000 25.15300
C  21.20100 50.20500 26.56200
C  19.93000 50.78100 26.87200
C  22.54500 49.83100 24.33000
C  21.77900 49.71900 27.85200
O  22.82300 49.10800 28.10100
C  20.73600 50.02700 28.91300
C  20.45100 48.73100 29.50400
O  20.15600 47.72200 28.86300
O  20.28200 48.88300 30.82400
C  19.73500 47.76900 31.60400
H  14.72600 53.39200 29.23600
H  14.88700 53.95700 22.75900
H  20.64800 51.15800 22.70000
H  18.11200 50.41000 30.78800
H  16.44900 52.95300 30.85900
H  15.91300 50.43400 31.50400
H  15.01200 50.51600 30.05300
H  14.77000 51.82700 31.35600
H  18.53500 53.33200 31.33400
H  19.89800 52.50500 30.56800
H  19.88500 52.75600 33.02400
H  20.22100 51.18900 32.39100
H  12.11200 55.01300 27.61300
H  12.65100 53.49200 28.42400
H  11.46200 53.50100 27.10900
H  10.69600 54.74100 25.54000
H  10.70800 55.73600 24.04600
H  11.64500 56.21100 25.36600
H  17.10300 54.04900 21.33100
H  18.36700 51.55000 20.85500
H  16.44300 51.59200 20.07300
H  15.46700 53.11800 19.94300
H  15.09400 52.02200 21.16200
H  19.21000 53.71700 20.07400
H  20.42400 52.75500 20.98800
H  19.32800 54.59100 22.89700
H  20.04500 55.38100 21.52300
H  21.08600 54.29800 22.37700
H  23.20000 49.15900 24.88300
H  23.12500 50.70000 24.01900
H  22.15700 49.26300 23.48400
H  21.12400 50.79000 29.58900
H  20.36100 46.91900 31.33200
H  18.69700 47.55600 31.35100
H  19.82600 47.93700 32.67800

