158

Mg 46.99400 14.82300 27.15400
C  45.17300 15.04800 30.14300
C  49.26800 17.03900 28.39500
C  48.35000 15.07200 23.99900
C  44.41300 12.85400 25.76200
N  47.17400 15.90300 29.01500
C  46.30200 15.90500 30.08400
C  46.91300 16.59900 31.35000
C  48.11000 17.37100 30.65800
C  48.19500 16.72600 29.25500
C  47.91100 18.87900 30.66000
C  47.38400 15.63500 32.49600
C  47.02000 16.10900 33.95500
H  48.06400 15.77700 35.01800
N  48.68300 15.70100 26.39900
C  49.54200 16.48400 27.09700
C  50.62600 16.94500 26.24400
C  50.40500 16.36800 24.96100
C  49.06600 15.69400 25.08100
C  51.78100 17.94700 26.69500
C  51.05100 16.75200 23.62100
O  50.63100 16.50800 22.52000
C  52.32400 17.51400 23.70700
N  46.44700 14.08000 25.17100
C  47.19400 14.29800 24.09600
C  46.66000 13.55300 22.84500
C  45.41500 12.80300 23.40600
C  45.42000 13.17900 24.90000
C  46.36100 14.42000 21.65300
C  45.42100 11.24300 23.22500
C  46.46800 10.48700 24.11000
N  45.10900 14.07500 27.73800
C  44.29000 13.26600 27.11000
C  43.17400 12.98500 28.09300
C  43.52700 13.61800 29.25700
C  44.67000 14.32100 29.02100
C  41.95500 12.10800 27.83000
C  43.17500 13.78100 30.61300
O  42.13300 13.40100 31.23700
C  44.22200 14.67600 31.29800
C  43.44700 15.84000 31.92200
O  43.20200 16.84300 31.29600
O  43.14900 15.57900 33.22400
C  42.72100 16.76600 34.04200
H  50.07500 17.66000 28.79100
H  48.84900 15.02500 23.02900
H  43.70700 12.06500 25.49500
H  46.26600 17.33400 31.82900
H  49.09000 17.15100 31.08200
H  47.85900 19.14900 29.60500
H  48.66400 19.33100 31.30500
H  46.95400 19.19200 31.07900
H  48.44900 15.40600 32.47900
H  46.93800 14.64300 32.44200
H  46.11500 15.56600 34.22800
H  46.74800 17.16500 33.94700
H  52.70800 17.37400 26.71100
H  51.64600 18.24700 27.73400
H  51.83500 18.85700 26.09800
H  52.21700 18.58900 23.84800
H  52.73000 17.36000 22.70800
H  53.10100 17.03600 24.30500
H  47.37800 12.79700 22.52900
H  44.49000 13.10600 22.91700
H  47.08000 14.07700 20.90900
H  46.37400 15.45700 21.99000
H  45.37900 14.24900 21.21400
H  45.81000 10.98100 22.24200
H  44.48800 10.73700 23.47700
H  46.10900 9.68800 24.75900
H  46.99700 11.15300 24.79200
H  47.27000 10.00500 23.55200
H  42.42300 11.35600 27.19500
H  41.30600 12.72100 27.20500
H  41.62300 11.64800 28.76100
H  44.67000 14.04500 32.06600
H  42.34300 16.52900 35.03600
H  41.97600 17.36900 33.52300
H  43.52500 17.46700 34.26700
Mg 30.15400 58.62400 39.46800
C  27.09300 57.13500 38.80000
C  31.72100 55.71500 38.50700
C  33.06800 60.35500 39.38500
C  28.48600 61.67100 40.12100
N  29.46400 56.72400 38.54100
C  28.16500 56.27300 38.45000
C  28.13800 54.95300 37.75100
C  29.53700 54.37900 38.00800
C  30.29200 55.62900 38.41600
C  29.51300 53.28800 39.12000
C  27.81500 55.21700 36.25100
C  26.61000 54.62500 35.55100
H  25.93700 55.55400 34.51000
N  32.12400 58.10800 39.10000
C  32.55300 56.87000 38.76300
C  34.03200 56.86600 38.66200
C  34.43000 58.22300 38.77400
C  33.21900 58.96500 39.16200
C  34.80200 55.68900 38.13300
C  35.81300 58.73000 38.49800
O  36.63700 57.91400 38.13800
C  36.22000 60.10300 38.52000
N  30.67800 60.60700 39.68600
C  31.95400 61.11000 39.61400
C  32.03100 62.65100 39.70000
C  30.64700 62.96400 40.32000
C  29.88400 61.68200 40.00400
C  33.26800 63.28100 40.38300
C  30.07100 64.27500 39.70400
C  29.52400 65.30000 40.67000
N  28.10000 59.27400 39.62800
C  27.61600 60.58200 39.85000
C  26.14100 60.47900 39.78100
C  25.89900 59.10700 39.46100
C  27.13900 58.43000 39.27900
C  25.06700 61.54700 40.26600
C  24.86700 58.14300 39.22900
O  23.65100 58.13000 39.38300
C  25.60300 56.88200 38.67700
C  25.06600 55.69700 39.36700
O  25.42200 55.26800 40.45600
O  24.13100 55.06200 38.56600
C  23.56900 53.78600 39.07200
H  32.22500 54.75500 38.37800
H  33.91300 61.04600 39.39400
H  27.98600 62.62800 40.28800
H  27.38900 54.29500 38.19100
H  29.92500 53.95400 37.08200
H  28.58200 53.18400 39.67700
H  30.20300 53.63000 39.89200
H  29.83600 52.31100 38.76000
H  28.68700 54.92500 35.66500
H  27.55200 56.27400 36.20100
H  25.88200 54.28700 36.28800
H  27.01000 53.84200 34.90700
H  35.03800 55.89200 37.08800
H  34.29400 54.73000 38.23700
H  35.70100 55.62300 38.74600
H  37.06700 60.23000 37.84600
H  36.31000 60.42900 39.55600
H  35.49400 60.62000 37.89300
H  31.88100 63.01000 38.68200
H  30.75600 62.93000 41.40400
H  32.93000 64.05800 41.07000
H  33.71400 63.67400 39.47000
H  34.05600 62.62400 40.75100
H  29.26400 64.02400 39.01500
H  30.80100 64.83000 39.11600
H  30.17200 66.15600 40.85700
H  29.42800 64.75700 41.61000
H  28.57300 65.67900 40.29500
H  25.61000 62.29300 40.84600
H  24.29600 61.01700 40.82600
H  24.59400 62.08200 39.44300
H  25.30400 56.84700 37.63000
H  24.44000 53.16600 39.28200
H  22.97900 53.30700 38.29100
H  23.00000 54.01200 39.97400

