158

Mg 44.15900 4.74300 47.82900
C  41.81800 7.23900 47.46300
C  41.58000 2.46800 47.67700
C  46.44100 2.45700 48.38300
C  46.69500 7.19600 47.32200
N  41.93100 4.86500 47.52300
C  41.19300 6.00200 47.52100
C  39.64100 5.72400 47.57000
C  39.63500 4.16400 47.60000
C  41.18100 3.84300 47.66500
C  38.85400 3.53100 48.83000
C  38.62500 6.33600 46.53100
C  39.20000 6.77400 45.17300
H  38.62400 6.05500 43.97200
N  44.11600 2.68800 47.71600
C  42.92600 1.93100 47.72900
C  43.26600 0.55300 47.79100
C  44.64100 0.55100 47.98500
C  45.14200 1.92000 48.04300
C  42.26200 -0.57200 47.58000
C  45.41900 -0.74400 48.15000
O  44.84600 -1.85800 48.36200
C  46.91000 -0.71100 47.90400
N  46.25800 4.74000 47.53600
C  46.91500 3.74600 48.23400
C  48.38500 4.10600 48.44100
C  48.48400 5.54800 47.87400
C  47.08600 5.84900 47.51100
C  48.96800 4.01000 49.80400
C  49.50000 5.66300 46.71000
C  50.96200 5.88200 47.10100
N  44.27400 6.76700 47.46900
C  45.39300 7.61600 47.34200
C  44.97500 8.92900 47.23000
C  43.54200 8.86000 47.27800
C  43.16700 7.53500 47.38800
C  45.78200 10.19800 46.99600
C  42.28500 9.73700 47.24700
O  42.12200 10.93300 47.21600
C  41.12700 8.61500 47.35700
C  40.36400 8.85600 48.68000
O  40.48700 8.29900 49.74600
O  39.39300 9.77000 48.37900
C  38.41100 10.02800 49.44400
H  40.76400 1.74300 47.73200
H  47.20600 1.82000 48.83100
H  47.34100 8.07500 47.29000
H  39.37300 6.06300 48.57000
H  39.21400 3.71800 46.69900
H  38.31200 2.60700 48.63100
H  38.13000 4.25500 49.20500
H  39.60300 3.30800 49.59000
H  38.20800 7.21200 47.02800
H  37.81900 5.62600 46.34600
H  40.25400 6.50200 45.11800
H  39.12600 7.84600 44.98800
H  41.27700 -0.10800 47.61400
H  42.46600 -1.37700 48.28700
H  42.34600 -1.03900 46.59900
H  47.16200 0.23500 47.42400
H  47.25200 -1.58100 47.34400
H  47.41000 -0.73800 48.87200
H  48.87500 3.42400 47.74600
H  48.79400 6.32200 48.57600
H  48.27300 3.62700 50.55200
H  49.29400 4.97400 50.19300
H  49.81100 3.32200 49.87100
H  49.23000 6.49400 46.05900
H  49.50100 4.74100 46.12900
H  51.24600 6.93400 47.06400
H  51.57900 5.29300 46.42300
H  51.02900 5.43100 48.09100
H  46.42000 10.43000 47.84900
H  45.12400 11.05800 46.87000
H  46.41300 10.12800 46.11000
H  40.39900 8.52600 46.55100
H  37.69800 9.20900 49.53700
H  37.91100 10.99300 49.36100
H  38.93700 10.03800 50.39900
Mg 26.43300 51.37300 25.99800
C  24.00500 52.56800 28.26500
C  28.56300 50.67000 28.43300
C  28.63800 51.08700 23.61900
C  24.14700 52.83800 23.40000
N  26.36600 51.69900 28.09000
C  25.27200 52.03000 28.85800
C  25.38700 51.60300 30.33100
C  26.83600 50.96600 30.34000
C  27.35400 51.19400 28.89400
C  27.71600 51.59800 31.50300
C  24.25800 50.60700 30.74000
C  23.40100 51.02900 31.86500
H  23.36600 50.19500 33.13400
N  28.34300 50.74200 26.07800
C  29.10500 50.52600 27.15700
C  30.44400 50.16600 26.74600
C  30.47400 50.34000 25.32300
C  29.10500 50.76700 24.92500
C  31.53100 49.76800 27.69500
C  31.65900 50.22900 24.39700
O  31.60200 50.74000 23.26700
C  32.95900 49.70300 24.93800
N  26.30700 51.74000 23.81100
C  27.38800 51.42800 23.11900
C  27.14600 51.43300 21.59800
C  25.65000 51.88600 21.52600
C  25.38400 52.20400 22.94200
C  28.13600 52.40300 20.74200
C  24.67200 50.83200 20.95700
C  24.09100 51.18300 19.61200
N  24.48700 52.42000 25.82500
C  23.71500 52.93000 24.72600
C  22.43300 53.39200 25.21700
C  22.48100 53.27800 26.59300
C  23.78600 52.76200 26.90500
C  21.34900 53.97900 24.35600
C  21.77500 53.56700 27.78100
O  20.71000 54.03600 28.04700
C  22.75700 53.07600 28.88600
C  22.97600 54.16000 29.87100
O  23.70600 55.13200 29.74100
O  22.03200 54.10500 30.92900
C  22.32600 55.05300 32.01100
H  29.19700 50.25900 29.22100
H  29.33900 50.97600 22.78900
H  23.42100 53.15300 22.64800
H  25.44500 52.47900 30.97600
H  26.76500 49.89200 30.51500
H  27.21600 51.69100 32.46700
H  27.92200 52.65800 31.36000
H  28.62100 51.00900 31.65200
H  24.67700 49.64400 31.03100
H  23.65600 50.55100 29.83300
H  22.36300 50.99300 31.53300
H  23.67100 52.02400 32.21900
H  32.35800 50.47600 27.63100
H  31.87800 48.74400 27.56100
H  31.13200 49.86300 28.70400
H  32.84000 48.70900 25.36800
H  33.38000 50.40700 25.65600
H  33.48800 49.71000 23.98500
H  27.22500 50.43300 21.17000
H  25.55800 52.80400 20.94600
H  28.71600 52.98500 21.45800
H  27.71100 53.15100 20.07300
H  28.83500 51.76700 20.19700
H  23.89100 50.74600 21.71200
H  25.26400 49.92900 20.80900
H  24.47200 52.13000 19.23100
H  23.00200 51.16200 19.55900
H  24.36700 50.44300 18.86100
H  20.84700 53.37800 23.59700
H  21.68800 54.86300 23.81600
H  20.54000 54.21400 25.04800
H  22.23800 52.28700 29.43000
H  22.46500 54.42600 32.89100
H  21.48800 55.68400 32.30700
H  23.14000 55.76600 31.87900

