158

Mg 7.17600 53.94100 42.34700
C  6.84600 50.51800 41.99200
C  10.39200 53.71700 41.21900
C  7.36900 57.29600 42.26300
C  3.94200 54.12700 43.57900
N  8.35900 52.35700 41.55600
C  7.98300 51.06500 41.43600
C  9.04400 50.29900 40.72300
C  10.29300 51.21300 40.87100
C  9.63700 52.56100 41.24600
C  11.27800 50.76900 41.95100
C  8.71900 49.85100 39.27300
C  7.77000 50.81000 38.50200
H  7.79100 50.62300 36.93700
N  8.71200 55.34600 41.80400
C  9.98800 55.04600 41.38200
C  10.76100 56.28500 41.22100
C  9.88300 57.33200 41.57700
C  8.59000 56.70100 41.86700
C  12.21800 56.22900 40.89700
C  10.14900 58.81000 41.53000
O  11.26700 59.15400 41.23200
C  9.14200 59.83100 42.05700
N  5.71600 55.46300 42.60000
C  6.09300 56.72500 42.48900
C  4.90400 57.60100 42.79200
C  3.72700 56.62600 43.14800
C  4.51600 55.32300 43.11200
C  5.30600 58.68500 43.92100
C  2.46100 56.59700 42.17700
C  2.44100 55.73600 40.86400
N  5.63900 52.63700 42.83100
C  4.40800 52.79300 43.37400
C  3.86400 51.44700 43.77500
C  4.82000 50.56200 43.22400
C  5.86100 51.32400 42.64600
C  2.70000 51.13300 44.58300
C  5.18600 49.19800 43.09500
O  4.69800 48.23700 43.62300
C  6.47100 49.06000 42.22700
C  6.04300 48.30200 40.97000
O  5.06200 48.63000 40.26700
O  6.84200 47.26600 40.60000
C  6.45200 46.62500 39.39500
H  11.47200 53.66100 41.06400
H  7.45700 58.38000 42.16900
H  2.94400 54.15300 44.02100
H  9.21300 49.36400 41.25700
H  10.79900 51.37600 39.91900
H  12.10700 50.36100 41.37300
H  10.74400 50.03700 42.55700
H  11.60600 51.55900 42.62800
H  8.30900 48.84500 39.36100
H  9.62900 49.79100 38.67500
H  8.03600 51.84900 38.70000
H  6.78600 50.65400 38.94500
H  12.43300 56.91500 40.07700
H  12.54100 55.20900 40.68700
H  12.80800 56.55200 41.75400
H  9.63100 60.78700 42.24300
H  8.93700 59.38900 43.03200
H  8.38100 59.99200 41.29400
H  4.60400 58.09100 41.86600
H  3.36700 56.75000 44.16900
H  4.57500 58.58100 44.72300
H  5.12500 59.66100 43.47100
H  6.33000 58.59600 44.28600
H  2.24400 57.61700 41.86000
H  1.63200 56.27700 42.80700
H  2.15600 56.40700 40.05400
H  1.74900 54.90500 40.72700
H  3.45900 55.40300 40.66300
H  2.40500 50.08700 44.51200
H  1.88200 51.75000 44.21300
H  2.88900 51.35000 45.63500
H  7.16400 48.42800 42.78200
H  6.21400 47.41000 38.67700
H  5.58600 46.02900 39.68300
H  7.18300 46.00900 38.87200
Mg -10.65400 16.55800 42.90600
C  -7.15700 17.06900 42.93500
C  -11.17700 19.86800 42.50400
C  -13.91500 15.87700 42.18600
C  -9.90100 13.02300 42.66100
N  -9.31900 18.25700 42.65500
C  -7.92000 18.24000 42.70400
C  -7.39700 19.73700 42.56900
C  -8.72600 20.61100 42.68300
C  -9.81700 19.52000 42.64400
C  -8.85400 21.51400 43.89600
C  -6.52900 19.98900 41.21900
C  -5.03400 20.22100 41.45300
H  -4.13600 19.38500 40.58600
N  -12.29900 17.71200 42.33000
C  -12.36900 19.08100 42.26000
C  -13.70100 19.45400 41.86700
C  -14.51100 18.30900 41.79400
C  -13.55600 17.23000 42.05700
C  -14.16400 20.88300 41.47500
C  -16.04900 18.31200 41.42200
O  -16.62400 19.38000 41.48900
C  -16.78600 17.12200 41.15700
N  -11.65900 14.66300 42.21100
C  -13.05000 14.74700 42.35100
C  -13.57500 13.31200 42.68500
C  -12.30900 12.38000 42.49200
C  -11.21300 13.42100 42.46500
C  -14.38100 13.23700 44.07500
C  -12.40700 11.55200 41.15500
C  -11.92200 10.07200 41.21500
N  -8.89800 15.24600 42.88700
C  -8.77300 13.85200 42.85700
C  -7.43400 13.54500 42.98600
C  -6.70500 14.78500 43.07900
C  -7.69400 15.76100 42.89600
C  -6.99000 12.20700 42.99800
C  -5.39200 15.35400 43.14200
O  -4.29600 14.82400 43.14200
C  -5.62600 16.92000 43.22500
C  -5.27700 17.18700 44.65800
O  -6.03000 17.06300 45.61800
O  -4.03200 17.77400 44.67800
C  -3.58500 18.29600 45.98900
H  -11.16700 20.95500 42.40400
H  -14.97700 15.67000 42.33000
H  -9.77600 11.94100 42.74400
H  -6.83000 20.00100 43.46200
H  -8.85300 21.27900 41.83100
H  -7.86700 21.97000 43.97700
H  -9.21800 20.88300 44.70600
H  -9.51600 22.34200 43.64600
H  -7.00600 20.76100 40.61600
H  -6.71400 19.11400 40.59500
H  -4.80700 19.99900 42.49600
H  -4.87600 21.28200 41.25700
H  -13.19900 21.37200 41.34600
H  -14.80000 21.30700 42.25200
H  -14.69600 20.76200 40.53100
H  -17.77900 17.45800 40.85800
H  -16.85500 16.63000 42.12700
H  -16.18900 16.50400 40.48600
H  -14.34600 12.93200 42.01400
H  -12.19400 11.72400 43.35500
H  -14.41600 14.20100 44.58100
H  -13.61500 12.82800 44.73400
H  -15.30900 12.67100 44.00000
H  -11.82500 12.14300 40.44800
H  -13.46400 11.54300 40.88800
H  -11.66300 9.85000 42.25000
H  -11.07800 9.92700 40.54100
H  -12.70300 9.34900 40.97800
H  -7.65000 11.35300 43.15200
H  -6.22500 12.19900 43.77500
H  -6.40800 12.18200 42.07700
H  -4.92400 17.41900 42.55800
H  -3.06300 19.21200 45.71400
H  -2.94600 17.49900 46.37100
H  -4.33500 18.64600 46.69800

