158

Mg 47.08100 24.91500 29.14900
C  47.93900 27.26900 31.68100
C  45.90900 22.77500 31.56200
C  46.65700 22.53700 26.78300
C  48.52500 26.96500 26.80100
N  46.71400 25.13700 31.26800
C  47.22000 26.11200 32.08200
C  46.97900 25.73400 33.61100
C  46.51100 24.28000 33.48400
C  46.29300 24.07600 31.98400
C  47.52100 23.30700 34.14900
C  45.93400 26.77300 34.24800
C  46.05200 27.30900 35.73700
H  46.73600 26.41900 36.81500
N  46.30600 22.95000 29.14500
C  45.85800 22.30900 30.20500
C  45.32800 21.01000 29.82800
C  45.46000 20.91200 28.44900
C  46.20500 22.14000 28.02700
C  44.61300 19.97300 30.80600
C  45.10800 19.78000 27.50100
O  45.18300 19.91600 26.26300
C  44.49200 18.51600 28.11900
N  47.43500 24.73200 27.04600
C  47.28700 23.72300 26.32200
C  47.75500 23.94400 24.88300
C  48.12800 25.40100 24.88800
C  48.02500 25.76700 26.34400
C  48.74400 22.90300 24.32500
C  47.17100 26.25100 23.95400
C  45.71700 26.19800 24.26800
N  48.03800 26.81600 29.16100
C  48.63200 27.47700 28.12500
C  49.20300 28.70300 28.61200
C  48.94500 28.64500 30.04400
C  48.30200 27.44500 30.30300
C  49.90800 29.69500 27.73200
C  49.10400 29.39900 31.24800
O  49.63300 30.48900 31.27700
C  48.63200 28.46800 32.39300
C  49.64200 28.11900 33.33200
O  50.54500 27.29100 33.17800
O  49.50800 28.81300 34.52400
C  50.43100 28.33300 35.53000
H  45.61200 22.12800 32.39000
H  46.73000 21.74800 26.03200
H  48.86800 27.54900 25.94400
H  47.96500 25.88100 34.05300
H  45.51400 24.17600 33.91400
H  48.27800 23.86600 34.69900
H  48.05400 22.76500 33.36700
H  47.08000 22.60200 34.85400
H  44.99400 26.22200 34.28100
H  45.83900 27.60500 33.55100
H  45.01600 27.46900 36.03700
H  46.57900 28.26100 35.79900
H  44.29000 20.38100 31.76400
H  45.40700 19.27300 31.06600
H  43.73100 19.40500 30.50900
H  45.29300 18.08500 28.71900
H  44.32600 17.81500 27.30100
H  43.52300 18.60600 28.61100
H  46.84800 23.77600 24.30200
H  49.19100 25.50600 24.67000
H  49.75700 23.30500 24.32900
H  48.44500 22.81000 23.28100
H  48.84300 21.93900 24.82300
H  47.26300 25.85600 22.94300
H  47.44800 27.30200 23.86700
H  45.26700 25.82700 23.34700
H  45.30300 27.15700 24.57800
H  45.39100 25.54400 25.07700
H  50.65800 29.29400 27.05100
H  50.36600 30.39400 28.43200
H  49.27300 30.28600 27.07200
H  47.83100 28.90900 32.98600
H  50.16500 27.36400 35.95400
H  50.29800 28.94300 36.42300
H  51.49800 28.48200 35.36300
Mg 6.88800 53.64100 42.06500
C  6.27000 50.26700 41.58700
C  10.21600 53.01400 41.06700
C  7.27500 56.89300 41.83300
C  3.42100 54.12900 42.81800
N  8.06000 51.77400 41.27700
C  7.57800 50.52300 41.20900
C  8.65600 49.53600 40.63900
C  9.98000 50.41200 40.91600
C  9.42800 51.80000 41.07200
C  10.89500 50.02100 42.21800
C  8.52700 48.99000 39.20700
C  7.68200 49.79900 38.26300
H  8.20000 50.17400 36.84300
N  8.59500 54.81700 41.62500
C  9.81300 54.35800 41.24000
C  10.63300 55.49600 41.11300
C  9.77700 56.63600 41.22000
C  8.47100 56.20600 41.58300
C  12.06800 55.38500 40.78000
C  10.24400 58.05300 41.11500
O  11.46000 58.19500 41.02700
C  9.37100 59.23900 41.04500
N  5.46100 55.23900 42.06000
C  5.91200 56.53800 42.05100
C  4.70100 57.55500 42.24600
C  3.59300 56.62800 42.76300
C  4.16700 55.25600 42.42000
C  4.95700 58.76000 43.13900
C  2.12800 56.89600 42.29400
C  1.13900 56.94200 43.51000
N  5.24700 52.51400 42.21800
C  3.88400 52.76300 42.67200
C  3.17400 51.53500 42.90700
C  4.11700 50.54800 42.53500
C  5.33800 51.19200 42.07000
C  1.77400 51.38200 43.48300
C  4.25200 49.14100 42.49700
O  3.49000 48.26700 42.81800
C  5.62200 48.86500 41.81100
C  5.48100 48.07600 40.52900
O  4.80000 48.37500 39.57000
O  6.18000 46.86400 40.62800
C  5.98100 45.92400 39.46800
H  11.26400 52.80700 40.84200
H  7.33500 57.97200 41.67900
H  2.38600 54.30200 43.12000
H  8.58200 48.65300 41.27500
H  10.62400 50.34300 40.03900
H  11.95900 50.00600 41.98000
H  10.68100 48.99000 42.49700
H  10.68100 50.67200 43.06600
H  8.25500 47.93900 39.31000
H  9.53200 48.94100 38.78800
H  7.19800 50.61500 38.79900
H  6.81600 49.17300 38.04500
H  12.62000 56.20500 41.23800
H  12.15000 55.22900 39.70400
H  12.57900 54.56800 41.28900
H  9.87000 60.16500 40.75800
H  8.93200 59.49800 42.00800
H  8.75100 58.93000 40.20300
H  4.39900 57.89400 41.25500
H  3.67000 56.61600 43.85000
H  5.79200 58.52000 43.79700
H  4.07500 58.84100 43.77400
H  5.11000 59.67500 42.56600
H  1.86400 56.10600 41.59000
H  2.12800 57.86000 41.78400
H  0.45600 56.09400 43.45000
H  0.58800 57.88200 43.53400
H  1.54800 56.87100 44.51700
H  1.71600 50.43300 44.01600
H  0.98500 51.25400 42.74300
H  1.55600 52.23200 44.13000
H  6.23200 48.21600 42.43900
H  6.13200 46.52300 38.56900
H  4.98600 45.48000 39.47700
H  6.67400 45.08600 39.54300

