158

Mg 16.34100 51.79100 25.62800
C  18.00200 50.30600 28.50600
C  14.08500 53.03200 27.89200
C  14.62900 52.57900 22.99400
C  18.78700 50.08300 23.67800
N  16.14000 51.71700 27.90700
C  16.89600 51.04600 28.85000
C  16.55400 51.43800 30.28800
C  15.19400 52.12500 30.07700
C  15.11000 52.28400 28.51400
C  13.85400 51.54200 30.64300
C  17.53000 52.56000 30.83600
C  17.86400 52.46400 32.31100
H  16.96000 51.65400 33.29000
N  14.62300 52.65000 25.43100
C  13.77500 53.20300 26.44600
C  12.68100 53.87400 25.88200
C  12.82300 53.76000 24.49500
C  14.03800 52.94200 24.20900
C  11.68100 54.62600 26.69700
C  11.86000 54.15800 23.33700
O  12.14000 53.91000 22.14400
C  10.61600 54.93100 23.58000
N  16.61500 51.32900 23.63500
C  15.81100 51.91900 22.75100
C  16.30200 51.68200 21.34900
C  17.70900 51.13800 21.55800
C  17.72900 50.78400 23.03600
C  15.26800 50.68400 20.63600
C  18.82700 52.17000 21.33700
C  19.85100 51.86600 20.29500
N  18.11800 50.53400 25.97300
C  18.94700 49.90300 25.08100
C  20.03400 49.27500 25.82300
C  19.66200 49.42600 27.16600
C  18.46400 50.11400 27.18100
C  21.22500 48.50300 25.33900
C  20.07900 49.06900 28.51100
O  21.09300 48.47500 28.82800
C  19.01700 49.63900 29.49200
C  18.49700 48.46700 30.25600
O  17.48800 47.80500 30.02000
O  19.34300 48.19800 31.29700
C  19.01400 46.99300 32.09200
H  13.39800 53.47200 28.61800
H  14.09900 52.81800 22.06900
H  19.65300 49.75300 23.10200
H  16.55300 50.56700 30.94300
H  15.09900 53.06500 30.62000
H  14.12400 50.63300 31.17900
H  13.16500 51.23800 29.85500
H  13.32300 52.19600 31.33400
H  17.26300 53.56500 30.50900
H  18.43300 52.43800 30.23700
H  17.78500 53.47900 32.70100
H  18.91100 52.18500 32.43500
H  11.40600 55.53700 26.16600
H  11.99100 54.85500 27.71700
H  10.77700 54.01700 26.71200
H  9.92500 55.07500 22.74900
H  10.99500 55.92200 23.83000
H  10.09700 54.60200 24.48000
H  16.14200 52.59100 20.76900
H  17.87300 50.18900 21.04800
H  14.79500 49.99900 21.34000
H  15.81000 50.04200 19.94300
H  14.54100 51.29900 20.10600
H  19.35300 52.36700 22.27100
H  18.39900 53.12900 21.04400
H  20.27800 52.73700 19.79900
H  19.57700 51.17900 19.49400
H  20.64200 51.43500 20.90800
H  22.04200 49.17500 25.07500
H  21.03200 47.85500 24.48400
H  21.46100 47.72800 26.06700
H  19.56700 50.31600 30.14500
H  19.77800 46.78500 32.84100
H  19.02200 46.20900 31.33400
H  18.08500 47.20800 32.62000
Mg -1.16100 34.78100 26.35200
C  -2.89600 32.97600 28.85900
C  -0.37100 37.14400 28.73200
C  0.16100 36.68900 23.88500
C  -2.68600 32.75600 23.90600
N  -1.68800 35.06600 28.51200
C  -2.27800 34.15300 29.31700
C  -2.17200 34.63400 30.78600
C  -1.73600 36.06200 30.74500
C  -1.20000 36.13900 29.23500
C  -2.81600 37.10400 31.05500
C  -1.28900 33.67400 31.66700
C  -2.01000 33.04100 32.93900
H  -1.07000 32.90600 34.22100
N  -0.18600 36.59200 26.33600
C  0.06200 37.38600 27.42200
C  0.74200 38.59800 26.90900
C  0.96200 38.42200 25.54100
C  0.35800 37.18500 25.21500
C  1.11900 39.75200 27.76200
C  1.75200 39.28400 24.52900
O  1.93500 39.04200 23.34700
C  2.23500 40.53000 24.93500
N  -1.43500 34.85000 24.16800
C  -0.58000 35.63400 23.37700
C  -0.73500 35.30200 21.93600
C  -1.50500 33.88700 22.06200
C  -1.90800 33.84400 23.48700
C  -1.45900 36.41300 21.05300
C  -0.58700 32.68200 21.66400
C  0.54100 32.28400 22.63000
N  -2.48300 33.15300 26.28000
C  -3.01600 32.47400 25.22100
C  -3.80700 31.37400 25.81500
C  -3.83600 31.50300 27.24500
C  -2.94200 32.61300 27.49100
C  -4.45500 30.36400 24.91400
C  -4.28000 31.02100 28.45700
O  -5.02200 30.11400 28.68700
C  -3.69500 31.99300 29.59000
C  -4.81200 32.60900 30.32700
O  -5.28100 33.61400 29.96300
O  -5.22600 31.84000 31.40100
C  -6.18700 32.57000 32.20600
H  -0.15100 37.86200 29.52500
H  0.48900 37.29500 23.03800
H  -2.99500 31.95100 23.23500
H  -3.15300 34.64600 31.26100
H  -0.95100 36.24800 31.47700
H  -2.82200 37.22400 32.13900
H  -3.75800 36.85200 30.57000
H  -2.45100 38.01600 30.58400
H  -0.47000 34.20800 32.15000
H  -0.89100 32.86100 31.06000
H  -2.54200 32.09600 32.82700
H  -2.76000 33.79300 33.18600
H  0.55500 39.86600 28.68700
H  1.02200 40.65200 27.15400
H  2.15900 39.58800 28.04200
H  2.78400 40.50300 25.87600
H  1.32400 41.11300 25.07300
H  2.84800 41.03900 24.19100
H  0.21000 35.02500 21.46900
H  -2.43200 33.81600 21.49200
H  -0.70100 36.73900 20.34100
H  -1.56500 37.33900 21.61800
H  -2.43400 36.10600 20.67300
H  -0.08900 32.95900 20.73400
H  -1.10700 31.73900 21.49900
H  0.50300 31.21700 22.85100
H  0.66400 33.01100 23.43300
H  1.36400 32.49900 21.94900
H  -5.38100 30.85200 24.60800
H  -4.72800 29.39300 25.32800
H  -3.78800 30.32100 24.05300
H  -3.02300 31.37900 30.19000
H  -5.68600 33.45700 32.59300
H  -6.44900 31.90200 33.02700
H  -7.10200 32.77200 31.64900

