158

Mg 24.26600 -6.91200 47.22300
C  27.10700 -4.73700 46.39200
C  22.42400 -5.19400 44.85200
C  22.08900 -9.39900 47.30100
C  26.73000 -8.98300 48.87000
N  24.82300 -5.25100 45.72500
C  25.94100 -4.41100 45.69900
C  25.77400 -3.19800 44.77800
C  24.14700 -3.31700 44.54300
C  23.79800 -4.76500 45.00700
C  23.33800 -2.23300 45.31800
C  26.55800 -3.33300 43.38900
C  26.78800 -2.04400 42.65000
H  25.96200 -1.75700 41.46500
N  22.42800 -7.17800 46.40800
C  21.80100 -6.31500 45.50700
C  20.50000 -6.78900 45.26000
C  20.36900 -8.06400 45.86800
C  21.66900 -8.25300 46.61500
C  19.54500 -6.17200 44.25900
C  19.12800 -8.98600 45.83200
O  18.14900 -8.66400 45.19000
C  19.03900 -10.26800 46.54400
N  24.46100 -8.90300 47.78800
C  23.35100 -9.70300 47.82400
C  23.65400 -11.09600 48.40300
C  25.16300 -10.95500 48.81400
C  25.52900 -9.53400 48.42500
C  22.67100 -11.43400 49.65500
C  26.11300 -12.01700 48.23700
C  26.09600 -13.31600 49.13100
N  26.42500 -6.83100 47.64900
C  27.24400 -7.71600 48.45300
C  28.57100 -7.19700 48.63100
C  28.51900 -5.99800 47.87600
C  27.27400 -5.88700 47.18500
C  29.72800 -7.78600 49.41200
C  29.30400 -4.90300 47.46700
O  30.42100 -4.57700 47.78800
C  28.45800 -4.05500 46.34000
C  28.37100 -2.64800 46.67900
O  28.00100 -2.12500 47.71200
O  28.86900 -1.94300 45.57700
C  28.95000 -0.48400 45.70700
H  21.85200 -4.51800 44.21200
H  21.56000 -10.35300 47.23700
H  27.23600 -9.52800 49.66900
H  25.99100 -2.23000 45.23000
H  23.90800 -3.32500 43.48000
H  22.66000 -1.72500 44.63100
H  23.99700 -1.44300 45.67800
H  22.84200 -2.59000 46.22000
H  25.96600 -3.96800 42.73000
H  27.52800 -3.79700 43.56500
H  27.83900 -1.97700 42.36700
H  26.73100 -1.17300 43.30300
H  18.51000 -6.02900 44.56900
H  19.58900 -6.59500 43.25600
H  19.91400 -5.15100 44.16600
H  19.56400 -11.11900 46.11200
H  17.96900 -10.43200 46.42100
H  19.30300 -10.21400 47.60000
H  23.66000 -11.84300 47.61000
H  25.25200 -11.08900 49.89200
H  21.96000 -12.14400 49.23500
H  22.18800 -10.50300 49.95300
H  23.26200 -11.88400 50.45300
H  27.09400 -11.55100 48.33100
H  25.95800 -12.29300 47.19400
H  26.98100 -13.40000 49.76100
H  26.06100 -14.11800 48.39300
H  25.25200 -13.44300 49.80900
H  30.18400 -8.73900 49.14400
H  29.25900 -7.88600 50.39100
H  30.44000 -6.96400 49.48800
H  28.94500 -4.18800 45.37400
H  29.08700 0.02000 44.75000
H  29.84500 -0.26100 46.28800
H  28.06600 -0.01600 46.14000
Mg 44.19500 3.23600 47.64600
C  42.06700 5.83000 46.71500
C  41.58200 1.07000 47.44800
C  46.35000 0.58500 47.86200
C  46.90900 5.43700 47.44000
N  42.01400 3.49000 47.19300
C  41.38300 4.61900 46.77000
C  39.94000 4.30500 46.52700
C  39.79100 2.87000 47.21200
C  41.25400 2.41300 47.23100
C  39.14200 2.78500 48.65700
C  39.65800 4.30900 44.93600
C  38.45300 5.12700 44.47000
H  38.64900 6.22300 43.41500
N  43.90200 1.07300 47.73600
C  42.80800 0.45700 47.58200
C  42.98700 -0.99500 47.68400
C  44.39200 -1.17100 47.73100
C  44.97900 0.23400 47.80100
C  41.87400 -2.01000 47.52800
C  45.10500 -2.56300 47.68100
O  44.49000 -3.59800 47.73300
C  46.53100 -2.65300 47.57500
N  46.32400 3.06800 47.61300
C  46.98200 1.90400 47.85700
C  48.51500 2.02900 48.11300
C  48.64800 3.58700 47.99100
C  47.23300 4.09800 47.65500
C  48.88100 1.34700 49.52000
C  49.68000 4.05500 46.92600
C  50.73400 5.08900 47.21900
N  44.46900 5.15600 47.27000
C  45.64200 5.85000 47.12500
C  45.32900 7.23700 46.81600
C  43.94100 7.33300 46.79600
C  43.42100 6.06500 47.00600
C  46.39800 8.32400 46.76100
C  42.81000 8.20600 46.59400
O  42.74400 9.43100 46.51300
C  41.50100 7.20500 46.49700
C  40.66700 7.61900 47.65800
O  40.42300 6.82700 48.54300
O  40.11400 8.84500 47.55900
C  38.93500 8.95700 48.40400
H  40.77100 0.34200 47.38200
H  47.01500 -0.27200 47.98600
H  47.75700 6.12500 47.46700
H  39.26900 4.98700 47.05000
H  39.26700 2.20300 46.52700
H  39.06100 3.76200 49.13500
H  39.72500 2.15900 49.33200
H  38.16500 2.33200 48.48900
H  39.27700 3.31000 44.72400
H  40.52400 4.47800 44.29500
H  37.96500 5.65200 45.29200
H  37.65200 4.54600 44.01200
H  42.17000 -2.96700 47.09800
H  41.23200 -1.57800 46.76100
H  41.35100 -2.17500 48.47000
H  46.84600 -2.06400 46.71400
H  46.72800 -3.70000 47.34400
H  46.91700 -2.32000 48.53800
H  49.08100 1.54200 47.31900
H  48.92000 4.06600 48.93200
H  49.32600 2.14900 50.11000
H  49.47700 0.43700 49.44300
H  47.97300 1.10100 50.07000
H  49.20900 4.32700 45.98100
H  50.21300 3.14100 46.66600
H  51.73900 4.66600 47.21500
H  50.61900 5.61200 48.16800
H  50.78600 5.78600 46.38200
H  46.97100 8.24800 47.68500
H  45.97800 9.31600 46.93100
H  46.97100 8.22500 45.83900
H  40.99800 7.04300 45.54400
H  38.10500 8.38900 47.98500
H  38.57800 9.98700 48.42700
H  39.17000 8.78400 49.45400

