158

Mg 25.98400 50.10000 26.57600
C  23.96400 51.43000 29.06800
C  28.08300 48.79900 29.13500
C  28.17300 49.01500 24.26400
C  24.03400 51.66800 24.18600
N  26.01700 50.13500 28.86800
C  25.02600 50.71200 29.67300
C  25.35200 50.44200 31.14300
C  26.80100 49.81400 31.12600
C  26.98800 49.54900 29.62300
C  27.94500 50.43400 31.91600
C  24.22200 49.42200 31.68000
C  24.27800 49.16300 33.20300
H  25.06500 50.18600 34.09200
N  27.83600 49.12700 26.66400
C  28.48900 48.68100 27.76700
C  29.69900 48.03400 27.45600
C  29.73600 48.02400 26.06600
C  28.61600 48.75600 25.59200
C  30.62100 47.29300 28.39800
C  30.76100 47.38600 25.10100
O  30.72400 47.44900 23.88600
C  31.84400 46.55500 25.67600
N  26.13100 50.29500 24.50800
C  27.08300 49.76400 23.79000
C  26.74400 49.92200 22.30200
C  25.40600 50.60100 22.27400
C  25.15400 50.89000 23.73200
C  27.84100 50.76700 21.48800
C  24.23900 49.74700 21.68400
C  22.95800 50.59900 21.23000
N  24.29100 51.23200 26.55800
C  23.55500 51.76600 25.46200
C  22.45100 52.55600 26.02000
C  22.53000 52.43500 27.38000
C  23.70200 51.64300 27.65200
C  21.44500 53.32700 25.20800
C  22.01600 52.82200 28.65700
O  21.02600 53.50500 28.92100
C  22.86300 52.17700 29.72400
C  23.28100 53.21800 30.66600
O  24.02600 54.08600 30.47700
O  22.65300 52.92400 31.83500
C  22.94100 53.90000 32.89700
H  28.75200 48.42300 29.91200
H  28.83700 48.61000 23.49800
H  23.56000 52.31700 23.44600
H  25.21300 51.43800 31.56300
H  26.65200 48.79300 31.47800
H  27.63600 51.39100 32.33700
H  28.78000 50.55000 31.22500
H  28.25500 49.88100 32.80200
H  24.43400 48.51700 31.11200
H  23.20000 49.76300 31.51300
H  24.49100 48.10300 33.34000
H  23.30800 49.28200 33.68600
H  30.73200 46.22300 28.22600
H  30.39900 47.22600 29.46300
H  31.65300 47.59200 28.21300
H  32.49200 47.25200 26.20700
H  32.38300 46.15500 24.81700
H  31.40200 45.74600 26.25800
H  26.68900 48.91000 21.90100
H  25.41800 51.59100 21.81600
H  28.74900 50.94100 22.06500
H  27.42600 51.74300 21.23900
H  28.12400 50.20900 20.59500
H  23.72200 49.28900 22.52700
H  24.48800 48.96700 20.96400
H  22.11900 50.62700 21.92600
H  22.62800 50.02500 20.36400
H  23.39400 51.56700 20.98400
H  21.36700 52.82600 24.24300
H  21.70900 54.38400 25.16500
H  20.51600 53.17300 25.75600
H  22.27100 51.46400 30.29800
H  23.14400 54.93100 32.60700
H  23.85300 53.56500 33.39000
H  22.08800 53.90300 33.57600
Mg 4.96700 54.84500 40.38900
C  4.47700 51.47200 41.05100
C  7.69200 54.21000 38.55500
C  4.76100 57.99600 39.24100
C  1.67600 55.34800 41.75200
N  5.85400 53.00800 39.70700
C  5.60800 51.73900 40.25100
C  6.58600 50.73100 39.70500
C  7.84100 51.69700 39.36600
C  7.09600 53.03700 39.19000
C  8.93100 51.70000 40.46900
C  6.13700 49.86400 38.49000
C  4.83000 50.20300 37.74100
H  4.94500 49.76500 36.25800
N  6.11700 56.04400 39.08000
C  7.21200 55.56100 38.45600
C  7.82100 56.68800 37.81300
C  7.03700 57.78000 38.00100
C  5.92100 57.34200 38.80100
C  9.16800 56.52700 37.07700
C  7.35400 59.15200 37.40700
O  8.21000 59.35500 36.50000
C  6.69700 60.35900 37.94800
N  3.32500 56.35100 40.36500
C  3.61300 57.56100 39.87500
C  2.49100 58.57500 40.21100
C  1.37600 57.73600 40.74800
C  2.14700 56.40700 40.94600
C  2.90400 59.75600 41.09900
C  0.12600 57.62200 39.74900
C  -1.27600 58.04300 40.40600
N  3.46600 53.73900 41.44400
C  2.26900 54.06500 41.99300
C  1.78000 52.95900 42.81000
C  2.73600 51.94600 42.52100
C  3.64100 52.42700 41.64200
C  0.47000 52.93900 43.74600
C  3.02100 50.52900 42.81900
O  2.59100 49.75400 43.56600
C  4.14900 50.19500 41.76800
C  3.58100 49.13100 40.89200
O  2.62100 49.34100 40.13200
O  4.32200 47.95400 41.03700
C  3.87400 46.72700 40.34400
H  8.70900 54.01800 38.20600
H  4.61000 59.01600 38.88300
H  0.71100 55.51700 42.23300
H  6.72900 50.10200 40.58400
H  8.25600 51.26400 38.45500
H  8.76700 50.86500 41.15000
H  8.93400 52.64800 41.00500
H  9.90300 51.64100 39.97900
H  5.92000 48.91400 38.97800
H  6.94000 49.63600 37.79000
H  4.68000 51.28000 37.80600
H  3.99900 49.61200 38.12800
H  9.80300 57.38700 36.86300
H  9.17300 55.94700 36.15500
H  9.74100 55.94100 37.79600
H  7.29700 61.24100 37.72100
H  6.46100 60.27500 39.00900
H  5.80600 60.40100 37.32200
H  2.20200 59.04200 39.27000
H  0.99500 58.13000 41.69000
H  2.30500 59.92300 41.99400
H  2.61000 60.69100 40.62100
H  3.98000 59.67200 41.25400
H  0.03700 56.61400 39.34200
H  0.20800 58.31100 38.90900
H  -1.15500 58.66700 41.29200
H  -1.74700 57.16500 40.84800
H  -1.90600 58.57500 39.69400
H  0.68800 52.69400 44.78500
H  -0.32100 52.30400 43.34800
H  -0.01800 53.91400 43.75900
H  5.00600 49.69600 42.22200
H  3.87500 45.86800 41.01500
H  4.55500 46.41200 39.55300
H  2.89500 46.77100 39.86600

