158

Mg 35.86600 1.56300 30.44600
C  33.45300 2.25300 32.80500
C  38.24000 1.87000 32.92900
C  38.25800 1.15300 28.06400
C  33.45600 1.97300 27.85800
N  35.79300 2.06800 32.59300
C  34.70300 2.15500 33.38300
C  35.03500 2.24700 34.82400
C  36.58400 2.59600 34.83500
C  36.88300 2.10100 33.37000
C  36.82300 4.09900 35.15400
C  34.63900 1.00400 35.56500
C  33.95200 1.09500 36.91000
H  34.53700 2.24200 37.77700
N  37.93700 1.31800 30.54800
C  38.79400 1.41800 31.62700
C  40.19500 1.06200 31.21200
C  40.18400 0.92000 29.82400
C  38.73700 1.18500 29.39100
C  41.31100 1.09600 32.25500
C  41.35000 0.58600 28.88500
O  41.20600 0.42700 27.70600
C  42.77100 0.12100 29.49000
N  35.87400 1.81100 28.22400
C  36.95800 1.33600 27.56800
C  36.63000 1.22800 26.07900
C  35.10400 1.46400 25.98200
C  34.74900 1.70800 27.40200
C  37.57500 2.07100 25.10000
C  34.34200 0.34900 25.09700
C  33.70000 -0.76500 25.96400
N  33.87300 2.13100 30.28000
C  33.01500 2.13400 29.18200
C  31.67800 2.35100 29.67600
C  31.78900 2.39400 31.07000
C  33.12400 2.31700 31.38900
C  30.46500 2.59000 28.73100
C  31.05400 2.53500 32.26700
O  29.84500 2.71600 32.51500
C  32.15300 2.52600 33.48000
C  32.05900 3.87300 34.05700
O  32.69700 4.85400 33.73500
O  31.25400 3.80300 35.19600
C  31.27500 5.01200 36.15600
H  38.95300 2.07000 33.73200
H  39.01900 0.87900 27.32900
H  32.68200 1.77700 27.11200
H  34.44700 3.08100 35.20600
H  37.13800 1.95300 35.51800
H  37.09900 4.15000 36.20800
H  35.88900 4.64900 35.03900
H  37.62400 4.45800 34.50900
H  35.50900 0.40700 35.83900
H  34.23300 0.33200 34.80900
H  34.03700 0.12700 37.40500
H  32.92800 1.24900 36.57000
H  41.76800 0.11700 32.39900
H  40.84300 1.37500 33.19900
H  42.08500 1.81400 31.98300
H  43.28100 1.02000 29.83700
H  43.41600 -0.30500 28.72200
H  42.65200 -0.68200 30.21700
H  36.79100 0.16900 25.87300
H  34.93600 2.41900 25.48300
H  38.50500 2.38800 25.57100
H  37.04400 2.98300 24.82800
H  37.82700 1.53100 24.18700
H  34.97200 -0.04900 24.30200
H  33.43200 0.76900 24.66800
H  32.63800 -0.84100 25.73000
H  33.83500 -0.64500 27.03900
H  34.15500 -1.74000 25.79300
H  30.06700 1.64600 28.35700
H  30.73300 3.15900 27.84100
H  29.64300 3.10500 29.22700
H  31.94600 1.77800 34.24600
H  30.25500 5.34500 36.35200
H  31.82700 5.85700 35.74400
H  31.78200 4.73000 37.07900
Mg 7.08800 56.84700 41.81700
C  5.91400 53.63500 41.43200
C  10.18500 55.63800 40.73300
C  8.11900 60.04600 41.20600
C  3.82300 57.96700 42.39100
N  7.88000 54.89900 41.14500
C  7.20700 53.71300 40.99700
C  8.04500 52.59000 40.50400
C  9.48100 53.19700 40.72200
C  9.20000 54.69800 40.94400
C  10.30000 52.44900 41.82800
C  7.79100 52.22200 39.04800
C  8.28800 50.85100 38.59500
H  7.53000 50.07600 37.48600
N  8.83500 57.76800 41.03600
C  10.01000 57.07400 40.63900
C  10.90000 58.01100 39.93100
C  10.33300 59.32200 39.98700
C  9.02800 59.11100 40.76000
C  12.10300 57.52800 39.26300
C  10.86100 60.55300 39.33700
O  11.92500 60.56200 38.77300
C  10.08000 61.82600 39.22500
N  6.06900 58.69700 41.72200
C  6.76800 59.84700 41.64400
C  5.91300 61.08600 42.00700
C  4.50900 60.42200 42.42700
C  4.79000 58.95800 42.07100
C  6.51300 61.98800 43.17000
C  3.27700 61.00400 41.68300
C  2.01600 61.04500 42.59400
N  5.21400 55.97500 42.07600
C  3.96600 56.57500 42.33700
C  3.01100 55.43200 42.50900
C  3.75600 54.32100 42.15500
C  5.11400 54.66700 41.91900
C  1.56400 55.57300 42.68100
C  3.61300 52.92400 42.03700
O  2.61400 52.26800 42.30200
C  4.98900 52.33400 41.57000
C  4.82200 51.51000 40.38100
O  4.30300 51.90800 39.36500
O  5.17400 50.19100 40.62300
C  4.66200 49.33900 39.51400
H  11.13500 55.16300 40.48000
H  8.30800 61.11800 41.11100
H  2.78600 58.22700 42.61200
H  7.87900 51.70200 41.11500
H  10.11300 53.14400 39.83500
H  10.68900 53.25000 42.45800
H  11.16000 51.87600 41.48200
H  9.56300 51.79800 42.29800
H  8.40500 52.91100 38.46800
H  6.77800 52.44100 38.71000
H  8.46400 50.22700 39.47200
H  9.26800 50.98000 38.13600
H  12.00600 57.75500 38.20200
H  12.27700 56.45400 39.33000
H  13.06900 57.76500 39.70800
H  9.71900 62.14300 40.20300
H  9.34600 61.84000 38.42000
H  10.87500 62.53300 38.98600
H  5.90800 61.44300 40.97600
H  4.32300 60.46900 43.50000
H  5.66100 62.33400 43.75600
H  7.12200 62.83400 42.85200
H  7.18600 61.37000 43.76400
H  3.09800 60.28800 40.88200
H  3.51100 61.99600 41.29600
H  1.61500 60.04500 42.42900
H  1.25500 61.72700 42.21400
H  2.14900 61.18400 43.66700
H  1.17600 55.75100 41.67800
H  1.13700 56.39400 43.25700
H  1.11800 54.63300 43.00500
H  5.48000 51.69000 42.29900
H  3.57700 49.35800 39.61200
H  5.07600 48.33900 39.63900
H  5.02800 49.71500 38.55900

