158

Mg 47.59700 25.85100 27.75700
C  48.54600 27.87900 30.30500
C  46.25700 23.67300 30.00100
C  46.86500 23.73100 25.11300
C  49.28300 27.94800 25.61600
N  47.53200 25.74800 29.93200
C  47.93100 26.76000 30.74000
C  47.59300 26.46900 32.20000
C  46.98400 25.05700 32.05400
C  46.87400 24.78400 30.58600
C  47.57000 23.87500 32.92200
C  46.67900 27.54000 32.93400
C  45.65500 27.08700 34.04200
H  45.50900 27.97700 35.27100
N  46.77300 23.89100 27.66600
C  46.25900 23.18400 28.70700
C  45.67000 22.02400 28.17700
C  45.79200 22.05500 26.76600
C  46.48700 23.25600 26.42300
C  45.03000 20.93000 29.00000
C  45.36200 20.97200 25.75900
O  45.43500 21.06300 24.55900
C  44.91200 19.61700 26.32600
N  48.01500 25.89800 25.67000
C  47.61100 24.91200 24.73100
C  47.90100 25.30400 23.26800
C  48.62200 26.73200 23.54600
C  48.68900 26.86300 25.05000
C  48.70900 24.24500 22.47500
C  48.03100 27.80600 22.62500
C  48.61400 27.76500 21.20800
N  48.67300 27.66500 27.87300
C  49.28500 28.42000 26.91200
C  49.80100 29.64700 27.45100
C  49.48000 29.52500 28.84000
C  48.85600 28.32600 29.02800
C  50.38900 30.67200 26.56800
C  49.55400 30.16800 30.16700
O  49.94900 31.27900 30.46900
C  48.98500 29.07500 31.16200
C  50.11500 28.65600 31.94400
O  51.04800 27.97400 31.55500
O  49.99200 29.09200 33.24900
C  50.99700 28.85000 34.22400
H  45.91700 22.97500 30.76900
H  46.62300 23.06600 24.28100
H  49.71500 28.55200 24.81600
H  48.52900 26.45100 32.75800
H  45.93200 25.05000 32.33800
H  46.99700 23.77700 33.84400
H  48.58900 24.00700 33.28700
H  47.54600 22.87000 32.50000
H  46.25600 28.07400 32.08300
H  47.32500 28.20200 33.51100
H  45.75800 26.08600 34.46200
H  44.66800 27.20500 33.59600
H  45.69700 20.07400 29.10200
H  44.05400 20.59800 28.64700
H  44.91500 21.30600 30.01700
H  45.44700 19.16500 27.16100
H  44.87500 18.91000 25.49800
H  43.84600 19.80800 26.44900
H  47.01400 25.34300 22.63600
H  49.66700 26.57500 23.27900
H  48.38900 23.24300 22.76100
H  49.76800 24.31000 22.72400
H  48.75400 24.38300 21.39500
H  48.05600 28.84300 22.96000
H  46.95600 27.63200 22.61000
H  49.31600 26.94300 21.07500
H  48.99900 28.72500 20.86200
H  47.75100 27.55100 20.57700
H  50.37300 31.50700 27.26800
H  49.79400 30.95200 25.69800
H  51.38500 30.34000 26.27400
H  48.21000 29.40100 31.85500
H  51.91500 28.41100 33.83300
H  50.57600 28.20200 34.99200
H  51.22300 29.76600 34.77100
Mg 27.02100 51.27600 25.26000
C  25.08600 52.05200 28.09600
C  29.38700 49.99900 27.43400
C  28.92100 50.58900 22.52000
C  24.55800 52.48900 23.29600
N  27.25900 51.22900 27.57800
C  26.30300 51.48700 28.48600
C  26.77100 51.12400 29.90900
C  28.23200 50.64900 29.68300
C  28.37200 50.58700 28.15000
C  29.45100 51.46200 30.31500
C  25.93300 50.01400 30.56100
C  25.48600 50.24300 32.05800
H  26.54100 50.62300 33.12900
N  28.90000 50.59900 25.03900
C  29.67400 49.95500 26.01200
C  30.88200 49.43800 25.44900
C  30.81700 49.74600 24.04600
C  29.52300 50.42400 23.79400
C  31.93600 48.77200 26.22200
C  31.87100 49.47800 22.97900
O  31.83300 49.96900 21.88400
C  33.04800 48.64400 23.28700
N  26.83100 51.56900 23.16400
C  27.66900 51.06400 22.21800
C  27.18200 51.23500 20.81200
C  25.81000 51.95300 21.05800
C  25.63400 51.99200 22.60300
C  28.09300 51.99800 19.79400
C  24.54600 51.41000 20.29800
C  23.50800 50.50500 21.04400
N  25.21300 52.19900 25.57900
C  24.30500 52.57400 24.64500
C  23.16600 53.18300 25.32300
C  23.33600 52.92400 26.66500
C  24.68500 52.31000 26.78900
C  21.98900 53.80600 24.60100
C  22.83500 53.10500 28.01400
O  21.81500 53.63400 28.43800
C  23.87900 52.43600 29.01900
C  24.28800 53.40500 30.02100
O  25.20600 54.16500 29.86900
O  23.61100 53.13700 31.13600
C  24.07700 53.65000 32.41900
H  30.13200 49.57700 28.11100
H  29.50100 50.39800 21.61400
H  23.73700 52.88000 22.69200
H  26.77700 52.04000 30.49900
H  28.47700 49.62000 29.94400
H  30.12100 51.78400 29.51800
H  30.07400 50.75000 30.85700
H  29.01500 52.24300 30.93800
H  26.49200 49.08100 30.49900
H  25.07400 49.73200 29.95200
H  24.82400 49.41300 32.30400
H  24.81600 51.10100 32.00200
H  32.10900 47.72400 25.97600
H  31.74500 48.76500 27.29500
H  32.86100 49.30500 26.00200
H  33.77400 49.13500 23.93600
H  33.54500 48.28500 22.38600
H  32.69700 47.75500 23.81100
H  27.06800 50.22700 20.41300
H  25.82400 53.03100 20.89500
H  27.48000 52.71600 19.24900
H  28.44000 51.27200 19.05900
H  28.99600 52.44700 20.21000
H  24.90200 50.83300 19.44400
H  24.06400 52.29700 19.88500
H  23.90800 50.01500 21.93200
H  23.21100 49.76200 20.30400
H  22.59000 51.03300 21.30100
H  21.04800 53.77800 25.15100
H  21.83700 53.29300 23.65200
H  22.16500 54.86100 24.39200
H  23.47400 51.57000 29.54300
H  24.05500 52.88500 33.19400
H  23.42900 54.46200 32.75200
H  25.10000 54.02400 32.44100

