158

Mg 2.09500 -1.64400 43.71400
C  5.50400 -1.41200 43.18500
C  1.68100 1.18000 41.75500
C  -1.19500 -2.53300 43.30600
C  2.67600 -4.76700 45.13300
N  3.45600 -0.41400 42.39200
C  4.77400 -0.42700 42.49300
C  5.34300 0.72000 41.59100
C  4.13600 1.76200 41.55700
C  3.05200 0.76500 41.82700
C  4.24800 3.04700 42.44400
C  5.77800 0.15400 40.17300
C  6.44600 1.07300 39.14700
H  5.83600 1.22700 37.72000
N  0.42300 -0.70800 42.81300
C  0.48500 0.46300 42.06800
C  -0.88900 0.90600 41.87700
C  -1.77200 -0.14200 42.26900
C  -0.86900 -1.19000 42.88500
C  -1.18500 2.17600 41.20500
C  -3.36600 -0.21900 42.23200
O  -3.97000 0.71800 41.74300
C  -4.15300 -1.24200 42.75800
N  0.98200 -3.38500 44.08200
C  -0.28900 -3.53800 43.82200
C  -0.84500 -4.92100 44.22400
C  0.26300 -5.42200 45.17500
C  1.41600 -4.50000 44.74400
C  -2.28500 -4.82700 45.00300
C  0.57900 -6.94600 45.14200
C  1.02300 -7.64900 46.48700
N  3.76900 -2.97000 44.16300
C  3.80700 -4.08500 44.83900
C  5.25000 -4.48500 44.94900
C  5.96500 -3.36500 44.34400
C  4.97700 -2.51500 43.89700
C  5.82800 -5.78800 45.56500
C  7.26000 -2.68900 44.16100
O  8.35300 -2.99000 44.59600
C  6.97100 -1.42900 43.31600
C  7.72600 -0.31800 43.86600
O  8.91700 -0.36400 44.02400
O  6.96900 0.61300 44.41900
C  7.63900 1.45600 45.47600
H  1.52700 2.20900 41.42400
H  -2.22600 -2.88600 43.24800
H  2.95600 -5.68100 45.66100
H  6.26000 1.21900 41.90200
H  3.97600 2.07000 40.52400
H  5.29200 3.11000 42.74900
H  3.52900 2.94800 43.25700
H  3.86300 3.94000 41.95100
H  4.94600 -0.44500 39.80300
H  6.52700 -0.61200 40.37700
H  7.40000 0.57000 38.99200
H  6.47200 2.08800 39.54200
H  -2.23400 2.42900 41.35900
H  -1.05700 2.06300 40.12900
H  -0.61100 2.91300 41.76600
H  -5.23500 -1.13300 42.68200
H  -3.90400 -1.43800 43.80100
H  -4.08100 -2.19000 42.22400
H  -1.04600 -5.45200 43.29400
H  0.05700 -5.11500 46.20000
H  -2.60600 -3.81300 45.24200
H  -2.25000 -5.41900 45.91700
H  -3.04000 -5.26300 44.34800
H  1.38400 -7.02500 44.41300
H  -0.34600 -7.45500 44.87000
H  0.17500 -8.11700 46.98800
H  1.38700 -6.95900 47.24900
H  1.82800 -8.32300 46.19600
H  6.90300 -5.61000 45.58200
H  5.58300 -6.60700 44.88900
H  5.46200 -6.01600 46.56600
H  7.33000 -1.67600 42.31700
H  7.00800 1.83900 46.27800
H  8.00900 2.38100 45.03400
H  8.50000 1.04000 45.99900
Mg -2.25000 34.99900 27.14400
C  -3.76900 33.41500 29.87100
C  -1.05100 37.34300 29.43500
C  -0.98200 36.71900 24.56700
C  -3.78000 32.81500 25.01400
N  -2.53200 35.46600 29.39000
C  -3.14100 34.57300 30.25700
C  -2.85300 34.96800 31.76800
C  -2.22700 36.38900 31.60500
C  -1.85800 36.41300 30.09100
C  -3.06600 37.59500 31.99200
C  -1.93300 33.86800 32.52800
C  -2.45400 33.18900 33.74800
H  -1.65100 33.17700 35.05600
N  -1.09900 36.72000 26.96000
C  -0.71600 37.52900 28.01900
C  0.11000 38.60500 27.53000
C  0.10600 38.49600 26.13500
C  -0.69200 37.25300 25.81000
C  0.94100 39.45800 28.43600
C  0.84700 39.32900 25.00600
O  0.69500 39.15200 23.79900
C  1.74600 40.44200 25.47800
N  -2.19300 34.70100 25.13400
C  -1.72200 35.58500 24.20100
C  -1.93800 35.20100 22.69600
C  -2.74700 33.88600 22.98200
C  -2.96300 33.76300 24.48900
C  -2.80000 36.23700 21.79400
C  -2.20300 32.56600 22.32400
C  -0.98700 31.91100 23.03600
N  -3.43300 33.37800 27.31600
C  -3.98100 32.57200 26.39200
C  -4.83900 31.61000 27.03700
C  -4.65000 31.77300 28.37400
C  -3.86700 32.93300 28.52000
C  -5.55200 30.57000 26.33900
C  -4.87400 31.23000 29.68800
O  -5.45100 30.16800 29.95800
C  -4.38800 32.27500 30.78200
C  -5.57000 32.74500 31.50300
O  -6.21700 33.72100 31.22200
O  -5.94300 31.87200 32.42000
C  -6.88900 32.47700 33.33400
H  -0.65900 38.04700 30.17200
H  -0.51300 37.12300 23.66700
H  -4.21700 32.14600 24.27000
H  -3.80400 35.07000 32.29200
H  -1.32600 36.31300 32.21400
H  -2.72200 37.81000 33.00400
H  -4.12900 37.35700 31.94400
H  -2.88800 38.44700 31.33500
H  -0.96100 34.26300 32.82300
H  -1.64300 33.06900 31.84600
H  -2.60800 32.16300 33.41200
H  -3.45000 33.60100 33.90800
H  0.90600 40.49800 28.11200
H  1.98100 39.18100 28.26600
H  0.64900 39.30000 29.47500
H  2.37400 40.04200 26.27300
H  1.07200 41.21900 25.83900
H  2.28200 40.77400 24.58900
H  -1.08400 34.80500 22.14700
H  -3.69200 34.07300 22.47200
H  -2.31900 37.21000 21.89600
H  -3.86500 36.30100 22.01700
H  -2.61200 35.95200 20.75900
H  -2.00300 32.74800 21.26800
H  -2.99800 31.82000 22.36000
H  -1.41900 30.92200 23.19300
H  -0.70900 32.56200 23.86500
H  -0.14100 31.88900 22.34900
H  -5.62800 29.74700 27.04900
H  -4.98600 30.38200 25.42600
H  -6.50700 31.04300 26.10800
H  -3.64200 31.91500 31.49100
H  -6.39300 33.19700 33.98500
H  -7.02100 31.69200 34.07800
H  -7.84900 32.77000 32.90800

