158

Mg 47.21300 35.16000 27.10400
C  45.49100 33.16300 29.43200
C  47.37200 37.77500 29.32100
C  48.70100 36.95200 24.68500
C  46.41200 32.62900 24.67300
N  46.56000 35.42300 29.16600
C  45.99500 34.38800 29.94000
C  45.96300 34.85500 31.28800
C  46.09800 36.40800 31.20000
C  46.67500 36.65400 29.76500
C  44.68800 37.10400 31.56100
C  47.19800 34.22900 32.10500
C  46.96800 34.15700 33.66000
H  45.98200 35.04300 34.33100
N  48.05200 37.01800 27.09100
C  48.05400 37.94400 28.11500
C  48.75200 39.13100 27.72900
C  49.13100 38.92300 26.30300
C  48.70300 37.54700 25.97900
C  48.95600 40.19400 28.78000
C  49.81500 39.94400 25.39900
O  50.25700 39.60000 24.32300
C  50.04600 41.41000 25.75000
N  47.20200 34.96700 24.79500
C  48.04700 35.81000 24.17000
C  48.41400 35.20200 22.76600
C  47.76600 33.75500 22.84400
C  47.07000 33.78000 24.16600
C  47.91800 36.02600 21.61500
C  48.83900 32.56300 22.68000
C  48.31800 31.49400 21.69000
N  46.08500 33.33200 27.07200
C  45.99400 32.42900 25.98200
C  45.40100 31.20500 26.56000
C  45.12700 31.43900 27.90800
C  45.55200 32.74300 28.09900
C  45.16700 29.95200 25.94300
C  44.62300 30.90800 29.08100
O  44.09800 29.83600 29.38300
C  44.56300 32.12500 30.08200
C  45.05000 31.47200 31.35900
O  46.20000 31.01900 31.52300
O  44.06800 31.50500 32.23200
C  44.52400 30.93600 33.48300
H  47.42200 38.68300 29.92600
H  49.00000 37.58000 23.84400
H  46.34400 31.74700 24.03300
H  45.13500 34.57300 31.93700
H  46.90700 36.69600 31.87200
H  43.95300 36.41200 31.97200
H  44.19400 37.55900 30.70300
H  44.86400 37.91400 32.27000
H  48.19100 34.60300 31.85500
H  47.41000 33.20800 31.78900
H  47.94000 34.38100 34.09900
H  46.76700 33.14600 34.01400
H  49.49600 41.05400 28.38500
H  49.43300 39.67800 29.61400
H  48.00100 40.47800 29.22200
H  50.45200 42.00600 24.93300
H  50.69800 41.18800 26.59400
H  49.13900 41.81800 26.19500
H  49.50000 35.26000 22.69300
H  47.00800 33.62200 22.07200
H  47.42300 35.36100 20.90700
H  48.79300 36.45900 21.13100
H  47.24800 36.82700 21.92600
H  49.07700 32.06100 23.61800
H  49.74400 32.98400 22.24100
H  47.53100 31.99300 21.12600
H  47.83800 30.68800 22.24500
H  49.14300 31.26100 21.01700
H  44.40300 29.33900 26.42300
H  46.07600 29.35600 25.86200
H  44.92900 30.04700 24.88400
H  43.55600 32.51700 30.22400
H  44.75300 29.87200 33.41100
H  43.87100 31.21300 34.31000
H  45.37900 31.55100 33.76600
Mg 40.82600 41.38000 26.63900
C  40.27500 43.81200 29.20200
C  41.67000 39.15800 29.05800
C  41.75300 39.34000 24.11500
C  40.76000 44.12500 24.33500
N  40.90000 41.50500 28.94000
C  40.69600 42.56100 29.77300
C  40.88500 42.17600 31.18400
C  41.28300 40.69500 31.06800
C  41.27400 40.41500 29.62100
C  42.60100 40.37000 31.82200
C  39.54400 42.53800 31.98300
C  39.18500 41.74700 33.33400
H  38.59900 42.61400 34.51400
N  41.52200 39.48400 26.57300
C  41.81300 38.74500 27.69000
C  42.29200 37.46000 27.28300
C  42.20700 37.40000 25.89200
C  41.75400 38.71500 25.44500
C  42.75700 36.39700 28.25000
C  42.50900 36.18500 24.88700
O  42.33100 36.31400 23.65100
C  42.97500 34.86500 25.44600
N  41.31700 41.70000 24.50700
C  41.52300 40.64600 23.65300
C  41.25600 41.02600 22.22100
C  41.30400 42.57400 22.33900
C  41.03000 42.81500 23.78700
C  42.23500 40.41900 21.09600
C  40.34600 43.33700 21.42600
C  38.87000 43.61400 21.81500
N  40.34100 43.52500 26.61100
C  40.50600 44.44100 25.60100
C  40.24800 45.73400 26.19100
C  40.02800 45.50500 27.56900
C  40.20600 44.18800 27.79300
C  40.33100 47.00000 25.44700
C  39.74700 46.24100 28.77900
O  39.57600 47.38200 29.04400
C  39.95200 45.14200 29.89000
C  41.20600 45.50900 30.67200
O  42.31900 45.44000 30.20900
O  40.92200 45.94900 31.91200
C  42.04000 46.02000 32.82800
H  41.94600 38.47700 29.86600
H  41.82200 38.49100 23.43200
H  40.88900 44.98800 23.67800
H  41.69800 42.83200 31.49600
H  40.41400 40.18900 31.48900
H  42.76300 41.03500 32.67000
H  43.46400 40.52800 31.17600
H  42.57000 39.39900 32.31700
H  38.62300 42.45100 31.40700
H  39.63900 43.54400 32.39400
H  40.06200 41.19700 33.67400
H  38.31700 41.15600 33.04000
H  42.90800 36.80100 29.25100
H  43.71700 35.97400 27.95400
H  41.96900 35.64500 28.23200
H  43.24700 34.10600 24.71300
H  42.12400 34.54200 26.04500
H  43.81100 35.00300 26.13200
H  40.19300 40.82800 22.08400
H  42.31400 42.96000 22.20000
H  41.75700 39.52600 20.69400
H  43.22900 40.12400 21.43100
H  42.40400 41.19200 20.34600
H  40.40900 42.83600 20.46100
H  40.85100 44.26300 21.14900
H  38.23400 43.40800 20.95400
H  38.72800 44.68900 21.92500
H  38.58000 43.09200 22.72700
H  41.05600 47.07900 24.63700
H  40.69500 47.67900 26.21700
H  39.31100 47.29900 25.20500
H  39.10300 45.11900 30.57400
H  42.27500 47.07700 32.95000
H  42.92300 45.44400 32.54900
H  41.76000 45.51400 33.75200

