158

Mg 34.58800 2.91500 29.95800
C  32.46300 3.63800 32.52800
C  37.18400 3.03400 32.28400
C  36.71300 2.70300 27.49400
C  32.08700 3.55700 27.62100
N  34.76300 3.10100 32.16200
C  33.73400 3.41500 33.02300
C  34.16000 3.42800 34.51000
C  35.66800 3.17500 34.44100
C  35.95600 3.11200 32.85300
C  36.56300 4.16800 35.26100
C  33.30000 2.47700 35.39200
C  32.77600 3.12200 36.68200
H  33.77700 4.02900 37.40600
N  36.61700 2.78000 29.86400
C  37.52500 2.84100 30.93700
C  38.88100 2.75300 30.44800
C  38.78000 2.46300 29.01400
C  37.34300 2.59000 28.75600
C  40.10800 3.05100 31.20600
C  39.91500 2.14700 27.96800
O  39.64500 1.92400 26.78400
C  41.35500 2.16100 28.40200
N  34.37900 2.90900 27.88400
C  35.38700 2.75900 27.06100
C  35.02700 2.68400 25.46500
C  33.48000 2.92900 25.55400
C  33.33800 3.18100 27.08600
C  35.89300 3.74900 24.60100
C  32.45400 1.82300 25.05500
C  31.38100 2.37200 24.05100
N  32.64500 3.48000 29.99400
C  31.73900 3.71800 28.97400
C  30.44000 4.02400 29.58300
C  30.68200 4.08500 30.97300
C  32.05000 3.65300 31.13600
C  29.22300 4.29300 28.90700
C  30.09600 4.28300 32.30500
O  28.95400 4.57800 32.57600
C  31.22300 4.15600 33.34900
C  31.37900 5.54700 33.95200
O  32.13800 6.40000 33.53800
O  30.73500 5.69000 35.17400
C  31.17200 6.79100 35.97600
H  38.03500 3.05500 32.96700
H  37.49000 2.67400 26.72800
H  31.28400 3.52600 26.88000
H  33.98700 4.44000 34.87500
H  35.83800 2.12600 34.68300
H  36.96300 3.53900 36.05700
H  36.01400 5.00800 35.68600
H  37.37200 4.51800 34.62000
H  33.92000 1.68500 35.81200
H  32.51900 2.08000 34.74300
H  32.45500 2.29200 37.31100
H  31.79100 3.51600 36.42900
H  39.88600 3.55900 32.14400
H  40.77400 3.63100 30.56700
H  40.69400 2.15600 31.41400
H  41.56800 1.64300 29.33700
H  41.70500 3.18900 28.50100
H  41.90500 1.69700 27.58300
H  35.27200 1.66100 25.18200
H  33.21800 3.91200 25.16500
H  36.44600 4.35300 25.32100
H  35.31900 4.38000 23.92300
H  36.50700 3.13800 23.93900
H  31.95200 1.36800 25.90900
H  33.02100 0.96200 24.70200
H  31.51800 3.40600 23.73700
H  30.38900 2.33900 24.50300
H  31.27700 1.74400 23.16600
H  29.16500 4.79700 27.94200
H  28.72200 4.97000 29.59900
H  28.62300 3.38400 28.87500
H  30.87800 3.45500 34.11000
H  30.67300 6.96500 36.92900
H  30.93000 7.71100 35.44400
H  32.24800 6.81300 36.14800
Mg -6.27800 24.76900 25.32200
C  -4.58600 26.26200 28.15700
C  -7.63300 22.52200 27.49200
C  -7.09300 23.06800 22.72200
C  -3.90100 26.61100 23.44900
N  -6.11900 24.37200 27.63900
C  -5.49400 25.20800 28.55000
C  -6.06200 24.86700 29.98100
C  -6.79500 23.46900 29.70700
C  -6.90600 23.46400 28.20800
C  -6.09700 22.16500 30.28700
C  -6.90200 26.04800 30.53300
C  -6.98800 26.28300 32.05200
H  -6.42700 25.20500 32.96100
N  -7.36300 23.11400 25.16300
C  -7.90400 22.32800 26.06800
C  -8.78000 21.34500 25.50100
C  -8.67200 21.59000 24.09000
C  -7.65800 22.67900 23.94500
C  -9.77600 20.36300 26.26200
C  -9.30200 20.84300 22.96100
O  -9.08300 21.15700 21.75600
C  -10.21900 19.64300 23.15600
N  -5.49700 24.80300 23.39500
C  -6.14000 24.04500 22.45500
C  -5.43600 24.17600 21.08500
C  -4.77500 25.58500 21.22700
C  -4.67700 25.67300 22.78400
C  -4.46700 23.05100 20.69400
C  -5.63400 26.80900 20.80400
C  -5.29400 27.16000 19.29700
N  -4.69100 26.33700 25.66800
C  -3.77200 26.94500 24.80600
C  -2.85800 27.86300 25.53800
C  -3.18200 27.60200 26.92500
C  -4.22800 26.64000 26.88900
C  -1.81400 28.76800 24.96900
C  -2.77600 27.95000 28.32100
O  -1.85400 28.61900 28.83200
C  -3.76500 27.11000 29.16300
C  -2.98600 26.25000 30.07800
O  -2.32100 25.32700 29.68700
O  -2.97900 26.71900 31.34100
C  -2.24600 26.08700 32.41700
H  -8.12000 21.74900 28.08900
H  -7.42800 22.52200 21.83800
H  -3.28400 27.18300 22.75300
H  -5.15900 24.72300 30.57500
H  -7.82300 23.53500 30.06300
H  -5.80000 21.57000 29.42300
H  -6.85300 21.61300 30.84400
H  -5.16500 22.29900 30.83500
H  -7.93600 25.93100 30.20700
H  -6.55700 27.01200 30.15800
H  -8.05800 26.32000 32.25800
H  -6.63300 27.28500 32.29400
H  -9.41700 19.36100 26.02700
H  -10.80000 20.60200 25.97200
H  -9.62200 20.28800 27.33800
H  -11.13900 20.00600 23.61400
H  -9.67800 18.92100 23.76700
H  -10.49200 19.25500 22.17400
H  -6.25500 24.24100 20.37000
H  -3.77900 25.61300 20.78600
H  -3.45700 23.39800 20.91100
H  -4.57000 22.70300 19.66700
H  -4.66700 22.13600 21.25300
H  -5.37500 27.63600 21.46500
H  -6.71700 26.72200 20.89200
H  -5.02900 26.24500 18.76700
H  -4.41700 27.79700 19.40900
H  -6.15300 27.61700 18.80600
H  -1.28600 29.36300 25.71400
H  -2.26800 29.33800 24.15800
H  -1.15100 28.03100 24.51500
H  -4.40800 27.69900 29.81700
H  -1.40300 26.72200 32.69000
H  -1.85900 25.13300 32.06100
H  -2.90700 25.88100 33.25900

