158

Mg 49.05500 35.64100 27.19100
C  47.22400 33.84400 29.61600
C  49.11100 38.33700 29.49800
C  50.38500 37.48200 24.87100
C  48.43300 32.99700 24.97300
N  48.40900 35.94300 29.34300
C  47.75900 35.00700 30.11500
C  47.49500 35.56000 31.51700
C  47.68500 37.12200 31.28200
C  48.42900 37.15200 29.93600
C  46.48100 38.06700 31.35300
C  48.35400 34.89000 32.64300
C  48.63900 35.76200 33.89700
H  47.47500 36.52200 34.48900
N  49.82600 37.55400 27.24700
C  49.74800 38.49300 28.23200
C  50.45600 39.63200 27.80600
C  50.68800 39.48600 26.41500
C  50.27200 38.09600 26.15500
C  50.65500 40.83900 28.76500
C  51.10900 40.47200 25.40500
O  51.34900 40.25800 24.23600
C  51.22100 41.91800 25.83200
N  49.39700 35.26900 25.27600
C  50.06900 36.17700 24.55000
C  50.47100 35.52700 23.16400
C  50.19800 33.97800 23.38800
C  49.26100 34.03100 24.60700
C  49.60400 36.17300 22.09600
C  51.48000 33.18100 23.74300
C  51.99200 32.29200 22.61700
N  47.93500 33.86200 27.20500
C  47.73100 32.92100 26.16600
C  46.88300 31.84500 26.67900
C  46.61500 32.19700 27.98600
C  47.30800 33.41400 28.28000
C  46.62500 30.59300 25.96700
C  46.00200 31.70600 29.29100
O  45.23200 30.74400 29.51000
C  46.32700 32.71900 30.32800
C  47.03700 32.08400 31.43300
O  48.23100 31.85300 31.51200
O  46.15500 31.77900 32.43600
C  46.61900 31.02800 33.61000
H  49.04100 39.14100 30.23300
H  51.09600 37.96700 24.19800
H  48.36600 32.13400 24.30700
H  46.44600 35.37200 31.74200
H  48.40900 37.55600 31.97100
H  46.30800 38.67600 30.46600
H  46.72000 38.79400 32.12800
H  45.70100 37.37900 31.67900
H  49.28800 34.44200 32.30400
H  47.74100 34.09900 33.07300
H  49.54500 36.34900 33.74500
H  48.85500 35.25100 34.83500
H  49.98800 41.65500 28.48600
H  51.64900 41.27100 28.65000
H  50.56500 40.52600 29.80500
H  50.25100 42.23800 26.21400
H  51.61400 42.53400 25.02300
H  51.99200 41.89200 26.60200
H  51.53800 35.61400 22.96000
H  49.70700 33.56800 22.50500
H  48.70200 36.59400 22.53800
H  49.41400 35.42500 21.32600
H  50.14700 37.00300 21.64400
H  51.30500 32.56300 24.62300
H  52.28900 33.88600 23.93700
H  51.44200 32.47400 21.69400
H  51.86700 31.22400 22.79800
H  53.04600 32.49600 22.43000
H  47.51200 29.97300 26.10000
H  46.42800 30.69200 24.90000
H  45.69800 30.20900 26.39400
H  45.41400 33.14900 30.73900
H  45.90300 30.73900 34.37900
H  47.32200 31.66200 34.15000
H  47.00000 30.10300 33.17700
Mg 36.27000 49.20600 25.40300
C  36.30700 47.11300 28.20700
C  35.07000 51.67300 27.41500
C  35.80900 50.87100 22.63100
C  36.91900 46.26900 23.45600
N  35.55500 49.35900 27.51300
C  35.90600 48.39900 28.48700
C  35.71300 48.96300 29.90100
C  35.15100 50.38600 29.57500
C  35.34300 50.52900 28.06400
C  33.69000 50.60800 29.98800
C  36.98200 49.00500 30.82800
C  36.86800 48.39100 32.26900
H  36.87800 49.45800 33.35100
N  35.51100 51.02000 25.10300
C  35.22300 51.95200 26.02500
C  35.19600 53.24200 25.42900
C  35.23800 52.97300 23.98100
C  35.53500 51.55000 23.81700
C  34.92300 54.45400 26.32300
C  34.93600 53.87500 22.80100
O  34.85500 53.57500 21.60200
C  34.74800 55.46200 23.08000
N  36.33800 48.67900 23.28500
C  36.13000 49.54900 22.38000
C  36.23500 48.91800 20.91500
C  36.76000 47.46700 21.26100
C  36.73700 47.46000 22.79500
C  34.96400 48.89000 20.01500
C  38.05400 47.00900 20.57200
C  38.02200 46.00100 19.42800
N  36.55300 47.12600 25.68400
C  36.91700 46.10500 24.84600
C  37.20100 44.91900 25.52500
C  36.99900 45.27200 26.86000
C  36.56900 46.63600 26.92600
C  37.66700 43.62500 24.97000
C  37.02400 44.86800 28.23900
O  37.12300 43.76600 28.75500
C  36.67800 46.02100 29.13100
C  35.54400 45.67200 30.00000
O  34.34700 45.71000 29.65600
O  35.90800 45.26700 31.24600
C  34.93700 44.64500 32.11500
H  34.64500 52.44600 28.05900
H  35.72500 51.45800 21.71400
H  36.93400 45.39200 22.80600
H  34.98600 48.34500 30.42900
H  35.67100 51.18800 30.09900
H  33.50300 49.97500 30.85500
H  32.88300 50.45100 29.27300
H  33.46100 51.63500 30.27200
H  37.37600 50.01700 30.92000
H  37.73900 48.37000 30.37000
H  37.71000 47.73200 32.47800
H  35.93200 47.84300 32.37700
H  35.02600 55.36000 25.72500
H  35.65800 54.52300 27.12500
H  33.89700 54.41000 26.68800
H  33.92900 55.66600 23.77000
H  34.33700 55.73800 22.10900
H  35.64100 55.99100 23.41500
H  37.00100 49.49600 20.39800
H  35.96600 46.79400 20.93900
H  35.07800 49.81700 19.45300
H  34.20000 49.08100 20.76900
H  34.77000 48.09300 19.29700
H  38.83300 46.72100 21.27800
H  38.49200 47.93300 20.19500
H  37.04400 45.51900 19.41600
H  38.75500 45.20700 19.57300
H  38.27800 46.44100 18.46500
H  38.59800 43.27300 25.41600
H  37.72100 43.56300 23.88300
H  36.96300 42.81800 25.17300
H  37.63200 46.28000 29.59200
H  34.09700 45.23900 32.47700
H  35.46900 44.34900 33.01900
H  34.43100 43.86900 31.54100

