158

Mg 8.29500 4.40800 27.38200
C  9.61600 2.83700 30.29600
C  6.36300 6.24700 29.65000
C  6.97300 5.85100 24.76400
C  10.18000 2.21900 25.41900
N  7.93200 4.41200 29.74900
C  8.68300 3.80000 30.68000
C  8.29300 4.24500 32.11800
C  7.15600 5.24000 31.87400
C  7.09400 5.27100 30.33900
C  5.72600 5.06400 32.50900
C  9.55500 4.77000 32.85000
C  9.19500 5.30300 34.23200
H  9.60600 4.64000 35.48300
N  6.81500 5.78400 27.27700
C  6.22900 6.52300 28.24000
C  5.33000 7.51700 27.64700
C  5.43700 7.39500 26.23500
C  6.45100 6.35700 26.02300
C  4.57800 8.55800 28.42300
C  4.57700 7.99300 25.08000
O  4.62300 7.70500 23.90600
C  3.76400 9.10600 25.41300
N  8.47500 4.04800 25.40300
C  7.80600 4.82500 24.48400
C  8.10900 4.29100 23.03000
C  9.29300 3.35600 23.24900
C  9.33900 3.14400 24.76400
C  6.87600 3.56900 22.37800
C  10.68500 3.86000 22.76200
C  11.61200 2.84600 22.11900
N  9.56600 2.78100 27.70400
C  10.29900 2.03400 26.82800
C  11.17300 1.16900 27.53700
C  10.99100 1.40800 28.92600
C  9.98800 2.43900 28.95600
C  12.07800 0.13600 26.88500
C  11.40500 1.06600 30.27500
O  12.15100 0.21300 30.68300
C  10.53600 2.06300 31.20000
C  9.83100 1.07100 32.09100
O  9.11700 0.14300 31.74300
O  10.05500 1.45700 33.41700
C  9.35800 0.69900 34.46500
H  5.75000 6.94900 30.22000
H  6.62400 6.36600 23.86600
H  10.86600 1.70900 24.74000
H  7.90300 3.35800 32.61700
H  7.51600 6.25700 32.02400
H  5.02700 4.88000 31.69200
H  5.50900 5.97300 33.07000
H  5.66400 4.09800 33.01100
H  10.12200 5.44000 32.20300
H  10.21300 4.00700 33.26400
H  8.11000 5.26700 34.32800
H  9.52800 6.34100 34.25700
H  3.52500 8.34600 28.60900
H  4.67200 9.55000 27.98000
H  5.12700 8.89500 29.30200
H  3.17300 9.39800 24.54500
H  4.28000 9.99400 25.77800
H  2.99200 8.88100 26.14900
H  8.38300 5.14500 22.41100
H  9.12000 2.34900 22.87000
H  6.07200 3.73400 23.09600
H  7.14100 2.52600 22.20000
H  6.57000 3.90100 21.38600
H  11.32400 4.23900 23.55900
H  10.57700 4.75900 22.15500
H  11.83800 3.20100 21.11300
H  11.20800 1.83400 22.08000
H  12.61000 2.87100 22.55600
H  11.57900 -0.77000 26.54000
H  12.83800 -0.15900 27.60800
H  12.57300 0.53600 26.00000
H  11.11700 2.75700 31.80700
H  8.99800 -0.22900 34.02100
H  8.49700 1.16100 34.94800
H  10.17000 0.45600 35.15100
Mg 9.71800 48.69500 25.32700
C  7.49700 49.45300 27.92700
C  12.20000 50.07000 27.37700
C  11.71300 47.77900 23.04600
C  6.97800 47.80300 23.45100
N  9.82700 49.59700 27.46300
C  8.82600 49.78300 28.31300
C  9.28400 50.36700 29.59500
C  10.51300 51.19800 29.08300
C  10.91300 50.24800 27.89000
C  10.26800 52.62900 28.58700
C  9.67900 49.18600 30.64100
C  9.47900 49.52800 32.08100
H  9.00000 48.37600 33.01400
N  11.66200 48.90200 25.24300
C  12.58300 49.33000 26.18100
C  13.91800 49.06700 25.73700
C  13.83600 48.45800 24.44700
C  12.34900 48.31900 24.22600
C  15.15000 49.65800 26.38500
C  14.90800 47.91100 23.51800
O  14.63400 47.35700 22.46400
C  16.34300 47.94900 23.91200
N  9.33600 48.09700 23.35200
C  10.40600 47.66300 22.58700
C  10.01100 46.95300 21.28100
C  8.43600 47.14800 21.31800
C  8.20100 47.67600 22.80200
C  10.66200 47.48700 19.98400
C  7.60600 45.89500 21.02100
C  6.34000 46.06700 20.21000
N  7.57900 48.72100 25.49400
C  6.60300 48.21000 24.72300
C  5.34400 48.17000 25.40800
C  5.65800 48.64100 26.68500
C  7.01400 48.93300 26.68300
C  3.96600 47.75800 24.83800
C  5.05300 49.03300 27.92000
O  3.92100 48.93000 28.27900
C  6.27100 49.48000 28.81000
C  6.28600 48.78900 30.06800
O  6.67500 47.66000 30.24500
O  5.73900 49.60700 31.04800
C  5.47500 48.92400 32.34300
H  12.94600 50.56700 28.00100
H  12.38400 47.27800 22.34500
H  6.19500 47.29000 22.88900
H  8.48600 51.03700 29.91500
H  11.33000 51.12000 29.80100
H  9.19600 52.82200 28.56300
H  10.70800 52.67800 27.59100
H  10.73700 53.40200 29.19500
H  10.69700 48.81100 30.54300
H  9.12000 48.31400 30.30100
H  8.89800 50.43900 32.22300
H  10.45300 49.86000 32.44100
H  15.68000 48.76400 26.71200
H  14.98700 50.38600 27.18000
H  15.78400 50.18200 25.67000
H  16.85800 48.90700 23.98400
H  16.85800 47.45900 23.08500
H  16.43200 47.34400 24.81500
H  10.21400 45.90500 21.49900
H  8.15000 47.99100 20.69100
H  10.36800 46.77900 19.20800
H  11.71800 47.43700 20.24800
H  10.28900 48.49500 19.80400
H  7.32200 45.40400 21.95200
H  8.18400 45.13100 20.50200
H  6.49700 45.58300 19.24600
H  6.15600 47.14000 20.14900
H  5.40900 45.68100 20.62400
H  4.02800 46.67900 24.69500
H  3.76300 48.39400 23.97600
H  3.23100 47.90700 25.62900
H  6.16300 50.53600 29.05900
H  5.59100 47.84300 32.42800
H  4.47700 49.20200 32.68200
H  6.02200 49.39500 33.15900

