158

Mg 15.96600 52.60000 26.46400
C  17.90100 50.65700 28.88300
C  13.89500 53.28500 28.95900
C  13.95800 53.58300 24.10800
C  18.01900 51.06100 24.02200
N  15.87400 51.82200 28.71400
C  16.77000 51.28700 29.46300
C  16.49700 51.51100 30.93800
C  14.97800 51.95000 30.90700
C  14.87400 52.32400 29.44500
C  13.97100 50.90200 31.40400
C  17.47300 52.49100 31.54600
C  17.52400 52.70700 33.06400
H  16.72200 51.77400 33.96900
N  14.27900 53.41000 26.55300
C  13.60500 53.78100 27.70400
C  12.53500 54.72900 27.32300
C  12.39400 54.63500 25.92800
C  13.55200 53.83500 25.47700
C  11.79100 55.64600 28.36900
C  11.29000 55.15500 25.09400
O  11.17300 54.80700 23.86700
C  10.13700 55.91800 25.60900
N  16.00400 52.23600 24.26700
C  15.07000 52.86100 23.55400
C  15.43500 52.74100 21.99200
C  16.75300 51.97200 22.04300
C  16.92500 51.76600 23.48900
C  14.35200 52.03300 21.08600
C  17.92700 52.68600 21.24600
C  19.11200 51.76800 20.86300
N  17.63600 51.15100 26.41500
C  18.39100 50.79100 25.31700
C  19.50000 49.97600 25.83100
C  19.34300 49.92200 27.20300
C  18.22500 50.64300 27.51600
C  20.50500 49.17200 25.07800
C  19.96200 49.30800 28.41900
O  20.97700 48.62200 28.60400
C  19.05100 49.90700 29.55300
C  18.64700 48.89300 30.54900
O  17.89600 47.97400 30.28000
O  19.27000 49.20200 31.75900
C  18.94400 48.32800 32.87700
H  13.24500 53.75300 29.70100
H  13.30200 54.00600 23.34400
H  18.68900 50.51700 23.35300
H  16.76300 50.67300 31.58300
H  14.80900 52.82800 31.53000
H  14.39500 49.91200 31.57500
H  13.21400 50.79800 30.62700
H  13.54400 51.33700 32.30700
H  17.42500 53.44800 31.02700
H  18.43400 52.04800 31.28200
H  17.38100 53.78000 33.19500
H  18.54900 52.57400 33.40900
H  11.05500 55.01600 28.86700
H  11.30800 56.54900 27.99300
H  12.55600 55.93800 29.08800
H  9.40400 56.34000 24.92100
H  10.42200 56.80900 26.16700
H  9.48500 55.34400 26.26800
H  15.61800 53.78100 21.71800
H  16.71400 50.92900 21.72800
H  13.51900 51.75000 21.73000
H  14.90100 51.19400 20.65700
H  14.02400 52.70200 20.29100
H  18.24600 53.49200 21.90600
H  17.51500 53.19900 20.37700
H  18.93400 50.75000 21.20800
H  20.07700 52.25900 20.99200
H  18.97300 51.52200 19.81000
H  21.35900 48.98800 25.72900
H  20.82100 49.70100 24.17900
H  20.14800 48.18600 24.78100
H  19.75000 50.61400 30.00100
H  17.87700 48.10900 32.88900
H  19.25900 48.65100 33.86900
H  19.30700 47.30500 32.77400
Mg -11.96600 16.21400 42.22300
C  -8.91500 14.73400 41.88400
C  -10.65700 19.16500 40.84400
C  -15.06400 17.42100 41.73200
C  -13.32000 13.00500 42.97000
N  -9.97700 16.81000 41.32700
C  -8.89300 16.02700 41.32800
C  -7.69300 16.75300 40.69300
C  -8.26100 18.21300 40.47400
C  -9.72900 18.09300 40.84900
C  -7.55000 19.37700 41.32600
C  -7.25300 16.11300 39.35700
C  -5.71800 16.19200 39.00100
H  -5.28100 17.00000 37.79000
N  -12.73100 18.10500 41.53300
C  -12.01100 19.15500 41.09800
C  -12.95300 20.25300 40.81000
C  -14.24600 19.81600 41.13200
C  -14.06000 18.39200 41.44700
C  -12.44700 21.50200 40.14100
C  -15.54400 20.55600 41.04700
O  -15.53600 21.75200 40.68600
C  -17.05300 19.86600 41.20900
N  -13.88700 15.28800 42.08600
C  -14.94800 16.07800 42.03900
C  -16.30100 15.20700 42.21900
C  -15.73300 13.86600 42.64900
C  -14.22300 14.05000 42.60100
C  -17.37600 15.76800 43.22000
C  -16.20500 12.63000 41.85400
C  -17.05300 11.72500 42.70800
N  -11.25200 14.28100 42.70000
C  -11.89600 13.14200 43.04700
C  -10.91000 12.13700 43.32600
C  -9.70800 12.67100 42.85500
C  -9.99500 13.99100 42.42500
C  -11.18700 10.87900 44.01300
C  -8.36100 12.37100 42.65900
O  -7.72300 11.36900 42.92600
C  -7.82900 13.71900 41.96800
C  -6.86500 14.18300 42.96000
O  -7.10000 14.77700 44.01200
O  -5.58300 13.99900 42.53100
C  -4.45800 14.51500 43.37200
H  -10.18900 20.05600 40.42100
H  -16.11700 17.67900 41.59600
H  -13.75400 12.01100 43.09300
H  -6.93300 16.78300 41.47300
H  -8.16700 18.50200 39.42800
H  -6.59600 19.00000 41.69600
H  -8.06200 19.71700 42.22700
H  -7.31400 20.24300 40.70700
H  -7.80700 16.59100 38.54900
H  -7.50800 15.05600 39.28100
H  -5.35200 15.17600 38.85500
H  -5.16100 16.55400 39.86600
H  -11.95800 21.28700 39.19100
H  -11.72600 21.89500 40.85900
H  -13.13200 22.31800 39.91000
H  -17.80800 20.63700 41.05200
H  -17.25800 19.44200 42.19200
H  -17.25500 19.06800 40.49400
H  -16.66400 15.25400 41.19200
H  -15.99600 13.75200 43.70100
H  -18.20400 16.04300 42.56600
H  -17.04800 16.67400 43.73100
H  -17.73000 15.02400 43.93400
H  -15.30600 12.06700 41.60300
H  -16.75700 12.93100 40.96400
H  -17.57300 12.27800 43.49100
H  -16.47500 10.89800 43.12100
H  -17.90300 11.31800 42.16000
H  -11.37200 10.14200 43.23200
H  -12.10100 10.87700 44.60800
H  -10.30000 10.60500 44.58400
H  -7.30100 13.51300 41.03700
H  -4.81000 15.42500 43.85800
H  -3.60600 14.84100 42.77600
H  -4.12700 13.85300 44.17300

