158

Mg 30.48300 57.86300 40.26100
C  27.63400 56.11600 39.04000
C  32.38900 55.12800 39.30900
C  33.22600 59.77600 40.42500
C  28.45000 60.60700 40.87300
N  30.04100 55.86000 39.04500
C  28.78300 55.31000 38.90500
C  28.86000 53.83800 38.52500
C  30.36400 53.44200 39.02000
C  30.98200 54.90100 39.15400
C  30.51500 52.52600 40.25600
C  28.67100 53.66100 37.02200
C  28.90900 54.79000 36.02500
H  28.01000 54.93300 34.78000
N  32.52000 57.49600 39.93900
C  33.11700 56.29700 39.54900
C  34.51000 56.48500 39.31100
C  34.76300 57.91600 39.51400
C  33.44800 58.49400 39.93700
C  35.35900 55.31200 38.87600
C  36.02300 58.62300 39.29300
O  37.06800 58.00900 39.05700
C  36.20000 60.17700 39.28800
N  30.83000 59.94200 40.61000
C  32.02900 60.47200 40.74100
C  31.91200 62.02800 41.06800
C  30.35000 62.20500 41.26300
C  29.84100 60.86900 40.86400
C  32.82000 62.52700 42.21200
C  29.74800 63.32700 40.34000
C  28.71100 64.40300 40.87800
N  28.48200 58.27200 40.03300
C  27.78800 59.41200 40.41200
C  26.37300 59.26100 40.11900
C  26.25800 57.97800 39.56500
C  27.55100 57.46100 39.53300
C  25.32000 60.29300 40.31200
C  25.33600 57.02200 39.03100
O  24.13800 57.09800 39.01700
C  26.20000 55.62000 38.81000
C  25.72300 54.66200 39.84300
O  25.61400 55.02100 40.98800
O  25.31300 53.48900 39.32100
C  24.57800 52.49600 40.14100
H  32.91600 54.19300 39.10900
H  34.06500 60.47100 40.50000
H  27.83800 61.49000 41.06600
H  28.09900 53.23600 39.02200
H  30.79500 52.80100 38.25000
H  31.00300 51.56000 40.12500
H  29.54900 52.32900 40.72100
H  31.11300 53.02500 41.01900
H  27.66800 53.30100 36.79600
H  29.35200 52.84300 36.78400
H  29.84600 54.51700 35.54000
H  28.83700 55.78100 36.47400
H  36.30200 55.62800 38.43000
H  34.91500 54.55400 38.23100
H  35.64300 54.79000 39.79000
H  36.14600 60.57200 40.30200
H  35.44400 60.71200 38.71300
H  37.08800 60.54900 38.77800
H  32.26300 62.53900 40.17100
H  30.09300 62.35700 42.31100
H  33.35200 61.68000 42.64400
H  32.22600 62.91200 43.04100
H  33.46700 63.33400 41.87000
H  29.38700 62.83300 39.43800
H  30.60800 63.87100 39.94900
H  29.24800 65.34000 41.02400
H  28.40300 64.12700 41.88700
H  27.79400 64.53300 40.30300
H  24.75900 60.05300 41.21600
H  24.63800 60.43500 39.47400
H  25.77300 61.26100 40.52600
H  25.96600 55.15100 37.85400
H  24.92200 52.41900 41.17200
H  24.54400 51.52100 39.65500
H  23.56000 52.88500 40.11900
Mg -10.49800 17.06100 41.33800
C  -7.11600 16.72900 41.33700
C  -10.23300 20.18900 40.07500
C  -13.83400 17.04100 40.70300
C  -10.66000 13.49900 41.56700
N  -8.84300 18.28400 40.74400
C  -7.51700 17.99600 40.92100
C  -6.68000 19.15200 40.41300
C  -7.71400 20.40200 40.62300
C  -9.04300 19.62100 40.47500
C  -7.64500 21.23800 41.91100
C  -6.23200 18.88100 38.90000
C  -4.66900 18.99200 38.61700
H  -4.07400 17.96600 37.64900
N  -11.92000 18.48200 40.56500
C  -11.58500 19.70000 40.10600
C  -12.71000 20.43100 39.62300
C  -13.83600 19.52500 39.91700
C  -13.20400 18.25300 40.37600
C  -12.68300 21.77500 39.07000
C  -15.31300 19.78100 39.75800
O  -15.75200 20.92600 39.42800
C  -16.48700 18.80400 39.95900
N  -12.05200 15.52600 41.28100
C  -13.36400 15.82600 41.12900
C  -14.28600 14.60100 41.43400
C  -13.27000 13.51500 41.22400
C  -11.87500 14.15600 41.36700
C  -14.99200 14.68700 42.79500
C  -13.47200 12.86900 39.81700
C  -13.56400 11.38100 39.85100
N  -9.14900 15.46200 41.65600
C  -9.37000 14.02200 41.71900
C  -8.06900 13.41500 41.95400
C  -7.13900 14.43900 41.80700
C  -7.87600 15.65000 41.59100
C  -7.87200 11.89600 42.02100
C  -5.67300 14.76100 41.71100
O  -4.72400 14.04800 41.91600
C  -5.65700 16.29700 41.34100
C  -4.84800 16.95200 42.36900
O  -3.63100 17.01800 42.35200
O  -5.62800 17.38300 43.46100
C  -4.76000 17.76600 44.65200
H  -10.14600 21.13900 39.54200
H  -14.91900 16.97600 40.59900
H  -10.76000 12.41200 41.56900
H  -5.86700 19.37000 41.10600
H  -7.73600 20.94700 39.67900
H  -6.85300 20.94200 42.60000
H  -8.60000 21.26300 42.43400
H  -7.40100 22.26100 41.62300
H  -6.72400 19.63100 38.28200
H  -6.63100 17.92200 38.56800
H  -4.10000 18.88900 39.54000
H  -4.37500 19.97400 38.24800
H  -13.52200 21.86300 38.37900
H  -11.80300 21.84600 38.43100
H  -12.64300 22.53300 39.85200
H  -16.30200 18.07400 39.17200
H  -17.48000 19.23300 39.82100
H  -16.46000 18.27200 40.91000
H  -15.07000 14.54900 40.67800
H  -13.43300 12.82600 42.05300
H  -14.46300 15.38300 43.44500
H  -15.23600 13.77100 43.33300
H  -15.94100 15.15100 42.52500
H  -12.60600 13.19000 39.23800
H  -14.30700 13.33400 39.29200
H  -12.73100 10.85200 39.38700
H  -14.50200 11.07200 39.39000
H  -13.74200 10.97300 40.84500
H  -8.60900 11.39100 42.64700
H  -6.86300 11.59800 42.30600
H  -7.99000 11.52600 41.00300
H  -5.23100 16.51900 40.36200
H  -5.40800 18.18700 45.42100
H  -4.05900 18.53600 44.32900
H  -4.23000 16.95700 45.15500

