158

Mg 8.59300 2.93400 26.90700
C  9.71800 1.04200 29.67800
C  6.72600 4.75200 28.99000
C  7.57700 4.52100 24.08400
C  10.36900 0.67900 24.81200
N  8.25200 2.88000 29.13900
C  8.93900 2.14800 30.07300
C  8.87100 2.88100 31.45800
C  7.67000 3.93500 31.27400
C  7.39100 3.76800 29.70800
C  6.28200 3.80300 32.06500
C  10.28400 3.44500 31.86600
C  10.76700 2.92100 33.19500
H  11.04600 3.98100 34.21600
N  7.28600 4.33100 26.54200
C  6.62800 5.02300 27.57700
C  5.84000 6.06700 26.95200
C  6.13400 6.14600 25.60300
C  7.03200 4.99800 25.32300
C  4.90700 6.93300 27.72000
C  5.72800 7.14100 24.52900
O  6.25100 7.17600 23.45000
C  4.73700 8.20500 24.77800
N  8.85600 2.60900 24.68300
C  8.33600 3.40800 23.77000
C  8.68800 2.93700 22.38000
C  9.63500 1.72600 22.63100
C  9.70300 1.69000 24.12200
C  7.53000 2.61400 21.47800
C  10.94900 1.79000 21.84500
C  11.32900 0.45300 21.29200
N  9.74200 1.12500 27.13400
C  10.42800 0.37000 26.19500
C  11.03500 -0.76800 26.85500
C  10.85700 -0.48200 28.23600
C  10.00000 0.63200 28.36000
C  11.74400 -1.92200 26.16600
C  11.26100 -0.91900 29.58100
O  11.98700 -1.85800 29.96600
C  10.53600 0.09000 30.56700
C  9.76200 -0.65200 31.59400
O  8.86100 -1.44500 31.31900
O  10.36300 -0.46800 32.84200
C  9.58900 -0.98100 33.99000
H  6.23500 5.41900 29.70200
H  7.42600 5.18600 23.23100
H  10.90800 -0.16100 24.36700
H  8.65000 2.08400 32.16800
H  8.00600 4.95800 31.44300
H  5.85300 4.78700 32.25700
H  6.48200 3.23200 32.97200
H  5.58700 3.26300 31.42200
H  10.11100 4.52000 31.91400
H  11.03000 3.20100 31.10900
H  11.74400 2.44700 33.10200
H  10.07100 2.20100 33.62500
H  5.46600 7.73900 28.19500
H  4.46700 6.42600 28.57900
H  3.98000 7.24700 27.24000
H  3.76600 7.72100 24.88400
H  4.57300 8.81600 23.89000
H  5.05000 8.75800 25.66300
H  9.31600 3.74100 21.99500
H  9.12600 0.80700 22.33900
H  7.64300 1.68800 20.91400
H  7.42600 3.44800 20.78300
H  6.58700 2.61500 22.02500
H  11.63900 2.16600 22.60100
H  10.87400 2.49400 21.01700
H  11.95500 -0.11800 21.97700
H  11.94700 0.62200 20.41000
H  10.39000 -0.07700 21.13200
H  12.50300 -1.55200 25.47700
H  10.97600 -2.58000 25.76000
H  12.39100 -2.49900 26.82800
H  11.34300 0.66100 31.02700
H  9.56400 -0.18700 34.73600
H  10.04600 -1.89600 34.36800
H  8.56500 -1.25300 33.73800
Mg 30.64900 58.91000 39.85100
C  27.69600 56.90900 39.27700
C  32.52100 56.10000 38.81200
C  33.25400 60.85100 39.81500
C  28.49600 61.68400 40.05600
N  30.18800 56.75900 39.14800
C  28.90200 56.21000 39.04400
C  29.03700 54.85400 38.36700
C  30.58800 54.43100 38.69000
C  31.14100 55.83400 38.84200
C  30.80500 53.51700 39.85700
C  28.74600 54.87800 36.83900
C  27.65200 53.96900 36.25300
H  26.58200 54.67100 35.34200
N  32.73400 58.48000 39.44000
C  33.28100 57.27800 39.06500
C  34.67700 57.47200 38.94500
C  34.92800 58.85400 39.29600
C  33.63400 59.52200 39.49600
C  35.68000 56.32600 38.65400
C  36.29200 59.45100 39.46400
O  37.31200 58.81900 39.06900
C  36.51200 60.88800 40.01100
N  30.80200 60.98500 40.04000
C  32.04200 61.51200 40.07300
C  32.02300 63.10300 40.02300
C  30.46500 63.33600 40.22500
C  29.87600 61.94500 40.05700
C  32.90700 63.79800 41.10300
C  29.93300 64.54800 39.41400
C  28.71800 65.34900 40.07400
N  28.55100 59.25800 39.92500
C  27.88700 60.42200 39.99700
C  26.42300 60.16800 40.17400
C  26.32300 58.82300 39.70600
C  27.69400 58.28900 39.62400
C  25.31900 61.10700 40.34000
C  25.41300 57.77900 39.43500
O  24.20100 57.75900 39.44500
C  26.19700 56.51200 39.09800
C  25.75700 55.38000 40.00100
O  25.34400 55.52900 41.15400
O  25.78400 54.17400 39.40500
C  25.30400 53.07100 40.28000
H  33.01200 55.15300 38.58000
H  34.01100 61.62700 39.68800
H  27.87100 62.57900 40.02300
H  28.34100 54.15800 38.83500
H  31.17000 54.00300 37.87500
H  31.16700 54.10900 40.69700
H  31.62000 52.87400 39.52500
H  29.89100 52.93600 39.98400
H  29.59300 54.62200 36.20200
H  28.55700 55.93400 36.64600
H  27.13800 53.51600 37.10100
H  28.12200 53.14500 35.71600
H  35.17000 55.37400 38.50900
H  36.44100 56.20300 39.42500
H  36.06100 56.56300 37.66100
H  35.92800 61.01600 40.92200
H  36.20000 61.50300 39.16700
H  37.55100 61.10100 40.26200
H  32.22800 63.46900 39.01700
H  30.28800 63.72500 41.22800
H  33.75500 64.31200 40.65100
H  33.31000 63.13300 41.86700
H  32.38400 64.57900 41.65700
H  29.72800 64.23200 38.39100
H  30.80900 65.19400 39.35000
H  28.22600 64.63600 40.73500
H  27.87800 65.57000 39.41600
H  29.08600 66.18100 40.67400
H  24.47000 60.69500 40.88500
H  25.13200 61.38200 39.30200
H  25.65400 62.02700 40.82000
H  25.88900 56.24400 38.08700
H  25.44000 52.23100 39.59900
H  24.26200 53.11300 40.59600
H  25.97600 52.94000 41.12800

