158

Mg 1.75700 -1.35400 43.71300
C  5.11700 -0.54400 43.46900
C  0.88300 1.77800 42.22700
C  -1.34600 -2.46100 43.14100
C  2.81000 -4.55800 44.83300
N  2.91700 0.39100 42.90400
C  4.27900 0.49900 42.98000
C  4.74700 1.82800 42.18800
C  3.37800 2.49800 41.89200
C  2.30100 1.52300 42.37100
C  3.31700 3.98400 42.45500
C  5.60500 1.60100 40.90900
C  6.78800 2.61400 40.68900
H  6.73200 3.35000 39.35600
N  -0.04600 -0.47400 42.81800
C  -0.19700 0.80600 42.32900
C  -1.48900 0.90700 41.71300
C  -2.16400 -0.32500 41.96900
C  -1.16700 -1.16600 42.71300
C  -1.98400 2.05100 40.83600
C  -3.53100 -0.73300 41.53300
O  -4.24200 0.08400 40.84500
C  -4.24700 -1.93400 42.00300
N  0.87000 -3.25200 43.83600
C  -0.51700 -3.41600 43.78900
C  -0.93200 -4.77700 44.37100
C  0.39400 -5.37900 44.95800
C  1.45000 -4.34700 44.45900
C  -2.20000 -4.90100 45.28200
C  0.57800 -6.87200 44.51900
C  0.96300 -7.88000 45.65600
N  3.56800 -2.35800 44.16200
C  3.81200 -3.63000 44.68400
C  5.26000 -3.82700 44.85400
C  5.82400 -2.58200 44.42600
C  4.74800 -1.77400 43.94400
C  5.94900 -5.12300 45.25100
C  7.03900 -1.84200 44.18200
O  8.17100 -2.10700 44.49500
C  6.58300 -0.51500 43.54400
C  6.90300 0.58200 44.49000
O  6.38900 0.82600 45.54000
O  7.88800 1.35700 43.90600
C  8.54000 2.39200 44.74700
H  0.56500 2.70600 41.74500
H  -2.36500 -2.84900 43.19300
H  3.04700 -5.57000 45.17000
H  5.34100 2.35700 42.93300
H  3.28300 2.54900 40.80700
H  2.82700 4.02100 43.42800
H  2.81900 4.66700 41.76700
H  4.35200 4.32400 42.47700
H  4.98000 1.65700 40.01800
H  5.94800 0.56700 40.95400
H  7.70600 2.03800 40.80300
H  6.72400 3.42000 41.42100
H  -2.39100 1.68200 39.89400
H  -1.16000 2.68100 40.50200
H  -2.61500 2.66200 41.48100
H  -5.29700 -1.80600 41.74200
H  -4.16900 -2.06400 43.08200
H  -3.80900 -2.83400 41.57200
H  -1.27100 -5.27800 43.46400
H  0.44100 -5.32300 46.04500
H  -1.77900 -5.27100 46.21700
H  -2.96400 -5.56200 44.87500
H  -2.66000 -3.94900 45.54700
H  1.32700 -6.93400 43.73000
H  -0.31300 -7.28700 44.04800
H  0.87400 -7.38300 46.62200
H  1.98400 -8.22900 45.50300
H  0.43600 -8.83200 45.72000
H  6.91900 -5.06700 44.75800
H  5.53900 -6.04300 44.83500
H  6.03300 -5.23600 46.33200
H  7.06100 -0.39700 42.57200
H  8.09900 3.38800 44.73600
H  9.51800 2.63700 44.33400
H  8.66000 2.11800 45.79500
Mg -2.35500 34.71200 26.64200
C  -3.42000 32.99800 29.56400
C  -1.08400 37.02600 28.61100
C  -2.14100 36.57800 23.91300
C  -4.20100 32.26200 24.73900
N  -2.17400 34.89900 28.83700
C  -2.63000 34.08400 29.83000
C  -2.18500 34.59000 31.23700
C  -1.43300 35.89700 30.82000
C  -1.62000 35.99100 29.34400
C  -1.77600 37.22500 31.61600
C  -1.38400 33.49700 32.06600
C  -1.96300 33.05100 33.46200
H  -1.03800 33.02800 34.66300
N  -1.50500 36.34100 26.26400
C  -1.03100 37.22700 27.17500
C  -0.34200 38.38300 26.60300
C  -0.74100 38.34700 25.21500
C  -1.50500 37.05300 25.05400
C  0.31900 39.40900 27.47300
C  -0.44400 39.32700 24.08200
O  -0.86900 39.27300 22.92500
C  0.50400 40.46500 24.42800
N  -3.13500 34.47100 24.60800
C  -2.96600 35.45300 23.74300
C  -3.64000 35.08300 22.38900
C  -3.99200 33.52000 22.56000
C  -3.72400 33.33900 24.06300
C  -4.86700 35.95800 21.90300
C  -3.20000 32.53600 21.67500
C  -1.90300 32.02400 22.24500
N  -3.52500 33.05500 27.01700
C  -4.14900 32.11100 26.14100
C  -4.78100 31.12500 26.93600
C  -4.52300 31.46600 28.25400
C  -3.72600 32.60400 28.24600
C  -5.50700 29.89800 26.47100
C  -4.80200 31.01700 29.56900
O  -5.44400 30.09100 29.99900
C  -4.01900 32.00300 30.47100
C  -4.95700 32.68000 31.29000
O  -5.78800 33.46400 30.84800
O  -5.03600 32.21700 32.59700
C  -5.96600 32.81000 33.52400
H  -0.62500 37.75900 29.27800
H  -2.19500 37.21500 23.02800
H  -4.71900 31.47000 24.19500
H  -3.11700 34.87000 31.72700
H  -0.38200 35.67500 31.00600
H  -0.90100 37.69900 32.06100
H  -2.43500 37.09100 32.47400
H  -2.15600 38.02100 30.97600
H  -0.36200 33.86200 32.16500
H  -1.30900 32.57400 31.49000
H  -2.43600 32.07600 33.34200
H  -2.84700 33.66200 33.64500
H  1.31500 39.04800 27.73100
H  -0.27300 39.59900 28.36800
H  0.43800 40.36100 26.95500
H  0.89800 40.90800 23.51300
H  1.30100 39.90900 24.92200
H  -0.12700 41.12100 25.02600
H  -2.83100 35.14300 21.66100
H  -5.05500 33.43700 22.33300
H  -5.11700 36.77900 22.57500
H  -5.73200 35.30600 21.78300
H  -4.76800 36.27100 20.86400
H  -2.93700 32.98100 20.71500
H  -3.83800 31.65300 21.71400
H  -1.59900 32.45700 23.19800
H  -1.03800 32.14100 21.59200
H  -1.97200 30.96000 22.47100
H  -5.20500 29.05200 27.08800
H  -5.12000 29.77500 25.45900
H  -6.56500 30.11300 26.31700
H  -3.20300 31.49600 30.98600
H  -6.49900 33.69900 33.18700
H  -5.38000 33.05500 34.40900
H  -6.71200 32.02700 33.66600

