158

Mg 8.89900 3.19600 27.42500
C  10.44000 1.59900 30.19900
C  7.52100 5.48300 29.61700
C  7.49300 4.66900 24.80500
C  10.39200 0.86600 25.27400
N  8.95800 3.47800 29.69400
C  9.69900 2.75400 30.61200
C  9.49900 3.24900 32.02500
C  8.51500 4.38700 31.78200
C  8.29700 4.50700 30.31300
C  7.15800 4.17800 32.50500
C  10.78500 3.67200 32.77300
C  10.68200 4.67100 33.94100
H  11.53000 4.31300 35.18400
N  7.64800 4.81800 27.24400
C  7.20700 5.67200 28.21300
C  6.35300 6.68400 27.67700
C  6.33800 6.39700 26.31300
C  7.18800 5.23100 26.06600
C  5.76100 7.79900 28.50500
C  5.67300 7.21800 25.25600
O  5.59100 6.80800 24.09300
C  4.95000 8.45900 25.48700
N  9.01500 2.79700 25.31200
C  8.24100 3.53300 24.49400
C  8.52800 3.04600 22.98400
C  9.58200 1.93500 23.10500
C  9.66800 1.85100 24.62700
C  7.30300 2.67100 22.20700
C  10.97100 2.30000 22.37600
C  11.91800 1.13900 22.14300
N  10.11500 1.53300 27.60900
C  10.64900 0.69800 26.65400
C  11.40800 -0.33400 27.32300
C  11.35700 0.02400 28.69000
C  10.58400 1.15300 28.81800
C  12.15400 -1.45500 26.69200
C  11.71600 -0.44400 30.04600
O  12.24000 -1.48500 30.41400
C  11.24600 0.60600 31.01600
C  10.54500 0.05800 32.16800
O  9.50100 -0.56600 32.11000
O  11.23000 0.27000 33.37400
C  10.58300 -0.21400 34.60700
H  7.15800 6.26500 30.28700
H  7.05200 5.11100 23.91000
H  10.93400 0.08200 24.74100
H  8.97000 2.43800 32.52600
H  8.94700 5.29900 32.19500
H  6.40500 3.94000 31.75300
H  6.77000 5.11600 32.90100
H  7.31000 3.41800 33.27100
H  11.27900 4.14200 31.92300
H  11.38900 2.84500 33.14500
H  9.65200 4.87900 34.23000
H  11.15900 5.54100 33.49000
H  6.31800 8.71200 28.29200
H  5.57200 7.68000 29.57100
H  4.77100 8.02600 28.11000
H  4.59100 8.83600 24.52900
H  5.62000 9.20100 25.92100
H  4.07100 8.34400 26.12100
H  9.00900 3.86800 22.45400
H  9.28300 0.98000 22.67200
H  7.30600 3.30800 21.32200
H  6.41700 2.65800 22.84200
H  7.50100 1.65500 21.86600
H  11.41700 2.93500 23.14200
H  10.72500 2.86000 21.47300
H  11.54700 0.12100 22.26200
H  12.76700 1.12600 22.82600
H  12.32500 1.21400 21.13400
H  11.48900 -2.07900 26.09500
H  12.66100 -2.16000 27.35000
H  12.86800 -1.09300 25.95200
H  12.06400 1.22100 31.38900
H  10.91400 0.55200 35.30800
H  10.98300 -1.15300 34.98900
H  9.49400 -0.19900 34.65000
Mg 44.17900 4.10500 47.63200
C  42.15900 6.93400 47.04400
C  41.37100 2.12300 47.39200
C  46.25800 1.54300 47.94200
C  47.02300 6.37300 47.53000
N  41.99400 4.52700 47.13000
C  41.44500 5.72400 46.98200
C  39.97200 5.55500 46.56700
C  39.63900 4.09300 47.01400
C  41.08200 3.47900 47.17500
C  38.83600 3.94300 48.25500
C  39.77000 5.79500 45.07600
C  38.85500 6.97100 44.65800
H  39.27700 7.72100 43.46000
N  43.88900 2.05800 47.73600
C  42.62600 1.45200 47.57200
C  42.78600 0.05700 47.69200
C  44.18400 -0.18600 47.95800
C  44.85100 1.14900 47.90600
C  41.75700 -0.94500 47.46600
C  44.74800 -1.60800 48.08800
O  44.10500 -2.65700 48.02000
C  46.21200 -1.75200 48.25000
N  46.31700 3.98200 47.59500
C  46.86600 2.78800 47.83500
C  48.40500 2.90300 47.70000
C  48.65700 4.44900 47.55400
C  47.23400 5.00400 47.47800
C  49.31400 2.19100 48.79700
C  49.59600 4.88500 46.38700
C  50.73000 5.89300 46.69700
N  44.60800 6.30100 47.40800
C  45.77300 7.04200 47.50200
C  45.39400 8.48500 47.43000
C  44.00600 8.50700 47.23300
C  43.57100 7.12000 47.17200
C  46.27100 9.76000 47.69900
C  42.79600 9.39200 47.08900
O  42.64000 10.56900 47.05000
C  41.59300 8.36800 46.86000
C  40.40700 8.56800 47.84900
O  40.31900 8.01500 48.90700
O  39.54800 9.51800 47.32600
C  38.35600 9.80900 48.11600
H  40.49200 1.47700 47.36000
H  46.94600 0.70200 48.05400
H  47.92700 6.96800 47.67500
H  39.42700 6.28900 47.16000
H  39.19800 3.53900 46.18500
H  38.49700 4.96600 48.42100
H  39.37500 3.57700 49.12900
H  37.97000 3.28300 48.18900
H  39.44900 4.88100 44.57500
H  40.74800 6.11200 44.71400
H  38.80000 7.69100 45.47500
H  37.86300 6.67500 44.31600
H  40.86800 -0.55800 46.96800
H  41.45800 -1.44200 48.38800
H  42.15800 -1.62600 46.71500
H  46.85000 -1.68400 47.37000
H  46.61100 -2.58900 48.82400
H  46.49800 -0.96700 48.95000
H  48.71600 2.36500 46.80500
H  48.95600 4.82600 48.53100
H  48.53700 1.86200 49.48700
H  50.07200 2.81100 49.27600
H  49.84200 1.28000 48.51400
H  48.94100 5.37300 45.66600
H  50.01900 3.99400 45.92300
H  50.55300 6.89700 46.31100
H  51.70900 5.44800 46.51600
H  50.81100 6.00300 47.77800
H  45.81900 10.63800 47.23800
H  47.23300 9.57200 47.22000
H  46.43300 9.79200 48.77600
H  41.25800 8.35100 45.82300
H  38.31600 9.17200 48.99900
H  37.55900 9.73800 47.37600
H  38.39400 10.84300 48.45900

