158

Mg 47.67200 16.21500 27.58000
C  45.75300 16.25700 30.56000
C  50.06500 17.99600 29.25200
C  49.24500 16.43200 24.76300
C  44.80900 14.87500 26.00500
N  47.82700 16.90700 29.70500
C  47.02400 16.74200 30.79700
C  47.64200 17.22600 32.10200
C  48.93300 18.08100 31.57700
C  48.94200 17.60300 30.01300
C  48.78500 19.60500 31.62900
C  48.06300 15.97400 33.02300
C  47.68900 16.23000 34.55900
H  47.74400 17.62300 35.16500
N  49.53700 17.00700 27.12000
C  50.37800 17.65100 27.92600
C  51.50200 18.09300 27.17500
C  51.32600 17.59200 25.84600
C  49.95000 16.99200 25.82600
C  52.69900 18.61700 27.95000
C  52.17300 17.62800 24.61000
O  51.92800 16.91700 23.55500
C  53.49900 18.41600 24.64600
N  47.04200 15.74300 25.64500
C  47.92800 15.89300 24.62900
C  47.26200 15.41200 23.23200
C  45.89400 14.83800 23.68100
C  45.89500 15.12300 25.18900
C  47.22000 16.60200 22.28500
C  45.73200 13.29200 23.41100
C  44.84800 12.78600 22.23500
N  45.63700 15.70600 28.08700
C  44.70700 15.15400 27.38900
C  43.53000 14.86600 28.28100
C  43.94300 15.25300 29.51700
C  45.18800 15.82700 29.32600
C  42.21700 14.19600 27.91700
C  43.58600 15.29500 30.91400
O  42.51900 14.99300 31.40600
C  44.72600 15.91500 31.65300
C  44.15400 17.01900 32.50100
O  43.78100 18.11200 32.04200
O  44.06300 16.71900 33.85800
C  43.59500 17.72900 34.75600
H  50.76100 18.57300 29.86400
H  49.75400 16.45800 23.79800
H  43.98000 14.33200 25.54600
H  46.93500 17.97700 32.45500
H  49.88700 17.68900 31.92900
H  47.95500 19.81900 32.30200
H  48.46300 20.05300 30.68800
H  49.74600 20.08100 31.82400
H  49.11000 15.67700 32.95900
H  47.36700 15.17200 32.77400
H  48.35500 15.66300 35.21000
H  46.70800 15.78000 34.70600
H  53.32000 17.83200 28.38100
H  52.41400 19.34700 28.70700
H  53.35200 19.17000 27.27500
H  53.39800 19.30500 25.26800
H  53.73700 18.69300 23.61900
H  54.30100 17.79100 25.03800
H  47.91700 14.68200 22.75600
H  45.02900 15.39400 23.31800
H  47.84800 17.46500 22.51000
H  46.19900 16.96800 22.39600
H  47.54700 16.16600 21.34100
H  45.40700 12.74000 24.29300
H  46.74400 12.93200 23.22900
H  45.41300 12.08600 21.61900
H  44.41500 13.58900 21.63800
H  43.93700 12.23700 22.47300
H  42.30100 13.15500 28.23000
H  41.92600 14.33700 26.87600
H  41.34000 14.57400 28.44300
H  45.11400 15.17800 32.35600
H  43.07400 17.22400 35.56800
H  42.92800 18.45600 34.29200
H  44.42700 18.28500 35.18800
Mg 26.71300 50.88500 26.33100
C  25.09000 52.21100 29.11100
C  29.23200 50.17800 28.41000
C  28.51600 50.06900 23.70100
C  24.37300 52.53100 24.24000
N  26.97700 50.95500 28.63300
C  26.19300 51.46200 29.56000
C  26.80500 51.21400 30.94000
C  28.25700 50.76700 30.65200
C  28.16500 50.63300 29.15400
C  29.31600 51.85800 31.16700
C  26.10600 50.07900 31.76000
C  25.48600 50.49900 33.07100
H  26.21500 51.18800 34.19500
N  28.64000 50.04200 26.08000
C  29.51900 49.85400 27.09100
C  30.65400 49.14900 26.55800
C  30.40400 48.90800 25.14300
C  29.18900 49.74500 24.90400
C  31.69700 48.43100 27.46500
C  31.20000 48.14900 24.06400
O  30.85500 48.09500 22.89300
C  32.51300 47.51700 24.51600
N  26.55800 51.41000 24.23500
C  27.38400 50.80200 23.35600
C  26.98800 51.11600 21.87500
C  25.47500 51.68400 22.05800
C  25.40600 51.81700 23.59400
C  27.95100 51.84900 20.94000
C  24.37300 50.76300 21.39500
C  23.68400 51.29600 20.11500
N  25.07600 52.17900 26.49700
C  24.13100 52.70900 25.61100
C  23.09800 53.28000 26.34500
C  23.44000 53.09000 27.68200
C  24.65200 52.42600 27.75600
C  21.91100 53.99100 25.76100
C  23.02400 53.42000 29.08000
O  22.03600 54.08700 29.49300
C  24.00000 52.82100 29.99400
C  24.53200 53.95800 30.86800
O  25.54200 54.56300 30.71200
O  23.71800 53.99500 31.99500
C  24.24000 54.68500 33.18500
H  30.07600 50.01200 29.08400
H  29.09500 49.71100 22.84700
H  23.50900 52.84400 23.65000
H  26.70600 52.11000 31.55300
H  28.60200 49.92400 31.25100
H  29.82300 52.33900 30.33000
H  30.07100 51.33900 31.75800
H  28.89200 52.57500 31.87100
H  26.80400 49.31700 32.10700
H  25.29600 49.61100 31.20200
H  25.15300 49.52700 33.43400
H  24.58100 51.06400 32.84700
H  32.61100 48.95900 27.19400
H  31.86300 47.38500 27.20400
H  31.42700 48.65800 28.49600
H  33.04600 48.29300 25.06500
H  33.00300 47.27000 23.57400
H  32.38700 46.62200 25.12500
H  26.86500 50.14700 21.39200
H  25.29900 52.67300 21.63700
H  28.70900 52.28200 21.59300
H  27.42800 52.71500 20.53600
H  28.41300 51.14800 20.24400
H  23.58300 50.64800 22.13700
H  24.80500 49.78400 21.18700
H  23.99300 50.65000 19.29300
H  23.96200 52.32300 19.87900
H  22.59800 51.20600 20.15900
H  21.15800 53.98100 26.54900
H  21.54300 53.55200 24.83400
H  22.31200 55.00200 25.69200
H  23.53200 52.01100 30.55300
H  24.30400 55.74500 32.93700
H  25.22500 54.23800 33.31400
H  23.70300 54.45100 34.10400

