158

Mg 1.74600 -2.84000 44.17700
C  5.06500 -1.83200 43.42400
C  0.67700 -0.42100 42.11300
C  -1.27600 -4.15700 44.58200
C  3.17600 -5.69500 45.76900
N  2.85300 -1.40700 42.77900
C  4.15500 -1.13800 42.63800
C  4.42200 0.00600 41.65400
C  3.02400 0.71400 41.72500
C  2.09500 -0.40800 42.23500
C  2.99900 1.98300 42.64800
C  4.76300 -0.52800 40.23000
C  6.04500 0.02300 39.56900
H  5.71500 0.83700 38.28800
N  -0.12600 -2.37700 43.51800
C  -0.37100 -1.29900 42.64000
C  -1.78800 -1.09000 42.45500
C  -2.36000 -2.20800 43.13400
C  -1.22800 -2.96200 43.84400
C  -2.42900 0.06900 41.68400
C  -3.84900 -2.54800 42.99500
O  -4.57600 -1.75400 42.39000
C  -4.41100 -3.73200 43.72700
N  1.03800 -4.62000 45.12900
C  -0.31600 -4.92800 45.18300
C  -0.55000 -6.29200 45.86400
C  0.87400 -6.77200 46.18300
C  1.79200 -5.68000 45.62800
C  -1.50200 -6.16800 47.06700
C  1.27000 -8.16000 45.55500
C  0.90600 -9.34800 46.45600
N  3.62500 -3.56400 44.71200
C  4.07100 -4.74700 45.35500
C  5.56600 -4.79200 45.36000
C  5.94300 -3.62700 44.67400
C  4.75600 -2.92000 44.31200
C  6.47200 -5.82100 45.94000
C  7.11900 -2.92400 44.22000
O  8.30200 -3.08500 44.45500
C  6.57400 -1.76700 43.28600
C  7.11400 -0.44500 43.77900
O  7.64500 0.41100 43.14500
O  6.90500 -0.44900 45.15300
C  7.46400 0.78500 45.80500
H  0.29000 0.40000 41.50600
H  -2.26200 -4.59700 44.73900
H  3.74800 -6.52900 46.18000
H  5.30300 0.54400 42.00400
H  2.74400 0.99000 40.70800
H  4.00700 2.04000 43.05900
H  2.25300 1.78600 43.41800
H  2.77800 2.82500 41.99300
H  3.97400 -0.28500 39.51700
H  4.74900 -1.60800 40.37200
H  6.59500 -0.83500 39.18300
H  6.75100 0.45700 40.27700
H  -2.21400 -0.07700 40.62500
H  -1.85200 0.94900 41.96700
H  -3.47900 0.28300 41.87900
H  -4.20100 -3.58100 44.78600
H  -3.88000 -4.65700 43.50100
H  -5.49800 -3.78000 43.66000
H  -0.98600 -7.01700 45.17600
H  0.98400 -6.87900 47.26200
H  -2.11300 -5.27500 46.93500
H  -0.92900 -6.14400 47.99500
H  -2.07900 -7.08900 46.98700
H  2.34500 -8.28400 45.43000
H  0.78700 -8.22800 44.58000
H  1.82700 -9.91100 46.60200
H  0.18400 -9.97500 45.93200
H  0.46100 -8.94000 47.36400
H  5.95100 -6.52100 46.59300
H  7.31000 -5.36400 46.46500
H  6.85000 -6.39900 45.09600
H  6.90100 -1.89600 42.25400
H  7.85800 0.44800 46.76400
H  6.74200 1.54800 46.09400
H  8.20400 1.31400 45.20500
Mg 49.03700 45.26100 43.11800
C  45.66000 45.63600 41.88900
C  48.87600 41.92200 42.32500
C  52.35000 45.09400 43.31500
C  49.20700 48.82500 43.07200
N  47.46300 44.02400 42.02500
C  46.13400 44.32100 41.83400
C  45.45800 42.97600 41.36700
C  46.41100 41.83300 41.80000
C  47.64600 42.64800 42.12300
C  45.86900 40.78600 42.79500
C  45.08900 42.82900 39.81900
C  46.09500 43.48200 38.89000
H  45.46900 43.93200 37.61200
N  50.45100 43.69800 43.05200
C  50.17800 42.39700 42.65600
C  51.46700 41.67800 42.63500
C  52.48400 42.56400 43.07100
C  51.80000 43.83800 43.16500
C  51.56900 40.19100 42.32800
C  53.84800 42.17500 43.29700
O  54.28900 41.06300 43.07200
C  54.88900 43.20900 43.78300
N  50.56600 46.73900 43.17000
C  51.86400 46.38800 43.31900
C  52.81600 47.63200 43.11300
C  51.72700 48.84100 43.10600
C  50.39900 48.08900 43.09600
C  53.92200 47.78100 44.24000
C  51.90600 49.72400 41.79000
C  52.10200 51.20800 42.02400
N  47.75000 46.87800 42.87200
C  47.89500 48.27600 42.87200
C  46.62800 48.94500 42.68200
C  45.74000 47.92000 42.26900
C  46.47700 46.73400 42.41400
C  46.39200 50.46600 42.54800
C  44.43200 47.68300 41.83800
O  43.44400 48.40500 41.71900
C  44.34700 46.14600 41.53000
C  43.23800 45.55800 42.32000
O  42.34900 44.91500 41.83900
O  43.22100 45.92000 43.71600
C  41.95300 45.56900 44.48800
H  48.74600 40.90700 41.94500
H  53.43800 45.18000 43.35700
H  49.34700 49.90700 43.10400
H  44.52400 42.92500 41.92800
H  46.69800 41.26100 40.91700
H  45.79200 39.82100 42.29400
H  44.89400 41.18400 43.07700
H  46.45700 40.74900 43.71200
H  44.12000 43.26800 39.58100
H  45.07400 41.77400 39.54700
H  47.00100 42.88200 38.80800
H  46.44100 44.41800 39.32900
H  51.66500 39.62200 43.25300
H  52.46200 39.88100 41.78600
H  50.74000 39.76100 41.76600
H  55.10200 43.86600 42.94000
H  55.75400 42.83200 44.32900
H  54.46700 43.76500 44.62000
H  53.38700 47.45200 42.20200
H  51.62900 49.43300 44.01600
H  54.72700 48.42500 43.88500
H  54.18500 46.79100 44.61100
H  53.55800 48.35900 45.09000
H  51.06500 49.60000 41.10800
H  52.79300 49.37400 41.26300
H  51.31200 51.79200 41.55300
H  53.02900 51.63100 41.63700
H  52.02100 51.39000 43.09600
H  47.21400 51.06100 42.15000
H  46.17200 50.76800 43.57200
H  45.49000 50.64300 41.96400
H  44.10700 45.92700 40.49000
H  41.06200 45.35200 43.89900
H  41.63100 46.44500 45.05100
H  42.05500 44.73200 45.17900

