158

Mg -2.60900 16.91900 25.53100
C  -2.89000 14.45000 28.18400
C  -3.46400 19.23900 27.80600
C  -2.70800 19.05600 23.09200
C  -2.55000 14.23100 23.34400
N  -3.07600 16.84300 27.72300
C  -3.05700 15.79200 28.64300
C  -3.36700 16.32700 30.08100
C  -3.54500 17.86800 29.78300
C  -3.37000 17.98500 28.34300
C  -4.76200 18.63000 30.35600
C  -2.30300 16.00200 31.20500
C  -2.48100 16.69200 32.55700
H  -1.98600 16.04900 33.88100
N  -2.76900 18.94200 25.47500
C  -3.28500 19.76900 26.41700
C  -3.30900 21.18500 25.93500
C  -2.81400 21.13100 24.66900
C  -2.72200 19.65700 24.33500
C  -3.63300 22.37800 26.82300
C  -2.43200 22.27100 23.73500
O  -1.86400 22.05000 22.69700
C  -2.72000 23.70400 24.11600
N  -2.40700 16.66900 23.45600
C  -2.59000 17.68900 22.60000
C  -2.62900 17.26200 21.10500
C  -2.88400 15.78200 21.25200
C  -2.42900 15.53100 22.74600
C  -3.50800 18.07600 20.14500
C  -2.17700 14.92400 20.21600
C  -3.17800 14.26200 19.25200
N  -2.53200 14.72200 25.66700
C  -2.56900 13.79100 24.66500
C  -2.82000 12.43400 25.22700
C  -2.65700 12.64000 26.62200
C  -2.62200 14.05100 26.83600
C  -3.06400 11.20300 24.47200
C  -2.61100 11.96100 27.95800
O  -2.73000 10.81200 28.31400
C  -2.69900 13.22900 29.04500
C  -1.54000 13.18300 29.94500
O  -0.47200 13.80300 29.78700
O  -1.84200 12.47100 31.07700
C  -0.88300 12.32800 32.14200
H  -3.62700 20.07500 28.49000
H  -3.07800 19.77000 22.35400
H  -2.69700 13.44700 22.59900
H  -4.31600 15.93200 30.44500
H  -2.60900 18.30800 30.12900
H  -5.48500 19.01200 29.63500
H  -4.46900 19.50300 30.94000
H  -5.31200 17.89500 30.94400
H  -1.26000 15.95000 30.89400
H  -2.60500 14.97500 31.41100
H  -3.47200 17.14000 32.62900
H  -1.84700 17.57800 32.53800
H  -4.20300 22.11200 27.71300
H  -4.25800 23.09500 26.29100
H  -2.72600 22.84000 27.21200
H  -2.32000 24.41600 23.39400
H  -2.25000 23.80700 25.09400
H  -3.78700 23.75800 24.33200
H  -1.64000 17.42700 20.67600
H  -3.95700 15.59000 21.22100
H  -4.14500 17.37200 19.60900
H  -2.92800 18.65800 19.42900
H  -4.01900 18.77000 20.81200
H  -1.63600 14.12600 20.72400
H  -1.34600 15.47700 19.77700
H  -4.22400 14.44800 19.49400
H  -3.04700 13.18500 19.35600
H  -2.99300 14.61500 18.23800
H  -3.24900 10.52700 25.30700
H  -2.17700 10.90100 23.91500
H  -3.96400 11.32600 23.87000
H  -3.59900 13.22900 29.65900
H  -1.00800 11.33300 32.57000
H  -1.11500 12.85900 33.06400
H  0.11600 12.50000 31.74300
Mg 44.02300 4.28600 46.65800
C  42.04900 7.27900 47.01400
C  41.15100 2.59400 46.14900
C  45.76600 1.65400 45.56100
C  46.93200 6.13000 46.55500
N  41.89400 4.97600 46.37400
C  41.28200 6.14900 46.72100
C  39.73400 6.09400 46.80300
C  39.54400 4.47300 46.81000
C  40.93600 3.97600 46.45700
C  39.09900 3.85000 48.18600
C  39.06100 6.88800 45.59200
C  39.92200 6.99800 44.26600
H  39.21900 6.87600 42.89100
N  43.46600 2.23100 46.16300
C  42.25600 1.72800 45.98400
C  42.25100 0.30400 45.62800
C  43.66900 0.04400 45.48000
C  44.40300 1.31600 45.67300
C  41.05000 -0.59900 45.48000
C  44.27600 -1.25200 45.06800
O  43.59900 -2.27800 44.94800
C  45.69100 -1.47000 44.94000
N  45.99500 3.95700 46.07300
C  46.44800 2.72400 45.85100
C  47.98800 2.62900 45.86800
C  48.38400 4.05200 46.17200
C  47.01000 4.76400 46.35500
C  48.54000 1.59500 46.90300
C  49.22700 4.71100 44.96500
C  50.73600 4.73500 44.94900
N  44.49600 6.26200 46.85200
C  45.72500 6.86800 46.76300
C  45.47900 8.31300 46.98900
C  44.05500 8.50100 47.14900
C  43.48800 7.21500 46.96500
C  46.48400 9.41200 46.81400
C  43.04800 9.46100 47.42200
O  43.11600 10.71200 47.58900
C  41.67900 8.70000 47.28900
C  40.92300 8.85800 48.59200
O  40.85700 8.00800 49.53200
O  40.15500 9.93300 48.55400
C  39.12400 9.87100 49.55400
H  40.23700 1.99700 46.14900
H  46.39100 0.87500 45.11900
H  47.82800 6.75500 46.53200
H  39.32900 6.50600 47.72800
H  38.85000 4.06300 46.07600
H  39.93300 3.37600 48.70300
H  38.34600 3.08500 47.99600
H  38.61000 4.63300 48.76500
H  38.80700 7.91700 45.84400
H  38.16300 6.29900 45.40500
H  40.61900 6.16600 44.36600
H  40.34000 7.98200 44.47700
H  40.75400 -0.88200 46.49100
H  41.33500 -1.31300 44.70800
H  40.19000 -0.10800 45.02400
H  46.33000 -1.22700 45.78900
H  46.04600 -0.91600 44.07000
H  45.95700 -2.50600 44.73000
H  48.34300 2.29700 44.89200
H  48.98100 4.15400 47.07800
H  49.41300 2.11100 47.30300
H  48.89700 0.65400 46.48500
H  47.85800 1.60200 47.75300
H  48.86400 5.71900 44.76700
H  48.94500 4.19000 44.05000
H  51.11400 3.88800 45.52200
H  51.13000 5.58300 45.50900
H  51.18600 4.71300 43.95600
H  46.06900 10.42000 46.81100
H  46.95100 9.35000 45.83100
H  47.22200 9.30400 47.60900
H  41.11000 9.16400 46.48400
H  38.39900 10.65500 49.33200
H  39.51400 9.89800 50.57100
H  38.51400 8.98000 49.41000

