158

Mg 47.98200 15.91700 27.87500
C  45.97600 15.87200 30.71500
C  50.12200 18.13900 29.58500
C  49.76400 16.48600 24.96600
C  45.51300 14.35800 26.12400
N  47.99500 16.90000 29.89400
C  47.19300 16.57500 30.92500
C  47.58300 17.09900 32.27900
C  48.74400 17.99600 31.82500
C  49.00700 17.67800 30.37300
C  48.49500 19.55100 32.10400
C  48.10500 15.92400 33.26400
C  48.20400 16.30500 34.83100
H  47.44500 17.57800 35.27600
N  49.75300 17.02600 27.42300
C  50.48200 17.82500 28.23700
C  51.68800 18.19300 27.57600
C  51.71100 17.57200 26.24200
C  50.38500 16.95200 26.20500
C  52.79800 19.00500 28.24100
C  52.73200 17.54000 25.18500
O  52.59300 16.82700 24.20400
C  54.00400 18.16700 25.43800
N  47.71000 15.38400 25.88500
C  48.51300 15.88000 24.86400
C  47.91600 15.57100 23.50700
C  46.78300 14.55100 23.85000
C  46.63300 14.76000 25.40100
C  47.38400 16.89000 22.87200
C  47.03300 13.08200 23.59300
C  45.94700 12.37400 22.80600
N  46.13600 15.27500 28.26800
C  45.21600 14.64000 27.44800
C  44.04200 14.38000 28.23300
C  44.29900 14.80700 29.53700
C  45.58100 15.39400 29.46400
C  42.85100 13.76000 27.63600
C  43.78100 14.83200 30.79700
O  42.65700 14.42600 31.10400
C  44.86300 15.55600 31.67200
C  44.19200 16.71800 32.31200
O  44.04900 17.81500 31.82600
O  43.74900 16.33300 33.57400
C  42.93000 17.34100 34.24600
H  50.84900 18.71100 30.16500
H  50.28900 16.60100 24.01600
H  44.73000 13.95500 25.47900
H  46.79500 17.69700 32.73600
H  49.65500 17.76800 32.37800
H  47.58400 19.81500 32.64000
H  48.56200 20.07800 31.15200
H  49.23900 20.10600 32.67500
H  49.12400 15.65700 32.98300
H  47.44900 15.05500 33.22100
H  49.28800 16.25900 34.93300
H  47.73900 15.58900 35.50900
H  53.23100 19.68400 27.50600
H  53.63600 18.40700 28.60000
H  52.48000 19.50600 29.15600
H  54.46500 17.62400 26.26300
H  53.80100 19.23500 25.51200
H  54.62400 18.01600 24.55500
H  48.65500 15.14900 22.82500
H  45.89500 15.01000 23.41500
H  47.12600 16.59700 21.85500
H  48.07600 17.72800 22.94600
H  46.48000 17.16700 23.41600
H  47.24100 12.49700 24.48900
H  47.96300 12.97100 23.03400
H  45.97700 12.81800 21.81100
H  44.99700 12.51700 23.32100
H  46.16200 11.30800 22.73700
H  42.66600 13.96400 26.58200
H  41.95400 14.00500 28.20400
H  42.90500 12.68800 27.82600
H  45.21300 14.96600 32.51900
H  41.89900 17.35800 33.89200
H  43.38500 18.32400 34.12400
H  42.87700 17.18900 35.32500
Mg 48.05600 44.60500 43.60800
C  44.61700 43.75000 43.37700
C  48.82200 41.28800 42.49900
C  51.07600 45.54200 42.76200
C  46.96900 48.02100 43.66700
N  46.88200 42.75500 42.99300
C  45.45800 42.70600 42.96600
C  45.02600 41.30300 42.72500
C  46.33800 40.41700 42.60400
C  47.38300 41.54300 42.71200
C  46.46200 39.28200 43.68900
C  43.94100 41.00300 41.64100
C  44.04500 41.86200 40.44300
H  43.70500 41.29000 39.04800
N  49.78900 43.54000 42.98800
C  49.90600 42.25200 42.61000
C  51.26200 41.96600 42.35500
C  52.01500 43.12600 42.35200
C  51.01200 44.14800 42.77200
C  51.74700 40.59400 42.08400
C  53.47500 43.39100 41.93700
O  54.10600 42.38600 41.63800
C  54.17500 44.70200 41.84200
N  48.89300 46.53800 43.39200
C  50.20500 46.61300 42.91200
C  50.65600 48.06700 42.71100
C  49.29800 48.86000 43.00100
C  48.29800 47.74100 43.32200
C  51.90400 48.60400 43.47700
C  48.92700 49.78000 41.77400
C  48.43700 51.11600 42.13800
N  46.22100 45.70000 43.67200
C  45.96000 47.01000 43.85900
C  44.51000 47.21500 44.01800
C  44.00600 45.91700 43.96600
C  45.04700 45.06500 43.67200
C  43.77800 48.53900 44.22600
C  42.73500 45.10200 44.02600
O  41.58300 45.43200 44.32400
C  43.11800 43.68400 43.58500
C  42.64600 42.83300 44.65000
O  41.81700 41.90200 44.49600
O  43.27900 43.12900 45.78500
C  43.03900 42.29400 46.95300
H  49.03200 40.27000 42.16400
H  52.05700 45.92400 42.47000
H  46.67100 49.07100 43.69400
H  44.46800 40.97700 43.60200
H  46.46100 39.95000 41.62700
H  47.10300 39.57000 44.52200
H  46.94500 38.40000 43.26600
H  45.55200 38.93400 44.17600
H  42.90900 41.03600 41.99200
H  44.17900 39.98800 41.32400
H  45.00700 42.37100 40.39500
H  43.35000 42.69500 40.54800
H  52.38600 40.47000 41.20900
H  50.96000 39.84000 42.09800
H  52.41000 40.30900 42.90100
H  53.50700 45.29800 41.21900
H  55.06300 44.46300 41.25800
H  54.35200 45.19900 42.79600
H  50.83500 48.32400 41.66700
H  49.45700 49.52100 43.85300
H  52.32900 47.75800 44.01700
H  51.66300 49.35100 44.23300
H  52.64100 48.98900 42.77300
H  48.04800 49.29700 41.34900
H  49.66700 49.91000 40.98400
H  49.05800 51.88700 41.68200
H  48.60000 51.44900 43.16300
H  47.39900 51.24700 41.83100
H  43.78300 48.89400 45.25700
H  42.75600 48.40200 43.87500
H  44.31800 49.31000 43.67600
H  42.51300 43.56200 42.68600
H  44.02000 42.07400 47.37500
H  42.62200 41.32700 46.67300
H  42.38400 42.80900 47.65500

