158

Mg 53.69000 24.32500 43.75700
C  50.91200 26.64400 43.17000
C  51.54100 21.81900 42.91100
C  56.37700 22.48200 43.28900
C  55.66500 27.07800 44.26400
N  51.58200 24.31300 42.88300
C  50.59900 25.27300 42.90100
C  49.19900 24.75700 42.69000
C  49.37000 23.26700 42.91300
C  50.94100 23.13200 43.05200
C  48.64000 22.82700 44.23100
C  48.62000 25.06900 41.27800
C  49.61200 24.83300 40.07000
H  48.95500 24.33000 38.77000
N  53.95900 22.40100 43.24800
C  52.94900 21.55300 42.90000
C  53.52800 20.23300 42.72500
C  54.97800 20.40100 42.81500
C  55.21200 21.80100 43.10400
C  52.63400 19.04100 42.46200
C  55.96100 19.38900 42.46400
O  55.60000 18.23200 42.19800
C  57.44700 19.63000 42.47700
N  55.70400 24.82400 43.54400
C  56.68100 23.85500 43.59400
C  58.14700 24.34900 43.86000
C  57.91900 25.82600 44.24100
C  56.32500 25.95700 43.94000
C  58.97900 23.48200 44.85300
C  58.70600 26.88300 43.41400
C  60.04600 27.19800 43.95500
N  53.42200 26.46800 43.85300
C  54.29900 27.39100 44.18700
C  53.63700 28.65500 44.44200
C  52.29200 28.40400 44.07600
C  52.22700 27.09200 43.66100
C  54.24600 29.94700 45.07100
C  50.91200 28.95800 44.00300
O  50.48600 30.07200 44.43900
C  50.04300 27.86600 43.33800
C  49.51200 28.40400 42.04900
O  50.13300 28.76600 41.07800
O  48.13100 28.38500 42.14600
C  47.44200 28.60200 40.88300
H  50.84100 20.98600 42.81400
H  57.29800 21.89900 43.34600
H  56.23500 27.90100 44.69900
H  48.66900 25.27000 43.49200
H  48.91500 22.67200 42.12100
H  49.29700 23.10100 45.05600
H  48.57000 21.75500 44.04700
H  47.69800 23.34300 44.42000
H  48.32500 26.11200 41.39300
H  47.62100 24.69900 41.04900
H  50.29200 24.01700 40.31500
H  50.15300 25.77200 39.95000
H  51.87300 19.26100 41.71400
H  52.15900 18.69100 43.37900
H  53.19200 18.19400 42.06400
H  57.88800 18.66400 42.23000
H  57.76000 19.80700 43.50600
H  57.70800 20.38200 41.73300
H  58.69600 24.33700 42.91800
H  58.01800 26.04200 45.30500
H  58.29400 22.83000 45.39500
H  59.65600 24.05100 45.48900
H  59.57000 22.80600 44.23500
H  58.18400 27.83200 43.29500
H  58.68100 26.44400 42.41600
H  60.28400 26.48900 44.74800
H  60.16000 28.25600 44.18900
H  60.74300 26.91400 43.16700
H  53.97900 29.94900 46.12800
H  53.74500 30.75200 44.53200
H  55.31100 30.15500 44.96900
H  49.14900 27.66000 43.92600
H  47.68500 29.61400 40.56000
H  46.36200 28.45500 40.90500
H  47.74600 27.93700 40.07400
Mg 36.23100 49.22600 26.31300
C  36.45000 47.19000 29.06900
C  34.71300 51.63800 28.16400
C  35.40900 50.91700 23.46200
C  37.18100 46.57300 24.28400
N  35.58500 49.31400 28.33000
C  35.96100 48.43300 29.29100
C  35.45800 48.92300 30.71200
C  34.87100 50.29000 30.37900
C  34.99800 50.44100 28.86400
C  33.39800 50.55200 30.89600
C  36.56100 48.90400 31.79800
C  36.25500 48.47700 33.30400
H  34.98400 48.93200 34.03600
N  35.42900 51.13900 25.89800
C  34.82100 51.94800 26.85600
C  34.56200 53.19100 26.12800
C  34.82200 52.98600 24.73200
C  35.25200 51.64800 24.63900
C  33.96500 54.42800 26.80100
C  34.86900 53.88500 23.49400
O  35.28200 53.63400 22.34300
C  34.37800 55.30000 23.71000
N  36.37400 48.77100 24.21100
C  35.87600 49.61700 23.23000
C  36.15300 49.03900 21.79400
C  36.82000 47.67000 22.13600
C  36.87900 47.69300 23.66300
C  35.00400 48.91500 20.81300
C  38.15100 47.39600 21.46100
C  39.38700 48.02100 22.14500
N  36.74000 47.23100 26.56200
C  37.07300 46.24500 25.64800
C  37.37100 45.00800 26.31200
C  37.13100 45.31800 27.72900
C  36.69700 46.64000 27.72600
C  37.82500 43.70400 25.70200
C  37.20200 44.83400 29.00700
O  37.35000 43.67500 29.43000
C  36.72100 45.95300 29.98700
C  35.43600 45.42600 30.55000
O  34.35600 45.31300 29.96600
O  35.56200 45.20100 31.91300
C  34.47300 44.46100 32.47700
H  34.19400 52.35500 28.80400
H  35.12400 51.37900 22.51500
H  37.53700 45.76700 23.63900
H  34.72200 48.13000 30.84700
H  35.61500 50.91900 30.86700
H  33.20700 49.79600 31.65700
H  32.67000 50.37100 30.10600
H  33.31200 51.60000 31.18500
H  37.05200 49.85700 31.99700
H  37.34000 48.21800 31.46500
H  37.17200 48.73700 33.83200
H  36.21300 47.39000 33.24400
H  33.09100 54.89800 26.35000
H  34.77500 55.15000 26.69700
H  33.72600 54.11000 27.81600
H  35.08500 55.92000 24.26000
H  33.39100 55.30000 24.17300
H  34.29500 55.75300 22.72100
H  36.85200 49.70600 21.29000
H  36.13100 46.87900 21.84200
H  34.03900 49.15800 21.25800
H  34.86900 47.90600 20.42500
H  35.26400 49.42800 19.88700
H  38.16600 47.70900 20.41700
H  38.25100 46.31100 21.48100
H  39.78100 48.63800 21.33700
H  40.10400 47.21200 22.28200
H  39.11800 48.57400 23.04500
H  38.90500 43.57500 25.77500
H  37.49000 43.65400 24.66600
H  37.25900 42.97100 26.27600
H  37.54300 46.04100 30.69700
H  34.75400 43.84700 33.33200
H  34.08100 43.66300 31.84600
H  33.74600 45.17400 32.86700

