158

Mg 17.67200 -1.30300 27.29400
C  16.60200 0.71200 30.03000
C  19.86400 -3.01700 29.33900
C  19.14300 -2.55700 24.46700
C  15.81900 0.90400 25.21900
N  18.28800 -1.02800 29.37200
C  17.55700 -0.29700 30.35600
C  17.98100 -0.85600 31.78600
C  19.11100 -1.85100 31.49500
C  19.13700 -1.93100 30.00600
C  20.49200 -1.50000 32.06000
C  16.86500 -1.46700 32.65500
C  16.53000 -0.76900 33.96400
H  17.68800 -0.29200 34.91000
N  19.12400 -2.72000 26.95800
C  19.85600 -3.34100 27.91900
C  20.49900 -4.49600 27.32700
C  20.35000 -4.39500 25.90400
C  19.49600 -3.18700 25.68700
C  20.98100 -5.72100 28.12800
C  20.99900 -5.14000 24.80900
O  20.79700 -4.94000 23.60000
C  21.95200 -6.21600 25.23100
N  17.47200 -0.90000 25.16000
C  18.28000 -1.49000 24.22100
C  18.05000 -0.89400 22.77500
C  16.73800 0.04700 23.02500
C  16.66900 0.00400 24.55500
C  19.32800 -0.14700 22.24400
C  15.42800 -0.39500 22.31400
C  14.89800 0.32700 21.10500
N  16.44100 0.51200 27.51000
C  15.79200 1.20700 26.61000
C  15.03200 2.29600 27.20300
C  15.26300 2.10100 28.57000
C  16.12700 1.01100 28.67200
C  14.14000 3.32700 26.56700
C  14.97400 2.57900 29.95200
O  14.28500 3.54800 30.32400
C  15.88500 1.74200 30.92300
C  16.89500 2.65400 31.71600
O  18.06800 2.78300 31.41400
O  16.46100 3.16400 32.90600
C  17.18500 4.26700 33.45800
H  20.53200 -3.60300 29.97300
H  19.49600 -3.03400 23.55000
H  15.14900 1.41900 24.52800
H  18.19300 0.11200 32.24000
H  18.78600 -2.87800 31.66300
H  20.96600 -2.37300 32.50900
H  20.30600 -0.92600 32.96700
H  21.07500 -0.85400 31.40300
H  17.06900 -2.45800 33.06100
H  15.96700 -1.52800 32.04100
H  15.79000 -1.31400 34.55000
H  15.97400 0.13900 33.73200
H  22.06300 -5.84300 28.16300
H  20.42100 -6.53400 27.66600
H  20.59800 -5.72700 29.14800
H  21.41500 -7.04700 25.68900
H  22.72500 -5.76300 25.85200
H  22.49200 -6.47900 24.32200
H  17.80000 -1.72900 22.12100
H  16.88700 1.08400 22.72500
H  19.50400 -0.53700 21.24100
H  20.11700 -0.33900 22.97000
H  19.08500 0.91300 22.16500
H  14.65400 -0.21000 23.05900
H  15.35600 -1.46500 22.12000
H  14.28000 1.18500 21.37000
H  14.17400 -0.35200 20.65400
H  15.66800 0.64800 20.40400
H  13.08000 3.14900 26.75100
H  14.32100 3.30000 25.49300
H  14.28900 4.33300 26.95800
H  15.22200 1.25600 31.63900
H  16.72300 4.47600 34.42300
H  17.04500 5.14700 32.83000
H  18.24700 4.04900 33.57000
Mg -2.76100 34.81000 26.57800
C  -4.22400 33.00800 28.98300
C  -1.71900 37.04800 28.84900
C  -1.27600 36.65800 24.12800
C  -3.90600 32.57800 24.13500
N  -3.05400 35.04700 28.78900
C  -3.62400 34.12000 29.56900
C  -3.39900 34.47600 31.01800
C  -2.89000 35.98400 30.96200
C  -2.56100 36.08100 29.44500
C  -3.92500 37.04300 31.45400
C  -2.40000 33.58700 31.71800
C  -2.94200 32.55500 32.76000
H  -2.15900 32.41200 34.07500
N  -1.59800 36.61900 26.49200
C  -1.26600 37.30600 27.56200
C  -0.40600 38.43300 27.20700
C  -0.43200 38.45200 25.80600
C  -1.10700 37.22400 25.38300
C  0.27000 39.34100 28.20300
C  0.32000 39.45200 24.93700
O  0.36000 39.31400 23.70700
C  0.91400 40.70500 25.53800
N  -2.57300 34.66700 24.36900
C  -1.97600 35.54000 23.55700
C  -1.80500 34.99500 22.15600
C  -2.52200 33.62100 22.31400
C  -3.11100 33.67800 23.68300
C  -2.16300 35.85400 20.85100
C  -1.70000 32.35100 21.91800
C  -0.33000 32.23900 22.67900
N  -3.96300 33.22200 26.49700
C  -4.38500 32.39300 25.44500
C  -5.20800 31.36400 25.94500
C  -5.16900 31.54500 27.27300
C  -4.41600 32.72700 27.61100
C  -5.96400 30.26700 25.21700
C  -5.61700 31.08100 28.57000
O  -6.39500 30.20100 28.74400
C  -4.94200 31.90600 29.70200
C  -5.93700 32.36200 30.68800
O  -6.62600 33.33100 30.55500
O  -6.02900 31.53300 31.78300
C  -6.89900 31.79100 32.92900
H  -1.48000 37.77900 29.62500
H  -0.75000 37.22100 23.35400
H  -4.10400 31.85500 23.34100
H  -4.37700 34.57300 31.49000
H  -1.93800 36.10200 31.47900
H  -3.74200 37.25600 32.50700
H  -4.88600 36.53000 31.43400
H  -3.96800 37.92700 30.81700
H  -1.66600 34.18100 32.26100
H  -1.77500 33.04400 31.01000
H  -3.12000 31.57400 32.31900
H  -3.95600 32.85900 33.01900
H  1.27600 39.53900 27.83100
H  0.26100 38.95800 29.22300
H  -0.21500 40.31600 28.23400
H  0.33700 41.17500 26.33400
H  0.98400 41.42900 24.72600
H  1.90700 40.49000 25.93200
H  -0.73900 34.78700 22.06200
H  -3.39300 33.56400 21.66000
H  -2.61700 36.80400 21.13200
H  -2.88500 35.25200 20.30000
H  -1.30000 36.05300 20.21500
H  -1.50600 32.35100 20.84600
H  -2.20200 31.41300 22.15600
H  -0.29500 32.97400 23.48400
H  0.39600 32.42100 21.88700
H  -0.28900 31.28500 23.20700
H  -5.38000 29.35100 25.12600
H  -6.18200 30.66400 24.22600
H  -6.97100 30.21000 25.63000
H  -4.24800 31.31300 30.29800
H  -6.37300 32.50900 33.55800
H  -7.17900 30.85100 33.40400
H  -7.82600 32.18000 32.50700

