158

Mg 42.69000 41.60400 27.05100
C  41.48000 43.81400 29.44000
C  43.63300 39.41700 29.51600
C  44.44500 39.80900 24.83600
C  42.20700 44.09100 24.57600
N  42.71000 41.78100 29.21800
C  42.04100 42.62800 29.98300
C  41.95400 42.14500 31.47400
C  42.71200 40.71700 31.46900
C  43.06200 40.59300 29.93900
C  44.05300 40.64900 32.25600
C  40.45500 42.01200 31.92400
C  39.97100 42.81800 33.14000
H  39.24200 41.90200 34.18600
N  43.74400 39.78500 27.15800
C  43.96900 38.98800 28.24900
C  44.67800 37.84500 27.86900
C  44.90200 37.90900 26.45600
C  44.37200 39.20600 26.12400
C  45.23300 36.81700 28.89200
C  45.57000 36.91400 25.50100
O  45.84800 37.14500 24.34600
C  45.84500 35.46800 25.94600
N  43.29800 42.01800 25.02700
C  43.89000 41.03900 24.37500
C  44.07300 41.29200 22.86800
C  43.07200 42.53700 22.71100
C  42.84700 42.94400 24.17300
C  45.53600 41.49800 22.38400
C  41.80800 42.21200 21.91800
C  41.19400 43.40800 21.07500
N  41.97900 43.56500 26.94500
C  41.88700 44.49300 25.88000
C  41.18600 45.61700 26.33600
C  40.98600 45.39900 27.76700
C  41.51800 44.18900 28.03500
C  40.80100 46.68200 25.47300
C  40.46400 45.96500 28.99400
O  39.83900 46.95600 29.18700
C  40.76000 45.00700 30.19600
C  41.69700 45.68700 31.14200
O  42.79100 46.08700 30.85700
O  41.14000 45.77400 32.39100
C  41.93200 46.19200 33.56700
H  43.78900 38.61400 30.24100
H  44.83900 39.16300 24.04900
H  41.78500 44.80700 23.86700
H  42.50700 42.78200 32.16400
H  42.09100 39.86900 31.75600
H  44.95900 40.64500 31.65000
H  44.10900 39.68900 32.76900
H  44.04700 41.42500 33.02200
H  40.18000 40.96800 32.07000
H  39.78500 42.23100 31.09200
H  39.32100 43.65000 32.86800
H  40.79600 43.26400 33.69600
H  45.51600 37.20000 29.87200
H  46.10300 36.24600 28.56600
H  44.51100 36.01800 29.06200
H  45.78200 34.74200 25.13500
H  45.01400 35.31000 26.63400
H  46.78100 35.39500 26.49900
H  43.69400 40.35300 22.46400
H  43.60800 43.44000 22.41800
H  45.62700 42.37700 21.74500
H  45.78400 40.66500 21.72600
H  46.17800 41.39800 23.25800
H  41.00300 41.92300 22.59400
H  41.91800 41.38800 21.21300
H  40.86700 43.00500 20.11700
H  41.94400 44.17300 20.87300
H  40.26400 43.77700 21.50600
H  40.29500 46.29000 24.59100
H  41.76300 47.09900 25.17200
H  40.17800 47.33000 26.09000
H  39.84000 44.72100 30.70400
H  41.52900 45.47200 34.27800
H  41.73400 47.18300 33.97600
H  43.00900 46.07900 33.44000
Mg 6.10700 53.21800 40.46000
C  5.94000 49.61100 40.33600
C  9.47700 52.95900 39.63300
C  6.08700 56.56000 39.56200
C  2.65800 53.30000 40.65600
N  7.50000 51.44800 40.04400
C  7.26000 50.07400 40.06800
C  8.51900 49.28700 39.87600
C  9.58900 50.45500 39.97200
C  8.80700 51.72100 39.82000
C  10.51600 50.42200 41.30100
C  8.63900 48.39300 38.62000
C  8.75200 49.16700 37.29500
H  7.64200 48.84900 36.35600
N  7.61400 54.56900 39.93700
C  8.96300 54.27700 39.68700
C  9.63300 55.51600 39.18300
C  8.75400 56.54500 39.35800
C  7.38800 55.95300 39.72400
C  11.09000 55.57300 38.78400
C  9.09300 58.07800 39.27100
O  10.22300 58.49400 38.90800
C  8.03000 59.05200 39.61200
N  4.49400 54.72200 39.92900
C  4.81800 56.04000 39.74900
C  3.57700 56.86300 39.90300
C  2.45000 55.78500 40.11700
C  3.23400 54.52600 40.35700
C  3.71400 57.86500 41.06100
C  1.40900 55.68500 38.94900
C  -0.05800 56.10100 39.28800
N  4.60700 51.76700 40.53500
C  3.26900 52.00200 40.67400
C  2.58600 50.74000 40.80000
C  3.56900 49.75500 40.70600
C  4.78400 50.42600 40.41700
C  1.21100 50.49600 41.24700
C  3.88700 48.41300 40.85500
O  3.21600 47.43800 41.14600
C  5.41800 48.19800 40.49100
C  5.42800 47.28400 39.30500
O  5.13200 47.65000 38.22500
O  5.78600 46.00300 39.57600
C  5.76300 45.17300 38.36200
H  10.53300 52.88400 39.36400
H  6.15200 57.57500 39.16400
H  1.58800 53.41100 40.84100
H  8.52000 48.73800 40.81700
H  10.26600 50.28000 39.13600
H  11.55900 50.41200 40.98200
H  10.21500 49.54400 41.87200
H  10.22600 51.27400 41.91600
H  7.75100 47.76600 38.69000
H  9.50300 47.73000 38.57000
H  9.70300 48.92700 36.81900
H  8.99700 50.22600 37.37000
H  11.21800 56.47500 38.18500
H  11.50200 54.77600 38.16500
H  11.70900 55.69400 39.67300
H  8.39200 60.05300 39.84600
H  7.56000 58.64100 40.50500
H  7.35700 59.08500 38.75500
H  3.40300 57.43700 38.99300
H  1.79700 55.87000 40.98600
H  4.07800 58.78900 40.61100
H  4.46000 57.39500 41.70200
H  2.76700 57.88800 41.60000
H  1.49500 54.68100 38.53100
H  1.83300 56.26300 38.12800
H  -0.74100 55.57000 38.62400
H  -0.13700 57.18200 39.39900
H  -0.12100 55.55100 40.22700
H  0.83600 51.42900 41.66800
H  1.23900 49.63700 41.91800
H  0.57400 50.26400 40.39400
H  5.73800 47.73500 41.42400
H  4.88900 45.36400 37.73800
H  5.78600 44.10500 38.57900
H  6.66400 45.36200 37.77900

