158

Mg 23.49900 -7.38800 46.57200
C  26.10900 -5.21800 45.53100
C  21.45100 -5.78900 44.43700
C  21.41200 -10.04800 46.78000
C  26.00000 -9.22200 48.35800
N  23.89400 -5.78900 45.04300
C  24.89700 -4.89400 44.96900
C  24.59800 -3.81300 43.91700
C  23.05200 -3.87100 43.84800
C  22.73700 -5.25000 44.44400
C  22.36100 -2.70100 44.74700
C  25.35500 -4.14200 42.50000
C  26.11100 -2.96600 41.94400
H  25.78100 -2.64100 40.52200
N  21.62700 -7.85400 45.82600
C  20.90900 -6.93200 45.06800
C  19.58600 -7.59200 44.94500
C  19.70900 -8.95600 45.36000
C  20.92800 -9.02500 45.97700
C  18.40400 -6.93200 44.37800
C  18.70900 -9.93900 45.08300
O  17.70000 -9.78000 44.39100
C  18.87000 -11.40500 45.52100
N  23.69700 -9.34200 47.40300
C  22.67200 -10.19200 47.42900
C  23.05000 -11.57400 48.11300
C  24.45200 -11.29400 48.70100
C  24.71400 -9.81800 48.15100
C  22.10100 -12.11400 49.20600
C  25.54100 -12.29100 48.34500
C  25.74000 -13.39400 49.42800
N  25.56600 -7.20300 47.04500
C  26.40900 -8.00500 47.80000
C  27.77900 -7.42300 47.81600
C  27.69300 -6.36400 46.86500
C  26.34500 -6.31200 46.44100
C  28.99000 -8.06100 48.45800
C  28.39200 -5.26100 46.32200
O  29.54900 -4.87300 46.51400
C  27.40800 -4.52900 45.33300
C  27.37400 -3.08800 45.74200
O  26.78700 -2.74300 46.78200
O  27.97500 -2.21600 44.82700
C  28.01600 -0.78800 45.33800
H  20.69400 -5.20000 43.91500
H  20.82500 -10.93300 47.03600
H  26.72800 -9.68700 49.02500
H  24.94400 -2.85200 44.29700
H  22.56800 -3.76100 42.87800
H  21.86800 -3.19300 45.58500
H  21.63500 -2.15400 44.14600
H  23.08900 -2.09000 45.28100
H  24.52200 -4.28600 41.81200
H  25.97100 -5.03300 42.62100
H  27.17500 -3.20100 41.98900
H  26.02100 -2.14800 42.65800
H  18.82100 -5.93800 44.21700
H  17.58000 -6.88500 45.08900
H  18.02700 -7.27900 43.41600
H  18.71800 -11.49000 46.59700
H  19.82500 -11.81800 45.19500
H  18.16000 -11.99100 44.93700
H  23.00100 -12.30400 47.30400
H  24.45100 -11.18100 49.78500
H  22.67400 -12.24900 50.12400
H  21.73000 -13.08000 48.86400
H  21.34200 -11.37900 49.47700
H  26.47400 -11.75300 48.18100
H  25.40400 -12.87200 47.43300
H  25.03700 -13.24600 50.24800
H  26.76700 -13.37700 49.79200
H  25.74700 -14.43500 49.10400
H  29.83700 -7.37900 48.52800
H  29.29500 -8.98500 47.96600
H  28.73400 -8.35600 49.47600
H  27.84500 -4.53100 44.33500
H  28.90000 -0.64400 45.95800
H  27.07700 -0.50400 45.81300
H  28.11900 -0.04200 44.55100
Mg -9.63100 39.56400 42.66000
C  -8.84000 36.35700 41.80200
C  -6.64700 40.56200 41.22000
C  -10.84600 42.67000 42.42000
C  -12.90500 38.45900 43.66600
N  -8.12400 38.58900 41.41400
C  -7.90900 37.26300 41.40000
C  -6.57400 36.94200 40.60300
C  -5.78400 38.26200 40.82400
C  -6.91300 39.24800 41.23600
C  -4.60700 38.15100 41.79100
C  -6.74200 36.37900 39.16500
C  -5.92200 35.14500 38.72600
H  -5.09200 35.34200 37.47300
N  -8.78700 41.39300 41.92000
C  -7.53100 41.65600 41.50300
C  -7.26900 43.06700 41.44700
C  -8.52400 43.71100 41.75400
C  -9.44900 42.57700 42.00100
C  -5.89900 43.54300 40.96500
C  -8.79800 45.22600 41.73700
O  -7.88700 45.98000 41.51200
C  -10.12500 45.81800 41.99300
N  -11.61900 40.39100 42.98600
C  -11.83700 41.72900 42.79000
C  -13.26900 42.15100 43.11200
C  -13.88000 40.84000 43.70300
C  -12.79800 39.81900 43.41000
C  -13.41600 43.36200 44.01400
C  -15.33700 40.34100 43.30100
C  -16.21900 39.73200 44.43500
N  -10.62000 37.76900 42.98100
C  -11.89800 37.48500 43.33800
C  -12.01600 36.06100 43.31200
C  -10.83400 35.59800 42.76700
C  -10.02600 36.66700 42.47900
C  -13.30000 35.35600 43.68300
C  -10.13100 34.38900 42.34800
O  -10.41600 33.18200 42.42300
C  -8.75500 34.87500 41.74600
C  -7.67300 34.29200 42.59200
O  -7.24300 34.82700 43.61100
O  -7.00300 33.27900 41.93000
C  -5.61400 33.18100 42.25300
H  -5.60500 40.84200 41.05000
H  -11.26100 43.67600 42.51200
H  -13.84900 38.18400 44.14000
H  -5.97400 36.16800 41.08000
H  -5.36600 38.48300 39.84200
H  -3.70400 38.21100 41.18400
H  -4.64100 37.27900 42.44400
H  -4.58400 39.06500 42.38400
H  -6.57100 37.12100 38.38500
H  -7.77900 36.09300 38.98800
H  -6.63300 34.32200 38.79500
H  -5.07900 34.91000 39.37600
H  -5.16200 43.35300 41.74400
H  -5.98400 44.59700 40.69900
H  -5.62800 43.05500 40.02800
H  -10.51200 45.54500 42.97500
H  -10.65500 45.40200 41.13700
H  -10.17300 46.86600 41.69600
H  -13.75800 42.42600 42.17800
H  -13.95800 40.98200 44.78100
H  -12.48300 43.59500 44.52700
H  -14.19300 43.07000 44.72000
H  -13.74900 44.23200 43.44800
H  -15.24300 39.48700 42.63100
H  -15.91700 41.14100 42.83900
H  -16.57800 38.73300 44.18700
H  -17.05500 40.42200 44.54200
H  -15.74000 39.61400 45.40800
H  -13.74400 35.72600 44.60700
H  -13.03400 34.32100 43.89500
H  -14.00300 35.25400 42.85700
H  -8.60800 34.49500 40.73500
H  -5.15500 34.06400 42.69700
H  -5.14200 32.72400 41.38300
H  -5.56100 32.36100 42.97000

