158

Mg 0.41000 7.88200 26.02000
C  0.90700 9.82500 28.99400
C  0.30000 5.10400 27.98900
C  0.14700 6.27100 23.24200
C  0.29700 11.00500 24.26800
N  0.51000 7.53800 28.30300
C  0.76700 8.46400 29.30300
C  0.76400 7.75100 30.65400
C  0.66600 6.24600 30.28500
C  0.48400 6.28200 28.77300
C  1.76500 5.30700 30.85000
C  -0.34400 8.24300 31.68200
C  0.16800 8.65600 33.13500
H  -0.55600 8.09200 34.42500
N  0.42900 6.01800 25.67700
C  0.30400 4.96800 26.57500
C  0.20600 3.69200 25.90200
C  0.11000 4.06700 24.48400
C  0.23700 5.49000 24.40300
C  0.10100 2.39100 26.60600
C  0.08200 3.08500 23.24000
O  0.24600 3.42000 22.09800
C  0.12400 1.60300 23.55200
N  0.50400 8.66600 23.96300
C  0.19500 7.68900 23.01400
C  0.04300 8.30200 21.58800
C  -0.21200 9.82600 21.95900
C  0.18200 9.85800 23.50300
C  1.34200 8.03000 20.78800
C  -1.66800 10.32400 21.75600
C  -1.77200 11.57600 20.87000
N  0.60800 9.94800 26.46600
C  0.58700 11.12300 25.65800
C  0.84000 12.32400 26.42300
C  1.01400 11.82100 27.68100
C  0.83400 10.41300 27.68900
C  0.90500 13.63100 25.85200
C  1.31300 12.19100 29.04500
O  1.56800 13.28000 29.55500
C  1.16000 10.94800 29.86100
C  2.27900 10.76600 30.74400
O  3.35300 10.17900 30.54000
O  1.92600 11.34000 31.97300
C  2.84800 10.97600 33.06800
H  0.16400 4.25200 28.65800
H  -0.08700 5.65000 22.37400
H  0.11100 11.90200 23.67300
H  1.75300 7.84700 31.10100
H  -0.16700 5.71500 30.74500
H  2.34000 5.81300 31.62600
H  2.51600 5.27400 30.06100
H  1.46400 4.30700 31.16300
H  -1.05600 7.42200 31.76300
H  -1.02200 8.96900 31.23400
H  0.04800 9.71900 32.92600
H  1.23200 8.46500 33.27900
H  -0.92500 2.06200 26.43500
H  0.37100 2.44800 27.66000
H  0.71800 1.65400 26.09200
H  0.22600 1.09900 22.59200
H  -0.72800 1.32700 24.17400
H  1.12000 1.45900 23.97300
H  -0.81200 7.85300 21.08300
H  0.50800 10.53500 21.55000
H  1.80800 8.96800 20.48700
H  0.96300 7.43000 19.96100
H  2.07400 7.55700 21.44400
H  -2.26600 10.51500 22.64600
H  -2.29700 9.58300 21.26200
H  -0.89000 11.62900 20.23200
H  -1.78700 12.45300 21.51700
H  -2.63300 11.39600 20.22600
H  0.58200 13.68100 24.81200
H  1.93200 13.98800 25.93700
H  0.17500 14.29300 26.31700
H  0.25700 11.17200 30.42900
H  2.23400 10.82500 33.95500
H  3.67300 11.68600 33.13600
H  3.26800 9.97400 32.98200
Mg -12.10600 16.40500 42.28900
C  -9.11700 14.67800 42.02700
C  -10.61300 19.06200 40.83300
C  -15.22600 17.82300 42.09700
C  -13.60100 13.30600 43.38000
N  -10.13200 16.65100 41.21100
C  -8.99300 15.91600 41.43400
C  -7.78500 16.58000 40.72900
C  -8.23600 18.05900 40.79200
C  -9.78700 17.96100 41.00700
C  -7.54200 18.95000 41.89500
C  -7.75500 16.02000 39.26500
C  -6.33200 15.65000 38.67500
H  -6.06100 16.25400 37.24500
N  -12.86300 18.17900 41.48800
C  -12.10200 19.15900 41.00400
C  -12.98400 20.28500 40.69300
C  -14.27300 19.95100 41.05000
C  -14.18500 18.62500 41.52100
C  -12.47300 21.56200 40.09100
C  -15.49600 20.86200 40.94200
O  -15.34200 22.00400 40.49300
C  -16.89900 20.38700 41.22300
N  -14.10100 15.58000 42.62100
C  -15.19400 16.46900 42.63500
C  -16.49600 15.79900 43.18100
C  -15.98600 14.38000 43.54000
C  -14.44400 14.41800 43.18600
C  -17.33700 16.53100 44.25100
C  -16.66100 13.14900 42.81100
C  -17.27800 12.10600 43.67300
N  -11.55100 14.43300 42.77900
C  -12.22800 13.25700 43.21200
C  -11.30200 12.18300 43.38500
C  -10.01200 12.72600 43.00100
C  -10.26700 14.06900 42.59200
C  -11.62300 10.73000 43.58300
C  -8.74100 12.33000 42.68200
O  -8.16900 11.22500 42.80000
C  -8.06300 13.61400 42.19200
C  -7.07700 13.94100 43.32100
O  -7.21400 13.62000 44.49000
O  -5.96300 14.51700 42.84100
C  -4.86000 14.93900 43.68700
H  -10.13900 20.02500 40.63400
H  -16.20500 18.29700 42.20000
H  -14.10800 12.42000 43.76600
H  -6.88900 16.26900 41.26600
H  -8.04700 18.63800 39.88800
H  -8.16700 19.21000 42.75000
H  -7.32300 19.86800 41.34900
H  -6.52600 18.58400 42.03900
H  -8.04000 16.82700 38.59100
H  -8.51900 15.24300 39.24400
H  -6.32400 14.56700 38.55100
H  -5.58800 15.85100 39.44600
H  -12.82300 21.62800 39.06100
H  -11.38700 21.62200 40.16500
H  -12.82500 22.47200 40.57500
H  -16.84100 19.44700 40.67400
H  -17.59500 21.12700 40.82900
H  -16.88300 20.27100 42.30700
H  -17.13300 15.69000 42.30300
H  -15.98800 14.17400 44.61100
H  -17.00100 17.56800 44.27100
H  -17.24200 16.00200 45.19900
H  -18.33500 16.68100 43.83900
H  -15.94000 12.72700 42.11100
H  -17.52800 13.54300 42.28100
H  -18.33000 12.30300 43.87900
H  -16.92900 12.11200 44.70500
H  -17.06100 11.09200 43.33700
H  -12.39500 10.66200 44.34900
H  -10.76100 10.09600 43.79100
H  -12.01200 10.32600 42.64900
H  -7.43400 13.45800 41.31600
H  -5.03100 14.86600 44.76100
H  -4.80800 15.98700 43.39400
H  -3.98100 14.39200 43.34600

