158

Mg 2.23900 -3.04800 44.95900
C  5.36100 -1.82100 44.00600
C  0.76800 -0.73300 42.81300
C  -0.76700 -4.54700 45.64000
C  3.86000 -5.75900 46.49200
N  3.08400 -1.56700 43.31200
C  4.37600 -1.15400 43.33600
C  4.53800 0.02100 42.25700
C  3.10600 0.42100 42.11000
C  2.24600 -0.70000 42.75300
C  2.87400 1.72200 42.85400
C  5.33100 -0.56800 40.97600
C  6.69000 -0.03100 40.58700
H  7.08400 0.23000 39.15900
N  0.27300 -2.64100 44.35600
C  -0.12600 -1.71100 43.39500
C  -1.58600 -1.65500 43.50100
C  -2.05700 -2.76500 44.22000
C  -0.84500 -3.38300 44.84500
C  -2.36400 -0.63700 42.64700
C  -3.48500 -3.12700 44.51200
O  -4.43100 -2.57900 43.92100
C  -3.86000 -4.19400 45.56800
N  1.59300 -4.88500 46.01100
C  0.34600 -5.32000 46.07500
C  0.24800 -6.70600 46.61100
C  1.69800 -7.08400 46.79000
C  2.47000 -5.81300 46.47000
C  -0.75500 -6.89100 47.78200
C  2.17500 -8.20200 45.77200
C  3.19300 -9.19000 46.37100
N  4.12900 -3.68000 45.27000
C  4.64000 -4.75600 45.95700
C  6.08300 -4.69100 46.03800
C  6.43400 -3.52200 45.37400
C  5.19700 -3.02700 44.79400
C  7.00300 -5.56100 46.80800
C  7.55000 -2.65900 44.94800
O  8.78700 -2.77800 45.05500
C  6.87600 -1.49100 44.08900
C  7.11700 -0.25300 44.93200
O  6.33400 0.21400 45.72500
O  8.35300 0.26800 44.69400
C  8.67800 1.60300 45.22400
H  0.29300 0.17300 42.43000
H  -1.57600 -5.24600 45.86100
H  4.42900 -6.61400 46.86500
H  5.14000 0.78000 42.75600
H  2.83600 0.49000 41.05600
H  3.20200 1.66800 43.89200
H  1.80300 1.85500 42.69900
H  3.41600 2.53800 42.37800
H  4.69300 -0.33500 40.12400
H  5.51800 -1.64200 40.98900
H  7.40600 -0.75500 40.97600
H  6.97300 0.78100 41.25800
H  -2.81400 0.06300 43.35100
H  -3.17700 -1.12700 42.11200
H  -1.73800 -0.05900 41.96700
H  -3.70400 -5.15400 45.07600
H  -4.90900 -3.93100 45.70200
H  -3.28400 -3.98900 46.47000
H  -0.20300 -7.21200 45.75800
H  1.90300 -7.34400 47.82800
H  -1.27300 -5.96900 48.04500
H  -0.19800 -7.18600 48.67100
H  -1.44700 -7.63100 47.38100
H  2.68500 -7.89600 44.85800
H  1.36600 -8.85900 45.45100
H  2.77700 -10.16700 46.61700
H  3.68100 -8.77800 47.25500
H  3.89900 -9.31300 45.55000
H  7.66800 -6.10200 46.13400
H  6.57900 -6.22000 47.56700
H  7.63300 -4.87100 47.36900
H  7.41100 -1.38200 43.14600
H  7.82100 2.20300 45.53200
H  9.30500 2.16200 44.52900
H  9.30000 1.36800 46.08700
Mg 0.94900 8.01900 26.58200
C  1.75200 9.94100 29.34200
C  0.87700 5.20600 28.54600
C  0.94500 6.07900 23.73700
C  1.43700 10.89800 24.61900
N  1.36200 7.59000 28.67800
C  1.55200 8.60800 29.59600
C  1.30800 8.05800 31.01000
C  1.27200 6.47400 30.70400
C  1.24000 6.42500 29.21800
C  2.56900 5.65900 31.12600
C  0.03900 8.67900 31.53400
C  -0.18100 8.67100 33.08600
H  0.95100 8.44700 34.13300
N  0.88500 5.96400 26.19000
C  0.83500 4.96500 27.16100
C  0.79900 3.62900 26.61700
C  0.71100 3.84200 25.19100
C  0.85500 5.30900 24.97500
C  0.82000 2.34000 27.36100
C  0.43000 2.90800 24.04200
O  0.45100 3.28500 22.88400
C  0.09800 1.42100 24.35900
N  0.94800 8.42800 24.48800
C  1.07100 7.48300 23.50800
C  1.29500 8.15100 22.11200
C  0.98200 9.65000 22.49400
C  1.17000 9.70000 24.00000
C  2.73700 7.92500 21.49900
C  -0.51100 10.13300 22.19400
C  -0.75100 11.16900 21.09800
N  1.42700 10.01800 26.85500
C  1.68200 11.07000 25.97500
C  2.07100 12.28400 26.68000
C  2.10500 11.88600 28.04700
C  1.77300 10.46400 28.06900
C  2.36100 13.62900 26.05100
C  2.37100 12.38200 29.40900
O  2.74500 13.48400 29.69100
C  2.08000 11.10000 30.35700
C  3.19000 11.03300 31.38400
O  4.21700 10.35600 31.17600
O  2.89000 11.77400 32.48500
C  3.84400 11.61600 33.54200
H  0.70000 4.34900 29.19900
H  1.00000 5.50600 22.80900
H  1.59200 11.81300 24.04300
H  2.23900 8.18200 31.56300
H  0.41600 5.94900 31.12900
H  2.29700 4.61400 31.27700
H  3.16200 6.11200 31.92100
H  3.18600 5.58200 30.23100
H  -0.67900 7.90900 31.25100
H  -0.14200 9.59500 30.97200
H  -0.99100 7.96900 33.28100
H  -0.72200 9.57700 33.35900
H  -0.05600 2.04600 27.93900
H  1.66700 2.42900 28.04200
H  0.95000 1.46900 26.71800
H  -0.49400 1.35500 25.27200
H  0.97600 0.79200 24.50100
H  -0.52100 1.23600 23.48100
H  0.63700 7.72000 21.35800
H  1.55400 10.28400 21.81700
H  3.30400 8.85400 21.42600
H  2.48300 7.55800 20.50500
H  3.25700 7.10200 21.98800
H  -0.85600 10.54800 23.14100
H  -1.04600 9.20200 22.00400
H  -1.26300 12.01900 21.54700
H  -1.36900 10.72300 20.31800
H  0.17100 11.44400 20.58600
H  3.33300 13.52400 25.56800
H  2.46200 14.40800 26.80700
H  1.53300 13.65700 25.34400
H  1.22800 11.37600 30.97900
H  4.67400 12.23100 33.19500
H  4.07900 10.58300 33.79900
H  3.49000 12.09300 34.45600

