158

Mg 2.61200 -0.61600 43.66500
C  6.21500 -0.07500 43.48600
C  2.15900 2.17600 41.88000
C  -0.46200 -1.72100 42.99000
C  3.48100 -3.92500 44.75000
N  4.10000 0.73400 42.67000
C  5.44500 0.83200 42.76900
C  5.95600 2.17000 42.25400
C  4.63500 3.01900 42.20600
C  3.53200 1.93300 42.20500
C  4.63200 4.13100 43.26600
C  6.77000 2.20300 40.97100
C  6.11900 1.53900 39.72900
H  6.21200 2.43500 38.47200
N  1.05200 0.14800 42.57700
C  0.99900 1.34800 42.01600
C  -0.31400 1.59900 41.54500
C  -1.16900 0.54500 41.91000
C  -0.19200 -0.41900 42.48800
C  -0.71900 2.86600 40.79300
C  -2.65100 0.41800 41.85100
O  -3.37500 1.16000 41.26100
C  -3.34100 -0.62000 42.65400
N  1.68300 -2.58200 43.66700
C  0.36200 -2.63700 43.59500
C  -0.25100 -4.00200 44.13600
C  1.05400 -4.74100 44.57000
C  2.16000 -3.71700 44.32200
C  -1.26300 -3.68600 45.30800
C  1.29800 -6.20300 44.05800
C  1.39300 -7.32400 45.16500
N  4.40900 -1.75400 44.22500
C  4.58900 -3.00900 44.76300
C  5.87400 -3.19500 45.30700
C  6.59100 -2.05400 44.74800
C  5.66400 -1.27900 44.10900
C  6.33100 -4.38800 46.06800
C  7.86400 -1.45300 44.66100
O  8.92000 -1.90000 45.08100
C  7.73300 -0.15700 43.77900
C  8.39400 1.00400 44.51700
O  9.37900 1.60600 44.05000
O  7.89600 1.10900 45.77300
C  8.45500 2.22600 46.63800
H  2.01000 3.23100 41.63800
H  -1.43500 -2.19700 42.85400
H  3.69000 -4.92000 45.14900
H  6.59200 2.61500 43.01800
H  4.58100 3.53800 41.24800
H  5.38700 4.03700 44.04600
H  3.64600 4.09700 43.72900
H  4.89300 5.05600 42.75000
H  7.75000 1.76600 41.16500
H  7.14100 3.20800 40.76600
H  5.05200 1.45700 39.93600
H  6.54000 0.54900 39.55600
H  -0.95200 2.62600 39.75500
H  0.06600 3.62200 40.78800
H  -1.59100 3.34400 41.23800
H  -4.17700 -0.03000 43.02900
H  -2.84200 -0.82700 43.60000
H  -3.59600 -1.49100 42.05000
H  -0.74500 -4.59000 43.36300
H  1.12800 -4.81100 45.65600
H  -1.60800 -2.67500 45.09200
H  -0.89600 -3.88500 46.31400
H  -2.17000 -4.28000 45.20100
H  2.18400 -6.11600 43.42900
H  0.43400 -6.51600 43.47200
H  2.34700 -7.84200 45.06400
H  0.64200 -8.10700 45.05500
H  1.21500 -6.89800 46.15200
H  7.03400 -4.85500 45.37900
H  5.53900 -5.08300 46.34800
H  6.82500 -4.15400 47.01100
H  8.42600 -0.25100 42.94300
H  9.43400 1.94100 47.02200
H  7.80400 2.35400 47.50400
H  8.47100 3.05000 45.92500
Mg 46.36500 35.60900 28.77300
C  44.57500 33.39700 30.89400
C  46.74900 37.76100 31.38100
C  47.13800 37.90000 26.57000
C  45.55300 33.39400 26.06800
N  45.74600 35.57300 30.81500
C  45.08300 34.52700 31.49300
C  45.28700 34.78900 33.04500
C  45.38900 36.32400 33.07500
C  46.08700 36.53300 31.75800
C  43.99600 37.03300 33.11400
C  46.56700 34.09800 33.68600
C  46.40100 33.60400 35.16100
H  45.67700 34.53300 36.08900
N  47.04500 37.51200 28.96600
C  47.21000 38.22500 30.14400
C  47.89600 39.38600 29.87800
C  48.03900 39.48500 28.45500
C  47.39500 38.27500 27.94400
C  48.67300 40.19300 30.84800
C  48.73300 40.56000 27.69200
O  48.66500 40.66700 26.44100
C  49.41700 41.70900 28.36500
N  46.10500 35.70900 26.63600
C  46.67200 36.75300 25.96100
C  46.41800 36.58000 24.42100
C  46.16200 35.03800 24.30000
C  45.88700 34.66300 25.75900
C  45.14200 37.33300 23.83600
C  47.41400 34.29100 23.88400
C  47.38600 33.47300 22.56500
N  45.30400 33.74100 28.46300
C  45.11700 33.00800 27.36000
C  44.50100 31.76300 27.78400
C  44.25600 31.84000 29.14200
C  44.78800 33.05900 29.54600
C  44.17400 30.60100 26.81300
C  43.73400 31.15800 30.35400
O  43.19800 30.06400 30.51700
C  43.76400 32.23300 31.45600
C  43.96500 31.57900 32.82400
O  45.00600 30.99100 33.15300
O  42.91300 31.89100 33.70700
C  42.95000 31.12100 34.95200
H  46.76300 38.49700 32.18700
H  47.58000 38.53300 25.79700
H  45.61800 32.72700 25.20500
H  44.42300 34.41900 33.59600
H  45.96300 36.67000 33.93500
H  44.18800 37.97000 32.59100
H  43.80900 37.26000 34.16400
H  43.15400 36.42500 32.78300
H  47.40500 34.79300 33.62000
H  46.70600 33.24400 33.02300
H  47.41200 33.48000 35.54800
H  45.88000 32.65000 35.24400
H  48.45600 39.88500 31.87000
H  48.47400 41.26200 30.92400
H  49.70700 39.98800 30.57100
H  48.61600 42.14100 28.96500
H  49.85800 42.30900 27.56900
H  50.20500 41.24800 28.96100
H  47.30100 36.89300 23.86400
H  45.27400 34.68700 23.77600
H  44.75000 38.05300 24.55500
H  44.33100 36.73400 23.42300
H  45.44100 37.91800 22.96600
H  47.75400 33.54400 24.60200
H  48.23700 35.00500 23.87400
H  46.63500 33.89900 21.90000
H  47.20900 32.45100 22.90100
H  48.34600 33.51200 22.05100
H  44.96500 30.43300 26.08300
H  43.24700 30.83700 26.29000
H  44.04900 29.75300 27.48600
H  42.72400 32.55600 31.40400
H  43.15000 30.07400 34.72500
H  41.95700 31.14800 35.40200
H  43.69700 31.41400 35.69000

