158

Mg 48.74100 45.94100 44.16900
C  45.50600 46.21500 42.81600
C  48.85800 42.86900 42.71200
C  51.95800 45.99900 44.80800
C  48.55300 49.41400 44.99300
N  47.29500 44.67200 42.94600
C  46.01000 44.92800 42.57500
C  45.47200 43.83900 41.58300
C  46.45400 42.69000 41.91800
C  47.62600 43.46500 42.56000
C  46.02500 41.55500 42.91500
C  45.58400 44.31700 40.05600
C  44.29400 44.48500 39.24100
H  44.03300 43.42400 38.21300
N  50.23300 44.57500 43.88500
C  50.07600 43.33400 43.31100
C  51.31400 42.57600 43.48900
C  52.31600 43.53400 43.98400
C  51.52600 44.76400 44.25000
C  51.52400 41.18700 42.97600
C  53.79700 43.32300 44.13600
O  54.19200 42.12700 44.00400
C  54.72400 44.30000 44.67100
N  50.02200 47.45700 44.91200
C  51.34100 47.20300 45.11600
C  52.22800 48.47800 45.34400
C  51.05000 49.57200 45.40400
C  49.81300 48.75700 45.12400
C  53.09400 48.44500 46.62900
C  51.22200 50.69400 44.33400
C  51.45800 52.05700 44.97200
N  47.33600 47.51900 44.15600
C  47.42300 48.86200 44.46600
C  46.14700 49.56500 44.13400
C  45.39900 48.53800 43.45200
C  46.18100 47.31000 43.42800
C  45.71500 50.96000 44.36100
C  44.11300 48.34600 42.72900
O  43.23800 49.15700 42.37300
C  44.13000 46.80400 42.33100
C  42.98100 46.14000 43.06300
O  42.81000 46.17200 44.30500
O  42.08200 45.59000 42.18700
C  41.08900 44.73500 42.81300
H  48.75600 41.80500 42.48900
H  53.04800 46.06000 44.84900
H  48.57100 50.48800 45.19000
H  44.45200 43.64200 41.91200
H  46.78500 42.23000 40.98700
H  45.67200 40.67300 42.38000
H  45.15500 41.88300 43.48400
H  46.79100 41.31800 43.65300
H  46.15000 43.52900 39.55900
H  46.20700 45.21100 40.07600
H  44.26900 45.45300 38.74100
H  43.41000 44.55200 39.87400
H  50.74700 40.99800 42.23500
H  51.46400 40.43500 43.76300
H  52.46400 41.19400 42.42300
H  55.77400 44.01100 44.64700
H  54.51600 44.44000 45.73200
H  54.70600 45.14000 43.97700
H  52.89200 48.58900 44.48700
H  50.95700 49.98500 46.40900
H  52.57100 48.91400 47.46300
H  53.88700 49.11000 46.28700
H  53.49100 47.45400 46.84800
H  50.32100 50.90300 43.75800
H  52.04500 50.39600 43.68400
H  52.51500 52.13800 45.22500
H  50.85800 52.11100 45.88100
H  51.12300 52.82400 44.27300
H  44.74800 50.87100 44.85700
H  45.79000 51.59500 43.47900
H  46.34500 51.40900 45.12800
H  43.94300 46.72900 41.25900
H  41.18300 43.71800 42.43400
H  40.09900 45.16100 42.65000
H  41.18600 44.68600 43.89700
Mg -10.24000 38.80300 42.20300
C  -8.51900 35.73000 41.61600
C  -7.85100 40.34300 40.43900
C  -12.51100 41.32300 41.88100
C  -12.84400 36.76300 43.50100
N  -8.49000 38.04100 40.95900
C  -7.95000 36.79500 40.87100
C  -6.66900 36.75800 40.04400
C  -6.38800 38.25200 39.98000
C  -7.61600 38.95100 40.52900
C  -5.10200 38.83900 40.69500
C  -6.80400 36.03700 38.63300
C  -5.67300 35.07900 38.27400
H  -4.70600 35.42700 37.16600
N  -10.14600 40.71600 41.32400
C  -9.06200 41.20200 40.68100
C  -9.29300 42.58800 40.44400
C  -10.63300 42.92900 40.82500
C  -11.18700 41.66800 41.43600
C  -8.31900 43.40500 39.58900
C  -11.31100 44.28200 40.66900
O  -10.73400 45.21700 40.10900
C  -12.64200 44.57200 41.32000
N  -12.25700 39.05600 42.67000
C  -12.99100 40.16800 42.45900
C  -14.46900 40.08100 42.91200
C  -14.57300 38.53000 43.34300
C  -13.12500 38.04800 43.13200
C  -14.69600 41.08800 44.04000
C  -15.55800 37.54900 42.52900
C  -16.46700 36.73500 43.49600
N  -10.57700 36.73000 42.64600
C  -11.63600 36.07600 43.29500
C  -11.24600 34.68600 43.50100
C  -9.99800 34.47100 42.84500
C  -9.69100 35.77100 42.34800
C  -12.00600 33.67300 44.25600
C  -9.00500 33.53400 42.52800
O  -8.91600 32.38100 42.73800
C  -7.94900 34.32900 41.69900
C  -6.59500 34.18100 42.36200
O  -5.90300 33.17100 42.42800
O  -6.19100 35.40900 42.78800
C  -4.96300 35.46700 43.60400
H  -7.05600 40.86300 39.90100
H  -13.29000 42.07300 41.72300
H  -13.73100 36.24400 43.87000
H  -5.85700 36.30500 40.61400
H  -6.34800 38.49600 38.91800
H  -5.38900 39.74200 41.23300
H  -4.37000 39.10600 39.93300
H  -4.59100 38.18000 41.39800
H  -6.70100 36.80900 37.87100
H  -7.72900 35.46000 38.61900
H  -6.09300 34.11700 37.97900
H  -5.02100 34.76400 39.08800
H  -8.91100 44.07700 38.96700
H  -7.73600 42.86000 38.84600
H  -7.75100 44.12800 40.17400
H  -12.81900 44.18100 42.32200
H  -13.19800 44.02400 40.55900
H  -12.90500 45.62200 41.19300
H  -15.13500 40.30300 42.07800
H  -14.77200 38.39600 44.40600
H  -14.84000 42.13100 43.75900
H  -13.88200 40.91800 44.74400
H  -15.65000 40.85700 44.51400
H  -15.04500 36.87600 41.84100
H  -16.14800 38.38600 42.15700
H  -16.52400 35.69500 43.17400
H  -17.45600 37.16300 43.66000
H  -16.00000 36.77900 44.48000
H  -11.50300 32.71000 44.33900
H  -12.99200 33.70200 43.79300
H  -12.11000 34.01200 45.28700
H  -8.00900 33.85100 40.72100
H  -4.58600 34.49900 43.93600
H  -5.14900 35.95400 44.56100
H  -4.15600 36.01700 43.12000

