158

Mg 42.83600 41.30100 26.24800
C  41.76600 43.57900 28.68600
C  44.03900 39.27000 28.58200
C  43.50300 39.29300 23.77300
C  41.51500 43.63300 23.80100
N  42.93600 41.46100 28.32300
C  42.31800 42.38300 29.16700
C  42.39700 42.01300 30.61200
C  43.39600 40.76200 30.49700
C  43.46800 40.42300 29.05200
C  44.78600 41.00000 31.08800
C  41.09200 41.81400 31.41900
C  40.91600 42.57400 32.69100
H  40.70500 41.75500 33.97100
N  43.87200 39.67000 26.14300
C  44.23400 38.89400 27.24100
C  44.80600 37.66400 26.83400
C  44.51100 37.53000 25.43400
C  43.95800 38.84400 25.01500
C  45.39800 36.72000 27.77700
C  44.64200 36.28500 24.48600
O  44.52600 36.35800 23.26600
C  45.18800 35.00400 25.09400
N  42.52500 41.49700 24.12000
C  42.89000 40.41300 23.34800
C  42.35200 40.45600 21.92800
C  41.78800 41.93300 21.93200
C  41.91300 42.39200 23.40000
C  43.34500 40.17600 20.83500
C  40.31000 41.99800 21.39300
C  40.16000 42.59600 19.94700
N  41.83700 43.21800 26.21800
C  41.54400 44.07100 25.11300
C  41.05100 45.38800 25.62700
C  41.07000 45.19000 27.04300
C  41.66600 43.93900 27.34000
C  40.54700 46.56900 24.97800
C  40.70500 45.87900 28.33900
O  40.24500 47.01500 28.58700
C  41.20900 44.82700 29.47000
C  42.26400 45.40700 30.34600
O  43.46700 45.41600 30.14500
O  41.62400 45.80800 31.51600
C  42.51400 46.41800 32.52000
H  44.16800 38.46300 29.30500
H  43.50500 38.46200 23.06500
H  41.10600 44.33400 23.07000
H  43.00700 42.76600 31.11100
H  43.03800 39.96000 31.14200
H  44.95800 40.66400 32.11000
H  45.04700 42.04800 30.94200
H  45.52400 40.50800 30.45500
H  41.16500 40.75700 31.67400
H  40.21800 41.92200 30.77600
H  40.14500 43.34400 32.68200
H  41.87000 43.02800 32.96000
H  44.69700 35.91900 28.01100
H  45.72300 37.18500 28.70800
H  46.34700 36.40300 27.34500
H  44.99200 34.16500 24.42600
H  44.53400 34.73100 25.92300
H  46.25700 35.05300 25.30000
H  41.61600 39.65400 21.86900
H  42.47100 42.60800 21.41500
H  42.86300 40.53600 19.92600
H  43.45400 39.10400 20.67200
H  44.35400 40.57400 20.94000
H  39.59400 42.44500 22.08300
H  39.94500 40.97100 21.38000
H  40.23600 41.70800 19.32000
H  40.95700 43.32200 19.78800
H  39.18900 43.06600 19.79200
H  41.38000 47.27200 24.96200
H  39.70000 46.99200 25.51700
H  40.28900 46.40700 23.93100
H  40.35700 44.49400 30.06200
H  42.19000 47.37800 32.92400
H  43.53000 46.52900 32.14200
H  42.47900 45.73700 33.37000
Mg 16.98900 51.59700 25.60500
C  18.57400 50.15200 28.45900
C  14.21800 52.08600 27.45100
C  15.58400 52.50400 22.86800
C  19.83400 50.54100 23.72500
N  16.57700 51.30500 27.73900
C  17.37100 50.75900 28.71700
C  16.73000 51.18500 30.11000
C  15.23200 51.40100 29.71000
C  15.26000 51.65000 28.20400
C  14.36400 50.10100 30.01200
C  17.28100 52.47000 30.81600
C  16.86900 52.89100 32.24100
H  15.81400 52.03500 33.01100
N  15.19300 52.28100 25.23000
C  14.14900 52.46500 26.12200
C  13.07400 53.13500 25.45700
C  13.48200 53.35700 24.14600
C  14.75200 52.73100 24.04200
C  11.61300 53.30000 25.97500
C  12.69500 54.05700 22.95400
O  13.10600 54.27900 21.82000
C  11.39500 54.62000 23.24300
N  17.72300 51.53500 23.56200
C  16.86000 51.95200 22.66900
C  17.41600 51.82400 21.24700
C  18.79900 51.22900 21.47300
C  18.85600 51.19600 23.01700
C  16.63500 50.89100 20.29000
C  20.04600 51.96500 20.86600
C  20.31600 53.34400 21.50500
N  18.91200 50.68400 25.95500
C  19.90500 50.26900 25.11100
C  20.93100 49.55700 25.87000
C  20.41100 49.46300 27.21400
C  19.22300 50.13700 27.21500
C  22.06300 48.87600 25.21800
C  20.70300 48.88400 28.46700
O  21.62400 48.20600 28.83200
C  19.61300 49.49000 29.42500
C  19.05500 48.51500 30.40400
O  18.38300 47.51300 30.10900
O  19.08900 49.06800 31.70800
C  18.55700 48.10900 32.66000
H  13.29900 52.17000 28.03500
H  15.10300 52.85700 21.95400
H  20.61100 50.13100 23.07800
H  16.84100 50.32900 30.77700
H  14.82700 52.34400 30.07900
H  13.76900 50.43800 30.86100
H  14.94700 49.23300 30.32100
H  13.79300 49.81800 29.12800
H  16.98400 53.32400 30.20800
H  18.37000 52.42300 30.79100
H  16.54100 53.92700 32.16400
H  17.75500 52.82700 32.87200
H  11.08800 54.25100 25.88700
H  11.76500 53.17800 27.04700
H  10.97800 52.53200 25.53300
H  11.46500 55.58500 23.74600
H  10.75600 53.85500 23.68300
H  10.96600 54.71200 22.24500
H  17.40400 52.85800 20.90400
H  18.87000 50.22600 21.05200
H  17.25800 50.33800 19.58800
H  15.86700 51.44000 19.74500
H  16.12300 50.11100 20.85300
H  19.85900 52.18300 19.81500
H  20.90800 51.30400 20.78700
H  20.30700 54.23700 20.88000
H  21.32100 53.27600 21.92200
H  19.59100 53.49800 22.30400
H  22.86800 49.61100 25.23600
H  21.93000 48.54800 24.18700
H  22.20200 47.99900 25.84900
H  20.11800 50.22300 30.05400
H  17.57100 47.82100 32.29700
H  18.42600 48.61600 33.61600
H  19.23400 47.25700 32.70800

