158

Mg 44.21800 3.70500 47.02500
C  41.76400 6.29200 46.74700
C  41.70200 1.40100 47.07200
C  46.56600 1.46700 46.80300
C  46.58200 6.38200 46.54300
N  42.04000 3.83200 46.75800
C  41.23700 4.96000 46.82400
C  39.72800 4.56900 46.68700
C  39.78400 3.14000 47.25400
C  41.26300 2.72800 47.06700
C  39.25800 2.92000 48.65300
C  39.24200 4.45900 45.19700
C  38.38000 5.58800 44.57300
H  38.97500 6.33300 43.36100
N  44.17300 1.64000 46.82900
C  43.05600 0.93100 46.95700
C  43.39100 -0.44600 47.11000
C  44.83100 -0.54400 47.08300
C  45.29200 0.84700 46.89600
C  42.49700 -1.51400 47.38000
C  45.65200 -1.74100 47.19900
O  45.16200 -2.83400 47.35900
C  47.17600 -1.79100 47.16500
N  46.24700 3.89600 46.65100
C  47.09800 2.80300 46.75000
C  48.54900 3.24300 46.84700
C  48.44500 4.71000 46.25000
C  47.03300 5.06000 46.56300
C  49.19000 3.07400 48.25100
C  48.71600 4.92600 44.75200
C  50.22800 4.65400 44.49900
N  44.25100 5.93900 46.81900
C  45.29100 6.84800 46.66600
C  44.76700 8.20800 46.65400
C  43.34600 8.04000 46.65300
C  43.14700 6.62600 46.74200
C  45.55400 9.48900 46.51200
C  42.03700 8.67600 46.52700
O  41.68000 9.84200 46.34800
C  41.02000 7.64700 46.67800
C  40.12800 7.73300 47.92100
O  40.51800 7.48100 49.04400
O  38.87200 8.08800 47.54300
C  37.91000 8.15200 48.61500
H  40.87900 0.69200 47.18600
H  47.40300 0.76600 46.81700
H  47.40900 7.09200 46.46600
H  39.09100 5.36600 47.07000
H  39.20700 2.34500 46.78200
H  38.72400 3.84000 48.88800
H  40.17800 2.73400 49.20800
H  38.52800 2.11000 48.64700
H  38.65900 3.54300 45.10800
H  40.12700 4.39200 44.56400
H  38.05200 6.41300 45.20400
H  37.49800 5.16400 44.09400
H  42.89000 -2.41800 46.91600
H  41.45500 -1.38800 47.08300
H  42.46300 -1.67000 48.45900
H  47.60600 -1.20400 47.97600
H  47.47600 -1.49000 46.16100
H  47.57300 -2.78700 47.36100
H  49.10400 2.57800 46.18600
H  49.05700 5.44300 46.77700
H  49.62500 4.03600 48.52100
H  50.03300 2.40400 48.08100
H  48.41700 2.73700 48.94100
H  48.73900 5.98900 44.50900
H  48.00800 4.45300 44.07100
H  50.85400 5.51800 44.72100
H  50.41400 4.34200 43.47200
H  50.60800 3.81500 45.08200
H  45.11300 10.34500 46.00200
H  46.61800 9.34000 46.33400
H  45.49600 9.80300 47.55500
H  40.34300 7.70200 45.82500
H  37.16000 7.41800 48.32100
H  37.40200 9.11700 48.61900
H  38.08700 7.93900 49.66900
Mg 47.17300 15.64700 28.44700
C  45.22800 15.53400 31.40900
C  49.36400 17.55000 29.90000
C  48.78500 15.88800 25.43800
C  44.64400 13.86800 26.87000
N  47.18800 16.50700 30.44000
C  46.38900 16.33400 31.51100
C  46.96000 17.05700 32.78600
C  48.08500 17.95300 32.14400
C  48.22900 17.37100 30.72500
C  47.68500 19.51200 32.15000
C  47.40300 16.07800 33.86700
C  47.29500 16.48900 35.36100
H  48.59500 16.28000 36.10700
N  48.95700 16.42600 27.83700
C  49.72700 17.20300 28.60800
C  50.97100 17.55300 27.86600
C  50.79800 17.01700 26.55600
C  49.48800 16.43500 26.58500
C  52.04900 18.39400 28.45400
C  51.80400 16.99100 25.49100
O  51.62100 16.52900 24.38400
C  53.29000 17.55600 25.66900
N  46.61700 15.25100 26.26700
C  47.53800 15.32600 25.23100
C  47.19900 14.43500 24.01800
C  45.72800 13.96000 24.45200
C  45.66200 14.34600 25.98900
C  47.39600 15.11000 22.75900
C  45.30000 12.48800 24.14300
C  45.78500 11.37700 25.03600
N  45.29500 14.97400 28.98100
C  44.40300 14.22500 28.22600
C  43.22600 13.82900 28.94800
C  43.55200 14.28100 30.24200
C  44.79500 14.93200 30.22500
C  42.08700 13.03500 28.45800
C  43.04200 14.36100 31.60100
O  42.09800 13.85200 32.13200
C  44.11500 15.25500 32.42700
C  43.42100 16.49100 32.91500
O  42.95800 17.38800 32.15300
O  43.24200 16.39000 34.23600
C  43.11900 17.70600 34.85800
H  50.01700 18.18600 30.50100
H  49.41400 15.94300 24.54700
H  43.93900 13.24800 26.31400
H  46.17900 17.75300 33.08900
H  49.04100 17.79100 32.64200
H  47.63400 19.81700 31.10500
H  48.52200 19.99600 32.65400
H  46.68900 19.74700 32.52300
H  48.45300 16.00600 33.58300
H  47.03300 15.05700 33.77400
H  46.52700 15.88900 35.84900
H  47.09100 17.55400 35.47100
H  51.85900 18.71400 29.47800
H  52.08500 19.31100 27.86600
H  52.95700 17.79100 28.49700
H  53.79900 17.06900 26.50000
H  53.13200 18.62600 25.80200
H  53.88500 17.40600 24.76700
H  47.84400 13.57500 24.19700
H  44.95900 14.62200 24.05400
H  46.48400 15.08100 22.16300
H  48.22800 14.63500 22.23900
H  47.79400 16.12000 22.85800
H  45.67100 12.36000 23.12600
H  44.21000 12.51400 24.13000
H  46.48400 11.74100 25.78900
H  46.34100 10.67800 24.41200
H  44.95600 10.93800 25.59000
H  41.56600 12.44200 29.20900
H  42.44900 12.35700 27.68500
H  41.29400 13.62900 28.00400
H  44.67500 14.73600 33.20600
H  43.38400 18.54700 34.21600
H  43.75100 17.78200 35.74200
H  42.12000 17.96800 35.20700

