158

Mg 26.94700 51.34800 26.36100
C  24.98800 52.09000 29.20100
C  29.32200 50.05400 28.70800
C  29.00600 50.67300 23.75000
C  24.64300 52.62100 24.27800
N  27.17700 51.05600 28.69300
C  26.17100 51.47600 29.57500
C  26.46700 50.98800 30.99700
C  28.03900 50.67800 30.87200
C  28.22900 50.58200 29.31000
C  29.01600 51.63500 31.57300
C  25.53700 49.87100 31.55400
C  25.02400 49.93700 32.99300
H  25.86400 50.64500 34.07800
N  28.91300 50.55300 26.21100
C  29.72300 50.03800 27.23600
C  30.91000 49.50400 26.71800
C  30.84700 49.81700 25.33100
C  29.57500 50.44000 25.03000
C  31.77800 48.64100 27.56800
C  31.90100 49.57500 24.35000
O  31.74300 49.91000 23.16500
C  33.12900 48.83900 24.64800
N  26.84300 51.56600 24.32800
C  27.76800 51.20900 23.39000
C  27.30200 51.34600 21.87300
C  25.81800 51.79400 22.07100
C  25.74400 52.08400 23.65400
C  28.18200 52.25800 21.05700
C  24.74500 50.75600 21.66400
C  23.49200 51.41600 21.01900
N  25.19100 52.24100 26.62000
C  24.36400 52.77200 25.66700
C  23.18600 53.33600 26.37300
C  23.44100 53.11500 27.75500
C  24.61000 52.42700 27.87200
C  21.99300 53.97600 25.62700
C  22.89000 53.41100 29.05700
O  21.91900 54.01000 29.41200
C  23.82300 52.57100 30.04300
C  24.23700 53.69000 30.97900
O  25.17600 54.33400 30.88900
O  23.32300 53.83900 31.95600
C  23.72100 54.73200 33.06700
H  29.93700 49.63800 29.50800
H  29.55500 50.47200 22.82700
H  23.81900 52.90000 23.61800
H  26.33500 51.89200 31.59200
H  28.17100 49.66100 31.24000
H  29.71300 51.86000 30.76600
H  29.38900 51.19300 32.49700
H  28.43100 52.50100 31.88500
H  26.15500 48.97300 31.55900
H  24.78200 49.83400 30.76800
H  24.79900 48.93600 33.36100
H  24.04800 50.40100 32.85100
H  32.68100 49.24900 27.52200
H  31.84100 47.67200 27.07100
H  31.49800 48.46000 28.60500
H  33.77200 48.75400 23.77200
H  32.72500 47.86000 24.90600
H  33.63200 49.34600 25.47200
H  27.33200 50.33700 21.46100
H  25.59700 52.77700 21.65500
H  28.71300 52.93700 21.72400
H  27.58300 52.68100 20.25100
H  28.95700 51.67200 20.56300
H  24.39000 50.22400 22.54700
H  25.14500 50.02100 20.96600
H  23.58700 51.60100 19.94900
H  23.42100 52.43900 21.38900
H  22.55000 50.97200 21.34100
H  21.73800 53.32600 24.79000
H  22.23200 54.97100 25.25400
H  21.22100 54.02400 26.39600
H  23.20400 51.98900 30.72600
H  23.85600 55.73200 32.65700
H  24.57500 54.35700 33.63200
H  22.86700 54.71300 33.74300
Mg -11.91400 16.14200 42.66600
C  -8.88000 14.79200 42.16400
C  -10.88300 19.15900 41.19600
C  -15.08500 17.31000 42.69600
C  -13.04300 13.10200 43.84800
N  -10.10000 16.91800 41.72800
C  -8.94400 16.16100 41.70600
C  -7.79800 17.05500 41.15400
C  -8.40600 18.46300 40.97600
C  -9.89800 18.23400 41.45700
C  -7.63500 19.62500 41.68900
C  -7.13000 16.52900 39.87900
C  -5.60200 16.38600 39.99500
H  -5.07100 15.24300 39.09300
N  -12.86100 17.96700 42.14200
C  -12.27600 19.08900 41.53500
C  -13.29900 20.02300 41.09100
C  -14.53500 19.47200 41.52400
C  -14.18300 18.23000 42.17700
C  -13.02900 21.29400 40.31400
C  -15.91700 20.13900 41.18600
O  -15.92000 21.20500 40.63000
C  -17.21800 19.56900 41.62100
N  -13.77300 15.34000 43.33200
C  -14.98900 15.95800 43.16200
C  -16.21700 14.99600 43.59500
C  -15.46600 13.82100 44.15400
C  -14.00500 14.06100 43.71700
C  -17.35100 15.62600 44.46600
C  -16.00800 12.49400 43.57200
C  -15.99000 11.24100 44.51300
N  -11.14600 14.29900 42.95300
C  -11.68000 13.16200 43.46900
C  -10.69200 12.13300 43.56500
C  -9.51900 12.75900 43.14000
C  -9.92000 14.01400 42.71900
C  -10.92900 10.77500 44.13900
C  -8.11000 12.55600 42.91700
O  -7.35200 11.54100 43.08900
C  -7.61800 13.86800 42.40700
C  -6.79500 14.43300 43.44400
O  -7.19800 15.21500 44.29600
O  -5.47400 14.11000 43.23400
C  -4.55000 14.63300 44.27900
H  -10.65800 20.19800 40.94600
H  -16.12900 17.63100 42.66000
H  -13.54100 12.23400 44.28700
H  -7.04800 17.02600 41.94400
H  -8.37300 18.76500 39.92900
H  -7.04400 19.12600 42.45600
H  -8.39400 20.18300 42.23700
H  -7.05700 20.28000 41.03700
H  -7.19100 17.25400 39.06700
H  -7.49400 15.55600 39.54800
H  -5.34100 16.14900 41.02600
H  -5.13600 17.34200 39.75500
H  -13.24100 22.19100 40.89600
H  -13.71800 21.22000 39.47200
H  -12.00200 21.42500 39.97300
H  -17.35900 18.63400 41.07900
H  -17.95500 20.35400 41.45500
H  -17.13500 19.36000 42.68800
H  -16.71700 14.86800 42.63500
H  -15.48000 13.74700 45.24100
H  -18.18100 16.01700 43.87800
H  -17.08400 16.45200 45.12500
H  -17.79000 14.89300 45.14200
H  -15.56100 12.37800 42.58500
H  -17.07100 12.51000 43.33100
H  -15.71500 10.36600 43.92300
H  -16.86500 10.99300 45.11300
H  -15.16400 11.44500 45.19400
H  -10.12400 10.58200 44.84800
H  -10.93200 10.16600 43.23500
H  -11.89500 10.64200 44.62400
H  -6.99800 13.72500 41.52100
H  -4.36700 15.70700 44.31600
H  -3.59100 14.11600 44.23500
H  -4.98500 14.32000 45.22900

