158

Mg -2.35500 34.71200 26.64200
C  -3.42000 32.99800 29.56400
C  -1.08400 37.02600 28.61100
C  -2.14100 36.57800 23.91300
C  -4.20100 32.26200 24.73900
N  -2.17400 34.89900 28.83700
C  -2.63000 34.08400 29.83000
C  -2.18500 34.59000 31.23700
C  -1.43300 35.89700 30.82000
C  -1.62000 35.99100 29.34400
C  -1.77600 37.22500 31.61600
C  -1.38400 33.49700 32.06600
C  -1.96300 33.05100 33.46200
H  -1.03800 33.02800 34.66300
N  -1.50500 36.34100 26.26400
C  -1.03100 37.22700 27.17500
C  -0.34200 38.38300 26.60300
C  -0.74100 38.34700 25.21500
C  -1.50500 37.05300 25.05400
C  0.31900 39.40900 27.47300
C  -0.44400 39.32700 24.08200
O  -0.86900 39.27300 22.92500
C  0.50400 40.46500 24.42800
N  -3.13500 34.47100 24.60800
C  -2.96600 35.45300 23.74300
C  -3.64000 35.08300 22.38900
C  -3.99200 33.52000 22.56000
C  -3.72400 33.33900 24.06300
C  -4.86700 35.95800 21.90300
C  -3.20000 32.53600 21.67500
C  -1.90300 32.02400 22.24500
N  -3.52500 33.05500 27.01700
C  -4.14900 32.11100 26.14100
C  -4.78100 31.12500 26.93600
C  -4.52300 31.46600 28.25400
C  -3.72600 32.60400 28.24600
C  -5.50700 29.89800 26.47100
C  -4.80200 31.01700 29.56900
O  -5.44400 30.09100 29.99900
C  -4.01900 32.00300 30.47100
C  -4.95700 32.68000 31.29000
O  -5.78800 33.46400 30.84800
O  -5.03600 32.21700 32.59700
C  -5.96600 32.81000 33.52400
H  -0.62500 37.75900 29.27800
H  -2.19500 37.21500 23.02800
H  -4.71900 31.47000 24.19500
H  -3.11700 34.87000 31.72700
H  -0.38200 35.67500 31.00600
H  -0.90100 37.69900 32.06100
H  -2.43500 37.09100 32.47400
H  -2.15600 38.02100 30.97600
H  -0.36200 33.86200 32.16500
H  -1.30900 32.57400 31.49000
H  -2.43600 32.07600 33.34200
H  -2.84700 33.66200 33.64500
H  1.31500 39.04800 27.73100
H  -0.27300 39.59900 28.36800
H  0.43800 40.36100 26.95500
H  0.89800 40.90800 23.51300
H  1.30100 39.90900 24.92200
H  -0.12700 41.12100 25.02600
H  -2.83100 35.14300 21.66100
H  -5.05500 33.43700 22.33300
H  -5.11700 36.77900 22.57500
H  -5.73200 35.30600 21.78300
H  -4.76800 36.27100 20.86400
H  -2.93700 32.98100 20.71500
H  -3.83800 31.65300 21.71400
H  -1.59900 32.45700 23.19800
H  -1.03800 32.14100 21.59200
H  -1.97200 30.96000 22.47100
H  -5.20500 29.05200 27.08800
H  -5.12000 29.77500 25.45900
H  -6.56500 30.11300 26.31700
H  -3.20300 31.49600 30.98600
H  -6.49900 33.69900 33.18700
H  -5.38000 33.05500 34.40900
H  -6.71200 32.02700 33.66600
Mg -5.01500 25.23700 26.49100
C  -3.50600 26.86000 29.03700
C  -6.54700 23.09400 28.65700
C  -6.54400 23.59800 23.80900
C  -3.65200 27.48800 24.25700
N  -4.93700 24.96300 28.55200
C  -4.45100 25.88900 29.45300
C  -4.81600 25.48100 30.90000
C  -5.58800 24.14000 30.68800
C  -5.72600 24.10100 29.18300
C  -4.73400 22.96200 31.27500
C  -5.58800 26.68400 31.56700
C  -5.86700 26.69900 33.11200
H  -5.55700 25.41700 33.91800
N  -6.29100 23.53000 26.29500
C  -6.79000 22.84600 27.33300
C  -7.62400 21.72200 26.83300
C  -7.76700 21.87200 25.46300
C  -6.81800 22.99500 25.11600
C  -8.30200 20.70800 27.69900
C  -8.53200 21.09400 24.41600
O  -8.42300 21.42600 23.27200
C  -9.59000 20.04600 24.91700
N  -5.07600 25.53900 24.28900
C  -5.91200 24.81700 23.45900
C  -5.77300 25.30500 22.06000
C  -4.84900 26.66000 22.21500
C  -4.50700 26.55900 23.65900
C  -5.26300 24.40900 20.86500
C  -5.54800 27.96200 21.80200
C  -5.07600 28.54300 20.41700
N  -3.73800 26.70200 26.55000
C  -3.23300 27.53800 25.59500
C  -2.29800 28.49700 26.16100
C  -2.34100 28.24500 27.49600
C  -3.24700 27.15100 27.66200
C  -1.39900 29.54100 25.48000
C  -1.78900 28.66400 28.73800
O  -0.85000 29.46300 29.00700
C  -2.62900 27.83600 29.80900
C  -2.00200 27.19700 30.95600
O  -1.24000 26.26500 30.85600
O  -2.36800 27.88700 32.12700
C  -1.89200 27.22000 33.27800
H  -7.12900 22.55300 29.40600
H  -6.87700 23.14200 22.87400
H  -3.30300 28.35100 23.68500
H  -3.90500 25.27800 31.46300
H  -6.55300 24.28100 31.17500
H  -5.29400 22.39300 32.01600
H  -3.74500 23.18000 31.67800
H  -4.47200 22.35100 30.41100
H  -6.47000 26.87500 30.95600
H  -4.96400 27.56900 31.43800
H  -6.90500 26.99500 33.26400
H  -5.34400 27.58000 33.48500
H  -7.94100 19.70600 27.47000
H  -9.37000 20.79900 27.49800
H  -8.21100 20.83500 28.77800
H  -9.31800 19.23400 25.59000
H  -10.15700 19.72300 24.04300
H  -10.32900 20.68400 25.40200
H  -6.78700 25.59000 21.77800
H  -3.92800 26.48000 21.66100
H  -4.22700 24.50000 20.53800
H  -5.93000 24.76400 20.08000
H  -5.52400 23.35500 20.95400
H  -5.36200 28.71900 22.56400
H  -6.57700 27.60500 21.84800
H  -4.34800 29.30700 20.68900
H  -5.89000 28.99700 19.85100
H  -4.57500 27.76600 19.84100
H  -1.58700 29.49000 24.40800
H  -0.35000 29.33100 25.68900
H  -1.78300 30.52400 25.75400
H  -3.38800 28.50100 30.22100
H  -1.04700 27.74400 33.72400
H  -1.60600 26.18100 33.11400
H  -2.71700 27.09200 33.98000

