158

Mg 1.14200 7.74900 26.76400
C  1.65200 9.81700 29.67700
C  1.40000 5.02900 28.85200
C  1.42500 5.77700 24.10100
C  1.16400 10.55600 24.78700
N  1.45400 7.50200 29.00100
C  1.49600 8.48200 30.03900
C  1.38400 7.83700 31.45300
C  1.57400 6.35200 31.08800
C  1.50300 6.27100 29.55800
C  2.81700 5.61500 31.67100
C  0.03600 8.23100 32.18800
C  0.14600 8.41700 33.69600
H  1.34600 7.80100 34.52700
N  1.18300 5.70700 26.50800
C  1.30400 4.76000 27.47100
C  1.43200 3.42300 26.85100
C  1.32100 3.62300 25.46300
C  1.25900 5.04400 25.25600
C  1.72200 2.09900 27.56900
C  1.20000 2.53500 24.36700
O  0.98900 2.88800 23.21800
C  1.14500 1.05000 24.59500
N  1.09800 8.12600 24.69600
C  1.26300 7.12800 23.81900
C  1.39600 7.72800 22.40300
C  0.84100 9.23600 22.51900
C  1.06300 9.37600 24.05700
C  2.72400 7.48900 21.64800
C  -0.69400 9.37100 22.30000
C  -1.14700 10.49200 21.31800
N  1.41700 9.78700 27.08800
C  1.40900 10.85000 26.14400
C  1.68300 12.09100 26.86200
C  1.74100 11.72000 28.20900
C  1.57000 10.31100 28.34600
C  1.86600 13.46700 26.26100
C  2.08900 12.25300 29.53500
O  2.55600 13.36600 29.83900
C  1.87000 11.03400 30.55300
C  3.00200 11.00700 31.47500
O  3.96300 10.22700 31.31400
O  2.83500 11.89300 32.48000
C  3.73900 11.62400 33.63200
H  1.51700 4.18200 29.53200
H  1.53000 5.21700 23.17000
H  1.15500 11.52000 24.27400
H  2.21300 8.32500 31.96500
H  0.72700 5.84000 31.54500
H  2.34700 4.82700 32.26000
H  3.35300 6.39700 32.20900
H  3.36600 5.13600 30.86100
H  -0.59400 7.34900 32.07100
H  -0.37600 9.15100 31.77600
H  -0.72700 8.16700 34.29900
H  0.25300 9.48800 33.86600
H  0.76200 1.72100 27.92100
H  2.18800 2.29800 28.53400
H  2.41100 1.47200 27.00500
H  2.15200 0.67800 24.78400
H  0.79600 0.46700 23.74300
H  0.54200 0.88900 25.48800
H  0.69600 7.23700 21.72800
H  1.43700 9.92200 21.91700
H  3.16700 8.30000 21.07100
H  2.60000 6.64100 20.97300
H  3.46000 7.04600 22.31900
H  -1.25500 9.58200 23.21000
H  -1.11500 8.45300 21.88900
H  -2.06100 10.22600 20.78600
H  -0.39300 10.74500 20.57300
H  -1.37600 11.40000 21.87500
H  1.63100 13.33800 25.20400
H  2.87300 13.86900 26.37600
H  1.15200 14.13200 26.74600
H  0.86800 11.14900 30.96800
H  3.35200 12.40000 34.29300
H  4.74300 11.86600 33.28200
H  3.73400 10.57400 33.92200
Mg -9.93100 39.55300 39.97600
C  -9.14400 36.15600 39.42700
C  -6.69200 40.33200 38.86000
C  -10.53600 42.77400 40.37200
C  -13.23100 38.72200 40.46100
N  -8.14800 38.44600 39.30000
C  -8.10600 37.06500 39.12700
C  -6.65400 36.57700 38.80600
C  -5.89200 37.90500 38.94400
C  -6.97100 38.99800 39.05800
C  -4.83600 38.12200 40.16400
C  -6.33800 35.84200 37.41100
C  -6.84400 36.59000 36.15000
H  -8.07000 36.11900 35.37200
N  -8.79600 41.31000 39.65400
C  -7.54900 41.40200 39.12900
C  -7.18900 42.77400 38.91200
C  -8.29000 43.55900 39.40700
C  -9.29900 42.58100 39.83400
C  -5.90500 43.34100 38.32500
C  -8.39500 45.10400 39.51500
O  -7.52900 45.75800 38.99300
C  -9.53500 45.87600 40.15000
N  -11.66700 40.54900 40.43600
C  -11.62300 41.88600 40.60000
C  -13.05800 42.46100 40.77100
C  -13.92700 41.13000 40.88200
C  -12.89900 40.10000 40.50800
C  -13.12400 43.45000 42.03500
C  -15.22900 40.96300 40.06200
C  -16.48000 40.71400 40.88600
N  -11.04200 37.82100 40.03300
C  -12.36900 37.62900 40.33500
C  -12.63100 36.20300 40.24900
C  -11.37900 35.60300 39.94800
C  -10.45400 36.60100 39.82900
C  -14.06400 35.70200 40.44000
C  -10.70900 34.31900 39.66800
O  -11.19400 33.15900 39.58800
C  -9.19600 34.65300 39.25300
C  -8.27400 33.85000 40.15900
O  -8.47700 33.58700 41.28600
O  -7.11400 33.54700 39.58800
C  -5.99700 32.91600 40.34200
H  -5.71000 40.68500 38.53700
H  -10.67100 43.82600 40.63200
H  -14.25100 38.39800 40.67900
H  -6.44800 35.96800 39.68600
H  -5.36800 37.88900 37.98900
H  -3.86100 38.31900 39.71800
H  -4.64700 37.20700 40.72500
H  -5.05500 38.91900 40.87400
H  -6.90200 34.91400 37.50500
H  -5.26500 35.67400 37.32000
H  -5.97600 36.41000 35.51600
H  -6.98000 37.64000 36.40700
H  -6.02200 43.57500 37.26700
H  -5.03100 42.70400 38.45900
H  -5.54800 44.25200 38.80600
H  -9.68800 45.55200 41.17900
H  -10.50100 45.65600 39.69400
H  -9.28800 46.93500 40.22200
H  -13.39800 43.11600 39.96900
H  -14.29500 40.91900 41.88500
H  -12.16500 43.66200 42.51000
H  -13.89300 43.17200 42.75600
H  -13.50600 44.39200 41.64100
H  -15.18900 40.21400 39.27100
H  -15.38900 41.93900 39.60200
H  -16.33300 39.80400 41.46700
H  -17.37900 40.45300 40.32600
H  -16.76000 41.53800 41.54200
H  -14.58800 36.13800 41.29000
H  -13.85500 34.64700 40.61900
H  -14.60200 35.88800 39.51100
H  -9.05400 34.22600 38.26100
H  -5.24300 32.70900 39.58200
H  -6.37300 31.94900 40.67500
H  -5.58600 33.49700 41.16800

