158

Mg 24.53900 1.35900 29.87100
C  26.82900 0.98700 32.54700
C  22.07100 1.69700 32.18300
C  22.40900 1.19100 27.37800
C  27.13300 0.77700 27.65100
N  24.46700 1.34700 32.16500
C  25.53800 1.28200 33.03400
C  25.03400 1.61500 34.48500
C  23.47300 1.76200 34.31700
C  23.29400 1.56600 32.81000
C  22.56100 0.80200 35.24800
C  25.84300 2.90300 35.04200
C  26.53800 2.71600 36.36600
H  26.12200 3.57600 37.55000
N  22.56200 1.38700 29.77000
C  21.71800 1.58200 30.88300
C  20.30800 1.58600 30.38100
C  20.40900 1.26200 28.96400
C  21.85500 1.25400 28.63900
C  19.07600 1.85300 31.22500
C  19.25300 0.96200 28.00800
O  19.51000 0.49800 26.88100
C  17.74800 1.14700 28.37600
N  24.73700 0.93200 27.80400
C  23.71200 1.09600 26.99200
C  24.14500 1.28900 25.46600
C  25.74600 1.15000 25.60200
C  25.87800 1.00000 27.11500
C  23.43000 0.36700 24.41900
C  26.52200 2.39100 25.09000
C  26.49000 3.75000 26.00000
N  26.57000 0.83500 30.04200
C  27.51400 0.63900 29.04800
C  28.79500 0.44600 29.59800
C  28.60900 0.54500 30.95900
C  27.20200 0.80200 31.21700
C  30.10900 0.29400 28.80800
C  29.27000 0.59100 32.17900
O  30.46000 0.44700 32.29500
C  28.16500 0.84200 33.29100
C  28.17500 -0.22800 34.31200
O  27.94500 -1.42200 34.01800
O  28.46800 0.20900 35.58400
C  28.48700 -0.87100 36.61100
H  21.22900 1.91600 32.84300
H  21.75900 1.13300 26.50200
H  27.89700 0.70500 26.87300
H  25.36300 0.78200 35.10500
H  23.23700 2.77500 34.64100
H  22.61200 1.23000 36.24900
H  22.96100 -0.21200 35.25200
H  21.51500 0.72100 34.95400
H  24.99100 3.58100 35.10300
H  26.40600 3.29600 34.19600
H  27.60600 2.93800 36.37200
H  26.50000 1.65600 36.61700
H  18.60300 0.88100 31.36500
H  18.50800 2.60700 30.67800
H  19.32400 2.30600 32.18500
H  17.51900 0.62900 29.30800
H  17.09500 0.96500 27.52300
H  17.70800 2.22800 28.51400
H  23.78600 2.28000 25.18700
H  26.00800 0.23200 25.07500
H  22.77300 0.83900 23.68900
H  22.77700 -0.23700 25.04900
H  24.20900 -0.27400 24.00700
H  26.22100 2.58000 24.05900
H  27.55200 2.03500 25.06900
H  25.86000 3.53100 26.86200
H  26.01500 4.55300 25.43500
H  27.50100 4.10800 26.19800
H  29.73700 -0.39900 28.05400
H  30.75600 -0.35200 29.40100
H  30.70000 1.16500 28.52500
H  28.37400 1.81100 33.74400
H  28.64300 -0.35100 37.55600
H  29.37900 -1.47000 36.42900
H  27.60300 -1.50600 36.65000
Mg 1.10100 42.05500 25.53200
C  3.49100 41.97200 28.17800
C  -1.27100 41.46500 27.97600
C  -1.24600 42.08700 23.17400
C  3.58300 42.57200 23.37900
N  1.17600 41.69500 27.78600
C  2.19800 41.80400 28.63700
C  1.76900 41.86900 30.11900
C  0.32400 41.24000 29.99500
C  0.02200 41.44100 28.44900
C  0.16800 39.76400 30.59100
C  1.77600 43.29500 30.78600
C  2.14600 43.19700 32.26700
H  0.99800 43.58100 33.13800
N  -1.02300 41.72000 25.58400
C  -1.80100 41.56800 26.68100
C  -3.21600 41.57500 26.29400
C  -3.24200 41.60400 24.84000
C  -1.79600 41.79900 24.45700
C  -4.38800 41.45400 27.27800
C  -4.46600 41.60000 23.97500
O  -4.37000 41.69800 22.77900
C  -5.80800 41.53200 24.55200
N  1.19600 42.12900 23.59500
C  0.08500 42.10900 22.78800
C  0.49600 42.34600 21.34600
C  1.98100 42.85900 21.44900
C  2.36200 42.47300 22.89600
C  0.32800 41.16200 20.39400
C  2.11700 44.43400 21.36200
C  2.63200 44.96500 19.99900
N  3.14200 42.21200 25.68900
C  4.05300 42.51000 24.71000
C  5.42700 42.63100 25.20800
C  5.21600 42.42000 26.61700
C  3.83400 42.22900 26.80500
C  6.67000 42.71400 24.33000
C  5.87700 42.31000 27.90100
O  7.13400 42.35600 28.09100
C  4.74300 42.27000 28.94700
C  4.96300 41.29700 29.97700
O  5.07700 40.08000 29.79400
O  4.88200 41.91000 31.18500
C  5.11900 41.05000 32.36700
H  -1.94600 41.21000 28.79600
H  -2.04100 42.25600 22.44500
H  4.38900 42.65800 22.64700
H  2.44800 41.15700 30.58800
H  -0.43300 41.82500 30.51800
H  0.95700 39.38500 31.23900
H  0.45500 39.07900 29.79400
H  -0.82300 39.58000 31.00600
H  0.78300 43.71900 30.63500
H  2.41800 43.97800 30.22900
H  2.88900 43.97500 32.44400
H  2.57700 42.23500 32.54700
H  -4.89200 42.39500 27.49900
H  -3.96400 41.04700 28.19500
H  -5.11000 40.67300 27.04100
H  -6.50100 41.54600 23.71000
H  -6.06600 42.41600 25.13500
H  -5.94700 40.65400 25.18300
H  -0.08300 43.13500 20.86500
H  2.73200 42.34600 20.84900
H  1.18100 41.01700 19.73100
H  -0.63100 41.24300 19.88300
H  0.31600 40.33200 21.10000
H  2.74300 44.76500 22.19000
H  1.13600 44.88100 21.52200
H  1.83300 45.54600 19.53900
H  3.05400 44.13600 19.43100
H  3.39400 45.70300 20.25200
H  6.56100 43.67200 23.82100
H  6.58700 41.83500 23.69100
H  7.53700 42.64800 24.98700
H  4.72700 43.27200 29.37400
H  6.10700 41.32400 32.73600
H  5.17300 39.98700 32.12900
H  4.37800 41.21100 33.15000

