158

Mg 2.95900 -0.88400 44.00900
C  6.46300 -0.31600 43.70600
C  2.49800 1.73300 41.71600
C  -0.26500 -1.87700 43.79600
C  3.71500 -3.80700 45.81500
N  4.38900 0.56400 42.95300
C  5.69300 0.62100 42.97500
C  6.20200 1.63400 41.93600
C  4.90500 2.28800 41.41400
C  3.78700 1.52600 42.08400
C  4.76000 3.85000 41.64200
C  7.12500 1.00500 40.80600
C  8.38400 1.77900 40.42600
H  8.21100 2.37900 39.01000
N  1.33800 -0.11100 43.01600
C  1.35700 0.97400 42.14500
C  -0.03400 1.25700 41.79500
C  -0.86200 0.29600 42.43700
C  0.03300 -0.61900 43.16000
C  -0.42100 2.48800 41.05300
C  -2.32200 0.24800 42.46000
O  -2.90100 1.10800 41.83500
C  -3.17900 -0.73000 43.21300
N  1.83300 -2.59200 44.79600
C  0.51900 -2.69600 44.62700
C  0.12400 -4.04200 45.04900
C  1.24800 -4.51000 46.05000
C  2.32900 -3.62500 45.50300
C  -1.23000 -4.13700 45.74200
C  1.53500 -6.08200 45.87600
C  1.88800 -6.74500 47.24500
N  4.70700 -1.90700 44.61600
C  4.85600 -3.05600 45.30900
C  6.27000 -3.33200 45.55500
C  6.95500 -2.23000 44.98000
C  5.92700 -1.44700 44.36400
C  6.86100 -4.47000 46.24400
C  8.24900 -1.62200 44.75600
O  9.41000 -2.01700 44.90200
C  7.98200 -0.34600 43.86000
C  8.25500 0.86400 44.66600
O  8.13100 1.02500 45.90200
O  8.65500 1.87200 43.80200
C  8.92300 3.18300 44.35900
H  2.13000 2.56500 41.11100
H  -1.25700 -2.29700 43.61900
H  4.06500 -4.74400 46.25200
H  6.79300 2.43100 42.38700
H  4.77500 2.08700 40.35100
H  4.12000 4.05700 42.50000
H  4.37200 4.46000 40.82600
H  5.74400 4.14500 42.00600
H  6.50200 0.85800 39.92300
H  7.40700 -0.02900 41.00800
H  9.29600 1.19800 40.55700
H  8.42700 2.67100 41.05000
H  -1.16000 2.26400 40.28400
H  0.40200 2.87300 40.45200
H  -0.84100 3.24800 41.71200
H  -2.93900 -0.75200 44.27600
H  -3.01600 -1.68900 42.72100
H  -4.24900 -0.52500 43.26300
H  0.10500 -4.70200 44.18200
H  1.04000 -4.12600 47.04900
H  -1.05700 -4.65600 46.68500
H  -1.90500 -4.71900 45.11500
H  -1.72600 -3.18000 45.89800
H  2.38400 -6.30300 45.22800
H  0.67400 -6.51100 45.36200
H  1.13200 -7.50300 47.45000
H  2.01300 -6.03700 48.06400
H  2.86200 -7.19300 47.04800
H  7.48800 -5.05500 45.57200
H  6.08200 -5.11400 46.65100
H  7.54200 -4.18000 47.04500
H  8.57300 -0.46500 42.95200
H  8.32100 3.29600 45.26100
H  8.72500 3.91200 43.57400
H  9.98800 3.08200 44.57100
Mg 36.39300 49.62600 24.38200
C  36.49500 48.09600 27.50400
C  35.10000 52.42800 26.17000
C  35.60600 51.01400 21.52200
C  37.15500 46.62300 22.89700
N  35.83700 50.15400 26.58200
C  36.05500 49.39600 27.66300
C  35.78400 50.09600 29.02600
C  35.32000 51.56600 28.48600
C  35.38900 51.37000 26.99900
C  33.82200 51.90300 28.98700
C  37.01500 50.21000 29.92100
C  36.72800 49.69300 31.35600
H  35.27400 49.68800 31.95300
N  35.69100 51.56700 23.83700
C  35.27300 52.54200 24.73900
C  34.88900 53.71400 23.98900
C  34.99900 53.40200 22.58200
C  35.44700 51.93900 22.56800
C  34.27200 54.92700 24.66700
C  34.62700 54.17400 21.33300
O  34.68200 53.69500 20.16100
C  34.16900 55.53600 21.42400
N  36.26800 48.91600 22.49900
C  36.04100 49.71400 21.45400
C  36.32100 48.94500 20.13200
C  36.95600 47.62900 20.66800
C  36.76600 47.73200 22.14100
C  35.02300 48.76900 19.26200
C  38.40300 47.46800 20.18200
C  39.45500 48.52500 20.75100
N  36.87300 47.78300 24.96000
C  37.25200 46.62000 24.32700
C  37.73900 45.65000 25.20900
C  37.42300 46.18900 26.43900
C  36.89400 47.47400 26.29100
C  38.09600 44.22000 24.91000
C  37.36700 45.78000 27.87100
O  37.73000 44.74900 28.43700
C  36.85600 47.10200 28.59200
C  35.57800 46.64500 29.15800
O  34.47800 46.71100 28.62000
O  35.82300 45.90900 30.31100
C  34.64100 45.45900 30.98000
H  34.81100 53.28800 26.77800
H  35.33500 51.51800 20.59200
H  37.47100 45.74700 22.32700
H  34.93100 49.54900 29.42700
H  35.96400 52.35600 28.87400
H  33.41100 51.20500 29.71600
H  33.04300 51.96100 28.22700
H  33.87400 52.93500 29.33400
H  37.27400 51.25900 30.06100
H  37.89500 49.67000 29.57200
H  37.27600 50.25700 32.11200
H  37.09400 48.66600 31.37700
H  33.75200 54.55800 25.55100
H  33.59500 55.50300 24.03500
H  35.13000 55.50000 25.02000
H  34.82100 56.04400 22.13500
H  33.09900 55.52500 21.62900
H  34.16500 55.97200 20.42500
H  36.95700 49.63700 19.57900
H  36.40100 46.79500 20.23700
H  34.18000 49.40500 19.53000
H  34.75400 47.71900 19.15000
H  35.24800 49.04400 18.23200
H  38.50700 47.36800 19.10200
H  38.70100 46.44100 20.39300
H  40.02000 48.02100 21.53500
H  39.04100 49.50300 20.99900
H  40.14400 48.72900 19.93100
H  38.56000 44.16700 23.92500
H  37.17100 43.65200 24.81400
H  38.69500 43.72200 25.67300
H  37.45700 47.47800 29.41900
H  34.09200 44.70500 30.41600
H  33.99400 46.31100 31.19100
H  34.94500 45.13600 31.97600

