158

Mg 8.52900 3.28200 27.98700
C  9.93300 1.57300 30.71900
C  6.34300 4.74100 30.02300
C  7.31800 4.55500 25.17400
C  10.74200 1.18200 25.96700
N  8.11600 3.05200 30.08100
C  8.83100 2.44900 31.02500
C  8.45900 2.85100 32.45400
C  7.09100 3.63800 32.21100
C  7.17300 3.82000 30.65400
C  5.75300 2.81800 32.56900
C  9.57800 3.64100 33.23600
C  9.24700 4.71400 34.29200
H  9.99700 4.46000 35.64200
N  6.99400 4.44900 27.63100
C  6.27600 5.11900 28.63200
C  5.48500 6.10900 28.03500
C  5.75000 6.11400 26.65300
C  6.66300 4.94500 26.40100
C  4.54000 7.09700 28.81300
C  5.25700 7.02200 25.50700
O  5.61800 6.86300 24.32200
C  4.34300 8.16200 25.80600
N  8.89800 2.77200 25.87700
C  8.26800 3.57500 24.92000
C  8.91800 3.35400 23.51000
C  9.94100 2.33700 23.81400
C  9.86000 2.08000 25.30400
C  7.85100 2.95100 22.45700
C  11.26300 2.69200 23.23900
C  12.33300 3.41100 24.09300
N  9.93200 1.58400 28.21100
C  10.74400 0.85500 27.34900
C  11.55600 -0.10600 27.96500
C  11.36000 0.23600 29.31800
C  10.33300 1.19900 29.42200
C  12.50100 -1.12300 27.44000
C  11.79200 -0.11200 30.60300
O  12.64000 -0.88800 31.00400
C  10.92000 0.90200 31.60800
C  10.27200 0.10000 32.71900
O  9.23400 -0.57700 32.56600
O  10.95600 0.23300 33.95700
C  10.27800 -0.44500 35.14300
H  5.76700 5.30600 30.75900
H  7.06200 5.22200 24.34800
H  11.61700 0.74600 25.48100
H  8.24900 1.94100 33.01700
H  7.19600 4.66900 32.54900
H  5.21900 2.60000 31.64500
H  5.08400 3.40700 33.19700
H  6.01000 1.91800 33.12900
H  10.36400 4.01800 32.58000
H  10.23000 2.95300 33.77400
H  8.16500 4.68900 34.42700
H  9.57200 5.66000 33.85800
H  5.07700 8.04100 28.91300
H  4.24400 6.52700 29.69300
H  3.56400 7.27100 28.35900
H  3.37300 7.74600 26.08100
H  4.05300 8.81500 24.98300
H  4.77100 8.80100 26.57800
H  9.29000 4.33500 23.21500
H  9.68400 1.40200 23.31600
H  6.84500 3.30700 22.68300
H  7.68700 1.90300 22.20700
H  8.12000 3.50800 21.56000
H  11.09400 3.33400 22.37400
H  11.74000 1.76600 22.91700
H  11.99700 3.66600 25.09800
H  12.55200 4.37600 23.63400
H  13.25800 2.86200 24.27000
H  13.32400 -0.62800 26.92400
H  12.04100 -1.76300 26.68700
H  12.94300 -1.75300 28.21200
H  11.61200 1.54900 32.14700
H  10.17600 -1.53000 35.17100
H  9.24800 -0.13600 35.31900
H  10.84000 -0.23300 36.05300
Mg 40.25600 9.36200 29.59500
C  42.35300 10.47900 32.27500
C  38.31900 7.94200 32.00000
C  38.56400 8.06200 27.13200
C  42.88800 10.14800 27.41600
N  40.39300 9.16200 32.00800
C  41.21400 9.82000 32.79400
C  40.67100 9.69900 34.28000
C  39.46700 8.68000 34.13400
C  39.32700 8.62600 32.67300
C  39.71000 7.31300 34.74500
C  40.29700 11.04600 34.99100
C  39.71000 10.96300 36.35800
H  40.36100 11.79300 37.53500
N  38.53900 8.25600 29.53700
C  37.87300 7.76700 30.63600
C  36.72000 7.06700 30.17100
C  36.75700 7.05500 28.71600
C  37.96300 7.77600 28.40900
C  35.77200 6.45900 31.13400
C  35.83500 6.34000 27.74000
O  36.16700 6.21600 26.55200
C  34.70700 5.65300 28.23000
N  40.63200 9.23500 27.54200
C  39.79300 8.52600 26.71500
C  40.07700 8.74500 25.24000
C  41.35100 9.62200 25.38600
C  41.73200 9.59600 26.82900
C  40.20600 7.56300 24.30000
C  41.04900 11.09300 25.06000
C  42.31200 11.93200 24.62300
N  42.25600 10.27900 29.70400
C  43.15700 10.53500 28.71200
C  44.26000 11.25400 29.24700
C  43.97600 11.28000 30.63100
C  42.76900 10.60000 30.88500
C  45.42300 11.76600 28.55800
C  44.36200 11.79000 31.96200
O  45.21700 12.53700 32.39500
C  43.34300 11.31100 33.02700
C  43.97200 10.54900 34.08200
O  44.37900 9.35700 33.96600
O  44.00000 11.28700 35.25600
C  44.53900 10.67200 36.49500
H  37.59500 7.57900 32.73300
H  37.92200 7.72200 26.31700
H  43.70200 10.50900 26.78400
H  41.54700 9.28000 34.77600
H  38.54900 9.06600 34.57700
H  39.76800 6.49200 34.03000
H  38.96000 7.01100 35.47600
H  40.70800 7.35500 35.18300
H  39.77400 11.67200 34.26700
H  41.19500 11.63900 35.16200
H  39.55400 9.89200 36.48600
H  38.67700 11.28000 36.22000
H  35.86900 6.99800 32.07600
H  35.95700 5.40900 31.36400
H  34.74000 6.64600 30.83700
H  34.13700 5.20900 27.41500
H  33.98300 6.33200 28.68000
H  35.04000 4.83500 28.87000
H  39.28800 9.35600 24.80100
H  42.23900 9.25200 24.87400
H  39.77900 6.70000 24.81100
H  41.23400 7.36000 23.99900
H  39.59500 7.72600 23.41200
H  40.51600 11.60800 25.85900
H  40.34500 11.13100 24.22800
H  42.05300 12.33800 23.64600
H  43.17200 11.26500 24.67500
H  42.48200 12.77900 25.28900
H  45.30800 12.31000 27.62100
H  46.07300 10.90500 28.40400
H  45.87100 12.45800 29.27000
H  42.89000 12.18700 33.49000
H  43.79500 10.29100 37.19500
H  45.15500 11.34600 37.09100
H  45.13200 9.81400 36.18100

