158

Mg 40.98700 41.04300 27.02700
C  40.67000 43.50400 29.61400
C  41.67200 38.71600 29.37300
C  41.71900 38.98400 24.57400
C  40.57000 43.69100 24.80000
N  41.22900 41.13000 29.26700
C  41.00900 42.23900 30.14200
C  41.12500 41.74700 31.64400
C  41.41000 40.18000 31.46800
C  41.46400 39.98600 29.95900
C  42.69500 39.67000 32.29100
C  39.86500 42.27100 32.53300
C  39.56100 41.52400 33.89300
H  39.08500 42.36100 35.09100
N  41.44900 39.00700 26.93000
C  41.67800 38.22300 28.02400
C  42.01100 36.83500 27.54400
C  42.11200 36.98500 26.10900
C  41.73700 38.34700 25.82200
C  42.05300 35.57500 28.38500
C  42.45600 35.96800 25.02800
O  42.52700 36.11200 23.85600
C  42.88500 34.56900 25.44400
N  41.04200 41.29200 24.96900
C  41.32600 40.26800 24.14200
C  41.23600 40.69900 22.67300
C  40.70500 42.10900 22.76200
C  40.73600 42.42100 24.27200
C  42.58100 40.53500 21.84600
C  39.28900 42.16900 22.19000
C  38.12300 41.33100 22.76400
N  40.80800 43.17400 27.09900
C  40.61800 44.08800 26.10700
C  40.26500 45.34300 26.69000
C  40.32800 45.16400 28.02900
C  40.61000 43.82500 28.25000
C  39.96000 46.66800 26.06600
C  40.09400 45.82400 29.28700
O  39.80900 47.02700 29.57800
C  40.32900 44.75100 30.37400
C  41.46400 45.14700 31.25800
O  42.63100 44.83900 31.09900
O  41.02300 45.83400 32.34000
C  41.96500 46.44000 33.32100
H  41.79000 37.99500 30.18400
H  41.98000 38.28100 23.78100
H  40.22300 44.43600 24.08200
H  42.03500 42.15300 32.08500
H  40.51400 39.72500 31.89200
H  43.26900 40.43300 32.81700
H  43.45000 39.12900 31.72100
H  42.39400 38.95000 33.05200
H  39.03600 42.19000 31.83000
H  40.16900 43.28500 32.79000
H  40.44800 40.94900 34.15900
H  38.81200 40.75500 33.70500
H  41.42900 35.78300 29.25400
H  43.11200 35.35400 28.51600
H  41.62400 34.66800 27.95900
H  42.07000 33.98200 25.86600
H  43.75200 34.65400 26.10000
H  43.24800 33.88000 24.68200
H  40.52800 40.01400 22.20500
H  41.39400 42.84300 22.34200
H  43.32700 39.95600 22.39100
H  43.06800 41.50600 21.76800
H  42.34500 40.15300 20.85300
H  39.33200 41.79800 21.16600
H  38.95900 43.19800 22.04800
H  37.41200 40.96000 22.02600
H  37.55500 42.04000 23.36600
H  38.43800 40.59500 23.50400
H  39.31600 47.24600 26.72800
H  39.52400 46.52400 25.07700
H  40.86500 47.27400 26.08600
H  39.41900 44.51800 30.92600
H  42.24300 45.64300 34.01100
H  41.48400 47.32500 33.73700
H  42.82500 46.89300 32.82800
Mg -9.51200 17.90200 42.53600
C  -6.04700 17.36600 42.12600
C  -8.95100 21.25300 41.81900
C  -12.85600 18.22800 42.18800
C  -9.90600 14.41600 42.23500
N  -7.65700 19.13200 42.03900
C  -6.43400 18.70800 41.96600
C  -5.44500 19.88000 41.68100
C  -6.27800 21.15300 41.78100
C  -7.72400 20.48800 41.94000
C  -5.91700 22.20300 42.91700
C  -4.53700 19.82100 40.39100
C  -5.06700 18.96800 39.28400
H  -4.31100 18.87700 37.92900
N  -10.67400 19.51400 42.20600
C  -10.30700 20.83000 41.87200
C  -11.48600 21.73400 41.71100
C  -12.60800 20.88400 41.87400
C  -12.08000 19.45800 42.15900
C  -11.32900 23.20800 41.29400
C  -14.03800 21.38700 41.93400
O  -14.19500 22.63100 41.74900
C  -15.22700 20.51000 42.08300
N  -11.20100 16.48600 42.02500
C  -12.48000 16.89400 42.25000
C  -13.46800 15.67700 42.33400
C  -12.44100 14.49100 42.53800
C  -11.09100 15.10800 42.23400
C  -14.61100 15.64100 43.41900
C  -12.65500 13.18800 41.81500
C  -12.70900 11.94600 42.74700
N  -8.25500 16.17000 42.31400
C  -8.56100 14.85000 42.28800
C  -7.26700 14.00600 42.25600
C  -6.24800 15.00500 42.24300
C  -6.92500 16.22900 42.25300
C  -7.21000 12.49900 42.29400
C  -4.79200 15.22500 42.18000
O  -3.85100 14.48400 41.93800
C  -4.62100 16.79000 42.25200
C  -3.72300 17.24700 43.44300
O  -2.65900 17.89100 43.36500
O  -4.41300 16.97300 44.66500
C  -3.92000 17.71500 45.82600
H  -8.72900 22.30500 41.63000
H  -13.94300 18.31000 42.12400
H  -9.93300 13.32400 42.22000
H  -4.77200 19.75000 42.52900
H  -6.31900 21.72100 40.85200
H  -4.96900 22.06900 43.43700
H  -6.71400 22.26400 43.65800
H  -6.00900 23.14800 42.38100
H  -3.51700 19.51500 40.62400
H  -4.62400 20.81100 39.94500
H  -6.05900 19.38000 39.10000
H  -5.11900 17.96000 39.69500
H  -10.54000 23.32400 40.55100
H  -11.14900 23.72500 42.23700
H  -12.17100 23.74100 40.85300
H  -15.31400 19.91100 42.99000
H  -15.24600 19.88400 41.19100
H  -16.17900 21.04000 42.04200
H  -13.95500 15.53500 41.37000
H  -12.47700 14.35200 43.61800
H  -15.59100 15.90000 43.01700
H  -14.45200 16.40800 44.17700
H  -14.66300 14.69200 43.95100
H  -11.84700 13.01900 41.10300
H  -13.61200 13.37100 41.32400
H  -13.73800 11.59900 42.66000
H  -12.55200 12.12100 43.81200
H  -12.11800 11.12200 42.34600
H  -7.77000 11.98100 41.51600
H  -7.67200 12.29400 43.26000
H  -6.15300 12.23300 42.30400
H  -3.97200 17.02100 41.40700
H  -2.84200 17.58500 45.92700
H  -4.57800 17.51500 46.67200
H  -3.96200 18.79500 45.68600

