158

Mg 44.31100 4.73700 46.89600
C  42.28500 7.60800 46.37700
C  41.42500 2.76400 46.54700
C  46.39500 2.10200 46.53100
C  47.10200 6.95400 46.95800
N  42.10900 5.15000 46.43600
C  41.52300 6.39400 46.30900
C  39.95800 6.23000 46.17300
C  39.78700 4.69500 46.68700
C  41.22500 4.16700 46.48400
C  39.19300 4.52100 48.12600
C  39.44500 6.57200 44.77200
C  38.49800 7.75500 44.52200
H  38.94100 8.77000 43.47300
N  43.96600 2.73300 46.43500
C  42.71600 2.13400 46.42900
C  42.86200 0.69300 46.31900
C  44.25500 0.47100 46.21100
C  44.98800 1.77900 46.28000
C  41.66500 -0.24700 46.28200
C  44.89000 -0.95000 45.96700
O  44.30800 -2.03500 46.17900
C  46.31900 -1.02300 45.47500
N  46.40300 4.55500 46.72900
C  47.00700 3.32200 46.76600
C  48.47300 3.40400 47.02700
C  48.68800 4.97500 47.05400
C  47.23600 5.61700 46.90400
C  48.75700 2.73300 48.40800
C  49.70300 5.46300 45.90100
C  50.85700 6.36400 46.27200
N  44.67600 6.85900 46.84500
C  45.90300 7.59400 46.81000
C  45.62800 8.98000 46.77300
C  44.20800 9.06300 46.65400
C  43.68000 7.70300 46.57900
C  46.59000 10.07700 46.88900
C  43.11100 9.94100 46.51600
O  43.17000 11.16200 46.37800
C  41.85300 9.01900 46.33200
C  40.88600 9.39100 47.46100
O  41.03100 9.02900 48.63100
O  40.12400 10.50900 47.17000
C  39.40700 11.17100 48.24500
H  40.47400 2.22800 46.57600
H  46.96800 1.17800 46.64200
H  47.99100 7.57500 47.08000
H  39.61700 7.02400 46.83800
H  39.24100 4.00900 46.04000
H  38.32500 3.86400 48.06500
H  38.85200 5.51400 48.41900
H  39.91600 4.25800 48.89800
H  38.79600 5.75400 44.45800
H  40.31500 6.53300 44.11600
H  38.35600 8.40900 45.38300
H  37.49800 7.45000 44.21300
H  41.64300 -0.90900 47.14800
H  41.60400 -0.83500 45.36700
H  40.69100 0.23900 46.22300
H  47.10200 -0.91800 46.22500
H  46.44700 -0.08500 44.93400
H  46.43300 -1.94300 44.90200
H  48.93600 2.80000 46.24700
H  49.07600 5.15900 48.05600
H  49.76000 2.93700 48.78200
H  48.59200 1.66300 48.28400
H  48.18000 3.18900 49.21200
H  49.14500 6.05400 45.17400
H  50.03600 4.51400 45.48200
H  51.07600 7.14400 45.54300
H  51.77000 5.76900 46.26800
H  50.68400 6.80400 47.25400
H  47.15700 10.30100 45.98500
H  47.18700 9.82300 47.76400
H  45.93400 10.92000 47.11000
H  41.38400 9.21300 45.36700
H  40.00900 12.04800 48.48100
H  39.18600 10.63500 49.16800
H  38.48300 11.59900 47.85500
Mg 49.04400 35.75300 27.80000
C  46.80600 33.98600 29.97300
C  49.03300 38.38200 29.81400
C  50.52600 37.47500 25.44300
C  48.14100 33.22700 25.34900
N  48.08500 36.08600 29.69900
C  47.29600 35.20900 30.51200
C  47.48600 35.67600 31.96600
C  47.79200 37.26500 31.85200
C  48.29900 37.26500 30.35500
C  46.58300 38.17800 31.94400
C  48.64200 34.85100 32.63500
C  48.57400 34.74500 34.12400
H  47.94900 35.76100 35.09500
N  49.90500 37.58500 27.71900
C  49.87000 38.49900 28.66500
C  50.60500 39.63700 28.23800
C  51.02400 39.50800 26.90900
C  50.53900 38.12900 26.62700
C  50.93200 40.83900 29.20000
C  51.78400 40.46500 25.92100
O  52.12300 40.06500 24.79400
C  52.11600 41.88100 26.31900
N  49.35600 35.37400 25.74100
C  49.96400 36.27400 24.96400
C  50.01000 35.95900 23.45000
C  49.48200 34.42800 23.51200
C  48.90000 34.32800 24.95000
C  49.46200 36.96300 22.46500
C  50.69800 33.38000 23.22300
C  50.29000 32.35300 22.26700
N  47.86700 33.86100 27.69400
C  47.58700 33.01400 26.66600
C  46.70500 31.96500 27.04400
C  46.43000 32.29300 28.35000
C  47.13000 33.44500 28.69100
C  46.09200 30.80700 26.17600
C  45.53900 31.93000 29.48100
O  44.76900 30.96000 29.73800
C  45.71200 33.09700 30.56000
C  45.92000 32.60600 31.96400
O  46.90800 32.01000 32.41400
O  44.77800 33.00600 32.73500
C  44.77600 32.72200 34.19000
H  49.13200 39.34700 30.31400
H  51.04100 37.99700 24.63400
H  47.89500 32.36900 24.72100
H  46.58400 35.50200 32.55100
H  48.56600 37.71200 32.47500
H  46.71000 39.05200 32.58300
H  45.76500 37.52900 32.25500
H  46.42700 38.60100 30.95200
H  49.51100 35.46600 32.40100
H  48.80200 33.85800 32.21400
H  49.49500 34.45400 34.62800
H  47.84000 33.97400 34.35800
H  50.08000 41.50200 29.05100
H  51.86400 41.30500 28.87900
H  50.91000 40.62600 30.26900
H  52.22500 42.52600 25.44700
H  53.07800 41.98800 26.82000
H  51.28200 42.43800 26.74500
H  51.06200 35.97200 23.16600
H  48.69600 34.30000 22.76800
H  48.41200 37.16600 22.67700
H  49.67900 36.63100 21.44900
H  49.93200 37.91600 22.70800
H  51.16300 33.02400 24.14200
H  51.48900 33.99200 22.79000
H  50.97900 32.45200 21.42800
H  49.32800 32.49500 21.77600
H  50.28900 31.35400 22.70500
H  45.17600 30.40000 26.60300
H  46.90800 30.11300 25.97200
H  45.85400 31.20200 25.18800
H  44.84100 33.74700 30.48100
H  44.96600 31.66000 34.34400
H  43.76300 32.92800 34.53400
H  45.47500 33.31300 34.78200

