158

Mg 25.21300 0.97300 29.91700
C  27.04700 1.07800 32.81200
C  22.31900 1.34000 31.80200
C  23.36700 0.60000 27.16700
C  28.15400 0.48600 28.15000
N  24.69900 1.12300 32.05700
C  25.65500 1.31700 33.00700
C  24.93600 1.74700 34.32600
C  23.44000 1.80400 34.08400
C  23.43900 1.41800 32.57900
C  22.63500 0.67100 34.88300
C  25.48900 3.20700 34.72400
C  26.21900 3.30000 36.08400
H  25.64900 4.21100 37.20200
N  23.13000 0.90700 29.48200
C  22.16500 1.16700 30.38900
C  20.88600 1.19000 29.74600
C  21.17900 0.89200 28.33000
C  22.57400 0.73900 28.31200
C  19.53400 1.42200 30.46600
C  20.17400 0.74400 27.23900
O  20.39900 0.52500 26.05700
C  18.62700 0.80200 27.62200
N  25.67700 0.48500 27.99000
C  24.73700 0.60500 26.96400
C  25.46500 0.59900 25.60800
C  26.92100 0.78100 26.00200
C  26.94200 0.53800 27.48900
C  25.21800 -0.60300 24.71700
C  27.43800 2.20800 25.63700
C  26.64500 3.46100 26.21400
N  27.22400 0.78800 30.32400
C  28.28500 0.55300 29.54000
C  29.45400 0.35400 30.36000
C  29.05100 0.66100 31.66200
C  27.67800 0.85600 31.59900
C  30.86200 0.11700 29.86000
C  29.50000 0.96200 33.02700
O  30.61500 0.95300 33.54100
C  28.23100 1.30200 33.83600
C  28.18300 0.38200 34.98800
O  27.75000 -0.76200 35.03800
O  28.65700 1.06700 36.08400
C  28.53800 0.21000 37.29000
H  21.46600 1.72000 32.36800
H  22.79800 0.49700 26.24100
H  29.02300 0.52700 27.49000
H  25.20700 1.01100 35.08300
H  22.91100 2.74400 34.24000
H  21.92400 1.18600 35.53000
H  23.30400 0.11300 35.53800
H  22.08500 0.03500 34.19000
H  24.56900 3.78300 34.82000
H  26.10400 3.55200 33.89200
H  27.18900 3.70100 35.78900
H  26.47000 2.28900 36.40500
H  19.12100 2.38000 30.14900
H  19.60600 1.63600 31.53200
H  18.86800 0.58400 30.26100
H  18.27200 1.55900 28.32100
H  18.38600 -0.23100 27.87100
H  17.98900 1.07400 26.78100
H  25.12000 1.47300 25.05400
H  27.54500 0.05400 25.48400
H  26.15700 -0.91100 24.25600
H  24.60300 -0.32800 23.86000
H  24.89200 -1.50200 25.24100
H  27.33000 2.23300 24.55300
H  28.51000 2.19200 25.83300
H  25.81400 3.25400 26.88800
H  26.16100 3.99100 25.39200
H  27.26100 4.11400 26.83200
H  31.07200 0.12200 28.79000
H  31.03500 -0.85800 30.31600
H  31.53900 0.75100 30.43300
H  28.31600 2.31500 34.22900
H  28.66100 0.89800 38.12700
H  29.30700 -0.56300 37.28200
H  27.53400 -0.20500 37.38200
Mg 6.75900 54.72900 41.03800
C  5.57400 51.33500 40.57600
C  9.52800 53.75800 39.29600
C  7.70300 58.00800 41.07900
C  3.68100 55.54500 42.32200
N  7.30100 52.78700 39.76900
C  6.78300 51.56600 39.89700
C  7.61600 50.53900 39.12800
C  9.02300 51.24400 39.20700
C  8.61400 52.68100 39.49000
C  9.95400 50.76700 40.31700
C  6.98000 50.46400 37.66400
C  7.17200 49.17000 36.91200
H  6.48400 49.05700 35.53900
N  8.42800 55.70300 40.38200
C  9.50400 55.10900 39.68100
C  10.42200 56.14700 39.34500
C  10.00100 57.29800 39.93700
C  8.66900 57.04500 40.53200
C  11.73300 55.79800 38.52900
C  10.78500 58.62900 39.81700
O  11.65600 58.75800 38.94200
C  10.37700 59.85000 40.64600
N  5.86800 56.48100 41.66000
C  6.44900 57.66100 41.59700
C  5.48200 58.74700 42.17800
C  4.19500 57.96900 42.73400
C  4.55400 56.59900 42.09600
C  5.97100 59.83600 43.16300
C  2.85900 58.52000 42.26500
C  1.76500 58.69600 43.34200
N  4.98000 53.73300 41.37100
C  3.81500 54.22100 41.87900
C  2.95400 53.15000 42.19300
C  3.57600 51.99200 41.70700
C  4.82200 52.39700 41.17100
C  1.63500 53.23800 42.83900
C  3.39700 50.54100 41.44800
O  2.48800 49.80800 41.70400
C  4.74100 50.07400 40.89900
C  4.51800 49.06900 39.85600
O  3.67100 49.16700 38.91300
O  5.38300 47.98900 39.97500
C  4.96800 46.75800 39.23200
H  10.46000 53.38100 38.87000
H  7.82700 59.08500 40.94900
H  2.65800 55.66000 42.68600
H  7.58400 49.59600 39.67300
H  9.45900 51.17600 38.21100
H  9.35800 50.26200 41.07600
H  10.44500 51.66900 40.68200
H  10.74700 50.09800 39.98300
H  7.47400 51.25900 37.10600
H  5.90900 50.66400 37.62500
H  6.79400 48.33200 37.49700
H  8.24700 49.12000 36.74000
H  11.97300 54.75200 38.34000
H  12.59700 56.12900 39.10400
H  11.86600 56.18500 37.51900
H  11.19600 60.56600 40.58000
H  10.17400 59.62900 41.69400
H  9.59200 60.41000 40.13800
H  5.11500 59.28900 41.30700
H  4.22600 57.89900 43.82200
H  5.76600 60.81700 42.73200
H  7.05400 59.86300 43.28400
H  5.57300 59.74000 44.17300
H  2.43100 57.88500 41.48900
H  3.04600 59.50100 41.82900
H  1.62000 59.72900 43.65500
H  2.03400 58.13000 44.23400
H  0.74900 58.39300 43.08800
H  1.74200 53.41600 43.90900
H  1.10900 52.28900 42.73900
H  1.07500 54.10000 42.47500
H  5.20200 49.47200 41.68400
H  3.88800 46.66200 39.34100
H  5.47100 45.96800 39.79000
H  5.24800 46.76800 38.17900

