158

Mg 47.12900 24.27700 28.21700
C  48.20400 26.67300 30.54300
C  46.71000 22.14000 30.71200
C  46.54200 22.05800 25.81400
C  48.52300 26.54600 25.72700
N  47.09200 24.53600 30.39000
C  47.56200 25.56500 31.09800
C  47.59400 25.25400 32.60400
C  47.30200 23.67500 32.63200
C  46.92900 23.43500 31.15000
C  48.41100 22.67300 33.15700
C  46.66300 26.23800 33.38900
C  47.30800 26.86800 34.66000
H  46.49500 26.85400 36.03100
N  46.50300 22.47700 28.23400
C  46.39600 21.68800 29.37700
C  45.96300 20.36100 29.00800
C  45.87000 20.33800 27.56300
C  46.23900 21.67700 27.10200
C  45.74100 19.23900 30.03400
C  45.45200 19.22800 26.68800
O  45.29200 19.35600 25.49900
C  45.10800 17.86800 27.20100
N  47.46300 24.34600 26.06900
C  47.12800 23.24400 25.36000
C  47.22800 23.49300 23.88000
C  47.86100 24.91100 23.80100
C  47.94100 25.33300 25.28300
C  47.86600 22.40200 23.02200
C  47.15700 25.99400 22.90700
C  48.07800 26.36300 21.65800
N  48.10700 26.30200 28.11100
C  48.67500 27.01000 27.05600
C  49.16800 28.29400 27.54600
C  49.17800 28.14700 28.89700
C  48.45900 26.93500 29.17500
C  49.60000 29.49200 26.76500
C  49.57200 28.69300 30.14600
O  50.24100 29.70000 30.36000
C  49.01900 27.71700 31.23900
C  50.22800 27.14900 32.02000
O  51.00400 26.32200 31.55500
O  50.24100 27.64600 33.21800
C  51.55500 27.38500 33.92900
H  46.58100 21.38600 31.49200
H  46.34900 21.30300 25.05000
H  48.84200 27.29200 24.99600
H  48.63800 25.25600 32.91900
H  46.47100 23.49000 33.31300
H  48.82600 22.03300 32.38000
H  47.94900 22.06200 33.93300
H  49.22900 23.23400 33.60900
H  45.73000 25.71800 33.60600
H  46.35500 27.07800 32.76600
H  47.48100 27.92100 34.44000
H  48.24700 26.35700 34.87300
H  45.22900 18.35300 29.66000
H  45.07900 19.66500 30.78800
H  46.68000 19.02000 30.54200
H  44.25300 17.85700 27.87800
H  45.96800 17.39600 27.67600
H  44.87700 17.35400 26.26800
H  46.18700 23.65300 23.59700
H  48.89000 24.89800 23.44100
H  47.68400 21.34200 23.19600
H  48.93400 22.54600 23.18700
H  47.47200 22.47500 22.00900
H  47.10700 26.89900 23.51200
H  46.17500 25.58900 22.66200
H  48.61800 27.29000 21.84800
H  47.36500 26.61000 20.87200
H  48.82600 25.65400 21.30400
H  49.15800 30.42400 27.11600
H  49.33600 29.41300 25.71100
H  50.68900 29.51700 26.81600
H  48.51000 28.35100 31.96400
H  51.74500 26.31200 33.94400
H  51.69000 27.76600 34.94100
H  52.33200 27.84600 33.32100
Mg 29.99000 56.98900 41.13500
C  27.33600 55.16700 39.56900
C  32.14200 54.84400 39.45100
C  32.25400 59.23700 41.58900
C  27.37100 59.40900 41.80000
N  29.72900 55.31400 39.60500
C  28.60400 54.74200 39.15000
C  28.76700 53.57500 38.19000
C  30.34600 53.40500 38.21700
C  30.79900 54.53800 39.16100
C  30.81900 51.95800 38.77800
C  28.24300 53.98100 36.81500
C  27.45900 52.89000 36.01800
H  26.54300 53.50400 34.94200
N  31.96400 56.93400 40.83300
C  32.68000 55.96500 40.15700
C  34.08800 56.37800 40.22600
C  34.15000 57.65000 40.85100
C  32.76200 58.01800 41.14300
C  35.16400 55.58000 39.51300
C  35.47200 58.37100 41.22300
O  36.54900 57.97400 40.75700
C  35.54500 59.56600 42.13500
N  29.80400 59.04200 41.50800
C  30.93000 59.74600 41.74800
C  30.60400 61.16400 42.13300
C  29.06300 61.26600 42.30200
C  28.70100 59.88600 41.81700
C  31.41600 61.70600 43.32900
C  28.40500 62.52300 41.60000
C  27.24500 63.11300 42.40600
N  27.75700 57.22800 40.96600
C  26.96100 58.15000 41.34300
C  25.58200 57.70700 41.18200
C  25.67700 56.52600 40.51000
C  27.00800 56.30500 40.31100
C  24.27000 58.39500 41.50600
C  24.88300 55.44400 39.94500
O  23.67300 55.32100 39.84100
C  25.96700 54.51600 39.39600
C  25.80000 53.31000 40.22300
O  26.35200 53.01000 41.23700
O  24.82400 52.53700 39.67300
C  24.46300 51.23800 40.27100
H  32.78700 54.19400 38.85600
H  33.08600 59.88200 41.87900
H  26.50400 60.02600 42.04700
H  28.22800 52.70100 38.55800
H  30.97800 53.58200 37.34700
H  30.01700 51.23200 38.91300
H  31.47200 52.07500 39.64200
H  31.53100 51.66700 38.00600
H  29.18100 54.11000 36.27500
H  27.73900 54.93700 36.67500
H  26.88400 52.35600 36.77500
H  28.19900 52.27400 35.50700
H  35.28800 54.74700 40.20500
H  36.06800 56.12900 39.24900
H  34.70800 55.21300 38.59400
H  35.42300 60.46100 41.52400
H  36.52400 59.58700 42.61300
H  34.81500 59.46300 42.93700
H  30.93900 61.80800 41.32000
H  28.80300 61.32900 43.35800
H  32.09800 60.93300 43.68300
H  30.72100 62.15200 44.04100
H  32.06500 62.50600 42.97200
H  28.04000 62.09400 40.66700
H  29.20200 63.23400 41.38200
H  26.31200 63.01800 41.85200
H  27.38700 64.17700 42.59800
H  27.17300 62.46600 43.28100
H  23.51200 58.03800 40.80900
H  24.39000 59.45400 41.27600
H  24.01700 58.15700 42.53900
H  25.59700 54.25400 38.40500
H  24.36900 51.27000 41.35600
H  25.20700 50.45900 40.10400
H  23.54000 50.93600 39.77700

