158

Mg 27.22600 51.04800 26.43300
C  24.88400 51.93600 28.81500
C  29.45300 50.37000 28.86100
C  29.43500 50.47600 23.94900
C  24.93600 52.34700 23.96900
N  27.20900 51.07900 28.59300
C  26.11400 51.35600 29.38400
C  26.46600 51.18200 30.86900
C  27.96300 50.68900 30.87000
C  28.24600 50.73600 29.36300
C  29.00300 51.55500 31.65200
C  25.50300 50.25800 31.61700
C  25.00100 50.72200 33.01100
H  25.11300 49.66700 34.05800
N  29.18300 50.52500 26.44900
C  29.94500 50.29100 27.53700
C  31.21700 50.03900 27.14500
C  31.26800 50.08000 25.69400
C  29.93100 50.30100 25.27900
C  32.34300 49.64600 28.15700
C  32.51500 49.82100 24.76500
O  32.47700 49.90100 23.55600
C  33.85500 49.42600 25.40700
N  27.15300 51.40800 24.34000
C  28.18700 50.97100 23.53200
C  27.81600 50.95100 22.06000
C  26.40100 51.57400 22.07800
C  26.12400 51.83200 23.53200
C  28.83700 51.70700 21.16100
C  25.23500 50.67700 21.46800
C  24.10300 51.52000 20.71600
N  25.28700 51.79600 26.27900
C  24.51300 52.35300 25.26500
C  23.25400 52.92400 25.78700
C  23.43900 52.84400 27.17800
C  24.61800 52.10400 27.44100
C  22.13300 53.41900 25.02100
C  22.72900 53.00900 28.45700
O  21.60200 53.45000 28.63100
C  23.70300 52.60900 29.59900
C  24.12500 53.71300 30.46500
O  25.08500 54.42800 30.25500
O  23.32500 53.75900 31.60300
C  23.76100 54.64800 32.59200
H  30.12400 50.11700 29.68400
H  30.13500 50.31900 23.12600
H  24.18600 52.69200 23.25400
H  26.38100 52.18100 31.29600
H  28.05700 49.70200 31.32500
H  28.45000 52.28600 32.24200
H  29.65300 52.09300 30.96200
H  29.57000 50.92500 32.33700
H  26.01800 49.30900 31.77000
H  24.61700 50.08600 31.00500
H  23.95000 50.80400 32.73400
H  25.42700 51.71400 33.16300
H  32.14100 50.14000 29.10700
H  33.29300 50.12000 27.90900
H  32.45600 48.56200 28.18700
H  33.77000 48.61500 26.13000
H  34.34400 50.30600 25.82400
H  34.48700 48.99100 24.63300
H  27.85300 49.96100 21.60600
H  26.42700 52.55000 21.59300
H  29.66800 52.05500 21.77400
H  28.43300 52.55000 20.60000
H  29.34000 51.04600 20.45500
H  24.77000 50.06600 22.24100
H  25.71000 49.94000 20.81900
H  23.24900 51.30400 21.35900
H  24.04200 51.14200 19.69600
H  24.27600 52.58700 20.86200
H  22.10300 52.95300 24.03600
H  22.26800 54.47500 24.78800
H  21.15600 53.25800 25.47700
H  23.17500 51.91500 30.25400
H  24.32400 55.51000 32.23300
H  24.28800 54.05500 33.33900
H  22.95100 55.10200 33.16200
Mg 10.17700 47.60800 26.34400
C  8.44800 47.75100 29.48400
C  12.63200 49.43000 27.89800
C  11.72800 47.77800 23.42300
C  7.10600 46.99800 24.77900
N  10.54900 48.37800 28.40800
C  9.71200 48.28600 29.52600
C  10.38500 48.67400 30.85600
C  11.61400 49.52600 30.30500
C  11.58600 49.18200 28.78200
C  11.39800 51.04500 30.46300
C  10.85400 47.40000 31.69300
C  10.27300 47.45500 33.17500
H  10.39300 46.23400 34.06200
N  12.03900 48.23400 25.77700
C  12.90800 48.93500 26.58700
C  14.14000 48.99200 25.92000
C  13.92000 48.56300 24.58400
C  12.49200 48.20400 24.51700
C  15.45800 49.49900 26.50900
C  14.83500 48.19200 23.47400
O  14.52600 47.52200 22.47700
C  16.34600 48.52700 23.56200
N  9.54400 47.42700 24.33300
C  10.34000 47.37700 23.30100
C  9.57700 47.09800 21.95500
C  8.14300 46.75900 22.46200
C  8.23700 47.06500 23.98000
C  9.72100 48.21000 20.93100
C  7.41800 45.44000 22.15000
C  7.97600 44.15700 22.93800
N  8.21200 47.37700 27.02500
C  7.07600 47.04500 26.28600
C  5.95600 46.69400 27.13400
C  6.45700 46.94900 28.43100
C  7.77500 47.41100 28.30400
C  4.64400 46.10700 26.62400
C  6.11800 46.89200 29.75500
O  4.99800 46.68600 30.23600
C  7.42500 47.36000 30.58800
C  7.75500 46.16400 31.38600
O  8.43900 45.22000 31.09400
O  7.01900 46.23800 32.54300
C  6.80800 45.01800 33.39500
H  13.47000 50.00900 28.29000
H  12.21400 47.87300 22.44900
H  6.13900 46.95000 24.27400
H  9.71300 49.24400 31.49800
H  12.55200 49.38100 30.84100
H  10.71100 51.34100 31.25600
H  10.88500 51.48700 29.60900
H  12.34300 51.57800 30.57100
H  11.94200 47.37900 31.63500
H  10.57900 46.51900 31.11200
H  9.22800 47.69600 32.97900
H  10.82100 48.20700 33.74300
H  15.41900 49.76800 27.56500
H  15.76300 50.35800 25.91000
H  16.27300 48.81700 26.26600
H  16.78100 48.38600 22.57300
H  16.81300 47.90500 24.32700
H  16.35000 49.58300 23.82900
H  10.04600 46.16800 21.63500
H  7.50100 47.49100 21.97200
H  10.78000 48.43900 20.80700
H  9.27900 49.10500 21.36700
H  9.19100 47.91900 20.02400
H  7.59800 45.31100 21.08300
H  6.33100 45.39000 22.21900
H  8.52400 44.46300 23.83000
H  8.55200 43.57200 22.22100
H  7.09800 43.55700 23.17500
H  4.75200 45.34700 25.85100
H  4.07900 46.92500 26.17600
H  3.92300 45.79500 27.38000
H  7.20000 48.14200 31.31300
H  5.77100 44.72200 33.24200
H  6.93700 45.31800 34.43500
H  7.52800 44.22700 33.18400

