158

Mg 0.59900 6.81400 26.05300
C  1.18200 8.72700 28.99600
C  0.51800 4.02200 28.09200
C  -0.00000 4.96900 23.36800
C  1.10800 9.67700 24.20100
N  0.96800 6.50700 28.29200
C  0.94100 7.43100 29.29200
C  0.77500 6.81700 30.65300
C  0.84500 5.28600 30.30600
C  0.71000 5.23400 28.79600
C  2.10300 4.45600 30.70000
C  -0.57600 7.27300 31.42100
C  -0.48600 7.76100 32.85200
H  0.72800 7.39500 33.71700
N  0.44600 4.71100 25.74800
C  0.34500 3.75100 26.70700
C  0.09600 2.47800 26.04100
C  0.00500 2.74400 24.64700
C  0.17300 4.16800 24.53000
C  0.15400 1.11200 26.71800
C  -0.14000 1.74600 23.46900
O  -0.11300 2.10600 22.28500
C  -0.12600 0.20800 23.70100
N  0.49900 7.27600 24.12400
C  0.18700 6.36800 23.20800
C  -0.05600 6.99300 21.83100
C  0.39600 8.45700 22.06000
C  0.77000 8.42500 23.57300
C  0.62800 6.26800 20.55600
C  -0.63800 9.54500 21.63400
C  -1.86200 9.64100 22.63000
N  0.96500 8.79800 26.49600
C  1.29700 9.81200 25.60000
C  1.58300 11.06900 26.26200
C  1.53400 10.63500 27.65100
C  1.20000 9.27800 27.70000
C  2.06600 12.38800 25.59300
C  1.84700 11.10300 28.93300
O  2.26200 12.24000 29.26700
C  1.44800 9.90900 29.93400
C  2.53800 9.83800 30.89100
O  3.60300 9.30400 30.71900
O  2.27100 10.56400 32.00500
C  3.43900 10.75900 32.85100
H  0.35400 3.14800 28.72600
H  -0.28500 4.47900 22.43400
H  1.16800 10.51900 23.50800
H  1.59600 7.07000 31.32300
H  0.01800 4.70100 30.70900
H  2.81800 4.95800 31.35100
H  2.65000 4.10600 29.82500
H  1.68700 3.54300 31.12700
H  -1.36700 6.56700 31.16800
H  -0.87800 8.15500 30.85500
H  -1.39500 7.44000 33.36100
H  -0.47200 8.83800 32.68700
H  0.56100 1.12800 27.72900
H  0.79300 0.46100 26.12100
H  -0.87700 0.76600 26.64900
H  0.84800 -0.26700 23.81700
H  -0.49800 -0.22400 22.77200
H  -0.80300 0.01000 24.53200
H  -1.13600 7.01000 21.68300
H  1.23200 8.73500 21.41900
H  1.04000 5.31400 20.88400
H  1.34000 6.96600 20.11500
H  -0.07700 6.03500 19.75800
H  -1.04800 9.29600 20.65600
H  -0.26000 10.54200 21.40600
H  -2.82900 9.70800 22.13300
H  -1.71200 10.54600 23.21800
H  -1.90500 8.76000 23.27100
H  2.86100 12.16200 24.88200
H  2.50100 13.03800 26.35300
H  1.24100 12.88600 25.08200
H  0.52700 10.15200 30.46400
H  3.99200 11.64400 32.53500
H  4.11100 9.90100 32.86500
H  3.07300 10.98300 33.85300
Mg -11.91800 16.52700 42.58700
C  -8.58300 15.26400 42.06100
C  -10.94800 19.34900 40.89600
C  -15.05300 17.56100 42.90500
C  -12.70600 13.44800 43.89100
N  -9.99200 17.19500 41.48500
C  -8.75500 16.55100 41.42800
C  -7.76800 17.44800 40.56900
C  -8.67300 18.68700 40.20800
C  -9.91500 18.42900 41.03700
C  -7.96400 20.07600 40.33100
C  -7.25000 16.63300 39.33300
C  -5.74200 16.47700 39.20100
H  -5.08500 17.10000 37.96900
N  -12.91900 18.21100 41.87500
C  -12.36200 19.30300 41.29000
C  -13.31900 20.33700 41.15000
C  -14.47700 19.94000 41.83300
C  -14.24100 18.51900 42.15000
C  -12.99300 21.67100 40.51000
C  -15.73600 20.77000 42.02600
O  -15.86400 21.92400 41.54700
C  -16.88200 20.24400 42.75300
N  -13.68800 15.53400 43.02200
C  -14.80400 16.26800 43.31100
C  -15.77200 15.44400 44.14900
C  -15.01100 14.09400 44.42100
C  -13.68600 14.34300 43.69500
C  -16.36100 16.12300 45.41600
C  -15.76600 12.74300 43.89000
C  -15.61200 11.56800 44.87500
N  -10.88000 14.76800 43.05800
C  -11.33600 13.57400 43.60500
C  -10.25600 12.67500 43.93100
C  -9.10100 13.27200 43.28900
C  -9.58800 14.52400 42.74900
C  -10.40300 11.35600 44.56000
C  -7.65400 13.15700 42.92500
O  -6.82800 12.26700 43.17400
C  -7.25600 14.43600 42.11700
C  -6.18400 15.07000 42.89100
O  -6.31300 15.40800 44.02000
O  -4.94600 14.96800 42.27800
C  -3.67600 15.17200 43.02400
H  -10.77700 20.34900 40.49200
H  -16.09400 17.87800 42.99500
H  -13.07700 12.51000 44.30900
H  -6.96400 17.77000 41.23200
H  -8.90800 18.49900 39.16100
H  -8.24300 20.56300 41.26500
H  -8.23800 20.68600 39.47100
H  -6.88500 19.92000 40.31500
H  -7.72200 16.89500 38.38600
H  -7.58100 15.60400 39.46800
H  -5.44800 15.42800 39.18400
H  -5.31100 16.95100 40.08300
H  -13.82500 22.37300 40.56000
H  -12.80600 21.63000 39.43700
H  -12.13000 22.18500 40.93100
H  -17.64200 20.99500 42.97200
H  -16.61300 19.89100 43.74800
H  -17.32800 19.44000 42.16700
H  -16.56500 15.16500 43.45500
H  -14.86000 14.05700 45.49900
H  -16.13200 17.18200 45.29800
H  -16.03400 15.64900 46.34200
H  -17.44600 16.07600 45.50400
H  -15.21400 12.45400 42.99500
H  -16.81600 12.91800 43.65900
H  -16.53400 11.05600 45.15200
H  -15.27700 11.94200 45.84200
H  -15.01800 10.69300 44.61100
H  -10.36600 11.61100 45.61900
H  -9.61000 10.63500 44.36400
H  -11.36800 10.91400 44.31200
H  -6.97400 14.15600 41.10200
H  -2.90600 14.41300 42.88500
H  -3.93000 14.99400 44.06900
H  -3.23600 16.16800 42.97200

