158

Mg 46.67500 17.53100 29.30600
C  44.81600 16.80800 32.27200
C  48.95000 19.26000 31.35400
C  48.25200 18.63600 26.46200
C  44.23300 16.05800 27.51800
N  46.95400 17.73600 31.50000
C  46.03900 17.44100 32.53300
C  46.58200 17.91200 33.88100
C  47.72500 18.97200 33.55000
C  47.93100 18.60300 32.03400
C  47.38200 20.50000 33.87800
C  47.13500 16.76800 34.71700
C  47.38300 17.04800 36.21800
H  47.00500 18.36900 36.88500
N  48.34600 18.68200 28.96700
C  49.13600 19.31300 29.94600
C  50.16000 20.09500 29.19800
C  49.94700 20.01000 27.80200
C  48.82400 19.03700 27.67100
C  51.23300 20.91400 29.93900
C  50.73100 20.65400 26.65000
O  50.55200 20.48800 25.45300
C  51.99100 21.40800 26.87300
N  46.45200 17.12900 27.24800
C  47.12300 17.77100 26.23200
C  46.65500 17.32500 24.85200
C  45.40900 16.42500 25.23900
C  45.32100 16.57000 26.75400
C  46.35200 18.42900 23.71300
C  45.52400 14.91600 24.77300
C  46.47400 14.00900 25.62200
N  44.88700 16.58500 29.74200
C  43.97200 16.07900 28.88800
C  42.84000 15.54000 29.59900
C  43.13700 15.83200 30.93700
C  44.39300 16.44800 30.96600
C  41.67200 14.85600 28.98300
C  42.65400 15.68400 32.37900
O  41.67700 15.15600 32.90200
C  43.79300 16.31500 33.26700
C  43.18800 17.50500 34.01100
O  42.93400 18.57400 33.51200
O  42.97400 17.23500 35.33300
C  42.07300 18.16400 36.05900
H  49.73700 19.69000 31.97700
H  48.67900 18.93700 25.50300
H  43.52800 15.57100 26.84100
H  45.82500 18.49000 34.41200
H  48.57600 18.67900 34.16500
H  46.30800 20.66100 33.97300
H  47.64800 21.11700 33.02000
H  47.87300 20.77100 34.81300
H  48.03700 16.39500 34.23200
H  46.46400 15.90900 34.69600
H  48.44900 16.83100 36.28100
H  46.88000 16.32100 36.85400
H  51.72100 21.71200 29.37800
H  52.05900 20.26300 30.22600
H  50.85500 21.27300 30.89600
H  52.61700 20.86400 27.58000
H  51.81800 22.40800 27.27000
H  52.63000 21.42100 25.99000
H  47.37100 16.59500 24.47500
H  44.44300 16.85800 24.97900
H  45.27700 18.60800 23.73800
H  46.67000 18.16400 22.70500
H  46.77200 19.41200 23.92800
H  45.85600 14.85700 23.73600
H  44.58400 14.39300 24.94900
H  47.44300 14.50700 25.61200
H  46.56500 12.97800 25.27900
H  45.99000 13.87400 26.58900
H  41.10300 15.65100 28.50100
H  41.16700 14.25000 29.73500
H  42.03800 14.26200 28.14500
H  44.15400 15.56100 33.96700
H  41.13000 18.27300 35.52400
H  42.52200 19.15200 36.15900
H  41.86200 17.79700 37.06400
Mg -12.46600 16.49300 42.30200
C  -9.70000 14.51400 41.62800
C  -10.96300 18.98500 40.55100
C  -15.27400 18.00300 42.38000
C  -14.04400 13.49000 43.68700
N  -10.61300 16.64200 40.91800
C  -9.56700 15.69700 40.94600
C  -8.31200 16.31400 40.24500
C  -8.76000 17.80400 39.98900
C  -10.20900 17.82300 40.50700
C  -7.76200 18.78300 40.73200
C  -7.93400 15.66100 38.89300
C  -6.44200 15.48500 38.52700
H  -5.87000 16.34900 37.42700
N  -12.99600 18.29700 41.65200
C  -12.26300 19.23400 41.07000
C  -13.00800 20.44400 40.92300
C  -14.30400 20.22400 41.39000
C  -14.25200 18.80400 41.85600
C  -12.35900 21.69000 40.24900
C  -15.39700 21.19400 41.43800
O  -15.20700 22.32100 40.94300
C  -16.74000 20.93900 41.99100
N  -14.44800 15.80800 42.93800
C  -15.41200 16.72100 42.82100
C  -16.78300 16.04700 43.12000
C  -16.42400 14.53600 43.45100
C  -14.85500 14.61200 43.43300
C  -17.44200 16.90900 44.28900
C  -17.04600 13.58600 42.41800
C  -17.63400 12.16800 42.87000
N  -12.03100 14.46800 42.75300
C  -12.68500 13.39200 43.33400
C  -11.78800 12.29100 43.53000
C  -10.54800 12.72800 42.99400
C  -10.77200 14.03800 42.40500
C  -12.04800 11.00200 44.30000
C  -9.18200 12.31600 42.74500
O  -8.66800 11.28500 43.14900
C  -8.55200 13.44800 41.88200
C  -7.50700 14.03000 42.78300
O  -7.71500 14.62600 43.80300
O  -6.23200 13.80000 42.33500
C  -5.18700 14.48000 43.12400
H  -10.42200 19.87900 40.23300
H  -16.19500 18.56900 42.22200
H  -14.40500 12.53100 44.06400
H  -7.46300 16.17300 40.91400
H  -8.76000 18.10400 38.94100
H  -8.14300 19.27300 41.62800
H  -7.45500 19.53600 40.00700
H  -6.93500 18.24600 41.19600
H  -8.40200 16.12900 38.02700
H  -8.50600 14.73800 38.79900
H  -6.19300 14.45200 38.28100
H  -5.78700 15.83400 39.32400
H  -12.77200 22.60800 40.66800
H  -12.50300 21.62000 39.17100
H  -11.29700 21.70100 40.49300
H  -16.62000 20.50000 42.98200
H  -17.34100 20.35300 41.29600
H  -17.22100 21.90600 42.13500
H  -17.50700 16.00800 42.30600
H  -16.83600 14.38300 44.44900
H  -16.81300 17.72500 44.64400
H  -17.59800 16.15800 45.06400
H  -18.46800 17.23000 44.10800
H  -16.31500 13.42800 41.62600
H  -17.99200 14.03700 42.11900
H  -17.20100 11.89400 43.83200
H  -17.27500 11.39100 42.19500
H  -18.72200 12.22200 42.82800
H  -11.33300 10.80200 45.09800
H  -11.98700 10.19200 43.57300
H  -13.04800 10.97000 44.73100
H  -8.00800 12.98300 41.06100
H  -4.23400 14.01700 42.86900
H  -5.32000 14.34600 44.19700
H  -5.23800 15.52800 42.82800

