158

Mg -0.75900 17.34800 26.58000
C  -1.23200 14.96100 29.28700
C  -1.31500 19.87900 28.94000
C  -0.71200 19.55300 24.14400
C  -0.47600 14.73800 24.52500
N  -1.37900 17.36200 28.93600
C  -1.47200 16.29300 29.80400
C  -1.67100 16.85400 31.22700
C  -1.64400 18.37400 31.02200
C  -1.38900 18.56900 29.54200
C  -2.93800 19.19600 31.44400
C  -0.78400 16.20200 32.41800
C  -0.45100 17.17200 33.58200
H  -0.48400 16.62900 34.97600
N  -0.98200 19.43500 26.53100
C  -1.04600 20.32600 27.63100
C  -1.04100 21.65600 27.07000
C  -0.80000 21.60300 25.67400
C  -0.75300 20.18400 25.40100
C  -1.32800 22.90500 27.90900
C  -0.62500 22.62000 24.67800
O  -0.54700 22.46300 23.46200
C  -0.50100 24.12800 25.10600
N  -0.67200 17.16900 24.60200
C  -0.62800 18.19900 23.74100
C  -0.76400 17.73500 22.35000
C  -0.20900 16.28600 22.50800
C  -0.43000 16.04500 23.98800
C  -2.24700 17.76800 21.80100
C  1.35100 16.07200 22.13100
C  2.51000 16.49600 23.10000
N  -0.91800 15.26200 26.76600
C  -0.78400 14.31000 25.87600
C  -0.95500 13.03500 26.42900
C  -1.04600 13.26100 27.73700
C  -1.05200 14.59200 27.96800
C  -1.06800 11.82200 25.58000
C  -1.18100 12.50000 29.01000
O  -1.32600 11.29100 29.17500
C  -1.28400 13.62800 30.09600
C  -0.14700 13.32000 30.97800
O  0.97100 13.76000 30.89600
O  -0.57300 12.36100 31.84200
C  0.29400 12.07200 32.97900
H  -1.27400 20.64000 29.72300
H  -0.62500 20.19400 23.26400
H  -0.43200 13.97600 23.74400
H  -2.66100 16.49100 31.50600
H  -0.82400 18.81800 31.58700
H  -3.45200 19.63900 30.59100
H  -2.68900 19.78600 32.32600
H  -3.70500 18.46100 31.68800
H  0.17000 16.02600 31.92000
H  -1.14200 15.25300 32.81700
H  -1.17400 17.98700 33.56300
H  0.55100 17.56700 33.41500
H  -1.86800 23.63500 27.30600
H  -0.49600 23.44000 28.36600
H  -1.94500 22.59900 28.75400
H  0.42200 24.15800 25.68500
H  -1.39300 24.53700 25.58100
H  -0.29300 24.84700 24.31400
H  -0.18300 18.39800 21.70900
H  -0.84300 15.53900 22.03100
H  -2.61900 18.68900 22.25200
H  -2.80200 16.93800 22.23900
H  -2.12400 17.74700 20.71800
H  1.48400 16.62400 21.20100
H  1.34500 15.07000 21.70300
H  2.09700 16.59500 24.10300
H  3.05700 17.41900 22.90500
H  3.21600 15.66500 23.09100
H  -1.57400 12.18600 24.68500
H  -1.68000 11.08000 26.09300
H  -0.08700 11.45500 25.28000
H  -2.21600 13.54900 30.65700
H  0.90500 11.17400 32.89300
H  -0.32700 11.89400 33.85700
H  0.89300 12.97200 33.11900
Mg 25.85500 -0.66800 29.15100
C  27.88700 -0.69100 32.00800
C  23.19700 -0.38400 31.36600
C  23.95300 -0.07000 26.59900
C  28.58600 -1.40500 27.27000
N  25.63500 -0.56600 31.45800
C  26.61900 -0.52500 32.36200
C  26.09500 -0.18500 33.72000
C  24.57700 -0.47400 33.55300
C  24.44700 -0.42300 32.03100
C  24.03800 -1.78400 34.19000
C  26.51600 1.25400 34.17000
C  26.95900 1.37000 35.68800
H  26.19600 2.45400 36.53800
N  23.84200 -0.40200 29.00100
C  22.94500 -0.26400 29.98200
C  21.65900 -0.07500 29.36700
C  21.83000 -0.06400 27.97000
C  23.28000 -0.19200 27.78300
C  20.41200 0.18900 30.21800
C  20.77000 -0.02600 26.75200
O  21.12700 0.03900 25.55100
C  19.25500 0.04700 27.09600
N  26.16300 -1.03300 27.17800
C  25.27700 -0.46800 26.33300
C  25.83200 -0.53400 24.82500
C  27.33600 -0.64300 25.12700
C  27.36200 -1.18000 26.59700
C  25.24200 -1.62700 23.94600
C  28.12900 0.78200 25.02900
C  29.51600 0.80400 24.33200
N  27.86800 -1.14000 29.51400
C  28.86400 -1.35900 28.66400
C  30.07800 -1.44600 29.30400
C  29.78900 -1.20200 30.66400
C  28.41300 -1.01500 30.73800
C  31.39800 -1.66300 28.59900
C  30.36600 -1.02900 31.89900
O  31.53100 -1.10200 32.23400
C  29.12700 -0.63700 32.87300
C  29.22900 -1.59400 34.03100
O  28.68500 -2.66700 34.05500
O  29.87900 -0.97200 35.01400
C  29.68700 -1.56600 36.31900
H  22.36800 -0.33700 32.07600
H  23.52000 0.16800 25.62500
H  29.49400 -1.53300 26.67700
H  26.48400 -0.85500 34.48700
H  24.04900 0.41200 33.90600
H  24.71600 -2.23800 34.91300
H  23.79300 -2.42400 33.34200
H  23.05300 -1.58400 34.61100
H  25.65300 1.88500 33.95300
H  27.31900 1.71400 33.59400
H  28.01200 1.64800 35.73600
H  26.76300 0.45900 36.25500
H  20.65900 0.47000 31.24100
H  19.90000 -0.77200 30.26200
H  19.73300 0.97800 29.89300
H  18.68500 0.29500 26.20100
H  19.26200 0.84200 27.84200
H  18.94100 -0.92400 27.47900
H  25.66100 0.43100 24.34800
H  27.92500 -1.34300 24.53500
H  24.20500 -1.77100 24.24900
H  25.70200 -2.60800 24.07100
H  25.08100 -1.20100 22.95600
H  28.35300 1.08500 26.05200
H  27.49900 1.61900 24.72700
H  29.73900 1.72900 23.80100
H  29.53700 0.02000 23.57400
H  30.30800 0.58700 25.04700
H  32.03700 -0.85500 28.95600
H  31.42300 -1.51500 27.51900
H  31.92300 -2.58900 28.83600
H  29.27600 0.35500 33.30000
H  29.47900 -2.63100 36.21700
H  28.72700 -1.12300 36.58300
H  30.54000 -1.49100 36.99400

