158

Mg 35.31300 2.96200 30.77400
C  32.65600 3.97300 32.79100
C  37.35100 3.07000 33.35200
C  37.88000 2.14500 28.61100
C  33.22400 3.23000 27.99000
N  34.98000 3.46400 32.88500
C  33.84100 3.79700 33.53500
C  34.04000 3.87200 35.04300
C  35.61600 3.89900 35.12900
C  36.03500 3.43300 33.71900
C  36.23700 5.25100 35.57300
C  33.24700 2.69300 35.75600
C  33.65900 2.26400 37.16400
H  34.28100 3.37400 38.12800
N  37.30400 2.58200 31.00700
C  37.99200 2.63400 32.13500
C  39.38800 2.28100 31.90700
C  39.56800 2.21600 30.52900
C  38.22200 2.31500 29.98700
C  40.29900 2.09300 33.14600
C  40.85000 1.93800 29.75400
O  40.91500 1.84600 28.51000
C  42.20100 1.65500 30.57600
N  35.56900 2.90200 28.55800
C  36.71100 2.50900 27.93700
C  36.41300 2.15100 26.43800
C  34.88200 2.30800 26.35600
C  34.48600 2.85800 27.69400
C  37.28300 3.06200 25.47600
C  34.10300 1.01300 25.94700
C  33.65800 0.87900 24.49500
N  33.41200 3.58500 30.42000
C  32.67700 3.64500 29.21800
C  31.30000 4.00800 29.49500
C  31.22100 4.09000 30.89000
C  32.57700 3.83500 31.40700
C  30.18200 4.11000 28.55100
C  30.35900 4.41500 32.04100
O  29.17900 4.65700 32.10200
C  31.28200 4.40400 33.34400
C  31.25900 5.70000 34.09400
O  31.67700 6.75800 33.65800
O  30.80800 5.47400 35.36700
C  30.59100 6.65100 36.19800
H  38.01200 3.22000 34.20800
H  38.64000 1.66900 27.98700
H  32.58300 3.10200 27.11600
H  33.63300 4.80500 35.43200
H  36.01900 3.37600 35.99600
H  35.61800 6.11100 35.31600
H  37.13400 5.41400 34.97500
H  36.41700 5.27700 36.64700
H  33.44500 1.83900 35.10800
H  32.18000 2.87500 35.88100
H  34.21300 1.32500 37.16600
H  32.73600 1.94800 37.65000
H  41.37300 2.24300 33.03200
H  40.20800 1.04300 33.42400
H  40.00600 2.76100 33.95500
H  42.95700 1.50400 29.80500
H  42.31400 0.79000 31.23000
H  42.48000 2.56300 31.10900
H  36.72300 1.11900 26.26900
H  34.73200 3.11200 25.63600
H  37.37500 4.09800 25.80400
H  36.72400 3.18900 24.54800
H  38.26100 2.60800 25.32000
H  33.25000 1.21400 26.59600
H  34.58800 0.12400 26.34900
H  33.89000 -0.16400 24.28100
H  34.17800 1.66200 23.94300
H  32.58300 1.06000 24.51100
H  29.26600 3.85400 29.08400
H  30.29500 3.51800 27.64300
H  30.14500 5.15400 28.24100
H  30.92500 3.58100 33.96200
H  30.22900 7.52900 35.66300
H  31.51100 7.03000 36.64100
H  29.80800 6.50100 36.94200
Mg 17.56100 52.16900 26.02100
C  19.39800 50.50100 28.59400
C  15.30800 52.90500 28.34600
C  15.69600 53.11300 23.50200
C  19.97200 50.70900 23.74700
N  17.54500 51.85200 28.19400
C  18.35900 51.20100 29.07200
C  18.00200 51.57600 30.53600
C  16.54800 52.06500 30.35100
C  16.45900 52.27000 28.87800
C  15.53000 51.09500 30.87700
C  19.06700 52.56800 31.16400
C  19.22600 52.58900 32.72800
H  18.17900 51.93200 33.60900
N  15.79900 52.99100 25.91500
C  14.94700 53.22100 27.00000
C  13.79800 53.88700 26.65800
C  13.83100 53.99900 25.22700
C  15.14000 53.37500 24.76200
C  12.79000 54.44300 27.66800
C  12.85500 54.61400 24.23500
O  13.05300 54.72100 23.02400
C  11.54500 55.24600 24.79700
N  17.78200 51.99000 23.88800
C  16.89600 52.54900 23.10700
C  17.34500 52.43300 21.60900
C  18.77900 51.79300 21.72300
C  18.84100 51.36400 23.17800
C  16.43900 51.74200 20.60100
C  19.82400 52.76300 21.26400
C  20.92500 52.09100 20.39300
N  19.30500 50.90900 26.16800
C  20.20500 50.51100 25.15100
C  21.32800 49.74800 25.70500
C  21.05200 49.73600 27.09100
C  19.78500 50.44600 27.25200
C  22.37100 49.13900 25.01200
C  21.48200 49.26500 28.42700
O  22.41500 48.61600 28.76500
C  20.48600 49.84300 29.40200
C  20.04100 48.72200 30.29100
O  19.45000 47.73200 29.91800
O  20.37600 49.03200 31.61600
C  19.82300 48.16200 32.62300
H  14.66900 53.29000 29.14400
H  15.01800 53.58000 22.78400
H  20.69900 50.36900 23.00700
H  18.06500 50.65300 31.11100
H  16.46200 53.05200 30.80600
H  14.76800 51.76900 31.26900
H  15.97400 50.57600 31.72600
H  15.13200 50.44100 30.10000
H  18.68000 53.46700 30.68300
H  20.06700 52.44100 30.74900
H  19.23900 53.65200 32.96600
H  20.19900 52.17000 32.98500
H  11.79200 54.33600 27.24300
H  12.94800 55.51800 27.75600
H  12.82100 54.17800 28.72500
H  11.69400 56.06800 25.49700
H  10.96900 54.38300 25.13100
H  10.95300 55.79200 24.06300
H  17.38700 53.48400 21.32400
H  18.69300 50.86100 21.16500
H  16.86100 50.92200 20.01900
H  16.18000 52.47100 19.83300
H  15.57000 51.22300 21.00400
H  20.25700 53.11900 22.19800
H  19.28400 53.53400 20.71400
H  21.92100 52.14100 20.83200
H  20.89500 52.54300 19.40200
H  20.77700 51.01900 20.26200
H  23.35700 49.60200 25.05800
H  22.16300 48.97300 23.95500
H  22.54200 48.17800 25.49700
H  20.91300 50.58200 30.07900
H  20.21400 48.26900 33.63500
H  20.24100 47.17700 32.41700
H  18.73800 48.18500 32.52100

