158

Mg 47.65600 15.14100 28.33400
C  45.34000 15.14700 31.07000
C  49.67400 17.02200 30.33600
C  49.47200 15.34900 25.77000
C  45.07300 13.58700 26.36300
N  47.46100 15.96100 30.51200
C  46.53000 15.77200 31.42100
C  46.84400 16.45200 32.78500
C  48.12700 17.20300 32.36200
C  48.44300 16.70800 30.99800
C  48.13400 18.74400 32.53200
C  47.05900 15.40200 34.01100
C  46.31500 15.59200 35.27100
H  46.24200 17.08200 35.68000
N  49.31800 16.11500 28.13300
C  50.07700 16.72000 29.02000
C  51.40000 16.97500 28.44400
C  51.32400 16.50000 27.08300
C  49.97900 15.93900 26.94700
C  52.54600 17.69800 29.15000
C  52.40800 16.54900 25.99800
O  52.24900 16.18700 24.86600
C  53.87500 17.10600 26.33400
N  47.21600 14.71000 26.29400
C  48.29200 14.77600 25.44900
C  47.97100 14.20400 24.05300
C  46.66300 13.46700 24.35500
C  46.20900 13.99500 25.67500
C  47.89600 15.45600 23.02300
C  46.76500 11.90600 24.42600
C  47.73500 11.20600 25.41700
N  45.64300 14.54300 28.62900
C  44.76400 13.86600 27.76000
C  43.59600 13.45300 28.47600
C  43.73100 14.03800 29.74500
C  45.00900 14.65300 29.82600
C  42.44400 12.63800 27.94400
C  43.13800 14.02500 31.06600
O  42.09000 13.59500 31.58600
C  44.14600 14.84300 31.95200
C  43.55800 16.00500 32.53700
O  43.76800 17.18200 32.24800
O  42.85000 15.69300 33.67900
C  42.23200 16.70200 34.53300
H  50.49200 17.44200 30.92500
H  50.12200 15.20500 24.90400
H  44.40100 12.99800 25.73500
H  46.08200 17.18900 33.03900
H  49.02700 16.85700 32.87000
H  47.12000 19.09100 32.73100
H  48.40900 19.26500 31.61400
H  48.79500 18.94500 33.37500
H  48.12800 15.32900 34.21300
H  46.58100 14.50100 33.62700
H  46.83100 14.98600 36.01600
H  45.26500 15.30300 35.32400
H  52.34500 18.07100 30.15400
H  52.84300 18.55500 28.54500
H  53.44600 17.08800 29.22500
H  53.77200 18.19100 26.35100
H  54.37000 16.81900 25.40600
H  54.28500 16.62600 27.22200
H  48.77300 13.51600 23.78500
H  45.95700 13.64200 23.54200
H  48.36700 15.23900 22.06500
H  48.27100 16.41200 23.38900
H  46.82400 15.48500 22.82800
H  47.14800 11.74000 23.41900
H  45.79900 11.40100 24.43000
H  47.02600 10.85700 26.16800
H  48.47000 11.92800 25.77400
H  48.25300 10.39500 24.90500
H  41.87200 12.28700 28.80300
H  42.80900 11.75100 27.42400
H  41.84600 13.23500 27.25600
H  44.47700 14.11500 32.69200
H  41.35600 17.08600 34.01000
H  42.96600 17.38900 34.95700
H  41.86900 16.22900 35.44500
Mg -1.93400 34.90000 26.85400
C  -3.20400 32.92600 29.50800
C  -0.53300 36.94200 29.17100
C  -1.08900 36.92100 24.29700
C  -3.37800 32.63400 24.62300
N  -2.02600 34.95900 29.11800
C  -2.51700 34.03300 30.02000
C  -2.23200 34.43600 31.52400
C  -1.42000 35.79400 31.33800
C  -1.23100 35.88300 29.78700
C  -1.99800 37.08300 31.89500
C  -1.44400 33.33100 32.37600
C  -2.18300 32.98100 33.66700
H  -1.27700 32.96600 34.90600
N  -1.03300 36.75200 26.75500
C  -0.52200 37.43100 27.81000
C  0.18200 38.61700 27.35100
C  -0.06100 38.68700 25.90500
C  -0.73000 37.39000 25.60500
C  0.75800 39.64400 28.31100
C  0.25900 39.80200 24.90100
O  -0.16600 39.78300 23.76000
C  0.97400 40.99600 25.42100
N  -2.19800 34.69500 24.75100
C  -1.77000 35.73000 23.89300
C  -2.12800 35.29300 22.41800
C  -2.44100 33.81300 22.55300
C  -2.73400 33.68700 24.01700
C  -3.29500 36.12800 21.71200
C  -1.29500 32.80500 22.09400
C  -0.04800 32.76200 22.96500
N  -3.08500 33.19800 26.98900
C  -3.60700 32.38600 25.99100
C  -4.36100 31.33500 26.58000
C  -4.18600 31.51700 27.97400
C  -3.33400 32.58400 28.12400
C  -5.44500 30.54000 25.93500
C  -4.61100 31.01300 29.26600
O  -5.37800 30.11200 29.50900
C  -3.86700 31.87400 30.35100
C  -4.82600 32.56600 31.28800
O  -5.60100 33.42800 30.97200
O  -4.79600 31.93700 32.47800
C  -5.76200 32.26200 33.47900
H  -0.11800 37.63000 29.91100
H  -0.77900 37.56100 23.46800
H  -3.69700 31.81900 23.97000
H  -3.20100 34.72300 31.93300
H  -0.41800 35.67300 31.74900
H  -2.90800 36.98700 32.48800
H  -2.29200 37.72800 31.06800
H  -1.23300 37.61900 32.45700
H  -0.42300 33.64600 32.59200
H  -1.48700 32.42000 31.77900
H  -2.78100 32.08300 33.51800
H  -2.93600 33.75700 33.80700
H  0.09900 40.51200 28.32100
H  1.73900 40.04800 28.06100
H  0.93000 39.23900 29.30800
H  1.00800 41.69700 24.58700
H  2.00900 40.76900 25.67400
H  0.36800 41.33800 26.26100
H  -1.24100 35.34500 21.78600
H  -3.26600 33.56600 21.88400
H  -3.46900 37.01900 22.31500
H  -4.29000 35.70600 21.57900
H  -2.82100 36.38200 20.76300
H  -1.03900 33.11200 21.08000
H  -1.71800 31.80400 22.17300
H  0.83600 33.01900 22.38200
H  0.13600 31.77200 23.38200
H  -0.22100 33.45800 23.78600
H  -5.00600 29.79500 25.27100
H  -6.09700 31.11700 25.27900
H  -6.03300 30.07700 26.72700
H  -3.09700 31.27800 30.84100
H  -6.61000 32.83600 33.10700
H  -5.44300 32.79100 34.37600
H  -6.10200 31.31900 33.90600

