158

Mg 48.44200 34.28400 27.81600
C  46.40200 32.70000 30.17800
C  48.66800 36.95400 29.98800
C  49.82500 36.15800 25.26400
C  47.45600 31.81900 25.57200
N  47.78000 34.66900 29.91400
C  47.04800 33.83500 30.68200
C  47.09100 34.31300 32.10600
C  47.28800 35.85200 31.89600
C  47.98500 35.83600 30.53000
C  45.96100 36.77700 31.87500
C  48.33100 33.56200 32.78800
C  48.18100 33.49400 34.32400
H  47.21300 34.49000 35.02800
N  49.27200 36.18500 27.69700
C  49.34100 37.11500 28.75400
C  50.19600 38.18400 28.33500
C  50.47500 37.99800 27.00700
C  49.88900 36.74200 26.57300
C  50.64300 39.32200 29.22600
C  51.30000 38.87500 26.06200
O  51.21200 38.72000 24.84600
C  52.21300 39.97300 26.60100
N  48.47500 34.11300 25.77000
C  49.17100 34.96200 24.94600
C  49.32100 34.33000 23.53900
C  48.70400 32.92400 23.67900
C  48.13300 32.93500 25.10500
C  48.82900 35.26400 22.41600
C  49.63500 31.74900 23.36500
C  50.52000 31.79200 22.05800
N  47.30000 32.47800 27.85100
C  46.99000 31.61300 26.84700
C  46.10600 30.58400 27.31300
C  45.87200 30.94500 28.71800
C  46.52400 32.15700 28.91100
C  45.68800 29.39400 26.48500
C  45.21900 30.53000 29.90900
O  44.54800 29.59100 30.30000
C  45.38800 31.78800 30.84200
C  45.57100 31.44000 32.29700
O  46.39100 30.75500 32.83500
O  44.49200 32.01400 32.92600
C  44.34300 31.59400 34.38300
H  48.64200 37.76100 30.72300
H  50.34400 36.62500 24.42400
H  47.19000 30.99100 24.91100
H  46.10500 34.24400 32.56500
H  48.02100 36.17300 32.63600
H  45.88500 37.38400 32.77700
H  45.11300 36.10500 31.74500
H  45.91900 37.45700 31.02400
H  49.25600 34.08900 32.55200
H  48.35200 32.49800 32.55100
H  49.17100 33.80400 34.65800
H  47.94500 32.51000 34.72900
H  51.70900 39.31300 29.45200
H  50.11900 39.25300 30.17900
H  50.36100 40.24500 28.71900
H  51.64600 40.78600 27.05500
H  52.72200 40.39600 25.73500
H  52.83500 39.44100 27.32100
H  50.38400 34.22200 23.32300
H  47.83300 32.77200 23.04200
H  48.47200 34.51900 21.70600
H  49.51900 35.97300 21.96000
H  47.94600 35.87700 22.59600
H  49.07100 30.81600 23.39100
H  50.36400 31.68200 24.17200
H  50.32800 32.63900 21.39900
H  50.20800 30.98400 21.39700
H  51.57600 31.63000 22.27600
H  46.39000 29.20900 25.67200
H  44.75300 29.57800 25.95600
H  45.64100 28.47400 27.06800
H  44.46700 32.34000 30.66000
H  44.30300 30.53300 34.63200
H  43.54600 32.04400 34.97400
H  45.26500 32.00900 34.79000
Mg 41.97500 40.81900 26.63200
C  41.61500 43.56000 28.88100
C  42.86900 38.87200 29.39100
C  43.07500 38.46800 24.50600
C  41.67000 43.11600 24.08200
N  42.01500 41.15200 28.91900
C  41.72600 42.30800 29.54700
C  41.84800 42.06400 31.08000
C  42.70000 40.68000 31.18200
C  42.51200 40.15000 29.81400
C  44.15000 40.69400 31.70600
C  40.39200 41.96000 31.70600
C  40.15700 43.02500 32.82800
H  39.69700 42.49500 34.21800
N  42.67900 38.85200 26.90200
C  42.90900 38.19800 28.13100
C  43.42500 36.91000 27.81800
C  43.56400 36.78300 26.41900
C  43.17600 38.09500 25.87500
C  43.76500 35.88500 28.91500
C  44.13100 35.57500 25.55500
O  44.35600 35.86900 24.38000
C  44.43100 34.28100 26.04400
N  42.51500 40.88700 24.53900
C  42.72200 39.70700 23.89400
C  42.51900 39.95400 22.40900
C  42.02900 41.45500 22.24500
C  42.01100 41.83800 23.71800
C  43.87800 39.61600 21.62200
C  40.65100 41.51500 21.52400
C  39.39200 41.37000 22.47500
N  41.67200 42.90300 26.45300
C  41.56400 43.67600 25.35900
C  41.26300 45.03100 25.66100
C  41.28600 45.01600 27.05900
C  41.54400 43.74200 27.50400
C  40.93100 46.10600 24.67100
C  41.04500 45.87700 28.21100
O  40.71700 47.06100 28.28500
C  41.22700 44.94600 29.46400
C  42.27700 45.56400 30.31400
O  43.48400 45.58700 30.08800
O  41.68300 46.16200 31.38800
C  42.58800 46.77700 32.33100
H  43.38200 38.24300 30.12200
H  43.11700 37.71900 23.71300
H  41.33000 43.78900 23.29200
H  42.38300 42.89700 31.53500
H  42.13100 40.03700 31.85400
H  44.80500 39.99700 31.18400
H  44.09800 40.65900 32.79400
H  44.56500 41.67300 31.46300
H  40.19000 40.99900 32.18000
H  39.59200 41.96200 30.96600
H  39.35700 43.66500 32.45800
H  41.04900 43.63500 32.97000
H  43.16800 34.99700 28.70900
H  43.48200 36.33200 29.86800
H  44.81500 35.62100 29.03900
H  45.20700 33.88700 25.38900
H  43.53900 33.79000 25.65600
H  44.61200 34.24100 27.11900
H  41.69600 39.27200 22.19300
H  42.74800 42.09100 21.73000
H  43.84100 39.86800 20.56300
H  44.06000 38.54100 21.64000
H  44.67900 40.19900 22.07700
H  40.62900 40.74100 20.75800
H  40.60500 42.46100 20.98400
H  38.64800 40.71100 22.02700
H  38.94700 42.35500 22.61000
H  39.62700 40.98900 23.46900
H  41.23400 45.78000 23.67600
H  41.51500 46.97100 24.98300
H  39.86800 46.31600 24.78600
H  40.28800 44.77600 29.99200
H  42.00200 47.17700 33.15800
H  43.04200 47.59700 31.77500
H  43.36100 46.07500 32.64300

