158

Mg 25.73100 0.36400 29.41900
C  27.81000 0.21200 32.32100
C  23.01800 0.82100 31.52900
C  23.77000 0.10200 26.71200
C  28.55000 -0.70200 27.50800
N  25.42900 0.47900 31.65400
C  26.42800 0.40100 32.62200
C  25.80300 0.53200 34.03100
C  24.26900 0.65500 33.74800
C  24.21400 0.67300 32.20000
C  23.31600 -0.36800 34.46000
C  26.50100 1.59100 34.94300
C  25.50400 2.09000 36.06300
H  25.95500 1.97800 37.44300
N  23.73100 0.60000 29.12900
C  22.79100 0.79100 30.10200
C  21.48200 0.85100 29.45900
C  21.74600 0.86400 28.02700
C  23.17600 0.46900 27.94300
C  20.20300 1.01800 30.28300
C  20.79200 1.11100 26.82200
O  21.02100 1.11100 25.57700
C  19.52600 1.76300 27.21600
N  26.15300 -0.39700 27.37800
C  25.16100 -0.27800 26.40600
C  25.61200 -0.85500 25.03800
C  27.17400 -0.96600 25.25200
C  27.33100 -0.65500 26.76100
C  24.99300 -2.17000 24.74300
C  28.02000 0.06400 24.40900
C  27.56500 1.46600 24.54900
N  27.76300 -0.05800 29.75300
C  28.73200 -0.52600 28.93800
C  29.98600 -0.62900 29.67600
C  29.65800 -0.37600 31.02100
C  28.28700 -0.10100 31.05700
C  31.23800 -1.07000 29.01300
C  30.18200 -0.25900 32.37000
O  31.36600 -0.33200 32.78200
C  29.02200 0.03200 33.27200
C  28.82400 -1.00900 34.33900
O  28.64000 -2.17800 34.11300
O  29.11400 -0.45900 35.59800
C  29.10200 -1.42600 36.79000
H  22.11800 0.97900 32.12600
H  23.03600 -0.11000 25.93200
H  29.40200 -1.11400 26.96400
H  26.05200 -0.41000 34.52000
H  23.91200 1.64100 34.04400
H  22.51900 0.16800 34.97500
H  23.84800 -1.02700 35.14700
H  22.92700 -1.00400 33.66500
H  26.96500 2.34200 34.30300
H  27.34900 1.03100 35.33700
H  24.59100 1.49700 36.11100
H  25.34400 3.16300 35.95400
H  20.33600 0.59000 31.27700
H  19.26200 0.67600 29.85200
H  19.93200 2.07100 30.37000
H  18.83400 1.08900 27.72000
H  19.02300 2.14400 26.32700
H  19.81300 2.67900 27.73200
H  25.34000 -0.19400 24.21500
H  27.55800 -1.96700 25.05500
H  24.17600 -2.37000 25.43600
H  25.73000 -2.91300 25.04800
H  24.63300 -2.27700 23.71900
H  28.00200 -0.30800 23.38400
H  29.06300 -0.07900 24.69200
H  26.72200 1.67100 25.20900
H  27.35600 1.85800 23.55400
H  28.32200 2.10700 25.00000
H  31.75700 -1.43200 29.90000
H  31.89900 -0.30900 28.59900
H  30.94800 -1.79500 28.25200
H  29.23600 1.01300 33.69600
H  29.03100 -2.47500 36.50000
H  28.23200 -1.36600 37.44400
H  29.97200 -1.33300 37.44000
Mg 47.88200 34.78700 26.63900
C  45.70600 33.25000 29.04000
C  48.19300 37.59800 28.75000
C  49.71100 36.30600 24.32500
C  47.21300 32.19300 24.51400
N  46.93500 35.28800 28.63800
C  46.26200 34.46600 29.47400
C  46.42200 34.99400 30.95000
C  46.86400 36.55400 30.64500
C  47.40500 36.53900 29.22800
C  45.62700 37.53100 30.89700
C  47.52400 34.32100 31.84700
C  47.30000 34.45900 33.43000
H  46.11500 35.26900 33.92400
N  48.79900 36.70200 26.56500
C  48.77900 37.69800 27.46700
C  49.40000 38.89100 26.97300
C  49.80700 38.52600 25.65200
C  49.43600 37.12000 25.45000
C  49.40700 40.22200 27.79100
C  50.42500 39.43900 24.58200
O  50.65800 39.14100 23.43200
C  50.86500 40.78000 25.03700
N  48.21800 34.42700 24.61300
C  49.14200 35.10400 23.95200
C  49.63200 34.32600 22.72400
C  48.80200 33.04400 22.65900
C  48.03800 33.19800 24.02800
C  49.56900 35.09300 21.42900
C  49.66500 31.67100 22.57800
C  49.64300 31.03100 21.16900
N  46.65300 33.14300 26.66400
C  46.57300 32.11500 25.75000
C  45.64600 31.06800 26.24900
C  45.27800 31.49200 27.46400
C  45.93100 32.74000 27.73200
C  45.18100 29.94700 25.46200
C  44.45400 31.18300 28.63100
O  43.77300 30.19800 28.81400
C  44.71400 32.22300 29.70000
C  45.09700 31.66100 30.95300
O  46.08900 31.04100 31.13600
O  44.13400 31.90800 31.92000
C  44.40000 31.32400 33.25800
H  48.14800 38.40900 29.48000
H  50.43100 36.65700 23.58200
H  46.99500 31.37400 23.82500
H  45.52700 34.94100 31.56900
H  47.68200 36.79000 31.32600
H  44.73100 36.97000 31.16200
H  45.45300 38.09100 29.97800
H  45.87700 38.13500 31.76900
H  48.52600 34.57400 31.50000
H  47.45100 33.24700 31.67500
H  48.20300 34.91700 33.83500
H  47.32300 33.41800 33.75100
H  48.91200 40.96500 27.16600
H  50.44600 40.51500 27.94200
H  48.75900 40.15200 28.66400
H  50.00800 41.43600 25.18400
H  51.64500 41.10100 24.34700
H  51.36100 40.73500 26.00700
H  50.68800 34.13700 22.91900
H  48.00400 33.10700 21.91900
H  49.01300 34.57800 20.64500
H  50.54300 35.38400 21.03600
H  49.06000 36.02900 21.65700
H  49.07200 31.03500 23.23500
H  50.69700 31.65000 22.92900
H  49.26300 31.68300 20.38300
H  49.06200 30.10900 21.19400
H  50.65500 30.88600 20.79000
H  45.90000 29.12700 25.48600
H  44.99200 30.33000 24.45900
H  44.20800 29.62000 25.83000
H  43.67400 32.54500 29.65700
H  43.64500 30.56600 33.46800
H  44.15600 32.00200 34.07500
H  45.45900 31.13700 33.43300

