158

Mg 23.25300 -5.32400 45.50000
C  25.34300 -2.99800 44.01400
C  20.71000 -4.28300 43.69300
C  21.65700 -8.25700 46.14300
C  26.31100 -6.79600 47.06200
N  23.15300 -3.97000 43.97400
C  24.06100 -3.04900 43.60700
C  23.47900 -2.06200 42.62900
C  21.96500 -2.12300 42.96500
C  21.90600 -3.59800 43.53600
C  21.47200 -1.02600 43.97900
C  23.80100 -2.32000 41.09600
C  24.80300 -1.26900 40.48800
H  25.88700 -1.79100 39.49200
N  21.41200 -6.07500 45.05700
C  20.45000 -5.45700 44.32000
C  19.28700 -6.32900 44.16600
C  19.51900 -7.50300 44.95000
C  20.92600 -7.32500 45.42200
C  17.99300 -5.79500 43.36700
C  18.51900 -8.67600 45.27900
O  17.36200 -8.57600 44.78100
C  18.79100 -9.89600 46.12300
N  23.91800 -7.19100 46.52200
C  22.96200 -8.16600 46.69900
C  23.57800 -9.35600 47.53200
C  24.97800 -8.71700 48.00900
C  25.09000 -7.55200 47.21100
C  22.62000 -9.87300 48.62500
C  26.17400 -9.72700 47.87500
C  27.21200 -9.66300 48.96200
N  25.43800 -4.95800 45.63400
C  26.48900 -5.58900 46.23800
C  27.71500 -4.78300 46.10900
C  27.31000 -3.77800 45.18200
C  25.94900 -3.93500 44.97400
C  29.09400 -5.08200 46.69300
C  27.77400 -2.64600 44.33300
O  28.93100 -2.26900 44.11900
C  26.53400 -2.22800 43.56800
C  26.37200 -0.79600 43.92300
O  26.67000 0.13900 43.15200
O  25.77300 -0.66400 45.19200
C  25.70900 0.73700 45.58900
H  19.86300 -3.70100 43.32300
H  21.10700 -9.12000 46.52500
H  27.24800 -7.19800 47.45500
H  23.92200 -1.12500 42.96800
H  21.47200 -1.99700 42.00100
H  22.15900 -0.23800 44.28700
H  21.39100 -1.63500 44.87900
H  20.53700 -0.57000 43.65400
H  22.93100 -2.25400 40.44300
H  24.30200 -3.27300 40.92800
H  25.25200 -0.75700 41.34000
H  24.32000 -0.46600 39.93200
H  17.99200 -5.93900 42.28700
H  17.89300 -4.71900 43.51500
H  17.10200 -6.22400 43.82500
H  19.70600 -10.39400 45.80100
H  17.96500 -10.55100 45.84800
H  18.83100 -9.75200 47.20300
H  23.85600 -10.12100 46.80700
H  24.99200 -8.28000 49.00700
H  21.64500 -9.38600 48.66400
H  23.17700 -9.85000 49.56200
H  22.36400 -10.90400 48.38100
H  26.76800 -9.42600 47.01200
H  25.82700 -10.75900 47.81600
H  26.87500 -9.10600 49.83500
H  28.21700 -9.39200 48.64100
H  27.34400 -10.69400 49.29100
H  29.19700 -6.14300 46.91900
H  29.35200 -4.51300 47.58600
H  29.79100 -4.87100 45.88200
H  26.85600 -2.36100 42.53600
H  24.94600 0.89700 46.35100
H  25.41400 1.37600 44.75700
H  26.72200 0.87800 45.96500
Mg 42.63100 41.17100 26.09100
C  41.63900 43.41300 28.72100
C  43.56600 39.00900 28.53900
C  43.65000 39.15800 23.66600
C  41.93500 43.65600 23.83600
N  42.65500 41.26500 28.50700
C  42.07200 42.17200 29.28000
C  42.10500 41.61800 30.77800
C  42.92000 40.27000 30.68600
C  43.07500 40.18700 29.18100
C  44.22700 40.18000 31.58200
C  40.71800 41.66100 31.53800
C  40.77400 41.24300 33.02000
H  40.64200 42.32700 34.00900
N  43.50300 39.32500 26.08100
C  43.81800 38.59000 27.20000
C  44.46800 37.38000 26.76500
C  44.42100 37.31900 25.33300
C  43.80300 38.60300 24.97000
C  45.13800 36.50600 27.77200
C  44.92100 36.20500 24.37300
O  44.88600 36.27000 23.19000
C  45.60300 34.94600 24.93100
N  42.97300 41.45000 23.99700
C  43.24300 40.41000 23.23500
C  43.15200 40.84800 21.73300
C  42.43900 42.27100 21.83400
C  42.45600 42.50000 23.31700
C  44.55500 40.65700 21.12600
C  41.11400 42.37800 21.15000
C  40.00900 41.50100 21.61200
N  41.96000 43.11500 26.22700
C  41.84100 43.98900 25.21200
C  41.40400 45.29800 25.76100
C  41.25100 45.08700 27.11000
C  41.64900 43.72300 27.33200
C  41.19800 46.57700 24.95000
C  40.75700 45.67800 28.43000
O  40.22700 46.75700 28.66300
C  40.93800 44.54800 29.46900
C  41.85600 44.97800 30.53600
O  43.11900 44.86800 30.52700
O  41.10700 45.69900 31.50100
C  41.92600 46.26300 32.56800
H  43.60800 38.23300 29.30700
H  43.97700 38.66300 22.74900
H  41.65200 44.40900 23.09700
H  42.74600 42.31900 31.31100
H  42.17100 39.52200 30.94500
H  44.42900 41.11800 32.10000
H  45.06100 40.05500 30.89200
H  44.14800 39.39100 32.32900
H  40.10200 40.88200 31.08900
H  40.17600 42.58600 31.34200
H  41.67800 40.66600 33.21600
H  39.94800 40.54900 33.17600
H  44.57500 35.58700 27.93300
H  45.21900 37.02700 28.72700
H  46.14900 36.18400 27.52600
H  45.65700 34.11700 24.22500
H  44.91500 34.57800 25.69100
H  46.50800 35.24800 25.45900
H  42.43400 40.18900 21.24500
H  43.17400 42.99100 21.47200
H  44.68000 39.84100 20.41400
H  45.17300 40.38100 21.98000
H  44.89200 41.60600 20.71000
H  41.24700 42.14100 20.09500
H  40.73400 43.39500 21.25100
H  39.30500 42.12500 22.16200
H  40.46300 40.72900 22.23400
H  39.40200 41.12200 20.78900
H  41.40700 46.47300 23.88500
H  41.95400 47.20600 25.42000
H  40.21500 46.91500 25.27600
H  39.98500 44.22300 29.88800
H  42.37300 45.44400 33.13100
H  41.39300 47.04100 33.11500
H  42.80200 46.77500 32.17000

