158

Mg 48.99100 46.59500 42.03800
C  45.94300 47.14700 40.48700
C  49.15600 43.46300 40.35900
C  52.37100 46.48400 42.50000
C  49.07800 50.04400 42.69800
N  47.67200 45.49300 40.60000
C  46.51100 45.94900 40.13800
C  45.99700 44.92400 39.05500
C  46.83900 43.64100 39.29900
C  47.98000 44.18800 40.13200
C  46.26400 42.28400 39.75200
C  46.16700 45.44500 37.60600
C  45.05300 45.12700 36.60200
H  45.28700 44.91700 35.09300
N  50.51900 45.08700 41.72700
C  50.39000 43.93700 41.06200
C  51.55600 43.13800 41.34900
C  52.52000 43.93600 41.87300
C  51.85500 45.24000 42.05800
C  51.66300 41.66100 40.85000
C  53.92300 43.41600 42.33300
O  54.35800 42.25200 42.28700
C  55.00500 44.48300 42.90600
N  50.49200 48.09500 42.42700
C  51.77400 47.76000 42.60000
C  52.59600 48.95800 43.18700
C  51.59800 50.12300 43.06400
C  50.28400 49.40000 42.83500
C  53.04000 48.60600 44.66400
C  51.95400 51.07600 41.87000
C  52.27600 52.52100 42.29300
N  47.68500 48.22400 41.90200
C  47.84400 49.53200 42.22700
C  46.60000 50.25500 42.05800
C  45.87200 49.33900 41.22800
C  46.61200 48.14700 41.19500
C  46.28700 51.64100 42.41700
C  44.62600 49.21500 40.49600
O  43.73900 50.01800 40.23100
C  44.66600 47.65200 39.95900
C  43.40100 46.92500 40.46100
O  43.24300 46.22000 41.45400
O  42.34700 47.31700 39.66600
C  41.15700 46.49200 39.95100
H  49.22400 42.44000 39.98500
H  53.40600 46.48800 42.84600
H  49.01000 51.11000 42.92800
H  44.95700 44.71200 39.30400
H  47.34500 43.48800 38.34600
H  45.17500 42.27100 39.80200
H  46.64100 42.03400 40.74300
H  46.65300 41.52900 39.06800
H  47.13200 45.11300 37.22500
H  46.25000 46.53200 37.58900
H  44.35200 45.95800 36.67100
H  44.51600 44.27600 37.02000
H  52.55200 41.09700 41.13100
H  51.41100 41.54400 39.79600
H  50.87600 41.18000 41.43100
H  55.12700 45.36900 42.28300
H  55.95100 43.95400 43.01900
H  54.59000 44.90300 43.82200
H  53.51900 49.10400 42.62700
H  51.35400 50.60900 44.00900
H  52.56900 47.70400 45.05500
H  52.91000 49.55000 45.19300
H  54.11500 48.42400 44.63200
H  51.16500 51.19000 41.12700
H  52.88000 50.78500 41.37300
H  51.87000 53.19200 41.53600
H  53.34300 52.73000 42.36100
H  51.91500 52.68600 43.30800
H  47.03800 52.31000 41.99600
H  46.12000 51.88700 43.46500
H  45.32000 51.87400 41.97200
H  44.67700 47.75400 38.87300
H  40.96100 46.31800 41.00900
H  41.30000 45.50200 39.51800
H  40.25000 46.89100 39.49600
Mg 6.66400 53.53800 39.59800
C  6.46100 49.81600 39.50600
C  10.00900 53.12500 38.85300
C  6.67300 56.71300 39.33100
C  3.22000 53.42500 40.09100
N  8.07600 51.70100 39.21000
C  7.78700 50.32900 39.35800
C  9.08400 49.48700 39.14000
C  10.21800 50.52400 39.32500
C  9.42400 51.86700 39.12300
C  10.94400 50.51900 40.69700
C  9.16800 48.80500 37.72700
C  8.92500 49.75600 36.52300
H  7.65300 49.69200 35.73500
N  8.11600 54.81900 39.03900
C  9.44500 54.44800 38.70200
C  10.08800 55.60700 38.38900
C  9.16800 56.75900 38.59500
C  7.94900 56.17700 39.06900
C  11.52400 55.66400 37.82200
C  9.53400 58.22500 38.34000
O  10.64700 58.50800 37.91300
C  8.59400 59.39200 38.61200
N  5.15500 54.86200 39.51300
C  5.44800 56.15400 39.61600
C  4.16600 57.04600 39.86800
C  3.11400 55.91500 40.19900
C  3.88400 54.63900 39.96800
C  4.30600 58.12600 41.00700
C  1.72900 56.01800 39.56700
C  0.57200 55.96500 40.54500
N  5.06200 51.93300 39.57600
C  3.73700 52.14800 39.90100
C  3.04500 50.85800 40.07300
C  4.11300 49.93100 39.95100
C  5.28300 50.62800 39.63700
C  1.57400 50.65200 40.44400
C  4.39200 48.58000 40.02700
O  3.64600 47.60100 40.13200
C  5.86900 48.42300 39.72400
C  6.00900 47.60900 38.57200
O  5.77500 47.93000 37.41800
O  6.46700 46.30800 38.91000
C  6.17100 45.13900 37.97600
H  11.08700 52.98700 38.74500
H  6.70600 57.80200 39.24600
H  2.16900 53.38000 40.38500
H  9.14200 48.65900 39.84600
H  10.98600 50.53300 38.55200
H  11.98900 50.39900 40.41000
H  10.83300 49.68300 41.38800
H  10.91400 51.40200 41.33500
H  8.35400 48.08100 37.71900
H  10.11800 48.27100 37.70300
H  9.78300 49.65900 35.85700
H  9.06100 50.76700 36.90600
H  12.24100 55.79100 38.63300
H  11.55500 56.48500 37.10600
H  11.89700 54.78600 37.29400
H  9.08200 60.35900 38.73200
H  8.25300 59.07000 39.59600
H  7.72000 59.35200 37.96200
H  4.05000 57.54400 38.90500
H  3.03700 55.89700 41.28600
H  4.40500 59.16400 40.68900
H  5.21900 57.76200 41.47800
H  3.51000 57.94900 41.73000
H  1.61400 55.18800 38.87000
H  1.69700 56.98200 39.05800
H  -0.38300 55.87600 40.02600
H  0.52100 56.91100 41.08500
H  0.56600 54.96100 40.97000
H  1.51000 49.59300 40.69000
H  0.82600 51.00800 39.73600
H  1.46300 51.25900 41.34300
H  6.24100 47.88200 40.59400
H  7.11000 44.76800 37.56500
H  5.34700 45.41200 37.31800
H  5.70600 44.34900 38.56600

