158

Mg 0.56500 8.67200 27.23400
C  1.33800 10.63700 29.93000
C  0.14400 5.97500 29.43400
C  0.04000 6.63200 24.59000
C  1.37800 11.33700 25.07100
N  0.92600 8.34500 29.43900
C  0.95900 9.38500 30.37600
C  0.85000 8.81700 31.82200
C  0.69800 7.26500 31.56400
C  0.54100 7.11100 30.02000
C  1.79300 6.34600 32.09700
C  -0.25100 9.44600 32.70200
C  0.09200 9.90500 34.12000
H  1.17800 9.20400 34.87800
N  0.04700 6.61300 27.06000
C  -0.12600 5.65500 28.03300
C  -0.57400 4.41600 27.51700
C  -0.73700 4.60400 26.10900
C  -0.26500 6.00500 25.80500
C  -0.52600 3.27300 28.50300
C  -1.23100 3.62500 25.12800
O  -1.58000 3.90900 23.98300
C  -1.30400 2.23500 25.55700
N  0.81100 8.89000 25.14700
C  0.51300 7.90300 24.29100
C  0.74800 8.43000 22.85900
C  0.74000 10.00200 23.03300
C  1.00800 10.05100 24.50100
C  2.08500 7.99600 22.15200
C  -0.68500 10.63400 22.79100
C  -1.24900 10.99200 21.37200
N  1.27300 10.66000 27.34400
C  1.48700 11.63800 26.43900
C  1.85200 12.83900 27.10300
C  1.79900 12.50700 28.45600
C  1.49800 11.11800 28.57500
C  2.23500 14.13800 26.41900
C  1.90900 13.08600 29.77600
O  2.07700 14.22100 30.12900
C  1.43400 11.90900 30.75400
C  2.59300 11.73800 31.75200
O  3.61300 11.11200 31.56500
O  2.26200 12.48900 32.85200
C  3.14900 12.55900 33.94400
H  0.16700 5.24200 30.24400
H  -0.14400 5.95800 23.75100
H  1.47200 12.09200 24.28700
H  1.78000 8.94700 32.37500
H  -0.26700 6.96400 31.97200
H  2.67300 6.86900 32.47100
H  2.04200 5.48800 31.47100
H  1.22800 5.92100 32.92700
H  -1.01800 8.71200 32.94900
H  -0.81200 10.29300 32.30800
H  -0.86100 9.75300 34.62700
H  0.25800 10.98200 34.09900
H  -0.54300 2.25800 28.10700
H  -1.42600 3.43900 29.09500
H  0.22600 3.27300 29.29100
H  -1.62200 1.56400 24.75800
H  -1.94000 2.03400 26.41900
H  -0.25200 2.06800 25.78900
H  -0.11400 8.13300 22.26100
H  1.50300 10.43400 22.38600
H  2.70000 8.74100 21.64800
H  1.75800 7.18100 21.50700
H  2.76700 7.58100 22.89400
H  -0.71100 11.58900 23.31400
H  -1.41100 10.01300 23.31500
H  -0.56300 10.59300 20.62500
H  -1.27700 12.08100 21.36900
H  -2.24100 10.55300 21.26700
H  1.32300 14.51900 25.96000
H  2.90200 13.84300 25.60800
H  2.80700 14.73100 27.13200
H  0.50600 12.25200 31.21200
H  3.06000 13.57400 34.33400
H  4.17700 12.26600 33.73000
H  2.67100 11.90300 34.67200
Mg 36.52300 49.12700 25.78500
C  36.67700 47.09900 28.74400
C  35.69500 51.71600 27.80100
C  36.07100 50.88300 23.01500
C  36.88900 46.15500 23.94500
N  36.31400 49.37100 28.01400
C  36.44400 48.43800 28.97800
C  36.30300 49.05900 30.29300
C  35.65500 50.49800 30.07100
C  35.85400 50.55800 28.57700
C  34.19100 50.64000 30.46700
C  37.62200 49.16800 31.03600
C  37.57600 49.10500 32.60300
H  36.19400 49.35000 33.25700
N  36.18400 51.11800 25.44600
C  35.87400 51.99500 26.43000
C  35.69900 53.36000 25.75900
C  35.86600 53.09800 24.30500
C  36.03600 51.65000 24.17400
C  35.44600 54.72900 26.48400
C  35.78200 54.06000 23.10800
O  35.80300 53.66900 21.93600
C  35.76100 55.54100 23.35600
N  36.33100 48.56300 23.80700
C  36.17000 49.45800 22.78700
C  36.31300 48.81400 21.35500
C  36.90700 47.42900 21.72300
C  36.61400 47.32800 23.23900
C  34.94000 48.73600 20.72700
C  38.49600 47.29400 21.51600
C  39.02700 47.11300 20.08100
N  36.69700 47.04900 26.14900
C  36.97800 46.00200 25.34000
C  37.28100 44.76300 26.03500
C  37.08200 45.15200 27.39400
C  36.79500 46.52700 27.41200
C  37.61100 43.46300 25.46100
C  37.11000 44.66300 28.73600
O  37.27700 43.51700 29.12700
C  36.92000 45.94100 29.66600
C  35.70000 45.70100 30.54500
O  34.58500 45.53100 30.18200
O  36.08300 45.75500 31.85900
C  35.02700 45.52200 32.83700
H  35.37800 52.63300 28.30300
H  36.10100 51.43800 22.07500
H  37.28200 45.29200 23.40200
H  35.59700 48.51400 30.91900
H  36.11700 51.24600 30.71600
H  33.57800 50.77600 29.57500
H  34.12200 51.54700 31.06700
H  33.94100 49.88200 31.20900
H  38.06600 50.11100 30.71800
H  38.26400 48.36600 30.67200
H  38.27100 49.88500 32.91600
H  37.95200 48.11500 32.86100
H  34.73700 55.31500 25.90100
H  36.34600 55.33900 26.55900
H  34.91500 54.56900 27.42200
H  36.56400 55.64300 24.08600
H  34.75600 55.82600 23.66800
H  36.02600 56.01900 22.41200
H  37.02700 49.34500 20.72400
H  36.29600 46.65400 21.26000
H  34.42200 47.79000 20.88100
H  34.94000 48.98800 19.66600
H  34.37000 49.41900 21.35700
H  38.68500 46.37300 22.06800
H  38.96500 48.19600 21.91100
H  38.22200 47.39100 19.40100
H  39.16800 46.03200 20.08300
H  39.85800 47.77500 19.83800
H  38.61700 43.39900 25.04700
H  36.87000 43.15200 24.72400
H  37.56100 42.70900 26.24600
H  37.78700 46.06500 30.31500
H  34.10500 46.03700 32.56900
H  35.43800 45.79600 33.80800
H  34.64400 44.50100 32.85500

