158

Mg 46.88400 25.79400 28.38500
C  47.68100 28.03700 30.90800
C  45.71500 23.57800 30.83900
C  46.45400 23.51600 26.02300
C  48.60600 27.90200 26.19200
N  46.69300 25.87800 30.58900
C  47.04000 26.90300 31.40200
C  46.74700 26.62900 32.89000
C  46.19600 25.17400 32.81600
C  46.19600 24.82200 31.29300
C  47.05000 24.16100 33.67100
C  45.82700 27.66800 33.61400
C  46.43100 28.48500 34.87900
H  45.42900 28.79700 36.02500
N  45.86300 23.99200 28.34800
C  45.46100 23.24100 29.45200
C  44.71200 22.13900 28.94300
C  44.99100 22.03700 27.53000
C  45.88100 23.18000 27.27200
C  43.99500 21.20200 29.86700
C  44.72300 20.95400 26.50800
O  45.21500 20.89600 25.37400
C  43.86200 19.79400 27.03700
N  47.50000 25.65600 26.42400
C  47.16400 24.63300 25.60900
C  47.40400 24.95900 24.13500
C  48.25200 26.29800 24.22700
C  48.15600 26.63100 25.70600
C  48.11900 23.75000 23.40300
C  47.64800 27.37600 23.33200
C  48.56300 28.25400 22.47700
N  47.97400 27.57700 28.47100
C  48.47400 28.38700 27.43600
C  48.86800 29.67600 28.00400
C  48.70300 29.50100 29.33900
C  48.05500 28.25700 29.58100
C  49.50300 30.80400 27.35200
C  48.86900 30.14400 30.59600
O  49.33200 31.19900 30.85900
C  48.20600 29.17000 31.63100
C  49.25100 28.76100 32.51400
O  49.99000 27.79700 32.37500
O  49.33600 29.68600 33.57100
C  50.30300 29.37800 34.58700
H  45.42300 22.95200 31.68500
H  46.11800 22.89700 25.18900
H  49.00900 28.62400 25.47900
H  47.73600 26.74300 33.33300
H  45.14600 25.19100 33.11000
H  46.40600 23.50000 34.25100
H  47.63600 24.78200 34.34900
H  47.70200 23.52000 33.07900
H  45.00500 27.14800 34.10700
H  45.36500 28.26400 32.82600
H  46.74100 29.43200 34.43800
H  47.30900 27.95000 35.24200
H  42.91600 21.29200 29.74400
H  44.29900 21.43900 30.88600
H  44.30200 20.16800 29.71000
H  44.46500 19.07700 27.59400
H  43.50100 19.20100 26.19600
H  42.95600 20.14400 27.53100
H  46.43200 25.18700 23.69700
H  49.29800 26.22000 23.93000
H  47.40400 23.11300 22.88200
H  48.69000 23.18600 24.14000
H  48.86100 24.16400 22.72000
H  47.14600 28.10400 23.97100
H  47.00800 26.89800 22.59100
H  49.57800 27.85600 22.48700
H  48.48400 29.28400 22.82400
H  48.20300 28.13700 21.45500
H  49.20300 31.01200 26.32500
H  50.49700 30.35700 27.34400
H  49.47300 31.65800 28.02900
H  47.43500 29.76500 32.12100
H  50.72700 30.23300 35.11300
H  51.16800 28.95900 34.07300
H  49.96000 28.58700 35.25500
Mg -12.95700 15.90900 41.98300
C  -9.82500 14.22000 41.77500
C  -11.40700 18.61400 40.45000
C  -15.95000 17.16900 41.66300
C  -14.24700 12.85800 42.92300
N  -10.83600 16.33400 41.16500
C  -9.77800 15.54400 41.18600
C  -8.57000 16.22900 40.57300
C  -9.03700 17.68900 40.40100
C  -10.53000 17.55900 40.64100
C  -8.42100 18.63400 41.47700
C  -7.96200 15.51400 39.33100
C  -6.46400 15.33800 39.24200
H  -5.71900 16.02500 38.08700
N  -13.59300 17.70000 41.20700
C  -12.82500 18.71500 40.57600
C  -13.69600 19.80700 40.25900
C  -15.03400 19.38200 40.52500
C  -14.92300 18.04000 41.17300
C  -13.12600 21.11500 39.62900
C  -16.31000 20.11700 40.15400
O  -16.19400 21.16700 39.51900
C  -17.69000 19.57300 40.40500
N  -14.81600 15.05500 42.09700
C  -15.92900 15.81800 42.00400
C  -17.24200 15.10400 42.32900
C  -16.72100 13.63900 42.47100
C  -15.14200 13.85900 42.49100
C  -18.03200 15.62700 43.57700
C  -17.13700 12.73300 41.37900
C  -17.08400 11.15600 41.54000
N  -12.26200 13.97200 42.51800
C  -12.88400 12.80400 42.88700
C  -11.94900 11.68600 43.16700
C  -10.73200 12.29500 42.82000
C  -10.97300 13.61100 42.37700
C  -12.17900 10.29400 43.46300
C  -9.28300 11.97300 42.62600
O  -8.59700 11.03000 42.96000
C  -8.73700 13.16600 41.76900
C  -7.58800 13.54700 42.58200
O  -7.67900 13.89800 43.78100
O  -6.46500 13.58700 41.73400
C  -5.19800 13.95400 42.36500
H  -10.96100 19.52700 40.05000
H  -16.93600 17.63200 41.73300
H  -14.70400 11.93500 43.28400
H  -7.90300 16.20300 41.43500
H  -8.73600 18.11700 39.44500
H  -7.73100 19.29200 40.94800
H  -8.02300 18.05900 42.31300
H  -9.17300 19.29500 41.90800
H  -8.10500 16.14000 38.45000
H  -8.52400 14.60500 39.11900
H  -6.24700 14.27000 39.23200
H  -6.08700 15.61900 40.22500
H  -12.52200 20.99800 38.72900
H  -12.60000 21.70700 40.37700
H  -13.83000 21.87200 39.28100
H  -18.45300 20.30600 40.14300
H  -17.85300 19.51900 41.48100
H  -17.88100 18.58800 39.97700
H  -17.87900 15.15700 41.44600
H  -17.04100 13.17300 43.40300
H  -19.05100 15.88600 43.29000
H  -17.53600 16.50300 43.99400
H  -18.02800 14.90400 44.39200
H  -16.41600 13.04400 40.62300
H  -18.13500 13.07400 41.10200
H  -16.21700 10.75700 41.01500
H  -17.95400 10.73000 41.04000
H  -17.05500 10.87300 42.59200
H  -13.11100 10.25400 44.02700
H  -11.43200 9.93800 44.17300
H  -12.32100 9.68500 42.57100
H  -8.39200 12.74700 40.82300
H  -4.52600 14.14500 41.52900
H  -4.79900 13.11000 42.92700
H  -5.36900 14.77800 43.05800

