158

Mg -0.26300 7.68300 26.00700
C  0.64100 9.43800 28.92800
C  -0.56500 4.72400 27.70900
C  -0.48200 6.07900 23.06600
C  0.47100 10.73500 24.14000
N  0.11700 7.15900 28.00400
C  0.30300 8.07300 29.03700
C  0.05800 7.40800 30.42600
C  -0.16500 5.87500 30.06400
C  -0.29500 5.89400 28.49200
C  0.85600 4.83100 30.65700
C  -1.07300 8.16400 31.29300
C  -0.74600 8.42300 32.76000
H  0.40700 7.69800 33.53400
N  -0.56500 5.69500 25.47200
C  -0.65400 4.61700 26.30500
C  -0.97000 3.42800 25.59700
C  -0.96100 3.81500 24.23900
C  -0.62800 5.25700 24.19300
C  -1.20900 2.07200 26.28200
C  -1.24900 2.93200 23.01500
O  -1.29800 3.33800 21.82600
C  -1.61100 1.43600 23.10100
N  0.01000 8.33400 23.91100
C  -0.25000 7.45400 22.90900
C  -0.12400 8.14900 21.53300
C  0.10600 9.63800 21.93000
C  0.17400 9.58500 23.46300
C  0.97000 7.48700 20.64500
C  -1.00600 10.62600 21.33900
C  -2.17500 10.98900 22.24000
N  0.24200 9.68500 26.41800
C  0.56000 10.79300 25.54200
C  0.77800 11.93500 26.36500
C  0.78200 11.52400 27.78500
C  0.56700 10.09000 27.73400
C  1.00200 13.35300 25.89800
C  1.04500 11.92200 29.12300
O  1.25700 13.02300 29.59200
C  0.95000 10.58600 29.93800
C  2.22500 10.36000 30.52400
O  3.16000 9.84100 29.93900
O  2.23200 10.87600 31.80700
C  3.52500 10.84300 32.51300
H  -0.87000 3.86600 28.31100
H  -0.63100 5.52000 22.14000
H  0.70200 11.62300 23.54900
H  1.00500 7.54200 30.95000
H  -1.16300 5.66000 30.44500
H  1.28400 4.21500 29.86500
H  0.38600 4.14300 31.36000
H  1.60000 5.28400 31.31200
H  -1.93500 7.49900 31.23000
H  -1.52300 9.04500 30.83500
H  -1.62400 8.15700 33.35000
H  -0.49100 9.47500 32.89000
H  -1.86500 2.07300 27.15200
H  -0.28700 1.58100 26.59500
H  -1.70200 1.35900 25.62200
H  -2.47100 1.22600 23.73800
H  -0.69000 0.98400 23.46900
H  -1.72200 0.99900 22.10900
H  -1.03600 8.04300 20.94500
H  1.08100 10.03200 21.64400
H  1.80400 8.18300 20.55500
H  0.55600 7.58500 19.64100
H  1.24300 6.47200 20.93500
H  -1.24900 10.21300 20.36000
H  -0.45600 11.52700 21.06400
H  -3.10500 10.93200 21.67400
H  -2.13400 12.03700 22.53700
H  -2.31400 10.36100 23.11900
H  0.08100 13.93300 25.83200
H  1.29400 13.43800 24.85100
H  1.65200 13.81100 26.64300
H  0.16200 10.72800 30.67800
H  3.70400 11.82700 32.94700
H  4.32800 10.51800 31.85200
H  3.39900 10.08900 33.29000
Mg -12.21100 15.93600 41.87600
C  -9.36900 14.12500 41.23200
C  -10.80200 18.63000 40.10400
C  -15.32600 17.37200 41.68900
C  -13.72200 12.95500 42.96300
N  -10.44500 16.15800 40.56200
C  -9.35500 15.34100 40.56300
C  -8.11000 15.94900 39.90400
C  -8.54300 17.50500 39.79200
C  -10.07600 17.46100 40.15400
C  -7.67600 18.53700 40.57900
C  -7.61600 15.17800 38.64900
C  -6.16300 14.78000 38.67200
H  -5.40600 15.60500 37.60600
N  -13.00400 17.84900 41.18400
C  -12.19500 18.77400 40.51200
C  -13.01800 19.89000 40.28200
C  -14.32300 19.57200 40.62800
C  -14.29000 18.19400 41.23300
C  -12.34000 21.16000 39.74700
C  -15.52000 20.45400 40.41100
O  -15.36200 21.50900 39.72800
C  -16.86500 20.19700 40.98300
N  -14.24700 15.28100 42.27700
C  -15.32700 16.08700 42.13500
C  -16.61300 15.26000 42.41000
C  -16.07700 13.87800 42.86300
C  -14.59000 14.08500 42.72000
C  -17.59700 16.12100 43.35000
C  -16.64900 12.65100 42.06700
C  -17.48000 11.62600 42.83600
N  -11.71300 13.92700 42.13600
C  -12.36900 12.85800 42.72600
C  -11.44400 11.70600 42.93300
C  -10.23800 12.24800 42.36500
C  -10.47900 13.53100 41.88400
C  -11.76500 10.31700 43.56600
C  -8.86300 11.90700 42.09700
O  -8.22400 10.88600 42.43500
C  -8.21200 13.15400 41.39800
C  -7.10400 13.56200 42.38500
O  -7.24700 14.09900 43.44500
O  -5.92600 13.12500 41.86800
C  -4.69100 13.38000 42.69800
H  -10.42900 19.58600 39.73000
H  -16.34200 17.73100 41.51300
H  -14.16500 12.06900 43.42300
H  -7.25600 15.84100 40.57200
H  -8.50900 17.76300 38.73300
H  -7.19300 19.26700 39.93000
H  -7.02000 18.06300 41.30900
H  -8.30800 19.08400 41.27900
H  -7.80000 15.77700 37.75600
H  -8.14400 14.23000 38.54600
H  -6.17500 13.70300 38.50300
H  -5.63600 15.04200 39.58900
H  -12.98200 22.04100 39.75500
H  -11.86600 21.15600 38.76600
H  -11.50400 21.43400 40.39000
H  -17.42400 21.12800 41.08000
H  -16.84800 19.80500 42.00000
H  -17.35400 19.54400 40.26000
H  -17.12600 15.19000 41.45100
H  -16.16800 13.82700 43.94800
H  -18.41000 16.48100 42.71900
H  -16.98100 16.89100 43.81400
H  -17.92700 15.42100 44.11900
H  -15.88400 12.20600 41.43200
H  -17.40400 12.93600 41.33500
H  -18.53600 11.88100 42.74800
H  -17.09600 11.52500 43.85200
H  -17.30600 10.59700 42.52300
H  -10.90600 9.85600 44.05400
H  -12.17800 9.63200 42.82500
H  -12.48800 10.47900 44.36600
H  -7.74500 12.88100 40.45200
H  -3.86600 12.73900 42.38500
H  -4.84900 13.28900 43.77300
H  -4.41800 14.40700 42.45600

