158

Mg 16.37200 -2.45900 27.99800
C  15.35600 -0.45000 30.66700
C  18.53200 -4.17700 30.22400
C  17.94900 -3.99300 25.39900
C  14.68200 -0.37100 25.82600
N  16.90400 -2.33500 30.15900
C  16.30100 -1.42000 31.00800
C  16.81300 -1.69700 32.42300
C  18.00400 -2.79900 32.28700
C  17.80700 -3.17600 30.80800
C  19.36500 -2.13900 32.58600
C  15.68000 -2.07700 33.38400
C  15.57300 -1.34900 34.74400
H  16.88500 -0.67200 35.18800
N  18.07800 -3.85100 27.87200
C  18.71200 -4.51100 28.88100
C  19.50000 -5.58900 28.39200
C  19.40300 -5.48100 26.93300
C  18.43100 -4.37400 26.64200
C  20.11100 -6.65500 29.28900
C  20.13600 -6.26600 25.90600
O  20.01900 -6.10700 24.69900
C  21.16900 -7.37800 26.35300
N  16.30100 -2.30100 25.98100
C  16.98600 -3.00600 25.02900
C  16.68100 -2.62100 23.62900
C  15.53800 -1.52700 23.80500
C  15.48800 -1.39400 25.31100
C  17.81100 -2.26000 22.67100
C  14.19400 -1.99700 23.13600
C  13.13000 -0.93800 22.97100
N  15.09400 -0.83500 28.16000
C  14.41900 -0.10800 27.20300
C  13.55300 0.92200 27.86000
C  13.87300 0.81300 29.20100
C  14.83100 -0.19400 29.34100
C  12.77900 1.97200 27.09200
C  13.59400 1.37000 30.54300
O  12.87900 2.32200 30.88400
C  14.50500 0.51100 31.52300
C  15.39500 1.53200 32.17800
O  16.29200 2.17800 31.59400
O  14.81100 1.80000 33.34600
C  15.01800 3.16300 33.75400
H  19.15500 -4.62000 31.00400
H  18.30700 -4.61800 24.57900
H  14.19100 0.38100 25.20600
H  17.31700 -0.77000 32.69700
H  17.90000 -3.66100 32.94600
H  19.90400 -1.91400 31.66500
H  20.00300 -2.92700 32.98500
H  19.25000 -1.30500 33.27800
H  15.79100 -3.15600 33.49100
H  14.68600 -1.87800 32.98300
H  15.18200 -2.04700 35.48400
H  14.80200 -0.57800 34.76700
H  21.17700 -6.48400 29.13900
H  19.73100 -7.62000 28.95400
H  19.88400 -6.43300 30.33200
H  20.71200 -7.99900 27.12300
H  22.09700 -6.94200 26.72500
H  21.47100 -8.01200 25.52000
H  16.17000 -3.46500 23.16600
H  15.95100 -0.55700 23.53000
H  18.65700 -1.94000 23.27900
H  17.56200 -1.40300 22.04600
H  18.13000 -3.08800 22.03800
H  13.84700 -2.73600 23.85900
H  14.28500 -2.47800 22.16200
H  13.70500 -0.03200 22.78100
H  12.44500 -0.88700 23.81700
H  12.51600 -1.34300 22.16700
H  13.18500 2.18600 26.10300
H  12.68000 2.88400 27.68200
H  11.74800 1.64900 26.94800
H  13.98500 0.04600 32.36100
H  14.42600 3.87000 33.17200
H  16.04500 3.52900 33.73700
H  14.64300 3.11300 34.77600
Mg -11.62900 16.47700 41.94200
C  -8.73700 14.36900 41.62400
C  -9.88800 19.04900 40.44700
C  -14.45100 18.17900 41.60400
C  -13.44700 13.61000 42.98900
N  -9.55800 16.66100 41.05300
C  -8.51300 15.71500 41.12100
C  -7.26100 16.30200 40.51800
C  -7.66300 17.78600 40.19200
C  -9.10800 17.84800 40.64500
C  -6.70100 18.82800 40.77500
C  -6.67800 15.57900 39.26600
C  -5.17900 16.04200 39.09100
H  -4.70600 16.45200 37.67900
N  -12.10900 18.39800 41.24600
C  -11.29400 19.24900 40.66300
C  -11.99400 20.55100 40.40700
C  -13.36200 20.26900 40.79700
C  -13.36700 18.89200 41.21000
C  -11.33100 21.82000 39.95900
C  -14.48600 21.31700 40.71300
O  -14.28100 22.47300 40.31400
C  -15.88300 21.08900 41.06400
N  -13.70300 15.89900 41.99000
C  -14.67400 16.83900 41.99500
C  -16.02800 16.20900 42.40800
C  -15.64300 14.79600 42.81200
C  -14.16500 14.76000 42.59800
C  -16.79900 17.08700 43.44400
C  -16.35200 13.63000 42.04600
C  -17.31300 12.74300 42.87200
N  -11.21900 14.43800 42.34400
C  -12.02300 13.37400 42.82300
C  -11.25300 12.15900 43.10600
C  -9.96900 12.54000 42.61200
C  -9.99400 13.93800 42.14400
C  -11.78500 10.92000 43.70200
C  -8.58700 12.00700 42.49000
O  -8.13900 10.93900 42.84400
C  -7.74800 13.21700 41.88000
C  -6.65600 13.55700 42.80900
O  -6.71900 13.54300 44.02300
O  -5.53000 13.67700 42.04700
C  -4.31200 14.03300 42.81500
H  -9.31700 19.83900 39.95400
H  -15.44000 18.64400 41.59000
H  -13.98700 12.68600 43.20800
H  -6.56700 16.24600 41.35600
H  -7.68900 18.11200 39.15300
H  -7.21000 19.62200 41.32100
H  -6.25200 19.42500 39.98100
H  -5.83100 18.40800 41.28000
H  -7.21900 15.94400 38.39300
H  -6.82800 14.51200 39.42600
H  -4.47600 15.23700 39.30800
H  -4.89400 16.90400 39.69500
H  -11.87800 22.28900 39.14100
H  -10.30500 21.71800 39.60700
H  -11.31800 22.58700 40.73400
H  -16.35400 20.48300 40.29000
H  -16.44800 22.02100 41.06800
H  -15.89700 20.60100 42.03900
H  -16.58000 16.41000 41.49000
H  -15.89000 14.61300 43.85800
H  -17.77500 17.34300 43.03000
H  -16.13600 17.88400 43.78100
H  -16.98100 16.41500 44.28300
H  -15.66500 12.95000 41.54200
H  -17.01500 14.04700 41.28800
H  -17.30600 13.10500 43.90000
H  -17.23800 11.65600 42.86500
H  -18.29700 12.94400 42.44800
H  -12.35700 10.26200 43.04700
H  -12.42100 11.16900 44.55100
H  -10.96000 10.25400 43.95700
H  -7.28200 12.84800 40.96700
H  -4.34400 15.08800 43.08600
H  -3.47800 13.78000 42.16000
H  -4.22100 13.42100 43.71200

