158

Mg 2.04500 0.12000 44.03500
C  5.54800 0.26600 43.03400
C  1.59000 2.62000 41.61700
C  -1.20100 -0.64800 43.96200
C  2.84500 -2.94100 45.69100
N  3.41800 1.27000 42.42100
C  4.80100 1.25300 42.32200
C  5.24200 2.35600 41.35800
C  4.05000 3.35500 41.31800
C  2.94500 2.28300 41.68800
C  4.05400 4.49400 42.37800
C  5.70700 1.84700 39.93300
C  7.07400 2.33800 39.38000
H  7.06600 2.89600 37.96600
N  0.43200 0.81000 42.90900
C  0.45400 1.87100 42.05300
C  -0.94500 2.24800 41.75800
C  -1.78100 1.37800 42.47700
C  -0.91200 0.44000 43.16900
C  -1.33800 3.45700 40.97300
C  -3.31800 1.40000 42.40600
O  -3.89000 2.34100 41.91000
C  -4.18500 0.34400 43.01300
N  1.02600 -1.73100 44.47900
C  -0.31800 -1.58700 44.59600
C  -0.87400 -2.70000 45.39600
C  0.40100 -3.48900 45.93700
C  1.51200 -2.69100 45.31800
C  -1.96700 -2.35800 46.46400
C  0.45600 -5.03000 45.48600
C  -0.36500 -6.00300 46.33700
N  3.76600 -0.99200 44.42800
C  3.90200 -2.17500 45.16800
C  5.24700 -2.61500 45.17400
C  5.97100 -1.65200 44.39100
C  4.98600 -0.70300 43.95000
C  5.87200 -3.77200 45.90000
C  7.26700 -1.29700 43.84400
O  8.37200 -1.85500 43.97500
C  7.03800 -0.05300 42.92000
C  7.78200 1.12200 43.38000
O  7.80400 1.67400 44.53200
O  8.54800 1.55100 42.30700
C  9.41900 2.66900 42.67500
H  1.36300 3.42300 40.91300
H  -2.26500 -0.74700 44.18700
H  3.11000 -3.68700 46.44300
H  6.08400 2.92200 41.75600
H  3.87400 3.81600 40.34500
H  3.11500 4.56000 42.92700
H  4.26500 5.42000 41.84400
H  4.88500 4.34000 43.06700
H  4.88400 2.02300 39.24000
H  5.65000 0.76100 40.00700
H  7.74300 1.49700 39.19500
H  7.52700 3.03800 40.08100
H  -2.15200 3.12800 40.32600
H  -0.55900 3.77400 40.28100
H  -1.69800 4.34000 41.50100
H  -5.24600 0.54000 42.86200
H  -4.05200 0.47200 44.08700
H  -3.84000 -0.60900 42.61000
H  -1.47000 -3.34000 44.74600
H  0.59900 -3.59500 47.00400
H  -2.83100 -3.00700 46.32200
H  -2.36600 -1.34600 46.39900
H  -1.64900 -2.50300 47.49600
H  1.45800 -5.40800 45.68900
H  0.18600 -5.08700 44.43100
H  -0.73100 -5.43900 47.19500
H  0.14100 -6.85700 46.78700
H  -1.19200 -6.37800 45.73500
H  6.88200 -3.95200 45.53200
H  5.34800 -4.69000 45.63300
H  6.04800 -3.73100 46.97500
H  7.37200 -0.29100 41.91000
H  8.84900 3.58800 42.81500
H  9.98700 2.86300 41.76500
H  9.97900 2.48000 43.59100
Mg -2.33800 34.80000 26.34100
C  -3.63200 32.86300 29.16000
C  -1.09500 37.11100 28.57300
C  -1.79800 36.69000 23.77800
C  -4.08200 32.30900 24.28700
N  -2.38600 34.95500 28.65500
C  -2.80400 34.02200 29.49600
C  -2.46000 34.45300 30.92300
C  -1.64000 35.80900 30.72700
C  -1.62800 35.94000 29.25100
C  -1.94200 36.96700 31.67800
C  -1.83300 33.33300 31.82300
C  -2.57100 33.15000 33.20600
H  -1.66600 32.81500 34.38900
N  -1.41700 36.56800 26.17800
C  -0.92800 37.36200 27.16600
C  -0.16000 38.48600 26.60600
C  -0.25400 38.29500 25.17200
C  -1.17200 37.17300 24.95500
C  0.67100 39.53900 27.39100
C  0.38900 39.06500 24.07100
O  0.13200 38.81500 22.86600
C  1.21500 40.29300 24.32600
N  -2.95500 34.55900 24.32400
C  -2.56100 35.52200 23.42100
C  -2.90500 35.05000 21.95100
C  -3.45400 33.57200 22.18000
C  -3.46000 33.46800 23.70000
C  -3.69100 35.95900 20.98700
C  -2.73900 32.35600 21.48000
C  -1.33000 31.93000 21.99100
N  -3.68100 32.98800 26.58700
C  -4.23900 32.11400 25.65900
C  -4.91600 31.11300 26.38400
C  -4.73200 31.34800 27.70800
C  -3.94700 32.46500 27.82500
C  -5.61200 29.89600 25.73700
C  -5.04200 30.90300 29.04800
O  -5.61800 29.95000 29.46000
C  -4.39400 31.92800 30.05300
C  -5.41700 32.73700 30.84100
O  -5.82400 33.84200 30.49400
O  -5.67900 32.15400 32.01400
C  -6.66700 32.88100 32.82900
H  -0.81800 37.83200 29.34500
H  -1.59400 37.26600 22.87300
H  -4.59700 31.68400 23.55400
H  -3.50600 34.59700 31.19300
H  -0.61300 35.58700 31.01800
H  -1.07300 37.18500 32.29800
H  -2.63500 36.60600 32.43900
H  -2.32200 37.91700 31.30300
H  -0.86300 33.64300 32.21400
H  -1.76800 32.37600 31.30400
H  -3.21800 32.27500 33.13900
H  -3.05500 34.11100 33.38000
H  1.71900 39.59700 27.09600
H  0.67300 39.43500 28.47600
H  0.26400 40.52700 27.17600
H  1.57100 40.77200 23.41400
H  2.04600 39.91900 24.92500
H  0.63700 41.06700 24.83300
H  -1.99700 34.82100 21.39400
H  -4.51300 33.54200 21.92400
H  -3.12700 36.16200 20.07700
H  -3.76000 36.94000 21.45800
H  -4.69100 35.55100 20.84300
H  -2.66600 32.61100 20.42300
H  -3.41800 31.50300 21.50000
H  -1.40300 30.87000 22.23200
H  -1.13300 32.50700 22.89400
H  -0.62100 32.14200 21.19000
H  -5.12600 29.02300 26.17200
H  -5.66700 29.98500 24.65200
H  -6.63200 29.76800 26.09900
H  -3.79900 31.38800 30.79000
H  -6.22600 33.60500 33.51400
H  -7.29800 32.19500 33.39400
H  -7.32500 33.48500 32.20400

