158

Mg 24.31400 -5.54800 46.54300
C  26.37500 -3.08600 45.17200
C  21.60100 -4.09000 44.89900
C  22.47700 -8.43000 47.20900
C  26.85800 -6.80700 48.36500
N  24.03000 -3.72100 45.24500
C  25.06700 -2.93200 44.74800
C  24.52600 -1.99800 43.67300
C  22.95100 -1.94100 44.02900
C  22.80700 -3.33500 44.81100
C  22.57300 -0.61700 44.82200
C  24.98700 -2.38100 42.17800
C  25.71500 -1.36400 41.27800
H  25.26300 -1.41000 39.80600
N  22.38300 -6.24400 46.01400
C  21.42100 -5.41000 45.44200
C  20.16300 -6.17700 45.47500
C  20.36900 -7.41800 46.10000
C  21.80900 -7.41400 46.50500
C  18.86700 -5.57000 44.91600
C  19.40000 -8.47700 46.29700
O  18.22400 -8.26700 45.90900
C  19.65400 -9.79600 46.90500
N  24.57800 -7.36800 47.62100
C  23.74700 -8.44100 47.67800
C  24.34200 -9.61800 48.59000
C  25.69600 -8.92500 49.05800
C  25.71000 -7.61600 48.33600
C  23.58100 -10.24600 49.76800
C  27.03100 -9.77000 48.89400
C  27.95500 -9.87800 50.12100
N  26.20200 -5.15500 46.70900
C  27.09800 -5.65400 47.61800
C  28.35100 -4.84600 47.58000
C  28.10400 -3.93700 46.47700
C  26.80500 -4.10000 46.10100
C  29.54000 -4.94800 48.39600
C  28.72900 -2.86000 45.71400
O  29.84900 -2.43100 45.87100
C  27.60400 -2.34600 44.71500
C  27.59800 -0.85600 44.91400
O  27.58500 -0.36100 45.97900
O  27.52200 -0.14800 43.75700
C  27.68100 1.26700 43.98400
H  20.80800 -3.46600 44.48200
H  21.98100 -9.33500 47.56400
H  27.64200 -7.16800 49.03300
H  24.96600 -1.00700 43.78700
H  22.39700 -1.89000 43.09200
H  22.09600 0.06200 44.11500
H  23.42000 -0.20800 45.37300
H  21.92900 -1.00500 45.61100
H  24.06600 -2.64400 41.65800
H  25.50500 -3.34000 42.15700
H  26.75600 -1.68400 41.23400
H  25.73400 -0.40200 41.79100
H  18.37400 -4.97400 45.68400
H  18.11400 -6.30600 44.63400
H  19.05800 -4.98700 44.01600
H  18.75300 -10.40400 46.82600
H  19.95800 -9.69700 47.94700
H  20.33100 -10.42300 46.32600
H  24.64500 -10.46000 47.96700
H  25.70500 -8.70100 50.12500
H  22.66300 -9.75200 50.08600
H  24.22700 -10.35400 50.63900
H  23.24200 -11.25300 49.52400
H  27.62200 -9.30800 48.10300
H  26.67600 -10.75500 48.59300
H  28.91700 -9.44600 49.84700
H  27.98200 -10.91500 50.45700
H  27.69600 -9.22800 50.95700
H  29.73300 -3.95500 48.80000
H  30.33800 -5.26200 47.72300
H  29.38900 -5.71700 49.15400
H  27.82500 -2.52300 43.66200
H  27.63800 1.67300 42.97300
H  28.65000 1.53500 44.40400
H  26.92500 1.77200 44.58600
Mg 31.30100 58.75900 40.27700
C  28.79500 56.80500 38.92400
C  33.67500 56.62400 38.86000
C  33.78400 60.99500 41.16700
C  28.93500 61.31000 40.71600
N  31.21100 57.04500 39.04000
C  30.10300 56.42500 38.60400
C  30.36300 55.08600 37.74300
C  31.84600 54.89200 38.19700
C  32.31000 56.26400 38.68200
C  31.93700 53.91500 39.43100
C  30.12900 55.33100 36.19900
C  29.11700 54.39100 35.53400
H  28.06700 55.02200 34.56500
N  33.43500 58.79600 40.09400
C  34.20100 57.74700 39.50800
C  35.60200 58.14100 39.70300
C  35.65300 59.31400 40.45500
C  34.26500 59.75000 40.63900
C  36.76000 57.28600 39.15600
C  36.96100 60.03300 40.89800
O  38.03500 59.50700 40.58900
C  37.02800 61.26200 41.57200
N  31.32900 60.86300 40.86700
C  32.45800 61.52300 41.25600
C  32.18200 62.94900 41.79300
C  30.60500 63.14600 41.52200
C  30.23900 61.71000 40.92100
C  32.64100 63.22200 43.24400
C  30.25800 64.25100 40.48400
C  29.09700 65.21000 40.80600
N  29.21300 59.01000 40.15900
C  28.39500 60.11200 40.32400
C  27.00300 59.78200 40.00300
C  27.12900 58.43000 39.50800
C  28.48300 58.07400 39.53400
C  25.76100 60.70600 40.25100
C  26.34000 57.30600 38.97500
O  25.14900 57.18000 38.71100
C  27.44500 56.22600 38.48500
C  26.99300 54.98400 39.16000
O  27.44000 54.50500 40.15500
O  26.02500 54.38500 38.41000
C  25.40200 53.25600 39.06300
H  34.34500 55.81300 38.56600
H  34.61000 61.64600 41.46200
H  28.20400 62.11200 40.83500
H  29.65900 54.35200 38.13400
H  32.38800 54.43000 37.37200
H  30.96500 53.42800 39.50800
H  32.10200 54.52600 40.31800
H  32.70400 53.15500 39.27800
H  31.07200 55.22000 35.66300
H  29.80900 56.37200 36.15600
H  28.56800 53.84700 36.30200
H  29.65200 53.66700 34.91900
H  37.27600 57.84000 38.37200
H  36.42500 56.34700 38.71600
H  37.45900 57.16500 39.98300
H  38.07900 61.44900 41.79000
H  36.49300 61.33400 42.51900
H  36.65200 62.12000 41.01400
H  32.76500 63.68500 41.24000
H  30.08300 63.36400 42.45400
H  33.43800 63.96500 43.28300
H  33.14000 62.28700 43.50000
H  31.80500 63.51400 43.87900
H  30.07600 63.74300 39.53700
H  31.11500 64.91500 40.37400
H  29.39700 66.24900 40.67200
H  28.69200 65.09300 41.81200
H  28.24700 65.00200 40.15600
H  25.11900 60.33100 41.04900
H  25.12600 60.89700 39.38600
H  26.11500 61.64700 40.67100
H  27.39300 56.10000 37.40400
H  24.62000 53.64700 39.71500
H  26.10300 52.60600 39.58600
H  24.81400 52.62800 38.39400

