158

Mg 44.76600 4.34500 47.06500
C  43.27700 7.56000 46.32300
C  41.64200 2.99200 46.72000
C  46.24200 1.40900 46.84000
C  47.90700 5.93700 46.72700
N  42.78000 5.26500 46.59500
C  42.35600 6.48700 46.23900
C  40.93100 6.56100 45.81000
C  40.34000 5.13300 46.33900
C  41.63200 4.40800 46.74600
C  39.31300 5.05100 47.55900
C  40.98500 6.74500 44.24800
C  40.47800 8.05500 43.59400
H  39.29500 7.87600 42.65000
N  44.06200 2.44300 46.69800
C  42.75000 2.05200 46.68400
C  42.67200 0.60900 46.35300
C  44.01100 0.21000 46.21200
C  44.82100 1.31300 46.63200
C  41.47800 -0.19600 46.12200
C  44.57400 -1.13200 45.78100
O  43.77900 -1.97300 45.38100
C  46.04300 -1.55100 45.90900
N  46.77500 3.75500 46.68200
C  47.13800 2.49500 46.91400
C  48.63700 2.23800 46.89100
C  49.23200 3.73000 46.65400
C  47.87500 4.52700 46.64300
C  49.26000 1.47700 48.05200
C  49.93300 3.80500 45.32900
C  51.19800 4.74200 45.25500
N  45.48100 6.36500 46.93200
C  46.78300 6.79200 46.80700
C  46.75800 8.28900 46.71500
C  45.42900 8.62400 46.66200
C  44.65600 7.42700 46.70100
C  47.95700 9.13400 46.68900
C  44.43600 9.68800 46.46700
O  44.61200 10.86700 46.31700
C  42.95700 9.04700 46.26900
C  42.02800 9.57800 47.21700
O  41.66500 9.04300 48.29700
O  41.55700 10.84700 46.76500
C  40.83800 11.68300 47.76300
H  40.63700 2.57200 46.79700
H  46.80700 0.48600 46.98100
H  48.90600 6.37900 46.73400
H  40.49500 7.41400 46.33000
H  39.89700 4.61100 45.49000
H  39.71400 4.67800 48.50200
H  38.48900 4.39600 47.27500
H  38.82400 6.01400 47.70300
H  40.30300 6.01200 43.81700
H  41.96600 6.56600 43.80800
H  41.30500 8.41500 42.98300
H  40.21100 8.67800 44.44800
H  41.75700 -1.06000 46.72400
H  41.45100 -0.49900 45.07500
H  40.62100 0.37400 46.48000
H  46.70100 -0.81900 45.44100
H  46.17900 -2.56500 45.53300
H  46.16000 -1.58300 46.99200
H  48.81400 1.54400 46.06900
H  49.74500 4.16300 47.51200
H  48.60000 1.31400 48.90500
H  50.16400 1.99300 48.37400
H  49.42200 0.45300 47.71500
H  49.21400 4.19400 44.60800
H  50.20600 2.76900 45.13000
H  52.03400 4.23400 45.73600
H  51.01100 5.67900 45.78000
H  51.48000 4.82200 44.20500
H  47.64500 10.01900 47.24400
H  48.07800 9.46200 45.65700
H  48.89300 8.71000 47.05000
H  42.52400 9.30900 45.30400
H  39.78000 11.42300 47.77900
H  40.93900 12.76200 47.64300
H  41.36500 11.57600 48.71100
Mg -10.97800 16.56000 40.99200
C  -7.53900 15.68000 40.93600
C  -10.04900 19.79000 40.46700
C  -14.21900 17.20600 40.35900
C  -11.71700 13.09000 40.99600
N  -8.96100 17.66300 40.87100
C  -7.72300 17.04000 40.90600
C  -6.64000 18.10200 40.74200
C  -7.42800 19.49300 40.91100
C  -8.89400 18.96200 40.72000
C  -7.28600 20.15600 42.23300
C  -5.85900 17.91400 39.48200
C  -4.35000 17.76700 39.48500
H  -3.83000 16.56500 38.68300
N  -11.99100 18.29400 40.55800
C  -11.41300 19.52900 40.43100
C  -12.51200 20.42200 40.10300
C  -13.78100 19.72100 40.14300
C  -13.39000 18.32000 40.31600
C  -12.19200 21.84700 39.91400
C  -15.16400 20.32200 40.01500
O  -15.26600 21.50900 39.92200
C  -16.43800 19.56100 40.13800
N  -12.69700 15.33200 40.63900
C  -13.91200 15.87500 40.48200
C  -14.97500 14.86400 40.45800
C  -14.24100 13.48100 40.66200
C  -12.77500 13.97700 40.73900
C  -16.16700 15.09300 41.38700
C  -14.45100 12.47600 39.48100
C  -14.81500 10.93900 39.65800
N  -9.90200 14.73700 41.03400
C  -10.35900 13.41100 41.07900
C  -9.25700 12.48200 41.19000
C  -8.13100 13.27400 41.09900
C  -8.53900 14.67900 40.92800
C  -9.36900 10.99100 41.27800
C  -6.73500 13.28900 41.09300
O  -5.96100 12.36900 41.17300
C  -6.30000 14.84700 41.07600
C  -5.62100 14.98300 42.32400
O  -6.15700 15.48900 43.33200
O  -4.25900 14.62400 42.26100
C  -3.53300 14.61900 43.49800
H  -9.87400 20.85200 40.28500
H  -15.30800 17.27300 40.33900
H  -12.02700 12.04600 41.07400
H  -5.97800 17.96100 41.59600
H  -7.04900 20.23000 40.20300
H  -6.80100 19.54600 42.99600
H  -8.13300 20.66600 42.69300
H  -6.64700 21.01900 42.04600
H  -6.02500 18.79300 38.85900
H  -6.27000 17.03900 38.97800
H  -4.03000 17.74900 40.52700
H  -3.86900 18.60100 38.97300
H  -11.66100 21.96300 38.97000
H  -11.41300 22.08600 40.63900
H  -12.95700 22.62400 39.93100
H  -16.48200 19.07800 39.16200
H  -17.34800 20.15800 40.19100
H  -16.50900 18.83800 40.95100
H  -15.41600 14.93100 39.46300
H  -14.52800 13.09000 41.63800
H  -16.46000 14.20500 41.94800
H  -16.95300 15.57600 40.80600
H  -15.87700 15.81700 42.14800
H  -13.47500 12.46100 38.99700
H  -15.16600 12.84200 38.74400
H  -15.11200 10.73800 40.68800
H  -13.98700 10.26000 39.45400
H  -15.61100 10.66200 38.96600
H  -10.26400 10.68900 41.82200
H  -8.52700 10.61000 41.85500
H  -9.31800 10.57300 40.27200
H  -5.63500 14.91300 40.21400
H  -3.27200 15.65700 43.70500
H  -2.65800 14.01900 43.24700
H  -4.02700 14.10800 44.32400

