158

Mg -0.22300 7.61900 25.96600
C  0.72200 9.18800 28.97800
C  -0.24600 4.66500 27.72300
C  -0.38200 6.09300 23.10500
C  0.79200 10.53900 24.26100
N  0.13600 6.99900 28.18700
C  0.42100 7.82600 29.23300
C  0.13500 7.17400 30.57300
C  0.12500 5.66900 30.09900
C  0.01600 5.72400 28.55800
C  1.26200 4.72800 30.63100
C  -1.23400 7.62500 31.21100
C  -1.21700 7.69700 32.77100
H  0.03600 7.25100 33.54100
N  -0.35000 5.59100 25.46000
C  -0.37100 4.51500 26.30700
C  -0.66200 3.34500 25.54100
C  -0.82900 3.72600 24.14300
C  -0.53700 5.19300 24.18100
C  -0.73900 2.03300 26.17700
C  -1.19200 2.90100 22.88800
O  -1.34300 3.36700 21.75100
C  -1.34100 1.38200 22.99900
N  0.24400 8.19600 24.01400
C  -0.16600 7.35800 22.98100
C  0.25600 7.97200 21.64500
C  0.29000 9.44600 21.98400
C  0.41700 9.44000 23.48400
C  1.73100 7.46500 21.21700
C  -0.97000 10.40400 21.60700
C  -2.14900 10.38500 22.52300
N  0.35500 9.49000 26.45300
C  0.84000 10.52700 25.67900
C  1.36400 11.57100 26.47900
C  1.19100 11.16000 27.79300
C  0.71300 9.86300 27.67700
C  1.96400 12.91700 26.05000
C  1.44600 11.52000 29.13700
O  2.03200 12.45900 29.64600
C  1.02400 10.22200 30.03800
C  2.03300 9.89100 31.02300
O  3.11900 9.39800 30.76800
O  1.68900 10.52700 32.20000
C  2.79900 10.73300 33.12600
H  -0.45100 3.79700 28.35400
H  -0.38800 5.51500 22.17800
H  1.17400 11.38500 23.68500
H  0.94900 7.35900 31.27400
H  -0.77500 5.08800 30.29700
H  0.88400 4.16200 31.48200
H  2.06300 5.39700 30.94500
H  1.69900 4.16000 29.80900
H  -2.05000 6.98400 30.87700
H  -1.47500 8.57700 30.73700
H  -2.10900 7.14900 33.07700
H  -1.57600 8.68500 33.05900
H  -1.65200 1.55000 25.83100
H  -0.88700 2.07300 27.25600
H  0.15600 1.43800 25.99400
H  -2.30700 0.96700 23.28700
H  -0.46500 1.13400 23.59900
H  -1.36300 1.00200 21.97800
H  -0.32000 7.83400 20.73000
H  1.18100 9.96600 21.63300
H  1.78200 6.47000 20.77400
H  2.29100 7.33000 22.14200
H  2.18400 8.26400 20.63000
H  -1.20500 10.43700 20.54300
H  -0.56400 11.39800 21.79600
H  -2.06000 11.00100 23.41700
H  -2.32000 9.37700 22.90100
H  -2.93700 10.72200 21.84900
H  2.85500 13.13400 26.64000
H  1.26200 13.71800 26.28000
H  2.09400 12.69000 24.99200
H  0.11300 10.55600 30.53400
H  2.87200 11.82100 33.11400
H  3.71400 10.15100 33.01700
H  2.41500 10.61200 34.13800
Mg 27.02000 49.78200 26.70100
C  24.75500 51.00800 29.28200
C  29.27600 49.28700 29.16600
C  29.08000 49.16900 24.28300
C  24.65900 51.30300 24.39900
N  26.90000 50.07000 28.99100
C  25.89200 50.42200 29.88200
C  26.34000 50.29400 31.31600
C  27.93100 50.09700 31.14100
C  28.05700 49.75400 29.63900
C  28.74600 51.41000 31.60000
C  25.61000 49.06600 32.01400
C  24.88600 49.37200 33.29800
H  25.76200 49.92200 34.47400
N  28.88300 49.25600 26.75100
C  29.67600 49.00700 27.86500
C  30.99300 48.52400 27.41600
C  30.96400 48.55600 25.96200
C  29.58400 49.02000 25.60100
C  32.08300 48.17200 28.35800
C  32.05800 48.17400 24.95300
O  31.89500 48.02400 23.75300
C  33.50500 47.88200 25.39200
N  26.90200 50.19500 24.69500
C  27.88500 49.70600 23.87400
C  27.50100 49.75000 22.35100
C  25.96600 50.20000 22.53500
C  25.82700 50.63300 23.92100
C  28.36200 50.68700 21.48300
C  24.92200 49.14700 21.97000
C  24.57700 47.97800 22.83900
N  25.07900 50.89400 26.77100
C  24.26300 51.43600 25.75800
C  23.15600 52.16000 26.35100
C  23.24200 51.93300 27.73000
C  24.44000 51.21700 27.93300
C  22.15300 52.93200 25.56400
C  22.57300 52.18800 28.95400
O  21.49700 52.64500 29.17000
C  23.58700 51.68500 30.08400
C  23.93600 52.71900 31.07800
O  24.53800 53.75900 30.98100
O  23.46300 52.22600 32.27900
C  23.56000 53.16200 33.39400
H  29.96400 49.07800 29.98800
H  29.86000 49.11400 23.52100
H  24.03700 51.70400 23.59600
H  26.13800 51.17000 31.93300
H  28.32600 49.26900 31.73000
H  29.64300 51.15500 32.16600
H  28.15500 52.06300 32.24200
H  29.05900 51.98600 30.73000
H  26.33900 48.28100 32.21200
H  24.75600 48.74400 31.41900
H  24.23900 48.57000 33.65400
H  24.30200 50.27600 33.12600
H  33.06600 48.58100 28.12200
H  32.21300 47.09000 28.32600
H  31.93300 48.50800 29.38300
H  34.13900 47.46200 24.61200
H  33.55000 47.22600 26.26200
H  33.93300 48.84300 25.67900
H  27.59700 48.72400 21.99800
H  25.88400 51.07300 21.88800
H  27.65700 51.20500 20.83300
H  29.00700 50.18000 20.76500
H  28.96400 51.35700 22.09700
H  25.28000 48.67800 21.05400
H  24.03800 49.70200 21.65800
H  24.52400 48.29000 23.88200
H  25.33900 47.20600 22.73300
H  23.58100 47.60500 22.60100
H  22.45600 53.08200 24.52700
H  21.93700 53.90500 26.00500
H  21.31200 52.25400 25.70800
H  23.05600 50.87700 30.58700
H  24.32700 52.84500 34.10100
H  22.67100 53.19200 34.02400
H  23.74300 54.20500 33.13500

