158

Mg 44.38600 3.42900 47.24800
C  42.28300 6.23300 47.45900
C  41.42600 1.47600 47.53600
C  46.23200 0.83100 46.76400
C  47.12300 5.59700 47.29900
N  42.11600 3.80200 47.33500
C  41.51700 5.08500 47.47200
C  40.01900 4.94600 47.19100
C  39.71500 3.47300 47.62900
C  41.15900 2.83400 47.46600
C  38.95800 3.36500 48.93000
C  39.79800 5.29100 45.69800
C  38.78000 6.39200 45.36700
H  38.02200 6.47000 44.04000
N  43.90600 1.41700 46.98700
C  42.73000 0.82200 47.35000
C  42.92900 -0.62800 47.32600
C  44.25200 -0.87400 46.89100
C  44.87300 0.48000 46.83900
C  41.86700 -1.64300 47.61800
C  44.87100 -2.32600 46.64000
O  44.12300 -3.29300 46.73300
C  46.35300 -2.60600 46.32800
N  46.43400 3.32300 46.93600
C  46.95300 2.06300 46.74500
C  48.48200 2.18900 46.87100
C  48.75800 3.68800 47.09500
C  47.38400 4.22100 47.07200
C  49.17100 1.41400 48.07300
C  49.58300 4.38600 45.93200
C  50.82900 5.07800 46.53400
N  44.72000 5.51100 47.32300
C  45.85600 6.20900 47.37400
C  45.51900 7.58800 47.48500
C  44.17000 7.75000 47.42400
C  43.69200 6.39500 47.37600
C  46.59000 8.75500 47.52500
C  42.99800 8.63000 47.48900
O  42.89700 9.80400 47.58400
C  41.73800 7.67700 47.34700
C  40.64000 7.95200 48.38100
O  40.58600 7.35700 49.44300
O  39.81800 8.97300 48.01800
C  38.73100 9.38500 48.91500
H  40.61300 0.82000 47.85300
H  46.82800 -0.07500 46.63600
H  47.95500 6.30100 47.36800
H  39.51400 5.56200 47.93600
H  39.14700 2.88100 46.91100
H  38.69700 4.32300 49.37800
H  39.60200 2.83200 49.63000
H  37.98900 2.88700 48.78700
H  39.46400 4.40100 45.16600
H  40.71900 5.57100 45.18600
H  39.33300 7.32900 45.42800
H  38.11800 6.40000 46.23200
H  42.15200 -2.40000 48.34800
H  41.65900 -2.09900 46.65000
H  41.01700 -1.13700 48.07700
H  47.10400 -2.31300 47.06200
H  46.49000 -1.99000 45.43900
H  46.49600 -3.65200 46.05600
H  48.98400 1.79100 45.98900
H  49.23100 3.93700 48.04500
H  49.31400 0.35100 47.87500
H  48.48400 1.46800 48.91800
H  50.08700 1.92100 48.37400
H  49.05000 5.14700 45.36100
H  49.84400 3.70100 45.12500
H  50.73500 5.27300 47.60200
H  51.07500 5.97300 45.96300
H  51.67500 4.39200 46.49900
H  46.21000 9.53100 48.19000
H  46.77900 9.15000 46.52700
H  47.44300 8.30900 48.03700
H  41.40900 7.89000 46.33000
H  37.89700 8.68400 48.87700
H  38.48500 10.37000 48.51900
H  38.99300 9.52900 49.96300
Mg 9.29400 48.75700 26.02600
C  7.00200 48.73900 28.77300
C  11.72800 49.81600 28.17300
C  11.35400 48.72900 23.29400
C  6.54200 48.47000 23.84400
N  9.30000 49.34400 28.27900
C  8.33700 49.11300 29.21400
C  8.82200 49.43500 30.61700
C  10.31500 49.95100 30.32400
C  10.46000 49.75400 28.81300
C  10.77100 51.31700 30.90100
C  8.65300 48.24100 31.61300
C  9.57900 48.13700 32.84100
H  9.01000 47.42200 34.02900
N  11.26500 49.14200 25.78000
C  12.05300 49.62200 26.81100
C  13.38600 49.64400 26.26200
C  13.37300 49.18900 24.87200
C  11.96600 49.00900 24.57700
C  14.60200 50.15700 27.00200
C  14.55300 49.05700 23.85500
O  14.37900 48.84700 22.67500
C  15.89600 49.42800 24.26000
N  8.99400 48.63400 23.88200
C  10.01600 48.52100 22.94800
C  9.51900 48.28400 21.54900
C  8.01400 48.30400 21.75200
C  7.80300 48.49900 23.21200
C  10.10300 49.32600 20.55000
C  7.37500 46.94300 21.17100
C  6.15100 47.09700 20.17700
N  7.27300 48.71300 26.20300
C  6.32900 48.51300 25.24200
C  4.98900 48.41500 25.79100
C  5.25300 48.33800 27.16900
C  6.62600 48.63300 27.42100
C  3.64800 48.24200 25.24200
C  4.56400 48.22900 28.44000
O  3.37700 48.06500 28.66300
C  5.67900 48.52300 29.54600
C  5.83900 47.33100 30.42900
O  6.35200 46.28000 30.12600
O  5.20000 47.53100 31.63900
C  5.21300 46.44100 32.58700
H  12.50400 50.06800 28.89900
H  11.93500 48.62200 22.37600
H  5.67700 48.29600 23.20000
H  8.18900 50.24700 30.97400
H  11.03400 49.30500 30.82900
H  11.40800 51.31700 31.78600
H  9.83800 51.76000 31.24900
H  11.18200 52.07400 30.23300
H  8.48300 47.33500 31.03200
H  7.71000 48.46300 32.11200
H  9.71700 49.18800 33.09700
H  10.52300 47.66800 32.56600
H  14.37900 50.28100 28.06100
H  14.90700 51.11900 26.59000
H  15.44000 49.46000 26.95900
H  16.29700 48.70300 24.96800
H  15.84600 50.35000 24.84000
H  16.41400 49.60500 23.31700
H  9.82000 47.26500 21.30700
H  7.57000 49.01900 21.06000
H  10.72200 50.08400 21.03100
H  9.34200 49.85800 19.97900
H  10.57100 48.77600 19.73400
H  6.99700 46.35500 22.00700
H  8.01500 46.26900 20.60000
H  5.83900 48.13000 20.01900
H  5.28100 46.53500 20.51700
H  6.40900 46.67300 19.20700
H  3.01200 49.09900 25.46500
H  3.33600 47.42300 25.89000
H  3.75600 48.07500 24.17100
H  5.49900 49.44000 30.10700
H  4.92400 46.79800 33.57500
H  6.14500 45.88600 32.69400
H  4.42800 45.73600 32.31200

