158

Mg 44.64900 4.57900 47.79300
C  42.38700 7.22900 47.22600
C  42.10500 2.32100 47.90700
C  47.00000 2.07100 47.56600
C  47.26700 6.85900 47.05700
N  42.54400 4.80300 47.76200
C  41.83800 5.94200 47.36200
C  40.33800 5.66500 47.32700
C  40.25800 4.10500 47.59600
C  41.71900 3.70200 47.83900
C  39.22800 3.58400 48.67600
C  39.78600 5.98000 45.86800
C  38.78300 7.14700 45.86900
H  38.66400 8.12000 44.70500
N  44.58700 2.44300 47.62600
C  43.38300 1.76100 47.88700
C  43.69800 0.34600 47.98600
C  45.10500 0.23200 47.77100
C  45.64700 1.59100 47.63400
C  42.58600 -0.69400 48.00400
C  45.96100 -1.02700 47.74800
O  45.37000 -2.12400 47.87400
C  47.37400 -1.05600 47.44000
N  46.78800 4.49500 47.14400
C  47.51500 3.30200 47.26900
C  48.99800 3.50700 47.04500
C  49.08100 5.11700 47.08400
C  47.63100 5.52700 47.09200
C  49.93400 2.88000 48.11100
C  49.99300 5.85000 46.01100
C  51.35000 6.39300 46.49300
N  44.81900 6.68500 47.34300
C  45.93500 7.38600 47.09300
C  45.59000 8.78000 46.81200
C  44.17300 8.81400 46.93200
C  43.75800 7.48800 47.21900
C  46.60000 9.87100 46.52100
C  42.89500 9.60500 46.95800
O  42.73000 10.86600 46.88600
C  41.69800 8.55600 47.05400
C  40.78300 8.81100 48.21300
O  40.79000 8.28900 49.34900
O  39.94300 9.86200 47.95800
C  38.84000 10.14100 48.87200
H  41.18000 1.74600 47.98300
H  47.83700 1.37100 47.50600
H  48.01300 7.65500 47.00500
H  39.78100 6.19300 48.10100
H  40.03200 3.54800 46.68700
H  38.41200 4.29500 48.80500
H  39.73300 3.40300 49.62400
H  38.77600 2.64600 48.35500
H  39.30400 5.05500 45.55100
H  40.56300 6.26400 45.15800
H  38.78800 7.76300 46.76800
H  37.84300 6.59600 45.89300
H  41.53900 -0.43200 47.85000
H  42.62200 -1.32800 48.89000
H  42.80100 -1.39600 47.19900
H  47.57000 -0.61700 46.46100
H  47.72800 -2.08600 47.40000
H  47.87700 -0.55400 48.26700
H  49.19700 3.18800 46.02100
H  49.37200 5.42900 48.08700
H  49.38300 2.19400 48.75400
H  50.32000 3.60800 48.82500
H  50.76500 2.28300 47.73400
H  49.40400 6.64200 45.54700
H  50.26700 5.15600 45.21700
H  51.28600 7.47800 46.41100
H  52.14200 5.97500 45.87100
H  51.50400 6.08600 47.52700
H  47.09300 10.22900 47.42500
H  46.23100 10.77400 46.03400
H  47.45800 9.52400 45.94500
H  41.13700 8.56600 46.11900
H  38.73700 11.22400 48.94300
H  38.78900 9.75300 49.89000
H  37.97800 9.79500 48.30300
Mg -10.05900 38.28000 40.81400
C  -7.99800 35.46800 40.08600
C  -7.69300 40.23200 39.22900
C  -12.34900 40.81200 40.94500
C  -12.62600 35.96100 41.65000
N  -8.09300 37.85700 39.73900
C  -7.39800 36.70500 39.61600
C  -6.07300 36.87900 38.86900
C  -5.87400 38.41500 38.87100
C  -7.31600 38.86100 39.24000
C  -4.75000 39.04000 39.74000
C  -6.16300 36.28400 37.44300
C  -4.82100 35.56400 36.98600
H  -4.26900 35.79500 35.61200
N  -9.99600 40.23400 40.31800
C  -8.87100 40.91200 39.73600
C  -9.17100 42.29800 39.49300
C  -10.54800 42.43600 39.96500
C  -11.01800 41.14500 40.43800
C  -8.26200 43.34200 38.72400
C  -11.21600 43.82800 40.06000
O  -10.64500 44.77300 39.60600
C  -12.48400 44.02600 40.81900
N  -12.21300 38.34900 41.19700
C  -12.90800 39.53800 41.18500
C  -14.36700 39.27300 41.69500
C  -14.41300 37.72100 41.92200
C  -13.00000 37.32800 41.55800
C  -14.79800 40.07900 42.98900
C  -15.47300 36.99800 41.07900
C  -16.94000 37.34200 41.43800
N  -10.36600 36.13200 40.89000
C  -11.37800 35.38700 41.30300
C  -10.93800 34.05700 41.48400
C  -9.67700 33.96700 40.95400
C  -9.31000 35.31600 40.61300
C  -11.90300 32.92900 41.97100
C  -8.55000 33.19800 40.53500
O  -8.35800 32.03000 40.60300
C  -7.45400 34.11300 39.87500
C  -6.16700 33.91800 40.53600
O  -5.23600 33.34600 39.97600
O  -6.22000 34.22400 41.89000
C  -5.06600 33.83900 42.68500
H  -7.09200 40.95200 38.67000
H  -13.10400 41.60000 40.98400
H  -13.30700 35.25700 42.13400
H  -5.43300 36.42400 39.62500
H  -5.62000 38.61600 37.83000
H  -5.24000 39.48200 40.60800
H  -4.18000 39.68400 39.06900
H  -4.14100 38.36400 40.34000
H  -6.47700 37.03000 36.71300
H  -7.05300 35.66000 37.52800
H  -4.91000 34.48500 37.11300
H  -4.01600 35.79800 37.68200
H  -7.76300 43.94700 39.48100
H  -8.94300 43.92500 38.10300
H  -7.61100 42.81900 38.02400
H  -12.38100 43.66400 41.84200
H  -13.30900 43.51900 40.31900
H  -12.59900 45.10900 40.78000
H  -15.00100 39.63600 40.88600
H  -14.58600 37.45200 42.96500
H  -14.66600 41.15400 42.87100
H  -13.96400 39.96200 43.68300
H  -15.72800 39.75700 43.45700
H  -15.40900 35.91000 41.05600
H  -15.14200 37.32700 40.09400
H  -17.55200 37.47700 40.54600
H  -17.11000 38.16300 42.13600
H  -17.35300 36.49800 41.99000
H  -12.91200 33.07400 41.58400
H  -11.89500 32.82000 43.05500
H  -11.66900 31.95000 41.55200
H  -7.38000 33.70800 38.86600
H  -5.41100 33.96300 43.71100
H  -4.23200 34.53000 42.56800
H  -4.73200 32.80300 42.61800

