158

Mg 0.68000 7.43600 26.84500
C  0.84400 9.75600 29.33300
C  0.57500 4.95800 29.22600
C  -0.12800 5.20600 24.39400
C  1.03200 9.83600 24.45200
N  0.73100 7.36200 29.01700
C  0.72800 8.46900 29.83500
C  0.57900 8.05600 31.30400
C  0.80600 6.44500 31.31100
C  0.74900 6.24800 29.73800
C  2.11900 5.96400 31.92600
C  -0.83400 8.39200 31.83900
C  -0.96700 8.48200 33.37500
H  0.29300 7.99500 34.22700
N  0.27300 5.36800 26.82300
C  0.37300 4.49200 27.92200
C  0.04500 3.17700 27.50300
C  -0.32500 3.24400 26.07900
C  -0.12600 4.64700 25.70500
C  0.06900 1.99100 28.46700
C  -0.89500 2.18300 25.11800
O  -1.20700 2.40300 23.97500
C  -1.07200 0.80500 25.59500
N  0.34600 7.62400 24.64900
C  0.02500 6.54600 23.92500
C  0.16000 6.88200 22.46100
C  0.64300 8.40000 22.40400
C  0.73500 8.64200 23.89800
C  0.91800 5.90900 21.57400
C  -0.34200 9.31500 21.64300
C  -1.56500 10.05000 22.30600
N  1.09900 9.31700 26.85500
C  1.17800 10.22100 25.81200
C  1.32700 11.50000 26.30100
C  1.29200 11.42200 27.70200
C  1.09900 10.08600 27.97600
C  1.41300 12.86600 25.48400
C  1.41700 12.12500 28.92700
O  1.59100 13.31400 29.14700
C  1.12900 11.11600 30.07700
C  2.31000 10.98500 30.91400
O  3.28900 10.27100 30.57100
O  2.12500 11.61900 32.16600
C  3.35600 11.54300 33.03000
H  0.53800 4.08300 29.87700
H  -0.45600 4.65200 23.51200
H  1.24900 10.62900 23.73300
H  1.44100 8.45900 31.83600
H  -0.03300 5.99400 31.84200
H  2.34700 6.34700 32.92100
H  2.90500 6.22200 31.21600
H  2.06100 4.87500 31.94800
H  -1.44800 7.59300 31.42300
H  -1.14000 9.31500 31.34600
H  -1.80600 7.86100 33.68700
H  -1.21000 9.50500 33.66500
H  -0.65100 2.16700 29.26600
H  1.05500 1.95400 28.92900
H  -0.16100 1.13100 27.83700
H  -1.78500 0.87600 26.41700
H  -0.09400 0.38100 25.82100
H  -1.40200 0.05600 24.87600
H  -0.83000 6.79000 22.01500
H  1.68100 8.47700 22.08200
H  1.71300 5.39700 22.11700
H  1.37200 6.24100 20.64100
H  0.22900 5.10800 21.30500
H  -0.71300 8.79300 20.76100
H  0.25900 10.09300 21.17200
H  -1.64600 9.57900 23.28500
H  -2.46200 9.84200 21.72400
H  -1.48600 11.13400 22.38500
H  1.20400 13.70600 26.14600
H  0.75400 12.73300 24.62500
H  2.41900 13.02400 25.09400
H  0.22400 11.50500 30.54300
H  3.87700 12.47500 32.81000
H  4.03800 10.74000 32.75200
H  3.27200 11.49100 34.11600
Mg 42.69000 41.60400 27.05100
C  41.48000 43.81400 29.44000
C  43.63300 39.41700 29.51600
C  44.44500 39.80900 24.83600
C  42.20700 44.09100 24.57600
N  42.71000 41.78100 29.21800
C  42.04100 42.62800 29.98300
C  41.95400 42.14500 31.47400
C  42.71200 40.71700 31.46900
C  43.06200 40.59300 29.93900
C  44.05300 40.64900 32.25600
C  40.45500 42.01200 31.92400
C  39.97100 42.81800 33.14000
H  39.24200 41.90200 34.18600
N  43.74400 39.78500 27.15800
C  43.96900 38.98800 28.24900
C  44.67800 37.84500 27.86900
C  44.90200 37.90900 26.45600
C  44.37200 39.20600 26.12400
C  45.23300 36.81700 28.89200
C  45.57000 36.91400 25.50100
O  45.84800 37.14500 24.34600
C  45.84500 35.46800 25.94600
N  43.29800 42.01800 25.02700
C  43.89000 41.03900 24.37500
C  44.07300 41.29200 22.86800
C  43.07200 42.53700 22.71100
C  42.84700 42.94400 24.17300
C  45.53600 41.49800 22.38400
C  41.80800 42.21200 21.91800
C  41.19400 43.40800 21.07500
N  41.97900 43.56500 26.94500
C  41.88700 44.49300 25.88000
C  41.18600 45.61700 26.33600
C  40.98600 45.39900 27.76700
C  41.51800 44.18900 28.03500
C  40.80100 46.68200 25.47300
C  40.46400 45.96500 28.99400
O  39.83900 46.95600 29.18700
C  40.76000 45.00700 30.19600
C  41.69700 45.68700 31.14200
O  42.79100 46.08700 30.85700
O  41.14000 45.77400 32.39100
C  41.93200 46.19200 33.56700
H  43.78900 38.61400 30.24100
H  44.83900 39.16300 24.04900
H  41.78500 44.80700 23.86700
H  42.50700 42.78200 32.16400
H  42.09100 39.86900 31.75600
H  44.95900 40.64500 31.65000
H  44.10900 39.68900 32.76900
H  44.04700 41.42500 33.02200
H  40.18000 40.96800 32.07000
H  39.78500 42.23100 31.09200
H  39.32100 43.65000 32.86800
H  40.79600 43.26400 33.69600
H  45.51600 37.20000 29.87200
H  46.10300 36.24600 28.56600
H  44.51100 36.01800 29.06200
H  45.78200 34.74200 25.13500
H  45.01400 35.31000 26.63400
H  46.78100 35.39500 26.49900
H  43.69400 40.35300 22.46400
H  43.60800 43.44000 22.41800
H  45.62700 42.37700 21.74500
H  45.78400 40.66500 21.72600
H  46.17800 41.39800 23.25800
H  41.00300 41.92300 22.59400
H  41.91800 41.38800 21.21300
H  40.86700 43.00500 20.11700
H  41.94400 44.17300 20.87300
H  40.26400 43.77700 21.50600
H  40.29500 46.29000 24.59100
H  41.76300 47.09900 25.17200
H  40.17800 47.33000 26.09000
H  39.84000 44.72100 30.70400
H  41.52900 45.47200 34.27800
H  41.73400 47.18300 33.97600
H  43.00900 46.07900 33.44000

