158

Mg 40.21600 8.12300 29.18900
C  41.92000 9.24200 31.93500
C  37.80700 6.75900 31.20500
C  38.97300 6.24300 26.52900
C  42.93100 8.94200 27.19500
N  39.93100 8.03800 31.30300
C  40.69600 8.69500 32.23700
C  40.02300 8.75400 33.59000
C  38.73000 7.82700 33.41900
C  38.78000 7.52700 31.86400
C  38.70700 6.59500 34.30900
C  39.72100 10.20700 34.10900
C  38.87800 10.25400 35.37400
H  39.29500 11.16500 36.56600
N  38.48900 6.76700 28.86900
C  37.62900 6.43600 29.86600
C  36.55700 5.65500 29.29100
C  36.86600 5.49000 27.88900
C  38.16600 6.17700 27.71100
C  35.36800 5.16500 30.15700
C  36.22000 4.61700 26.84800
O  36.61100 4.44300 25.70300
C  34.91200 3.89100 27.21400
N  40.81000 7.64700 27.14800
C  40.12400 6.96700 26.23800
C  40.74300 6.96400 24.80600
C  41.89700 7.92700 25.09000
C  41.84100 8.30400 26.54300
C  41.16400 5.53800 24.25500
C  41.87200 9.16000 24.07800
C  40.91000 10.33200 24.40300
N  42.04900 8.93200 29.46200
C  43.02700 9.23200 28.59400
C  44.16100 9.78400 29.26300
C  43.78100 9.88300 30.56200
C  42.52800 9.28800 30.63400
C  45.46000 10.26500 28.64100
C  44.15600 10.32200 31.84600
O  45.14600 10.88700 32.31400
C  42.90300 10.07900 32.79100
C  43.45200 9.19500 33.86800
O  44.18100 8.20800 33.69100
O  42.75500 9.47800 35.09600
C  43.12300 8.76800 36.26500
H  37.00700 6.40800 31.86000
H  38.54200 5.72100 25.67200
H  43.79300 9.25500 26.60300
H  40.71600 8.25500 34.26800
H  37.75600 8.29200 33.56600
H  39.38800 6.77100 35.14200
H  39.06400 5.74700 33.72500
H  37.73300 6.41800 34.76500
H  39.01600 10.59900 33.37500
H  40.62800 10.77900 34.30600
H  38.77200 9.21200 35.67700
H  37.87300 10.61100 35.14800
H  34.46200 5.38200 29.59100
H  35.18800 5.68300 31.09800
H  35.35800 4.10300 30.40400
H  34.57800 3.11100 26.52900
H  34.10100 4.55700 27.50800
H  35.16600 3.31100 28.10100
H  40.04400 7.32600 24.05200
H  42.81100 7.35700 24.92200
H  40.34100 5.12600 23.67100
H  41.21900 4.78100 25.03700
H  42.12100 5.56200 23.73300
H  41.68500 9.00700 23.01500
H  42.87800 9.56100 24.20200
H  41.42700 11.28800 24.49000
H  40.37200 10.21700 25.34400
H  40.15100 10.40800 23.62500
H  45.34000 10.74200 27.66800
H  46.14200 9.47100 28.33600
H  45.93900 10.83800 29.43400
H  42.58400 11.08500 33.06400
H  42.44200 7.93700 36.44900
H  42.83500 9.49300 37.02600
H  44.17400 8.48500 36.31900
Mg 6.98100 54.88100 40.99900
C  6.42400 51.36200 41.24100
C  10.28100 54.09900 40.67700
C  7.42900 58.07400 40.18500
C  3.52600 55.23000 41.19100
N  8.19200 52.99000 40.76700
C  7.75900 51.68600 40.90100
C  8.92200 50.72800 40.70300
C  10.04100 51.68400 41.02700
C  9.49800 53.01800 40.85600
C  10.87700 51.46900 42.39400
C  8.88500 49.98200 39.32300
C  8.57900 50.91700 38.12900
H  7.34100 50.78700 37.34900
N  8.60000 55.96800 40.49900
C  9.91400 55.49600 40.47000
C  10.80400 56.55700 40.12900
C  10.01000 57.77200 40.06100
C  8.61900 57.33300 40.21000
C  12.29600 56.38900 39.78500
C  10.50400 59.19800 39.84600
O  11.73600 59.44600 39.89800
C  9.57000 60.43600 39.84600
N  5.71100 56.30200 40.55300
C  6.14500 57.59800 40.32500
C  4.98100 58.55700 40.32100
C  3.66000 57.64300 40.42600
C  4.31000 56.28500 40.77700
C  4.94900 59.67800 41.36700
C  2.74000 57.70700 39.20600
C  2.24100 59.15000 38.66200
N  5.29800 53.55900 41.15300
C  3.94200 53.90400 41.32400
C  3.20300 52.76200 41.79900
C  4.14200 51.71100 41.70400
C  5.41400 52.26700 41.38000
C  1.72200 52.65300 42.04100
C  4.33600 50.33200 41.98900
O  3.59300 49.48900 42.47000
C  5.82600 49.97900 41.57200
C  5.63500 49.02700 40.47300
O  5.21600 49.40800 39.35700
O  5.83100 47.73900 40.79200
C  5.87600 46.75500 39.69300
H  11.31300 53.78600 40.50500
H  7.50500 59.11700 39.87000
H  2.47300 55.43500 41.39400
H  8.75500 50.00100 41.49800
H  10.82300 51.79000 40.27500
H  11.93500 51.45500 42.13100
H  10.78100 50.44300 42.75000
H  10.61500 52.15300 43.20000
H  8.14100 49.18800 39.39000
H  9.85900 49.54000 39.11500
H  9.40800 50.84000 37.42500
H  8.60300 51.92200 38.55100
H  12.82800 55.94700 40.62800
H  12.71500 57.35700 39.50900
H  12.27000 55.77500 38.88400
H  8.96300 60.38600 38.94300
H  10.10100 61.38500 39.92900
H  8.94900 60.25200 40.72300
H  5.01900 59.05100 39.35000
H  3.01800 57.83500 41.28600
H  4.82200 60.67000 40.93400
H  5.94900 59.63800 41.80000
H  4.20300 59.61800 42.15900
H  1.84300 57.13300 39.43600
H  3.30600 57.22800 38.40700
H  2.64800 59.91800 39.32000
H  1.16000 59.26900 38.73500
H  2.45300 59.22300 37.59500
H  1.25000 52.13500 41.20700
H  1.32200 53.66300 42.13300
H  1.64800 52.04500 42.94300
H  6.21300 49.48200 42.46100
H  6.26200 45.85600 40.17500
H  6.44800 46.98100 38.79300
H  4.85400 46.48700 39.42400

