158

Mg 46.52600 16.83500 28.32900
C  44.51000 16.87600 31.11600
C  49.03700 18.33000 30.25000
C  48.42600 17.45500 25.44000
C  43.89700 15.74500 26.41200
N  46.69300 17.62100 30.33800
C  45.82400 17.38700 31.38100
C  46.29200 17.63700 32.76300
C  47.65200 18.35300 32.42600
C  47.82700 18.10700 30.87000
C  47.73800 19.91200 32.76400
C  46.26500 16.31100 33.64600
C  45.39700 16.30700 34.88800
H  45.12800 17.67300 35.50500
N  48.50400 17.65000 27.84900
C  49.32800 18.18300 28.81600
C  50.62500 18.55000 28.13500
C  50.50100 18.30700 26.78100
C  49.09600 17.78300 26.59400
C  51.76800 19.34200 28.87600
C  51.48300 18.55200 25.59200
O  51.19100 18.29800 24.43800
C  52.84500 19.11100 25.88800
N  46.20200 16.63400 26.22900
C  47.09300 16.94700 25.22700
C  46.52400 16.73100 23.84300
C  45.16700 16.13200 24.18400
C  45.12300 16.03000 25.72300
C  46.41600 18.02200 22.97800
C  44.96200 14.80600 23.40500
C  45.52300 13.52100 23.88900
N  44.68800 16.30100 28.66000
C  43.81000 15.79200 27.82900
C  42.62900 15.33600 28.56100
C  42.79600 15.86200 29.86800
C  44.07300 16.38700 29.86500
C  41.49100 14.59300 28.06500
C  42.14600 16.02400 31.10600
O  40.99900 15.63200 31.44000
C  43.22800 16.69200 31.99400
C  42.60100 17.90400 32.65000
O  42.52400 19.07400 32.23600
O  41.98200 17.48300 33.84900
C  41.06900 18.44400 34.50000
H  49.84000 18.79800 30.82400
H  48.79300 17.79800 24.47000
H  43.08800 15.31300 25.81900
H  45.54000 18.26500 33.24100
H  48.55300 17.93600 32.87600
H  46.82300 20.19600 33.28400
H  47.63400 20.50600 31.85600
H  48.63700 20.16200 33.32800
H  47.25600 16.21700 34.09000
H  45.94900 15.43700 33.07800
H  45.90400 15.74300 35.67100
H  44.46600 15.75000 34.77700
H  52.75600 18.91800 28.69800
H  51.54000 19.26900 29.93900
H  51.67100 20.40200 28.64100
H  53.28400 18.51000 26.68500
H  52.71000 20.15300 26.17700
H  53.43300 19.17900 24.97300
H  47.16300 15.99300 23.35800
H  44.35600 16.78200 23.85700
H  45.45100 18.52600 23.03600
H  46.53000 17.74400 21.93100
H  47.18200 18.77200 23.17800
H  45.44100 14.97800 22.44200
H  43.89800 14.71300 23.18900
H  46.25400 13.08700 23.20700
H  44.67000 12.84900 23.98100
H  46.08600 13.56700 24.82200
H  41.29300 13.82700 28.81500
H  41.60900 14.15900 27.07200
H  40.65300 15.28600 27.99000
H  43.50700 15.95900 32.75100
H  40.14300 18.54400 33.93500
H  41.54700 19.42400 34.48900
H  40.87000 18.14500 35.52900
Mg 17.56800 52.40700 26.02300
C  19.66800 51.10600 28.49800
C  15.36700 53.25000 28.38800
C  15.67900 53.28500 23.47500
C  19.90800 50.97300 23.60600
N  17.46000 51.93600 28.22100
C  18.48400 51.60900 28.99000
C  18.06100 51.71700 30.45600
C  16.55000 52.08200 30.39100
C  16.48000 52.55800 28.94600
C  15.55900 50.80600 30.60800
C  18.89600 52.79000 31.16400
C  19.21100 52.72000 32.62000
H  18.23300 52.00900 33.50600
N  15.66700 53.17100 25.90700
C  14.97300 53.49300 27.01900
C  13.88000 54.30400 26.56700
C  13.86400 54.26700 25.12300
C  15.05300 53.44900 24.75600
C  12.90000 55.03200 27.47400
C  12.97100 55.01600 24.14200
O  13.18400 54.95300 22.95500
C  11.81700 55.93700 24.64000
N  17.68100 52.04300 23.91300
C  16.80100 52.59600 23.09700
C  17.09300 52.50700 21.64200
C  18.45600 51.68600 21.61000
C  18.74100 51.51200 23.09000
C  16.00700 51.62800 20.93300
C  19.55500 52.58200 20.93400
C  20.46400 51.94300 19.83700
N  19.37300 51.26400 26.03500
C  20.22100 50.82900 24.96700
C  21.40900 50.24000 25.55000
C  21.24500 50.40400 26.90800
C  19.99900 50.97800 27.14800
C  22.60800 49.76700 24.82700
C  21.89700 50.31300 28.18500
O  22.99800 49.91400 28.55100
C  20.86100 50.65000 29.26000
C  20.54400 49.41700 30.16400
O  20.13500 48.31400 29.85100
O  20.95300 49.73500 31.44200
C  20.98200 48.62200 32.43000
H  14.68700 53.49100 29.20700
H  15.06500 53.75000 22.70100
H  20.67300 50.69300 22.87900
H  18.27500 50.74900 30.90800
H  16.30000 52.90400 31.06200
H  15.03400 50.55400 29.68600
H  14.71100 50.89300 31.28800
H  16.11000 49.91900 30.91700
H  18.58700 53.81000 30.93400
H  19.84600 52.78800 30.62900
H  19.16700 53.69800 33.09900
H  20.18000 52.25300 32.79800
H  13.02700 56.11300 27.41100
H  13.19200 54.93400 28.52000
H  11.87300 54.74300 27.25000
H  11.08500 55.46800 25.29700
H  11.38700 56.36700 23.73500
H  12.24600 56.71300 25.27500
H  17.07000 53.50800 21.21100
H  18.34800 50.65600 21.27000
H  15.57700 50.85100 21.56500
H  16.39900 51.08100 20.07500
H  15.16600 52.24500 20.61400
H  20.35600 52.91700 21.59200
H  19.07000 53.47500 20.54100
H  20.39200 52.56300 18.94400
H  20.19900 50.92800 19.54200
H  21.46500 51.92800 20.27000
H  23.04100 50.42900 24.07700
H  22.28700 48.87200 24.29400
H  23.45800 49.43200 25.42200
H  21.36100 51.41400 29.85600
H  21.13800 47.62300 32.02500
H  20.07900 48.58200 33.03900
H  21.88500 48.84500 32.99800

