158

Mg -0.12700 7.52500 26.59600
C  0.56200 9.54300 29.43800
C  -0.32100 4.80200 28.72900
C  -0.58600 5.55100 23.94600
C  0.53400 10.21900 24.55100
N  -0.09400 7.29400 28.82500
C  0.14700 8.21200 29.81000
C  0.06900 7.70600 31.16900
C  -0.10300 6.11200 30.92100
C  -0.28200 6.07600 29.35600
C  0.95900 5.13000 31.48700
C  -1.00000 8.41200 32.02700
C  -0.76900 8.57000 33.53300
H  0.43000 8.07100 34.26000
N  -0.39000 5.45000 26.33200
C  -0.37300 4.49500 27.30100
C  -0.49700 3.20000 26.65500
C  -0.66900 3.40800 25.27400
C  -0.59900 4.89700 25.13300
C  -0.41100 1.97800 27.43900
C  -1.04000 2.35500 24.18600
O  -1.23500 2.79400 23.05700
C  -1.28200 0.87600 24.51000
N  -0.06400 7.87600 24.55400
C  -0.35900 6.88900 23.58400
C  -0.28500 7.40900 22.10600
C  -0.19900 8.94000 22.42200
C  0.14700 9.03700 23.94600
C  0.80200 6.66100 21.30600
C  -1.46300 9.77300 22.08300
C  -1.29400 10.76500 20.87600
N  0.49200 9.47000 26.89400
C  0.69000 10.42200 25.90600
C  1.23300 11.57200 26.58100
C  1.29700 11.27200 27.95000
C  0.74200 9.98700 28.10100
C  1.70500 12.75300 25.93700
C  1.63700 11.78100 29.23000
O  2.20200 12.85000 29.57500
C  1.16200 10.67000 30.27700
C  2.31400 10.21900 31.15600
O  3.07700 9.36900 30.82900
O  2.53300 11.00300 32.20500
C  3.63600 10.80000 33.14800
H  -0.47500 3.88200 29.29700
H  -0.83200 4.98100 23.04800
H  0.77200 11.09200 23.94100
H  1.02000 7.83900 31.68500
H  -1.09800 5.84800 31.28100
H  0.42200 4.31800 31.97800
H  1.54700 5.69600 32.20900
H  1.60800 4.87200 30.65000
H  -1.95600 7.94900 31.78200
H  -1.04600 9.39800 31.56400
H  -1.67700 8.19400 34.00300
H  -0.74600 9.64100 33.73300
H  -0.15700 1.08900 26.86200
H  -1.36100 1.78700 27.93700
H  0.41200 2.17400 28.12700
H  -1.68400 0.39100 23.62100
H  -1.98400 0.76300 25.33600
H  -0.39100 0.32800 24.81900
H  -1.19900 7.19400 21.55200
H  0.63000 9.37900 21.86700
H  1.11500 5.74600 21.81000
H  1.71900 7.24800 21.24900
H  0.58200 6.31700 20.29600
H  -1.53200 10.47200 22.91700
H  -2.42800 9.27600 21.98700
H  -0.79300 10.23300 20.06700
H  -0.75400 11.69700 21.04400
H  -2.29800 11.03900 20.55400
H  1.02300 13.05600 25.14300
H  2.72700 12.62200 25.58100
H  1.70300 13.62700 26.58900
H  0.31800 11.04400 30.85600
H  4.10000 11.78700 33.14700
H  4.34600 10.11100 32.69200
H  3.32300 10.51700 34.15300
Mg -12.03000 15.88000 42.70500
C  -8.84000 14.56000 41.76900
C  -11.08000 18.89300 41.49800
C  -15.35700 16.75800 42.75300
C  -12.97900 12.45200 43.53700
N  -10.19700 16.57900 41.78600
C  -8.94700 15.93600 41.72600
C  -7.77900 16.94200 41.39000
C  -8.55000 18.33700 41.62200
C  -10.03100 17.94500 41.49900
C  -8.26800 18.97800 43.01400
C  -7.16900 16.75300 39.98900
C  -5.65800 16.72800 39.71500
H  -5.33800 15.51800 38.76200
N  -13.07100 17.58900 42.23700
C  -12.44800 18.70900 41.68500
C  -13.41100 19.64300 41.36400
C  -14.73700 19.06800 41.69500
C  -14.43500 17.77300 42.25400
C  -13.15200 20.94900 40.72700
C  -16.13000 19.68500 41.53900
O  -16.20100 20.86200 41.13900
C  -17.36400 18.92800 41.84100
N  -13.83600 14.85500 43.35500
C  -15.10400 15.46800 43.23900
C  -16.17500 14.54200 43.67400
C  -15.43400 13.16000 43.91100
C  -13.96700 13.49300 43.62500
C  -17.19400 15.08000 44.77100
C  -16.04800 11.92500 43.20000
C  -15.65300 11.76500 41.74900
N  -11.13800 13.92000 42.74600
C  -11.69100 12.67200 43.06500
C  -10.69800 11.67900 42.94000
C  -9.54300 12.35000 42.46100
C  -9.89600 13.67900 42.27000
C  -10.92900 10.23900 43.33500
C  -8.14100 12.23400 42.10600
O  -7.40300 11.32300 42.12300
C  -7.65200 13.62400 41.65200
C  -6.56300 13.87000 42.56500
O  -6.66700 13.90500 43.79600
O  -5.33000 13.99800 41.92000
C  -4.16300 14.14900 42.85300
H  -10.85600 19.96100 41.45100
H  -16.37300 17.11200 42.94200
H  -13.29800 11.45600 43.85200
H  -7.05000 16.80700 42.18900
H  -8.22100 19.01100 40.83100
H  -7.29900 18.71100 43.43700
H  -9.02300 18.84700 43.78900
H  -8.21000 20.06100 42.91000
H  -7.58600 17.39600 39.21300
H  -7.48500 15.73600 39.75800
H  -5.08300 16.58600 40.63000
H  -5.33600 17.63400 39.20100
H  -13.93200 21.17800 40.00100
H  -12.29200 21.01800 40.06100
H  -13.17000 21.84800 41.34200
H  -17.32200 18.03800 41.21300
H  -18.07800 19.68900 41.52400
H  -17.41300 18.84700 42.92700
H  -16.73700 14.32500 42.76600
H  -15.40200 12.94400 44.97900
H  -18.16700 14.66500 44.50800
H  -17.35300 16.15300 44.87300
H  -16.98000 14.73100 45.78200
H  -17.11500 11.88800 43.42200
H  -15.59500 11.07400 43.70900
H  -15.22100 12.73300 41.49300
H  -16.46800 11.47400 41.08600
H  -14.83800 11.04900 41.65100
H  -10.06400 9.58100 43.25400
H  -11.77300 9.82900 42.78000
H  -11.28700 10.16000 44.36200
H  -7.28800 13.57500 40.62600
H  -4.36100 13.47100 43.68300
H  -4.13100 15.18200 43.19900
H  -3.25600 13.92900 42.28900

