158

Mg 44.23100 2.94800 46.50200
C  42.30800 5.86000 46.25000
C  41.43800 1.08900 46.08700
C  46.25400 0.27300 46.26900
C  47.07900 5.01600 46.40200
N  42.11700 3.44300 46.25900
C  41.56100 4.64800 46.15400
C  40.04000 4.54200 46.17600
C  39.74400 3.01800 46.39900
C  41.15000 2.42900 46.23100
C  39.03700 2.58600 47.71800
C  39.22000 5.28000 45.07100
C  39.56800 4.84500 43.67600
H  40.31100 5.83500 42.82100
N  43.83500 0.88900 46.21200
C  42.60100 0.36200 46.09900
C  42.71900 -1.07700 45.88700
C  44.10500 -1.33700 45.93100
C  44.84700 -0.07300 46.13000
C  41.54400 -1.99200 45.69300
C  44.71900 -2.73300 45.82300
O  43.95800 -3.70000 45.71200
C  46.08700 -3.06000 45.68500
N  46.37200 2.68100 46.35700
C  46.90500 1.47000 46.36200
C  48.40600 1.55300 46.51300
C  48.66700 3.10400 46.21100
C  47.29900 3.64900 46.41000
C  48.80000 0.99500 47.90300
C  49.31900 3.43000 44.83500
C  50.75600 4.03100 44.98500
N  44.67400 5.06300 46.35100
C  45.88800 5.75700 46.42200
C  45.66200 7.20200 46.47800
C  44.27900 7.28400 46.43700
C  43.74100 5.99800 46.38600
C  46.71400 8.36000 46.49900
C  43.21100 8.17500 46.47700
O  43.19200 9.45100 46.63900
C  41.87600 7.28200 46.25200
C  40.87700 7.82000 47.21400
O  40.66300 7.44500 48.37900
O  40.10800 8.77200 46.55600
C  39.01000 9.38100 47.36300
H  40.47600 0.57300 46.08000
H  46.85600 -0.63600 46.21700
H  48.01900 5.56900 46.33900
H  39.82700 5.06400 47.10800
H  39.09600 2.67000 45.59400
H  39.15100 3.30500 48.52900
H  39.54800 1.67700 48.03400
H  37.99700 2.46600 47.41400
H  39.55200 6.30900 45.20800
H  38.15500 5.06000 45.14100
H  38.64400 4.57400 43.16600
H  40.24200 3.99100 43.75200
H  41.81600 -2.70000 44.91000
H  40.54200 -1.58300 45.55800
H  41.52000 -2.42800 46.69100
H  46.57600 -2.61500 44.81900
H  46.22000 -4.13400 45.55100
H  46.59400 -2.84900 46.62700
H  48.98400 0.93200 45.82900
H  49.30000 3.39100 47.05100
H  49.43500 0.11100 47.97200
H  47.94300 0.75300 48.53200
H  49.31200 1.78600 48.45100
H  48.78400 4.13200 44.19600
H  49.43700 2.54200 44.21400
H  50.85600 4.88300 44.31200
H  51.46700 3.22400 44.80600
H  51.05800 4.49200 45.92500
H  46.46900 9.22500 45.88400
H  47.68200 7.97300 46.18100
H  46.83600 8.75600 47.50700
H  41.61800 7.69900 45.27800
H  38.01100 9.00200 47.14800
H  39.00500 10.46100 47.21500
H  39.19800 9.35100 48.43700
Mg 35.31700 0.21800 29.12800
C  33.05700 1.43500 31.36400
C  37.88400 0.31200 31.37900
C  37.45300 -0.69300 26.66700
C  32.70800 0.53700 26.70800
N  35.45600 0.88300 31.13000
C  34.39800 1.24200 31.91100
C  34.84900 1.49500 33.39400
C  36.36100 1.18200 33.33300
C  36.58100 0.69300 31.83200
C  37.24600 2.35600 33.76000
C  34.02200 0.64200 34.42100
C  34.05200 0.85700 35.89300
H  35.00500 1.94100 36.46300
N  37.41700 -0.15300 29.09200
C  38.27800 -0.13200 30.12800
C  39.57800 -0.53500 29.65600
C  39.46500 -1.00100 28.33400
C  38.06900 -0.59600 27.94200
C  40.78800 -0.56600 30.58200
C  40.47200 -1.74200 27.48000
O  40.25700 -2.13600 26.35100
C  41.84000 -2.12000 27.97900
N  35.11500 -0.01100 26.96100
C  36.21600 -0.41800 26.19100
C  35.73400 -0.60100 24.70700
C  34.17700 -0.61500 24.95900
C  33.95200 0.11000 26.21700
C  36.19600 0.49800 23.83800
C  33.59500 -1.99500 25.03400
C  32.57000 -2.24200 23.89300
N  33.28500 0.89700 28.94400
C  32.36000 0.97400 27.92800
C  31.08700 1.50800 28.37600
C  31.27700 1.68200 29.74900
C  32.64000 1.22000 30.05800
C  29.76700 1.58500 27.63700
C  30.65400 2.02400 30.98400
O  29.50200 2.41000 31.18500
C  31.76800 1.86800 32.08000
C  31.79900 3.13500 32.89400
O  32.25800 4.23300 32.59100
O  31.26000 2.88800 34.17200
C  31.15500 4.06700 35.03600
H  38.77100 0.35200 32.01500
H  38.07800 -0.93800 25.80600
H  31.85800 0.48000 26.02500
H  34.67200 2.54800 33.61100
H  36.54600 0.35200 34.01400
H  37.74100 2.16200 34.71200
H  36.72300 3.30600 33.86900
H  37.98200 2.51100 32.97200
H  34.41100 -0.36600 34.27200
H  32.98500 0.67600 34.08500
H  34.20300 -0.05900 36.46500
H  33.08900 1.24500 36.22500
H  41.07800 -1.57400 30.87700
H  40.62800 0.06800 31.45400
H  41.60100 -0.06000 30.06100
H  42.47700 -1.29300 28.29200
H  42.32400 -2.66200 27.16700
H  41.63000 -2.80400 28.80100
H  36.10100 -1.52600 24.26300
H  33.64900 -0.05300 24.18800
H  36.57900 0.03800 22.92700
H  37.03500 1.03000 24.28700
H  35.32200 1.07000 23.52500
H  33.17800 -2.18400 26.02300
H  34.37300 -2.75800 24.99800
H  31.63800 -2.60000 24.33000
H  32.91800 -3.01400 23.20600
H  32.36900 -1.37000 23.27200
H  29.09200 0.79100 27.95600
H  30.04100 1.75300 26.59500
H  29.23800 2.51100 27.86000
H  31.57200 1.03700 32.75800
H  31.99100 4.08900 35.73400
H  30.18100 4.11500 35.52200
H  31.23300 5.02800 34.52700

