158

Mg 24.22100 -4.78700 45.48100
C  26.34400 -2.47000 44.02800
C  21.75600 -3.65500 43.45000
C  22.40600 -7.56300 46.08600
C  26.92100 -6.27800 47.04200
N  24.14400 -3.32700 43.82600
C  25.04000 -2.40800 43.53800
C  24.66000 -1.53900 42.32200
C  23.05100 -1.76600 42.37600
C  22.94100 -2.97600 43.33600
C  22.16700 -0.55800 42.82500
C  25.34000 -2.12200 41.04500
C  26.14800 -1.15500 40.20200
H  25.74400 -1.21500 38.66800
N  22.25300 -5.42200 45.02400
C  21.40800 -4.81300 44.13500
C  20.12300 -5.53400 44.05500
C  20.28200 -6.63100 44.90400
C  21.68700 -6.55800 45.42400
C  18.95700 -4.99200 43.33100
C  19.21400 -7.61000 45.19900
O  18.13900 -7.64100 44.70300
C  19.40300 -8.67700 46.28600
N  24.69100 -6.75200 46.42600
C  23.69700 -7.64000 46.59900
C  24.24800 -8.91600 47.32900
C  25.64100 -8.41500 47.84200
C  25.79700 -7.12700 47.01000
C  23.40600 -9.37300 48.54300
C  26.83500 -9.36000 47.62500
C  27.90300 -9.49300 48.72300
N  26.22800 -4.43500 45.59800
C  27.19600 -5.04200 46.35800
C  28.43300 -4.25800 46.26500
C  28.16800 -3.21200 45.39700
C  26.82300 -3.38700 45.02900
C  29.61100 -4.48300 47.12200
C  28.60500 -1.95800 44.78200
O  29.64300 -1.39500 44.92100
C  27.46600 -1.63700 43.73800
C  27.10400 -0.25800 44.02500
O  26.43000 0.14300 44.99400
O  27.58900 0.54600 43.02000
C  27.39500 1.96700 43.17200
H  20.96100 -3.23600 42.83100
H  21.87900 -8.51700 46.01600
H  27.73200 -6.72500 47.62000
H  24.75800 -0.46100 42.45300
H  22.73200 -2.12600 41.39800
H  21.37900 -0.42100 42.08500
H  22.70900 0.38000 42.70800
H  21.76200 -0.64100 43.83300
H  24.59800 -2.63700 40.43600
H  25.94900 -2.98800 41.30300
H  27.18200 -1.43500 40.40200
H  26.08200 -0.16500 40.65200
H  19.36200 -4.47000 42.46300
H  18.47000 -4.21500 43.91900
H  18.23800 -5.76300 43.05700
H  19.92600 -9.58000 45.97200
H  18.41200 -8.97300 46.63000
H  19.90400 -8.34000 47.19300
H  24.23900 -9.71900 46.59200
H  25.52500 -8.04100 48.86000
H  23.78400 -9.16000 49.54300
H  23.44200 -10.45500 48.42000
H  22.38900 -9.04900 48.32100
H  27.31500 -9.07100 46.68900
H  26.46500 -10.36300 47.41500
H  28.91000 -9.40700 48.31400
H  27.90700 -10.53800 49.03200
H  27.80500 -8.79900 49.55800
H  30.12000 -5.20300 46.48200
H  29.25700 -4.79700 48.10400
H  30.27100 -3.61700 47.18200
H  27.79900 -1.82600 42.71700
H  27.28100 2.33000 42.15100
H  28.21000 2.52100 43.63800
H  26.53900 2.24800 43.78600
Mg 6.31500 54.15500 41.17800
C  5.42200 50.65900 40.58800
C  9.39600 53.53500 40.08500
C  6.76500 57.41800 41.39400
C  2.80400 54.60500 41.72100
N  7.20500 52.21300 40.32400
C  6.74400 50.88900 40.28100
C  7.88000 49.95300 40.00800
C  9.18400 50.92600 39.90300
C  8.61400 52.31100 40.10500
C  10.29300 50.60200 40.87300
C  7.67500 49.13300 38.67300
C  7.09200 49.87500 37.49100
H  6.25400 49.11100 36.40300
N  7.94300 55.39500 40.88200
C  9.15600 54.90600 40.38200
C  10.02300 56.05000 40.29500
C  9.30500 57.19700 40.78000
C  7.94500 56.73400 41.03100
C  11.43000 56.02000 39.78700
C  9.81600 58.59700 40.92700
O  11.02400 58.85400 40.77800
C  9.00400 59.74800 41.28000
N  4.97000 55.72700 41.52700
C  5.42400 57.02200 41.58400
C  4.32700 57.97700 42.01300
C  3.05300 57.05800 42.05500
C  3.59600 55.68300 41.78400
C  4.59400 58.64200 43.35100
C  1.82700 57.44500 41.25300
C  1.89000 57.33700 39.75000
N  4.50600 52.95200 41.23800
C  3.17100 53.25400 41.52700
C  2.37300 52.13700 41.62500
C  3.20700 51.03600 41.41300
C  4.49900 51.57800 41.07000
C  0.85000 52.10400 41.82000
C  3.29700 49.58400 41.29900
O  2.49300 48.72400 41.56000
C  4.83200 49.30000 40.87200
C  4.66500 48.38600 39.74100
O  4.12400 48.68400 38.68600
O  5.08400 47.06000 40.03300
C  4.68400 46.09500 39.05200
H  10.42800 53.34100 39.78300
H  6.85200 58.49600 41.54700
H  1.71800 54.69800 41.78200
H  7.99900 49.21400 40.80000
H  9.77100 50.88900 38.98600
H  10.15400 49.63600 41.35600
H  10.07800 51.31200 41.67200
H  11.30300 50.83600 40.53400
H  7.16200 48.18200 38.81300
H  8.64700 48.89900 38.23900
H  7.90500 50.36200 36.95200
H  6.47900 50.67500 37.90600
H  11.37900 56.22000 38.71700
H  11.89000 55.04000 39.91000
H  12.03200 56.77600 40.29200
H  9.64500 60.59500 41.52400
H  8.48800 59.45900 42.19500
H  8.34500 60.02500 40.45600
H  4.27300 58.69500 41.19500
H  2.73700 56.93400 43.09100
H  3.99800 58.47200 44.24800
H  4.31100 59.64100 43.01900
H  5.67100 58.59900 43.51500
H  1.68900 58.50200 41.48300
H  0.96300 56.98100 41.72800
H  1.62700 58.28000 39.27000
H  1.23500 56.54300 39.39200
H  2.91900 57.18900 39.42200
H  0.67800 51.94200 42.88500
H  0.49400 51.20900 41.31000
H  0.30400 52.94800 41.40000
H  5.30000 48.76900 41.70000
H  5.11200 45.12300 39.29900
H  5.08800 46.30000 38.06000
H  3.59400 46.09000 39.07700

