158

Mg 35.96900 2.01900 29.30200
C  33.71300 3.13300 31.82400
C  38.44300 1.92200 31.56600
C  38.04500 1.27900 26.79800
C  33.48200 2.52500 26.99400
N  36.07600 2.62200 31.46000
C  35.03600 2.86600 32.30300
C  35.55000 2.92500 33.68500
C  37.06800 2.59000 33.62300
C  37.19100 2.26900 32.14600
C  38.04100 3.79700 34.01100
C  34.87000 1.75900 34.54100
C  34.71800 1.95600 36.01500
H  35.13400 3.32100 36.61100
N  37.98200 1.56200 29.24600
C  38.81400 1.53300 30.28300
C  40.07600 1.02300 29.77200
C  40.00000 0.84200 28.34100
C  38.64300 1.22000 28.06300
C  41.31200 0.74600 30.66400
C  41.09400 0.43200 27.30000
O  40.78000 0.27000 26.13100
C  42.50000 0.19800 27.71700
N  35.79700 2.17700 27.19100
C  36.83600 1.70500 26.42300
C  36.36300 1.59900 24.97300
C  34.78300 1.53100 25.10000
C  34.67200 2.11400 26.52100
C  36.96400 2.74100 24.10200
C  34.15300 0.07700 25.00900
C  33.43500 -0.25400 23.68300
N  34.01900 2.70700 29.34600
C  33.12000 2.85700 28.32500
C  31.81800 3.32700 28.86600
C  32.04300 3.51600 30.23500
C  33.31600 3.05300 30.49600
C  30.63700 3.70700 28.11700
C  31.42200 3.85700 31.38500
O  30.29900 4.33200 31.50900
C  32.52300 3.70700 32.53500
C  32.81500 5.05300 33.10700
O  33.76800 5.77400 32.80500
O  31.95400 5.30100 34.18100
C  32.14700 6.52600 34.91400
H  39.33900 1.85100 32.18600
H  38.64900 1.11700 25.90200
H  32.66600 2.65700 26.28100
H  35.37100 3.93000 34.06600
H  37.35600 1.74400 34.24600
H  38.23700 4.28100 33.05500
H  38.92600 3.36000 34.47400
H  37.57600 4.59200 34.59400
H  35.37400 0.80400 34.39100
H  33.85400 1.72800 34.14700
H  35.34000 1.14000 36.38400
H  33.70500 1.64800 36.27400
H  42.04900 1.54100 30.55200
H  41.83000 -0.19600 30.48000
H  40.99500 0.67300 31.70500
H  42.78000 0.97900 28.42400
H  43.20200 0.06800 26.89300
H  42.51700 -0.78800 28.18100
H  36.72300 0.69900 24.47400
H  34.38900 2.17500 24.31400
H  37.34700 3.58900 24.66900
H  36.38000 3.04300 23.23200
H  37.86400 2.28400 23.69100
H  33.33800 0.11400 25.73300
H  34.86200 -0.71900 25.23600
H  33.43300 0.65500 23.08000
H  32.43500 -0.68400 23.73500
H  34.08900 -0.95400 23.16400
H  30.99800 4.21500 27.22200
H  30.15800 4.51800 28.66600
H  29.89500 2.92900 27.93900
H  32.16600 2.97800 33.26200
H  33.10200 6.47900 35.43800
H  31.42300 6.63100 35.72200
H  31.98000 7.40700 34.29400
Mg 41.14200 8.72000 29.23500
C  43.16400 9.67100 31.91400
C  38.83200 7.61500 31.47800
C  39.31900 7.56000 26.63600
C  43.73300 9.63700 27.09100
N  40.93000 8.90100 31.49700
C  41.88100 9.32400 32.38800
C  41.45900 9.01500 33.86900
C  40.10400 8.27900 33.64600
C  39.87300 8.28400 32.08500
C  40.05200 6.92600 34.27200
C  41.41900 10.28000 34.75400
C  41.62100 10.08200 36.28500
H  42.29600 11.25400 37.03100
N  39.35000 7.72700 29.03900
C  38.49500 7.33100 30.12200
C  37.33000 6.75100 29.62700
C  37.49600 6.69000 28.19500
C  38.75200 7.34500 27.88800
C  36.30900 6.16300 30.56700
C  36.53100 5.98800 27.15000
O  36.79400 5.92700 25.89200
C  35.27800 5.34900 27.59300
N  41.51200 8.52100 27.15300
C  40.53900 8.18000 26.26500
C  41.04900 8.31700 24.75600
C  42.37200 9.16600 25.03000
C  42.58900 9.09200 26.52400
C  41.22300 6.93900 24.23200
C  42.04100 10.64800 24.58000
C  40.94300 11.45200 25.30300
N  43.01600 9.50400 29.41200
C  43.94700 9.79300 28.43900
C  45.12100 10.37800 28.99700
C  44.86200 10.32500 30.39700
C  43.59100 9.75100 30.57800
C  46.35200 10.89100 28.28100
C  45.45000 10.60000 31.71700
O  46.54900 11.03900 32.06000
C  44.33100 10.23200 32.67600
C  44.85500 9.33400 33.69700
O  44.94400 8.11400 33.61400
O  45.26200 10.11400 34.79100
C  45.73700 9.34800 35.93300
H  38.10000 7.46000 32.27400
H  38.73600 7.20100 25.78500
H  44.24600 10.26500 26.35900
H  42.17600 8.34100 34.33600
H  39.25300 8.85000 34.01700
H  40.92100 6.66900 34.87600
H  39.91300 6.09200 33.58400
H  39.18900 6.95200 34.93800
H  40.44700 10.77000 34.80700
H  42.17700 11.00000 34.44500
H  42.29000 9.24500 36.48200
H  40.69400 9.84900 36.81000
H  35.31100 6.34500 30.16700
H  36.40400 6.69900 31.51200
H  36.40400 5.09000 30.72900
H  35.49000 4.53800 28.29000
H  34.74200 4.82500 26.80200
H  34.49000 6.00000 27.97100
H  40.32300 8.91700 24.20600
H  43.23700 8.80700 24.47300
H  40.85200 6.18500 24.92600
H  42.28300 6.76800 24.04700
H  40.62700 6.85400 23.32400
H  41.74200 10.80000 23.54300
H  42.94900 11.22800 24.74500
H  41.24500 11.66400 26.32900
H  39.94700 11.01000 25.32900
H  40.89300 12.39100 24.75100
H  46.59300 10.03000 27.65700
H  47.06100 11.35800 28.96400
H  45.88000 11.63600 27.64000
H  44.00700 11.18500 33.09300
H  46.41400 8.54400 35.64300
H  44.89500 8.89800 36.45800
H  46.24600 10.08300 36.55700

