158

Mg 0.89100 7.51200 25.47100
C  1.54800 9.73200 28.08400
C  0.97200 4.92600 27.75800
C  -0.08900 5.34600 23.04800
C  1.10000 10.08100 23.15800
N  1.04200 7.32400 27.64800
C  1.31400 8.41000 28.54400
C  1.32300 7.91200 30.01700
C  1.51800 6.41400 29.79800
C  1.13900 6.18200 28.36900
C  2.94600 5.73000 30.13600
C  0.01200 8.35200 30.78700
C  0.26400 8.40400 32.34500
H  1.29300 7.45700 33.03000
N  0.47800 5.43300 25.42500
C  0.51600 4.55100 26.47400
C  0.29500 3.19300 26.01900
C  -0.04500 3.27200 24.65800
C  0.15900 4.73200 24.32200
C  0.29500 1.93200 26.95700
C  -0.42500 2.18800 23.66700
O  -0.60700 2.40200 22.46900
C  -0.61400 0.77400 24.13200
N  0.65400 7.63400 23.30200
C  0.08500 6.67200 22.60500
C  -0.17400 7.12900 21.09200
C  0.14800 8.64000 21.17600
C  0.69000 8.78200 22.60700
C  0.65900 6.31700 20.03800
C  -1.10700 9.58600 20.93900
C  -0.72700 11.02400 20.57100
N  1.22000 9.50000 25.56400
C  1.39000 10.40500 24.53200
C  1.68300 11.73200 25.06300
C  1.74700 11.54400 26.48000
C  1.46400 10.18600 26.74400
C  1.82100 13.03900 24.27100
C  1.94900 12.18600 27.78100
O  2.12400 13.36000 28.09400
C  1.68800 11.03900 28.84000
C  2.79300 10.97100 29.80000
O  3.89500 10.50900 29.57600
O  2.44200 11.58000 30.97400
C  3.35200 11.51200 32.10700
H  1.23400 4.11900 28.44600
H  -0.47200 4.57200 22.38000
H  1.12700 10.82600 22.36100
H  2.10300 8.53000 30.46100
H  0.75100 5.82700 30.30300
H  3.40100 6.22000 30.99700
H  3.54700 5.73100 29.22700
H  2.66300 4.71900 30.42800
H  -0.83800 7.69000 30.62100
H  -0.36600 9.32000 30.45900
H  -0.71600 8.19200 32.77200
H  0.59000 9.41300 32.59700
H  0.33100 0.96700 26.45200
H  -0.62700 1.83300 27.53000
H  1.12700 1.99900 27.65800
H  0.28500 0.29900 24.52400
H  -0.84300 0.13100 23.28300
H  -1.47000 0.64400 24.79500
H  -1.19300 6.94400 20.75000
H  0.93700 8.86800 20.45800
H  -0.16100 6.13200 19.34300
H  1.00500 5.31600 20.29900
H  1.42300 6.92900 19.55800
H  -1.65300 9.72700 21.87200
H  -1.79500 9.17800 20.19900
H  -0.93300 11.75500 21.35300
H  -1.43200 11.19800 19.75800
H  0.25400 11.19000 20.12700
H  0.97900 13.25700 23.61300
H  2.73200 12.99700 23.67300
H  2.16500 13.90300 24.83900
H  0.77000 11.25200 29.38800
H  2.75900 11.52000 33.02100
H  3.93800 12.42900 32.04500
H  3.85400 10.54800 32.19300
Mg 48.44400 34.58400 27.27800
C  46.19200 33.48800 29.79800
C  49.29100 37.28400 29.22500
C  49.76300 36.03400 24.57600
C  46.93000 32.12200 25.13600
N  47.79200 35.26300 29.30400
C  46.92500 34.67100 30.14500
C  46.97500 35.41000 31.49600
C  47.62900 36.79900 31.11100
C  48.35000 36.45300 29.86600
C  46.61400 37.95400 30.87300
C  47.83700 34.54000 32.52000
C  47.28700 34.37800 33.92600
H  48.22500 34.87900 35.04300
N  49.46100 36.31300 26.97900
C  49.74600 37.28400 27.86800
C  50.55900 38.22700 27.20900
C  50.75300 37.92500 25.85900
C  49.94700 36.71900 25.74500
C  51.07500 39.46600 27.91000
C  51.45400 38.65700 24.77400
O  51.54400 38.14500 23.66200
C  52.17800 40.01800 25.09900
N  48.30000 34.14300 25.24700
C  49.05600 34.87800 24.32900
C  48.76000 34.37700 22.87400
C  48.16300 33.00900 23.18600
C  47.76400 33.08000 24.60300
C  47.84200 35.38400 22.13800
C  49.06900 31.76500 22.86200
C  50.15700 31.35100 23.83500
N  47.08200 32.96000 27.46500
C  46.62200 32.02000 26.50400
C  45.74600 31.00400 27.15900
C  45.50600 31.62100 28.42400
C  46.35500 32.75900 28.51400
C  45.20400 29.75100 26.52100
C  44.70800 31.48200 29.54700
O  43.89300 30.59100 29.80000
C  45.12100 32.67300 30.52400
C  45.55300 32.01600 31.80900
O  46.50200 31.26600 32.06600
O  44.55100 32.21200 32.74600
C  44.75000 31.77400 34.17900
H  49.48500 38.18600 29.80900
H  50.17400 36.40200 23.63400
H  46.66100 31.27100 24.50700
H  45.99900 35.55600 31.95800
H  48.37500 37.21800 31.78700
H  46.76100 38.80600 31.53600
H  45.57300 37.65900 31.00100
H  46.59400 38.31700 29.84500
H  48.87600 34.86600 32.55800
H  48.04200 33.59100 32.02400
H  47.18100 33.33700 34.23300
H  46.28800 34.81200 33.98600
H  50.34500 40.21500 27.59900
H  52.10000 39.60900 27.56800
H  51.12700 39.27900 28.98200
H  51.41300 40.61900 25.58900
H  52.60000 40.45500 24.19400
H  53.01100 39.77400 25.75800
H  49.65300 34.21000 22.27100
H  47.29700 32.90200 22.53300
H  47.74900 36.36400 22.60600
H  46.87900 34.91000 21.95000
H  48.27700 35.51700 21.14700
H  49.50700 32.10600 21.92500
H  48.44800 30.90000 22.62600
H  49.78200 30.42700 24.27600
H  50.40200 32.00900 24.66800
H  51.14200 31.20100 23.39300
H  45.87600 28.94500 26.81600
H  45.19800 29.85900 25.43600
H  44.20200 29.68500 26.94600
H  44.30500 33.36600 30.72700
H  45.35900 30.87000 34.20600
H  43.70100 31.58800 34.40700
H  45.13500 32.60900 34.76400

