158

Mg 40.10800 8.65700 29.29300
C  41.84900 9.75800 32.20000
C  37.82900 7.03900 31.45800
C  38.58400 7.58700 26.70500
C  42.87400 9.56800 27.52600
N  39.96100 8.33900 31.67600
C  40.65300 9.10000 32.60500
C  40.00800 8.85500 33.97100
C  38.76100 8.00200 33.79100
C  38.83500 7.76900 32.24100
C  38.74200 6.77300 34.66300
C  39.74400 10.18700 34.70300
C  40.01900 10.29900 36.19200
H  40.38500 11.62500 36.88100
N  38.47900 7.46100 29.13200
C  37.73800 6.83100 30.07800
C  36.60300 6.14300 29.41700
C  36.78900 6.32400 28.03300
C  37.97700 7.18200 27.92300
C  35.53400 5.44400 30.09500
C  35.92900 5.78500 26.85400
O  36.36100 5.82600 25.69200
C  34.56800 5.12500 27.13200
N  40.84800 8.23400 27.38000
C  39.89000 8.01600 26.45400
C  40.45500 8.06600 25.03600
C  41.79300 8.96400 25.29600
C  41.85200 8.95200 26.81600
C  40.89300 6.71800 24.38900
C  41.59900 10.40200 24.80200
C  40.44300 11.22400 25.27500
N  41.88900 9.57900 29.66200
C  42.94200 9.83600 28.85800
C  43.94200 10.56200 29.52800
C  43.54800 10.54000 30.83500
C  42.31200 9.90700 30.90000
C  45.19600 11.06200 28.92100
C  43.98100 10.92800 32.14700
O  44.91200 11.57300 32.54300
C  42.84500 10.41300 33.10500
C  43.34700 9.33200 34.06200
O  43.53900 8.19500 33.68400
O  43.34800 9.72100 35.38400
C  43.96800 8.91200 36.46700
H  37.01500 6.70300 32.10300
H  38.06100 7.32900 25.78200
H  43.73500 9.90500 26.94500
H  40.75000 8.30600 34.55100
H  37.84400 8.57400 33.93600
H  39.56600 6.76200 35.37700
H  38.78200 5.83300 34.11100
H  37.93200 6.76300 35.39300
H  38.69800 10.42900 34.51700
H  40.29800 11.03100 34.29000
H  40.76000 9.51800 36.36600
H  39.07100 10.19300 36.72000
H  35.79700 5.33200 31.14700
H  35.31200 4.44500 29.72100
H  34.56500 5.91900 29.94100
H  34.07300 5.88600 27.73600
H  34.74300 4.22000 27.71300
H  34.04000 4.82600 26.22600
H  39.72200 8.54600 24.38800
H  42.75000 8.58400 24.93800
H  41.89100 6.76100 23.95300
H  40.38000 6.29400 23.52500
H  40.76300 5.91800 25.11800
H  41.56100 10.24700 23.72400
H  42.52100 10.88200 25.13000
H  39.93300 10.74000 26.10800
H  39.74100 11.52200 24.49500
H  40.75200 12.20100 25.64600
H  45.64800 10.30100 28.28500
H  45.87700 11.31700 29.73300
H  44.96400 11.86200 28.21800
H  42.33900 11.12700 33.75400
H  45.01100 9.22100 36.39600
H  43.79200 7.84000 36.38400
H  43.48500 9.26300 37.37900
Mg -10.26100 18.22300 42.80200
C  -7.03600 17.21300 42.37900
C  -9.37300 21.46200 42.30900
C  -13.56300 19.00700 42.68600
C  -11.21800 14.76000 42.48000
N  -8.48300 19.20800 42.01600
C  -7.23500 18.62000 42.14100
C  -6.15000 19.64800 41.97100
C  -6.86800 21.03400 42.06200
C  -8.37300 20.55300 42.16400
C  -6.45200 21.87000 43.37700
C  -5.13300 19.46400 40.79500
C  -5.74600 18.96400 39.48400
H  -5.00500 19.20600 38.23800
N  -11.38700 20.02600 42.59400
C  -10.79200 21.23700 42.36100
C  -11.84100 22.23900 42.23500
C  -13.05200 21.58900 42.46700
C  -12.70000 20.15900 42.61700
C  -11.70500 23.73400 41.87100
C  -14.47900 22.20400 42.75600
O  -14.66600 23.39900 42.77200
C  -15.73400 21.34300 43.25900
N  -12.12400 17.00600 42.88700
C  -13.32400 17.65400 42.88900
C  -14.47500 16.60900 42.83000
C  -13.71600 15.21800 42.64300
C  -12.26200 15.68100 42.57000
C  -15.44500 16.58900 44.04700
C  -14.27300 14.34900 41.47200
C  -14.68300 12.99800 41.97000
N  -9.36500 16.32600 42.68200
C  -9.86400 14.99900 42.56500
C  -8.70900 14.10700 42.50900
C  -7.59600 14.90000 42.57100
C  -8.07200 16.24200 42.53800
C  -8.75700 12.61600 42.34800
C  -6.19300 14.88200 42.41200
O  -5.39400 13.98600 42.30800
C  -5.78500 16.42900 42.54900
C  -5.04400 16.68200 43.82300
O  -3.81000 16.69000 43.93400
O  -5.95800 16.96700 44.80600
C  -5.35300 17.24600 46.14600
H  -9.19900 22.53100 42.17700
H  -14.63400 19.21200 42.72700
H  -11.38700 13.70500 42.25800
H  -5.52600 19.59900 42.86300
H  -6.70600 21.74300 41.25000
H  -7.37200 21.89400 43.96000
H  -6.16800 22.91100 43.22700
H  -5.63200 21.43000 43.94500
H  -4.38300 18.72500 41.07700
H  -4.68300 20.45100 40.68200
H  -6.83100 19.05800 39.51200
H  -5.64100 17.87900 39.46100
H  -12.61500 24.04200 41.35600
H  -10.78700 23.93700 41.32000
H  -11.57200 24.32200 42.77900
H  -15.47400 20.81100 44.17300
H  -16.15300 20.69500 42.48900
H  -16.60600 21.98700 43.37700
H  -15.03800 16.75400 41.90800
H  -13.89600 14.67600 43.57100
H  -16.41700 16.87600 43.64600
H  -15.08400 17.20900 44.86800
H  -15.51300 15.55100 44.37300
H  -13.61900 14.34500 40.59900
H  -15.21600 14.78200 41.13900
H  -14.25600 12.83900 42.96100
H  -14.27500 12.22200 41.32300
H  -15.77100 12.97400 41.89800
H  -9.65200 12.17600 42.78900
H  -7.98200 12.12800 42.93900
H  -8.81800 12.45000 41.27200
H  -5.05100 16.61600 41.76500
H  -5.50600 16.37200 46.77800
H  -5.93400 17.95100 46.74000
H  -4.32200 17.59900 46.18000

