158

Mg -1.23500 17.21600 26.46600
C  -1.79200 14.97400 29.04800
C  -1.60500 19.74900 28.87700
C  -1.56900 19.51600 23.91600
C  -1.73200 14.65800 24.12300
N  -1.47400 17.35600 28.75700
C  -1.66100 16.23300 29.57800
C  -1.62100 16.68200 31.06900
C  -1.74300 18.25900 30.94500
C  -1.59300 18.46400 29.41800
C  -3.00600 18.80900 31.48800
C  -0.39100 16.20400 31.95500
C  0.09200 16.97500 33.25100
H  0.07000 16.23000 34.58200
N  -1.46400 19.37400 26.40000
C  -1.60200 20.20000 27.50900
C  -1.75400 21.59900 27.01400
C  -1.77900 21.47000 25.60000
C  -1.58500 20.04700 25.22500
C  -1.86100 22.72100 27.98200
C  -2.02100 22.59000 24.56800
O  -2.24000 22.39500 23.35200
C  -2.00300 23.96500 25.06300
N  -1.46800 17.06800 24.28400
C  -1.58900 18.15000 23.45700
C  -1.60500 17.69300 21.98700
C  -1.84700 16.18100 22.12100
C  -1.68300 15.91900 23.58700
C  -2.46500 18.27800 20.88900
C  -0.93200 15.34400 21.20300
C  0.55600 15.28800 21.64700
N  -1.49300 15.21400 26.50200
C  -1.74000 14.32400 25.47300
C  -1.99000 12.97000 26.12500
C  -2.02200 13.20800 27.50800
C  -1.69300 14.61000 27.65500
C  -2.13100 11.70900 25.23500
C  -2.18300 12.59800 28.74600
O  -2.33500 11.42900 29.12200
C  -2.19600 13.75900 29.76000
C  -1.53800 13.32100 30.99500
O  -0.45800 12.80900 31.05100
O  -2.36500 13.51100 32.02600
C  -1.96300 13.00900 33.37200
H  -1.77100 20.43700 29.70900
H  -1.70200 20.23000 23.10000
H  -1.85800 13.78500 23.47900
H  -2.56100 16.28600 31.45300
H  -0.88500 18.68400 31.46600
H  -3.07200 19.89700 31.50700
H  -3.14000 18.56600 32.54200
H  -3.76700 18.25100 30.94200
H  0.50600 16.24500 31.33800
H  -0.37200 15.15700 32.25900
H  -0.47400 17.90200 33.33400
H  1.11100 17.29300 33.03100
H  -2.92500 22.93700 28.07800
H  -1.32800 23.63800 27.73000
H  -1.53000 22.30800 28.93500
H  -1.08900 24.07800 25.64500
H  -2.84500 24.18900 25.71900
H  -1.93600 24.64000 24.21000
H  -0.60800 17.77900 21.55500
H  -2.87800 15.88700 21.92000
H  -3.30100 18.74700 21.40800
H  -2.82300 17.46900 20.25300
H  -1.90800 19.07600 20.39800
H  -0.90300 15.79000 20.20900
H  -1.36700 14.34700 21.13600
H  1.34300 15.16100 20.90300
H  0.66600 14.44700 22.33200
H  0.93000 16.10500 22.26400
H  -1.34700 11.62900 24.48100
H  -3.14100 11.78900 24.83500
H  -1.93700 10.82800 25.84700
H  -3.26800 13.81600 29.94900
H  -1.97100 13.87800 34.03000
H  -0.98600 12.53300 33.44900
H  -2.71100 12.29200 33.71200
Mg 43.26300 4.65200 46.45200
C  41.31900 7.66600 46.10900
C  40.29500 2.94700 46.10200
C  45.05000 1.97400 45.92900
C  46.11300 6.70700 46.54600
N  41.10600 5.30000 46.13400
C  40.55200 6.53400 46.24800
C  39.03800 6.45200 46.38200
C  38.71400 4.91400 46.56700
C  40.11500 4.32500 46.17400
C  38.12300 4.46800 48.02600
C  38.26100 6.97400 45.10900
C  38.69700 6.68300 43.66700
H  39.16300 7.75400 42.81600
N  42.76600 2.71300 46.02500
C  41.49700 2.20900 45.88000
C  41.53900 0.77200 45.64800
C  42.92400 0.40400 45.56800
C  43.67500 1.67400 45.84800
C  40.30700 -0.13700 45.61300
C  43.45400 -0.98200 45.27800
O  42.73300 -1.95600 45.15700
C  44.96000 -1.32200 45.21000
N  45.26600 4.40200 46.27900
C  45.73800 3.13200 46.24600
C  47.28000 3.21000 46.48500
C  47.52100 4.65000 46.93900
C  46.23600 5.31600 46.50600
C  47.88700 2.10800 47.45100
C  48.86600 5.33300 46.60700
C  49.52400 6.08300 47.77700
N  43.72200 6.75400 46.44400
C  44.93500 7.41200 46.45900
C  44.69800 8.79900 46.41400
C  43.30100 8.96600 46.36800
C  42.73600 7.66100 46.19700
C  45.80400 9.84200 46.39200
C  42.34100 9.94700 46.26300
O  42.42600 11.18200 46.28800
C  40.97500 9.14100 46.13700
C  40.14400 9.53200 47.28800
O  40.25900 9.15800 48.44500
O  38.90600 10.04400 46.80100
C  37.75600 9.96600 47.73600
H  39.30400 2.49100 46.15100
H  45.78600 1.17700 46.04900
H  47.02900 7.30000 46.59700
H  38.75600 7.07600 47.22900
H  37.93800 4.65600 45.84600
H  37.10300 4.85000 48.08000
H  38.53400 5.12100 48.79600
H  38.30500 3.42000 48.26200
H  38.22000 8.05200 45.26500
H  37.21300 6.67500 45.11800
H  37.87500 6.19300 43.14600
H  39.54500 6.01200 43.80600
H  40.42800 -0.95500 46.32200
H  40.21700 -0.63300 44.64600
H  39.33700 0.32500 45.80100
H  45.58100 -0.81600 45.95000
H  45.35800 -0.90700 44.28400
H  45.12700 -2.39900 45.16500
H  47.77300 3.08000 45.52200
H  47.48200 4.66000 48.02800
H  48.30200 1.36000 46.77500
H  47.11000 1.56300 47.98700
H  48.54900 2.71900 48.06500
H  48.75100 6.03400 45.78100
H  49.44300 4.49000 46.22600
H  50.35800 5.44800 48.07700
H  48.95800 6.47300 48.62300
H  49.75300 7.10400 47.47400
H  45.29200 10.80300 46.33000
H  46.23600 9.95200 45.39700
H  46.58500 9.72000 47.14200
H  40.53800 9.44500 45.18500
H  37.93700 10.52700 48.65300
H  37.44800 8.92700 47.85600
H  36.86500 10.38100 47.26600

