158

Mg 0.53700 7.52900 26.03100
C  1.24700 9.40800 28.84800
C  0.30200 4.76600 28.09000
C  0.29200 5.57100 23.31400
C  1.29100 10.32500 24.04800
N  0.88800 7.17200 28.25400
C  1.10600 8.07000 29.21800
C  0.99200 7.50600 30.64700
C  0.89200 5.96900 30.31500
C  0.61700 5.99100 28.79200
C  2.08200 5.02400 30.61800
C  -0.28200 8.08300 31.35200
C  -0.30600 8.04400 32.89800
H  0.93700 7.62100 33.69400
N  0.17900 5.39700 25.75200
C  0.13600 4.47500 26.73500
C  -0.20000 3.23800 26.11000
C  -0.04600 3.40100 24.68500
C  0.14400 4.82900 24.52800
C  -0.54000 1.98600 26.94900
C  -0.12700 2.37100 23.55400
O  -0.07000 2.73600 22.34800
C  -0.65400 0.98200 23.91100
N  0.81300 7.82200 24.02800
C  0.52900 6.88300 23.07800
C  0.44900 7.50700 21.66100
C  0.52500 9.11500 21.93900
C  0.99500 9.06300 23.42100
C  1.40000 6.86300 20.60900
C  -0.86100 9.81800 21.82600
C  -0.88100 11.21700 21.08500
N  1.18800 9.52000 26.32200
C  1.46000 10.53400 25.43700
C  1.70200 11.81600 26.17800
C  1.62300 11.40500 27.49100
C  1.26900 10.01700 27.57600
C  1.83900 13.24100 25.64900
C  1.74700 11.77400 28.89400
O  1.98300 12.92500 29.29400
C  1.34900 10.59100 29.78800
C  2.42300 10.55800 30.77600
O  3.59200 10.21200 30.56900
O  1.99700 10.95600 31.95900
C  3.06800 11.26400 32.92600
H  0.15800 3.92400 28.77000
H  0.11100 4.97200 22.42000
H  1.38600 11.09900 23.28400
H  1.94400 7.83100 31.06700
H  -0.01700 5.67500 30.84000
H  2.56200 5.51500 31.46500
H  2.67800 4.87900 29.71700
H  1.62700 4.06000 30.84400
H  -1.12000 7.44400 31.07700
H  -0.47600 9.13500 31.14200
H  -0.99600 7.20300 32.97200
H  -0.66000 9.02900 33.20300
H  -0.11700 1.10000 26.47600
H  -1.62200 1.85400 26.95300
H  -0.10900 2.02600 27.95000
H  -0.94900 0.36400 23.06200
H  -1.57700 1.19900 24.44800
H  0.07100 0.38000 24.46000
H  -0.54900 7.36900 21.24600
H  1.35000 9.55000 21.37500
H  1.81500 5.93400 21.00000
H  2.24300 7.52700 20.42300
H  0.85400 6.61900 19.69700
H  -1.22000 10.01700 22.83600
H  -1.58600 9.20900 21.28600
H  -1.41300 11.05200 20.14800
H  0.15100 11.53000 20.93100
H  -1.38300 11.89300 21.77800
H  1.89400 13.37000 24.56800
H  2.67500 13.74500 26.13300
H  0.93100 13.70400 26.03700
H  0.40800 10.83700 30.27900
H  3.89900 11.79300 32.46000
H  3.35400 10.37500 33.48800
H  2.63300 11.87000 33.72100
Mg 47.23700 16.45600 28.33900
C  44.97600 15.98300 31.09000
C  49.23300 18.21300 30.38100
C  48.90800 17.53200 25.72000
C  44.68000 15.23500 26.28600
N  47.01200 17.25100 30.44300
C  46.12500 16.71600 31.38900
C  46.53000 17.18800 32.81700
C  47.75800 18.21000 32.46800
C  47.96000 17.98900 30.98900
C  47.60000 19.74400 32.85400
C  46.81700 16.01500 33.67400
C  46.20700 16.12400 35.10200
H  46.10700 17.53200 35.86400
N  48.93600 17.42500 28.14700
C  49.66600 18.01600 29.09600
C  50.99100 18.39400 28.61400
C  50.88400 18.27700 27.18500
C  49.53800 17.68400 26.93500
C  52.13500 18.92700 29.48800
C  51.92200 18.65300 26.10100
O  51.77700 18.39800 24.95200
C  53.11300 19.37300 26.44600
N  46.82000 16.34700 26.35400
C  47.68400 16.92600 25.44700
C  47.12500 16.91700 24.00200
C  45.89200 15.94700 24.16600
C  45.79500 15.81100 25.67000
C  46.74700 18.32100 23.54200
C  46.15500 14.55800 23.53800
C  44.85900 14.00100 22.88300
N  45.26100 15.63500 28.62900
C  44.44100 15.07200 27.65800
C  43.23300 14.58200 28.32100
C  43.37400 14.87500 29.68400
C  44.62900 15.58900 29.80700
C  42.08300 13.91700 27.59900
C  42.80600 14.78000 31.01600
O  41.77700 14.24000 31.45800
C  43.80900 15.61300 31.93700
C  43.03300 16.81200 32.36900
O  42.47000 17.58300 31.59700
O  42.83400 16.88700 33.76200
C  41.99900 18.06800 34.11900
H  49.82000 18.77700 31.10900
H  49.38800 17.82400 24.78400
H  43.94000 14.79800 25.61300
H  45.72600 17.79700 33.23100
H  48.63500 17.78100 32.95300
H  46.80300 19.90000 33.58100
H  47.37500 20.35800 31.98300
H  48.57800 20.10700 33.17100
H  47.89700 15.98400 33.81200
H  46.44500 15.08200 33.24900
H  46.64000 15.36300 35.75200
H  45.20500 15.79900 34.82300
H  52.12600 20.01500 29.42100
H  53.12300 18.59800 29.16700
H  51.89500 18.79600 30.54400
H  52.97500 20.43700 26.64000
H  53.65600 19.29700 25.50400
H  53.77400 18.82600 27.11800
H  47.82900 16.54200 23.25900
H  45.07900 16.40200 23.60100
H  45.68700 18.52700 23.39500
H  47.15100 18.57600 22.56200
H  46.98600 19.11400 24.25000
H  46.70200 13.98900 24.29100
H  46.87800 14.69600 22.73400
H  44.67100 12.98800 23.23900
H  45.03900 13.95300 21.81000
H  43.90100 14.50500 23.01500
H  41.15700 13.83800 28.16900
H  42.40600 12.94600 27.22300
H  41.79900 14.50900 26.72800
H  44.03600 14.98800 32.80100
H  42.61300 18.93200 33.86300
H  41.71500 18.12400 35.16900
H  41.09300 18.18900 33.52400

