158

Mg 30.18500 57.88300 41.34400
C  27.36800 56.13100 40.13800
C  32.14800 55.80200 39.53700
C  32.82700 60.02500 41.99000
C  28.00200 60.39100 42.37300
N  29.71100 56.11700 39.98200
C  28.51200 55.52500 39.67500
C  28.76000 54.46100 38.61800
C  30.28000 54.14500 38.82600
C  30.80800 55.47900 39.49600
C  30.50200 52.98000 39.88300
C  28.41200 54.84900 37.12500
C  27.46400 53.82000 36.46500
H  26.69800 54.37500 35.20900
N  32.30400 57.82200 40.96500
C  32.90500 56.92900 40.18400
C  34.30500 57.19400 40.14100
C  34.52700 58.39100 40.84400
C  33.18500 58.80900 41.34700
C  35.22600 56.41400 39.37100
C  35.82500 59.13000 40.89200
O  36.83700 58.61800 40.41700
C  36.01500 60.46000 41.70100
N  30.39000 59.88200 42.07400
C  31.58800 60.49900 42.34200
C  31.39600 61.84100 43.03200
C  29.81500 61.88900 43.30800
C  29.34900 60.65500 42.53600
C  32.20400 62.10900 44.39400
C  29.08100 63.21300 42.93200
C  27.96600 63.53700 43.97500
N  28.09200 58.16400 41.46100
C  27.38300 59.31500 41.76100
C  25.97200 59.07200 41.54500
C  25.95000 57.82400 40.93100
C  27.27600 57.35900 40.83700
C  24.75800 60.01500 42.06200
C  25.05400 56.81100 40.37500
O  23.83800 56.83200 40.29200
C  25.93100 55.80300 39.75900
C  25.52600 54.47700 40.23400
O  25.44400 54.14700 41.42200
O  24.99600 53.76600 39.15800
C  24.51400 52.43200 39.50800
H  32.75700 55.22000 38.84200
H  33.59800 60.71800 42.33300
H  27.27100 61.15100 42.65800
H  28.18100 53.56100 38.82500
H  30.78800 53.99000 37.87400
H  29.64900 52.30400 39.83100
H  30.58000 53.33900 40.90900
H  31.40800 52.43600 39.61600
H  29.34000 54.70100 36.57300
H  28.04900 55.87400 37.04200
H  26.78600 53.59300 37.28700
H  28.07800 52.93100 36.31800
H  35.24300 56.86200 38.37700
H  34.89700 55.37600 39.31900
H  36.20800 56.37300 39.84200
H  35.60200 60.34700 42.70300
H  35.49300 61.22700 41.12800
H  37.04200 60.81900 41.77800
H  31.63500 62.50500 42.20100
H  29.63100 61.61100 44.34600
H  33.01300 61.37900 44.37100
H  31.71700 62.05500 45.36800
H  32.64200 63.10500 44.34300
H  28.54000 62.97700 42.01500
H  29.73800 64.04700 42.68700
H  28.18400 64.56100 44.28100
H  28.01200 62.97000 44.90500
H  27.02500 63.44200 43.43300
H  24.04400 59.37500 42.58100
H  24.36600 60.66400 41.27900
H  25.13800 60.74100 42.78000
H  25.76600 55.77800 38.68200
H  23.45800 52.42600 39.77900
H  25.09500 51.87800 40.24500
H  24.66600 51.86400 38.59100
Mg 16.83000 51.80100 25.79500
C  18.64400 50.11100 28.30200
C  14.77500 53.10700 28.17700
C  14.73600 52.78100 23.23700
C  18.76100 50.15500 23.44500
N  16.67700 51.57500 27.98400
C  17.53400 50.84800 28.79600
C  16.98300 50.78800 30.22200
C  15.74100 51.79500 30.23400
C  15.69000 52.19400 28.72700
C  14.44100 51.17100 30.82800
C  18.01700 51.31200 31.32100
C  17.74300 50.76300 32.72100
H  16.94400 51.60300 33.66500
N  15.12500 52.98200 25.73300
C  14.46100 53.51700 26.82900
C  13.32300 54.22300 26.39200
C  13.30000 54.20300 24.95500
C  14.41100 53.27000 24.55200
C  12.23800 54.71600 27.34800
C  12.54700 55.01200 23.92000
O  12.86600 54.98600 22.75200
C  11.40300 55.83100 24.44800
N  16.74600 51.56400 23.61100
C  15.80600 52.08900 22.84700
C  16.05300 51.63900 21.34200
C  17.51500 51.05300 21.37400
C  17.71400 50.90000 22.88600
C  15.04500 50.60300 20.77700
C  18.66500 51.80600 20.67300
C  19.90400 52.33300 21.36000
N  18.36200 50.41100 25.84500
C  19.05600 49.86700 24.78200
C  20.15900 49.03700 25.26300
C  20.04000 49.09000 26.63300
C  18.94300 49.96000 26.94000
C  21.17500 48.29800 24.39600
C  20.62500 48.65400 27.90300
O  21.62300 47.99000 28.12200
C  19.76300 49.30600 29.06500
C  19.36300 48.23300 30.06700
O  18.64100 47.33000 29.85400
O  19.97200 48.48200 31.28600
C  19.54500 47.56200 32.36000
H  14.17400 53.46400 29.01600
H  13.98400 52.87100 22.45000
H  19.51000 49.86000 22.70700
H  16.81300 49.72300 30.38500
H  15.90800 52.69100 30.83100
H  14.73400 50.32600 31.45200
H  13.74500 50.90000 30.03400
H  14.04200 51.87000 31.56300
H  18.10800 52.39700 31.36900
H  19.02500 50.89900 31.27300
H  18.70300 50.67400 33.23000
H  17.19300 49.82500 32.65900
H  11.39200 54.02800 27.36200
H  12.01200 55.77100 27.19500
H  12.56700 54.73400 28.38600
H  10.59600 56.11300 23.77200
H  11.67000 56.71300 25.03100
H  10.91700 55.26600 25.24400
H  16.02800 52.49200 20.66400
H  17.61200 50.03500 20.99800
H  14.08000 50.54000 21.28000
H  15.41900 49.59200 20.61800
H  14.85900 50.85200 19.73200
H  18.26200 52.65800 20.12600
H  19.12300 51.12500 19.95600
H  19.91400 52.24700 22.44600
H  20.00300 53.36700 21.03100
H  20.80100 51.81200 21.02500
H  20.68900 47.95800 23.48200
H  21.54200 47.40400 24.90100
H  22.06700 48.88300 24.16900
H  20.29500 50.10000 29.59100
H  18.73200 47.98100 32.95200
H  20.35900 47.51100 33.08300
H  19.33500 46.56500 31.97100

