158

Mg 25.71000 -8.25000 48.72800
C  27.33000 -5.72900 47.00600
C  23.11200 -8.07200 46.59100
C  24.58900 -11.32100 49.97300
C  28.83300 -8.95100 50.24900
N  25.42400 -7.23400 46.80700
C  26.11900 -6.13400 46.41200
C  25.34700 -5.42000 45.30200
C  23.89300 -5.99900 45.33600
C  24.14100 -7.09200 46.41300
C  22.74900 -5.05800 45.81300
C  26.07700 -5.45200 43.89800
C  26.44700 -4.11200 43.31400
H  25.59800 -3.76000 42.01000
N  23.99900 -9.40000 48.48800
C  22.99900 -9.08700 47.55700
C  21.86300 -9.92600 47.82100
C  22.23700 -10.65000 49.02100
C  23.68500 -10.51000 49.19600
C  20.64400 -9.92100 47.01200
C  21.30500 -11.52600 49.75700
O  20.10900 -11.60800 49.46600
C  21.78400 -12.29600 50.92300
N  26.60800 -9.83900 50.02000
C  25.95600 -11.03500 50.29800
C  26.94300 -12.07800 51.00900
C  28.13600 -11.09500 51.31600
C  27.88500 -9.94800 50.41800
C  26.27600 -12.65300 52.33400
C  29.51100 -11.66700 51.07500
C  30.40500 -11.67800 52.24400
N  27.64100 -7.42600 48.78600
C  28.81000 -7.76900 49.46200
C  29.92600 -6.86100 49.15200
C  29.30200 -5.89900 48.33900
C  27.96800 -6.35600 48.08700
C  31.36300 -6.95700 49.76400
C  29.43300 -4.64200 47.61000
O  30.39000 -3.84400 47.51900
C  28.13900 -4.53300 46.78700
C  27.50400 -3.21100 46.99800
O  26.74800 -2.88000 47.90200
O  27.92600 -2.37400 45.99400
C  27.56900 -1.00500 46.07300
H  22.24300 -7.91100 45.95000
H  24.24800 -12.32500 50.23800
H  29.76100 -9.04200 50.81700
H  25.24400 -4.38000 45.61300
H  23.62500 -6.48300 44.39800
H  22.05700 -4.95600 44.97700
H  23.22200 -4.12800 46.12700
H  22.22000 -5.58600 46.60700
H  25.40100 -5.90500 43.17300
H  26.95200 -6.09200 44.01300
H  27.49600 -4.25400 43.05300
H  26.34500 -3.31800 44.05300
H  20.24500 -10.90100 46.75000
H  20.94100 -9.53900 46.03500
H  19.80000 -9.32500 47.36000
H  22.33300 -13.20300 50.66900
H  21.04100 -12.73100 51.59200
H  22.42900 -11.65100 51.51800
H  27.13900 -12.92800 50.35500
H  27.96100 -10.66700 52.30300
H  25.90200 -13.64800 52.09200
H  25.52000 -11.99700 52.76500
H  27.13200 -12.79700 52.99300
H  30.04300 -11.13200 50.28800
H  29.39200 -12.69600 50.73500
H  31.31700 -11.19700 51.89000
H  30.54700 -12.65500 52.70500
H  29.93100 -11.11000 53.04400
H  31.27200 -7.11400 50.83900
H  31.76200 -5.95600 49.60100
H  32.01900 -7.70300 49.31400
H  28.58300 -4.58200 45.79200
H  28.05800 -0.43200 45.28500
H  27.80600 -0.50300 47.01100
H  26.51800 -0.78900 45.88100
Mg 30.01000 58.95000 39.57200
C  26.98300 57.29500 38.31900
C  31.68200 56.02500 38.56200
C  32.74800 60.67200 39.58100
C  28.00300 62.04800 39.40400
N  29.37500 57.05900 38.32100
C  28.13600 56.53200 38.04300
C  28.25500 55.18300 37.37900
C  29.73200 54.71200 37.76200
C  30.28000 56.02500 38.26900
C  29.80100 53.40800 38.59700
C  27.99500 55.26100 35.81000
C  26.72900 54.58600 35.32500
H  25.82800 55.32400 34.38500
N  31.91400 58.40700 39.38900
C  32.42400 57.12500 39.04000
C  33.82900 57.21300 39.11000
C  34.20500 58.60300 39.44500
C  32.95400 59.29600 39.59400
C  34.72200 56.03200 38.64600
C  35.61600 59.06600 39.47100
O  36.54000 58.21600 39.31600
C  36.15100 60.49300 39.82500
N  30.30400 61.08300 39.75800
C  31.61100 61.45200 39.54500
C  31.61400 62.99400 39.40200
C  30.15400 63.43800 39.15700
C  29.43800 62.17400 39.49700
C  32.30700 63.67700 40.57200
C  29.82200 63.96800 37.65000
C  29.07000 65.34100 37.58000
N  27.89600 59.55700 39.33500
C  27.27400 60.80700 39.29000
C  25.81100 60.59800 39.06700
C  25.67600 59.20100 38.81800
C  27.00200 58.64800 38.81900
C  24.74600 61.62800 39.08200
C  24.73800 58.16000 38.43100
O  23.56200 58.16200 38.30200
C  25.56500 56.78000 38.07300
C  25.15600 55.71800 39.01800
O  25.35000 55.72500 40.23200
O  24.43000 54.76400 38.34500
C  23.90200 53.76400 39.24200
H  32.28500 55.18300 38.21400
H  33.66000 61.26900 39.51700
H  27.42300 62.97300 39.35600
H  27.52500 54.55700 37.89300
H  30.24600 54.48800 36.82600
H  28.85100 52.90700 38.78500
H  30.37500 53.70900 39.47300
H  30.39600 52.65200 38.08500
H  28.85900 54.90600 35.24900
H  27.93200 56.30100 35.48900
H  26.17000 54.23600 36.19300
H  26.96300 53.64500 34.82800
H  34.27000 55.38400 37.89600
H  34.88900 55.55300 39.61100
H  35.61300 56.40700 38.14100
H  37.24000 60.48300 39.85700
H  35.68600 60.97300 40.68600
H  35.97200 60.99500 38.87400
H  32.15100 63.23700 38.48600
H  29.90100 64.24800 39.84000
H  31.66900 63.71900 41.45500
H  32.46800 64.71700 40.29100
H  33.24200 63.19700 40.85900
H  29.30500 63.16500 37.12600
H  30.77000 64.01400 37.11300
H  28.11200 65.28700 38.09800
H  28.91100 65.66700 36.55200
H  29.62900 66.08100 38.15200
H  24.05500 61.24200 38.33200
H  25.20300 62.59600 38.87900
H  24.35200 61.67700 40.09700
H  25.33000 56.53700 37.03700
H  24.74200 53.22800 39.68400
H  23.29900 53.08200 38.64200
H  23.24100 54.19500 39.99500

