158

Mg 25.67300 1.49000 29.04000
C  27.53800 0.78700 31.98600
C  22.86800 1.68100 30.88300
C  23.99900 1.66400 26.12300
C  28.61700 0.46600 27.21900
N  25.30200 1.24500 31.25200
C  26.17600 1.11000 32.27500
C  25.46800 1.24600 33.62700
C  23.97700 1.57000 33.18800
C  24.05200 1.58200 31.70300
C  22.95700 0.45800 33.62800
C  26.17200 2.31500 34.58100
C  26.92700 1.92900 35.90500
H  26.57800 2.81500 37.11400
N  23.68700 1.70000 28.52900
C  22.69400 1.78100 29.42200
C  21.43900 2.01200 28.75500
C  21.72500 2.04300 27.34200
C  23.17300 1.76000 27.25600
C  20.08900 2.25200 29.46900
C  20.80500 2.24300 26.11700
O  21.13900 2.03000 24.95200
C  19.25400 2.55300 26.24300
N  26.24400 0.97000 26.94100
C  25.30000 1.24200 25.97400
C  26.01900 1.26100 24.56100
C  27.48000 0.88800 24.87900
C  27.48000 0.71300 26.40300
C  25.38500 0.44200 23.45700
C  28.53000 1.80900 24.20500
C  29.02300 1.51300 22.77200
N  27.72700 0.85900 29.43500
C  28.73800 0.41000 28.62400
C  29.81800 -0.09800 29.47200
C  29.49700 0.16300 30.75900
C  28.12000 0.66800 30.74000
C  31.00400 -0.73900 28.91900
C  29.94800 0.01400 32.09600
O  31.03000 -0.27900 32.57100
C  28.68700 0.44500 32.98400
C  28.23400 -0.68000 33.73800
O  27.39900 -1.50200 33.32500
O  28.87600 -0.69300 34.95500
C  28.42200 -1.65000 35.92000
H  21.87000 1.70100 31.32600
H  23.50400 1.86400 25.17000
H  29.43900 0.23100 26.53900
H  25.59500 0.27500 34.10500
H  23.57600 2.48100 33.63100
H  22.07700 0.94100 34.05300
H  23.47500 -0.12600 34.38900
H  22.61800 -0.17500 32.80800
H  25.40300 2.99100 34.95700
H  26.76100 2.97400 33.94400
H  27.97100 1.77700 35.63000
H  26.53100 0.92100 36.03200
H  20.15400 1.60500 30.34400
H  19.17500 1.97600 28.94400
H  19.90900 3.27900 29.78700
H  18.88500 2.66500 25.22400
H  19.18900 3.50500 26.77000
H  18.68100 1.83900 26.83500
H  25.86100 2.30400 24.28500
H  27.69800 -0.09600 24.46300
H  25.65300 -0.61400 23.45100
H  25.58900 0.78600 22.44300
H  24.31200 0.48700 23.64200
H  29.44800 1.72200 24.78600
H  28.28300 2.86600 24.29800
H  30.09200 1.69200 22.65600
H  28.37300 2.18100 22.20500
H  28.65500 0.51000 22.55500
H  30.82100 -1.05200 27.89100
H  31.36100 -1.59600 29.49000
H  31.78500 0.00300 29.09000
H  28.82700 1.32000 33.61800
H  29.24400 -1.80500 36.61900
H  28.29400 -2.63500 35.47000
H  27.59800 -1.31400 36.54900
Mg 48.24200 45.30200 42.66400
C  44.85100 45.89600 42.08100
C  47.72200 42.02300 42.03400
C  51.58600 44.92900 41.86300
C  48.75300 48.70800 42.79100
N  46.45400 44.14200 41.97300
C  45.19900 44.59000 41.79000
C  44.32500 43.41100 41.34100
C  45.14800 42.18900 41.83500
C  46.51600 42.77800 41.93900
C  44.55700 41.53800 43.12900
C  43.87100 43.41300 39.83800
C  44.75900 44.00200 38.72300
H  44.43100 43.81000 37.30100
N  49.52600 43.64700 42.14300
C  49.07800 42.35700 42.02700
C  50.22700 41.50700 41.99600
C  51.39700 42.31700 41.81800
C  50.88100 43.68800 42.00900
C  50.16400 40.01700 42.09600
C  52.82200 41.80400 41.60800
O  53.11100 40.64500 41.68400
C  53.99500 42.67400 41.30200
N  49.90200 46.62100 42.25500
C  51.14800 46.24300 41.94700
C  52.14600 47.38000 41.86800
C  51.34100 48.56400 42.49700
C  49.89900 47.95300 42.44100
C  53.55800 47.17500 42.49800
C  51.30300 49.99300 41.81400
C  51.55700 51.18500 42.73700
N  47.07100 46.93000 42.73300
C  47.39200 48.23000 42.99200
C  46.19800 49.01500 43.20200
C  45.18500 48.17600 42.79100
C  45.71600 46.92800 42.55100
C  46.07800 50.47600 43.75900
C  43.79100 48.09800 42.63000
O  42.86400 48.90700 42.82700
C  43.62000 46.68700 41.92900
C  42.37200 45.98700 42.58300
O  41.51400 45.34000 41.97200
O  42.32200 46.13300 43.91900
C  41.31500 45.31200 44.53600
H  47.45700 40.96800 42.13300
H  52.66500 44.78400 41.76700
H  48.73100 49.77100 43.03900
H  43.36000 43.50900 41.83700
H  45.13800 41.44000 41.04400
H  44.22100 40.58900 42.71200
H  43.76700 42.12700 43.59600
H  45.36900 41.29500 43.81500
H  42.89400 43.87800 39.70800
H  43.53100 42.40200 39.61300
H  45.74400 43.56000 38.87400
H  44.72400 45.08000 38.87800
H  49.18600 39.77300 41.68200
H  50.08800 39.76500 43.15400
H  50.85200 39.40400 41.51400
H  54.09700 43.42700 42.08400
H  53.87400 43.28200 40.40500
H  54.93200 42.18300 41.03800
H  52.23200 47.70200 40.83000
H  51.70700 48.69800 43.51500
H  53.59800 46.27100 43.10500
H  53.73700 47.91500 43.27800
H  54.36000 47.18000 41.76100
H  50.38500 50.25400 41.28700
H  52.05400 49.85400 41.03600
H  51.05800 51.02800 43.69200
H  51.11600 52.00600 42.17100
H  52.62900 51.38200 42.78200
H  46.56500 51.24400 43.15700
H  46.52700 50.46600 44.75200
H  45.00400 50.66300 43.76800
H  43.49800 46.91700 40.87000
H  41.47300 44.24500 44.37800
H  40.29200 45.51100 44.21700
H  41.41400 45.47200 45.61000

