158

Mg 24.39900 -5.09000 46.70000
C  26.21400 -2.40000 45.05500
C  21.57000 -4.00900 45.12200
C  23.07200 -8.04300 47.35100
C  27.49800 -6.21100 47.93400
N  24.00000 -3.48700 45.20500
C  24.87500 -2.49000 44.66900
C  24.09400 -1.70900 43.67000
C  22.63600 -1.95400 44.03600
C  22.70800 -3.25500 44.81900
C  21.99100 -0.80000 44.77900
C  24.62000 -1.96700 42.21800
C  25.12100 -0.77500 41.37100
H  26.03200 -1.04200 40.16600
N  22.50600 -5.91700 46.33400
C  21.48600 -5.34700 45.63600
C  20.38800 -6.26400 45.55900
C  20.76600 -7.44600 46.31800
C  22.11800 -7.16600 46.82700
C  19.05700 -5.85200 44.85200
C  19.90700 -8.64600 46.43900
O  18.82600 -8.78300 45.92800
C  20.28500 -9.77400 47.25900
N  25.19200 -6.86000 47.57300
C  24.41400 -7.98300 47.70900
C  25.22500 -9.11000 48.25400
C  26.53100 -8.45700 48.69700
C  26.47500 -7.10400 48.05100
C  24.42600 -10.04100 49.25500
C  27.77600 -9.30000 48.32100
C  28.73500 -9.46000 49.41200
N  26.44800 -4.46100 46.54000
C  27.54200 -5.00300 47.23100
C  28.71400 -4.06500 47.01700
C  28.25400 -3.08300 46.12900
C  26.86000 -3.37300 45.85900
C  30.03900 -4.27700 47.56800
C  28.73000 -1.86000 45.41800
O  29.77600 -1.26500 45.36800
C  27.35800 -1.37700 44.63300
C  27.04300 -0.01300 44.97900
O  26.22100 0.46000 45.72100
O  27.82900 0.74100 44.21600
C  27.64300 2.19100 44.20100
H  20.63500 -3.71400 44.64000
H  22.73900 -9.08200 47.38700
H  28.38200 -6.54100 48.48400
H  24.41600 -0.68000 43.82700
H  22.05100 -1.99100 43.11800
H  22.74000 -0.08700 45.12100
H  21.49100 -1.23700 45.64400
H  21.26300 -0.29200 44.14700
H  23.90500 -2.62800 41.72800
H  25.42600 -2.70100 42.21100
H  25.45200 0.00100 42.06100
H  24.28000 -0.29300 40.87300
H  19.22400 -5.93000 43.77800
H  18.81600 -4.79500 44.97300
H  18.21200 -6.47300 45.15000
H  19.38000 -10.35000 47.45200
H  20.60400 -9.30600 48.19000
H  20.95400 -10.48000 46.76600
H  25.52300 -9.79000 47.45500
H  26.40900 -8.29500 49.76800
H  24.94200 -10.11000 50.21200
H  24.21600 -10.98600 48.75500
H  23.46000 -9.62700 49.54500
H  28.41600 -8.73200 47.64600
H  27.44400 -10.24900 47.90100
H  29.68400 -9.02100 49.10500
H  28.84400 -10.53800 49.53600
H  28.27900 -9.02700 50.30200
H  30.63300 -4.96800 46.97000
H  30.05300 -4.68900 48.57700
H  30.48600 -3.28800 47.66900
H  27.69700 -1.50300 43.60500
H  27.84000 2.56700 45.20500
H  26.65100 2.59500 44.00300
H  28.28200 2.79500 43.55600
Mg 48.92800 34.93300 27.41400
C  46.93800 33.14700 29.92400
C  49.36300 37.35600 29.70300
C  50.25300 36.65900 24.96900
C  48.21200 32.25900 25.18200
N  48.18800 35.18900 29.54800
C  47.56700 34.32800 30.39800
C  47.67100 34.89500 31.80700
C  47.88900 36.41100 31.59700
C  48.50100 36.33400 30.22900
C  46.52000 37.28500 31.63200
C  48.68500 34.10600 32.60700
C  48.74500 33.90900 34.09300
H  47.73200 34.80300 34.83200
N  49.70500 36.68200 27.39200
C  49.96100 37.52800 28.51300
C  50.69700 38.67800 28.07500
C  50.79300 38.60500 26.67100
C  50.24600 37.26600 26.30900
C  51.26100 39.81900 29.01100
C  51.40900 39.49000 25.65500
O  51.29900 39.22400 24.48500
C  52.19700 40.61800 26.07000
N  49.14900 34.52300 25.34400
C  49.78100 35.41300 24.58500
C  50.26000 34.79900 23.27300
C  49.77600 33.30200 23.40900
C  48.97900 33.34000 24.65100
C  49.86700 35.46800 21.95300
C  50.86600 32.19200 23.47000
C  50.49200 30.81100 22.82000
N  47.84000 33.12200 27.48500
C  47.67500 32.19500 26.49400
C  46.84900 31.08700 27.03800
C  46.54100 31.41600 28.37800
C  47.12500 32.64500 28.59100
C  46.34800 29.89500 26.34400
C  45.90000 30.94900 29.50700
O  45.41900 29.83800 29.73700
C  46.05500 32.10500 30.56000
C  46.52900 31.53000 31.81800
O  47.55800 30.93100 31.96700
O  45.62400 31.76800 32.76100
C  45.81700 31.28300 34.10200
H  49.68400 38.06600 30.46800
H  50.83000 37.13100 24.17100
H  48.04000 31.44500 24.47400
H  46.73000 34.66500 32.30700
H  48.48600 36.75800 32.44000
H  46.25800 37.49900 30.59500
H  46.73100 38.18100 32.21500
H  45.68800 36.68100 31.99200
H  49.59200 34.68700 32.44400
H  48.85700 33.14900 32.11500
H  49.78600 34.09300 34.35800
H  48.55500 32.84000 34.19800
H  50.56400 40.05400 29.81500
H  51.23800 40.79900 28.53400
H  52.28700 39.65200 29.33900
H  52.77900 40.27700 26.92600
H  51.47600 41.42800 26.17800
H  52.88300 40.93100 25.28200
H  51.34800 34.75000 23.22200
H  49.14300 33.05100 22.55800
H  50.64300 35.34100 21.19900
H  49.81700 36.55000 22.08000
H  48.88100 35.23300 21.55300
H  50.92500 31.95700 24.53200
H  51.86900 32.51000 23.18500
H  49.84100 31.01900 21.97200
H  50.04000 30.18900 23.59300
H  51.37800 30.37800 22.35600
H  45.69300 30.46500 25.68600
H  45.81900 29.18300 26.97700
H  47.10300 29.39300 25.73800
H  45.09100 32.57900 30.74200
H  45.91500 30.19700 34.12000
H  45.00500 31.59200 34.76100
H  46.74400 31.67200 34.52300

