158

Mg 30.39200 58.73800 40.49500
C  27.74500 56.76500 39.15500
C  32.50700 56.37700 39.57900
C  32.68200 61.02100 41.09800
C  27.87500 61.22700 41.28300
N  30.10800 56.84600 39.47800
C  29.02700 56.22100 38.94900
C  29.34200 55.00100 38.10800
C  30.72400 54.71600 38.64900
C  31.17600 56.07500 39.19800
C  30.81900 53.62700 39.76700
C  29.18100 55.39800 36.66800
C  28.46800 54.45000 35.71000
H  28.86700 54.53900 34.23300
N  32.37700 58.66300 40.45300
C  33.10500 57.60300 40.07900
C  34.45600 57.84600 40.40200
C  34.57400 59.22300 40.84600
C  33.19900 59.69600 40.77100
C  35.54900 56.92000 40.13700
C  35.87200 59.84600 41.28100
O  36.92800 59.31800 41.03600
C  35.99000 61.29400 41.85300
N  30.21800 60.84500 41.05900
C  31.38900 61.52800 41.25300
C  31.09200 62.89100 41.76000
C  29.59500 62.83800 42.22300
C  29.16500 61.58700 41.44400
C  32.11800 63.47800 42.76700
C  28.80100 64.06100 41.93700
C  28.14800 64.69800 43.17000
N  28.29800 59.05500 40.15700
C  27.43000 60.04400 40.59100
C  26.05300 59.70700 40.16400
C  26.16800 58.43600 39.63700
C  27.50700 58.03000 39.72600
C  24.84500 60.60900 40.33200
C  25.34800 57.37700 39.16000
O  24.14300 57.31200 38.94700
C  26.42200 56.23000 38.80300
C  26.25500 55.04400 39.61200
O  26.43500 55.01300 40.83700
O  25.87100 53.98600 38.81300
C  25.90300 52.72600 39.57400
H  33.36300 55.73200 39.37100
H  33.48700 61.74000 41.26200
H  27.12700 61.97500 41.55200
H  28.71600 54.16700 38.42800
H  31.36300 54.22400 37.91600
H  30.91100 54.13300 40.72800
H  31.69300 53.02300 39.52700
H  29.95400 52.96400 39.73600
H  30.18900 55.50300 36.26500
H  28.63600 56.34100 36.62800
H  27.40100 54.62200 35.85300
H  28.69500 53.41500 35.96500
H  36.11800 57.23100 39.26100
H  35.26800 55.88100 39.96400
H  36.23400 56.93400 40.98400
H  37.03900 61.54200 42.01500
H  35.33500 61.37400 42.72100
H  35.65600 62.05700 41.15000
H  31.15500 63.48400 40.84800
H  29.63100 62.55300 43.27400
H  32.69300 62.71900 43.29600
H  31.74000 64.20900 43.48300
H  32.83500 64.07800 42.20700
H  28.05500 63.80200 41.18600
H  29.48800 64.75000 41.44500
H  28.48100 65.73400 43.09600
H  28.63000 64.36400 44.08900
H  27.06900 64.54600 43.16200
H  24.37300 60.25500 41.24800
H  24.20300 60.33400 39.49500
H  25.15500 61.65400 40.32500
H  26.32700 56.02900 37.73600
H  25.48400 52.85900 40.57200
H  26.92000 52.41400 39.81000
H  25.32600 51.97800 39.03000
Mg 35.35500 48.93900 25.49500
C  35.95600 47.22300 28.44100
C  33.70900 51.39100 27.22400
C  34.43800 50.37700 22.55100
C  36.74500 46.31900 23.65900
N  34.92400 49.20700 27.56100
C  35.45600 48.53300 28.61900
C  35.33100 49.24300 29.90900
C  34.56600 50.56500 29.46300
C  34.46800 50.42200 27.94000
C  33.17300 50.67000 30.11700
C  36.71100 49.53800 30.52900
C  36.75800 49.37900 32.11000
H  35.40900 49.48700 32.80700
N  34.17400 50.62400 24.95700
C  33.51800 51.43500 25.85600
C  32.60800 52.34700 25.09700
C  32.77500 51.99700 23.69000
C  33.84400 50.96200 23.66200
C  31.72800 53.39800 25.71500
C  32.17000 52.64500 22.40700
O  32.32900 52.26300 21.26500
C  31.15100 53.82400 22.61600
N  35.82600 48.54900 23.45200
C  35.29600 49.29300 22.41600
C  35.65500 48.77100 21.00400
C  36.57500 47.50700 21.32400
C  36.43800 47.44300 22.93000
C  34.37200 48.44500 20.15100
C  38.11300 47.57100 20.98300
C  38.83200 46.25700 20.55800
N  36.07500 47.07900 25.86800
C  36.63500 46.10100 25.02100
C  36.96600 44.94600 25.85000
C  36.79900 45.34500 27.18700
C  36.21400 46.65300 27.15200
C  37.41400 43.57600 25.34400
C  36.96200 44.91200 28.54200
O  37.41400 43.87200 28.96000
C  36.23100 46.09600 29.39800
C  35.08400 45.63600 30.21200
O  34.20800 44.83400 29.91400
O  35.28300 46.04500 31.44100
C  34.41400 45.42000 32.48800
H  33.23100 52.19100 27.79300
H  34.08200 50.73000 21.58100
H  37.13400 45.44800 23.12700
H  34.74700 48.56900 30.53600
H  35.19900 51.42400 29.68500
H  32.75500 49.79400 30.61200
H  32.42300 50.75200 29.33100
H  33.14400 51.56200 30.74400
H  36.97800 50.58300 30.36800
H  37.42300 48.78400 30.19300
H  37.42000 50.15200 32.50100
H  37.19300 48.39500 32.28800
H  31.80900 53.33500 26.80000
H  30.69300 53.13500 25.49700
H  31.96900 54.39700 25.35200
H  31.77000 54.59100 23.08200
H  30.33400 53.49900 23.25900
H  30.78800 54.12200 21.63200
H  36.22900 49.54100 20.48900
H  36.12800 46.62700 20.86000
H  33.45800 48.88800 20.54600
H  34.19200 47.37000 20.15100
H  34.49500 48.71500 19.10200
H  38.60500 48.07900 21.81200
H  38.33600 48.26500 20.17300
H  39.36000 46.47000 19.62800
H  38.22100 45.35500 20.53300
H  39.63300 46.15300 21.29100
H  38.49100 43.59100 25.51000
H  37.14500 43.35100 24.31200
H  37.05900 42.81800 26.04300
H  37.07100 46.44800 29.99700
H  33.54700 46.06400 32.63400
H  34.94200 45.68700 33.40300
H  34.22600 44.34700 32.54200

