158

Mg -0.69900 18.36200 28.11900
C  -1.21300 16.20900 30.74500
C  -1.49500 21.07000 30.05600
C  -0.39800 20.59800 25.37500
C  -0.34100 15.74900 25.86200
N  -1.11000 18.59800 30.20100
C  -1.26800 17.54300 31.11100
C  -1.47400 18.09400 32.46800
C  -1.83900 19.61400 32.22800
C  -1.35800 19.87900 30.74500
C  -3.29400 20.00000 32.51800
C  -0.30000 17.83300 33.49700
C  -0.73500 17.61300 34.95600
H  0.38600 17.28800 35.91000
N  -0.90200 20.51500 27.76300
C  -1.29900 21.45400 28.71900
C  -1.25800 22.79900 28.17000
C  -0.96300 22.69100 26.76200
C  -0.74300 21.22300 26.58000
C  -1.52200 24.09100 28.98900
C  -0.88200 23.66300 25.64400
O  -0.89000 23.36400 24.46000
C  -0.77700 25.12700 26.01600
N  -0.42300 18.16000 25.98700
C  -0.34400 19.22800 25.10600
C  -0.20200 18.67200 23.63400
C  0.14200 17.23300 23.84900
C  -0.26200 16.99000 25.31100
C  -1.56100 18.85900 22.85400
C  1.65300 16.80800 23.58300
C  2.70200 17.46700 24.50100
N  -0.79100 16.39300 28.19400
C  -0.58100 15.43600 27.23300
C  -0.84400 14.13700 27.79500
C  -1.05000 14.37900 29.14600
C  -1.01400 15.80900 29.34600
C  -0.77200 12.84000 27.11000
C  -1.31500 13.75400 30.46500
O  -1.41300 12.56200 30.73400
C  -1.40100 14.87900 31.56000
C  -0.43400 14.55900 32.65400
O  0.76900 14.69300 32.52400
O  -1.07700 13.83800 33.64300
C  -0.29600 13.27400 34.75000
H  -1.70700 21.98400 30.61500
H  -0.33600 21.28600 24.52900
H  -0.34800 14.98200 25.08400
H  -2.38100 17.56700 32.76500
H  -1.24100 20.34600 32.77100
H  -3.81900 19.17700 33.00200
H  -3.62600 20.18700 31.49600
H  -3.37900 20.92400 33.09100
H  0.34500 18.70900 33.43000
H  0.33000 17.00000 33.18200
H  -1.57100 16.91900 35.04300
H  -0.99500 18.54800 35.45200
H  -1.97200 24.88700 28.39600
H  -0.60800 24.44900 29.46400
H  -2.28500 23.81400 29.71600
H  -0.24000 25.28200 26.95200
H  -1.80600 25.48600 26.02400
H  -0.37900 25.64000 25.14000
H  0.65900 19.12600 23.14400
H  -0.45200 16.67100 23.12900
H  -1.99800 19.80000 23.18900
H  -2.25600 18.02500 22.95700
H  -1.22100 18.92500 21.82000
H  1.88700 17.06400 22.54900
H  1.72500 15.72700 23.70200
H  3.31400 16.75000 25.04600
H  2.37100 18.26600 25.16500
H  3.48300 17.90300 23.87800
H  -1.80200 12.48500 27.14900
H  -0.11800 12.15300 27.64900
H  -0.45600 12.92900 26.07100
H  -2.41200 14.90800 31.96700
H  -0.08100 13.98600 35.54700
H  0.66400 12.93100 34.36200
H  -0.89400 12.41800 35.06200
Mg 2.22800 -1.68800 43.87900
C  5.52300 -0.93600 43.20600
C  1.26200 1.41200 42.79300
C  -1.00700 -2.76600 43.71200
C  3.30600 -4.91500 44.84700
N  3.26800 0.00200 43.01200
C  4.59800 0.10200 42.87400
C  4.91800 1.50700 42.31500
C  3.55100 2.36300 42.70200
C  2.59700 1.19000 42.82800
C  3.66000 3.36500 43.90200
C  5.36400 1.38200 40.87300
C  6.44000 2.34700 40.44300
H  6.30500 3.01800 39.03400
N  0.37200 -0.83900 43.31900
C  0.25500 0.48400 42.91500
C  -1.13700 0.74300 42.68600
C  -1.87200 -0.45100 42.93700
C  -0.85400 -1.42900 43.34900
C  -1.59100 2.17600 42.31400
C  -3.37300 -0.62400 42.82200
O  -4.19300 0.21600 42.45400
C  -4.04700 -2.05200 43.00400
N  1.29400 -3.67700 43.95000
C  -0.09100 -3.82900 43.99900
C  -0.41300 -5.28400 44.08700
C  0.89700 -5.85700 44.64400
C  1.89500 -4.76000 44.56400
C  -1.64100 -5.70300 44.92500
C  1.53200 -7.18000 44.00600
C  1.77800 -8.35500 44.97800
N  4.08700 -2.75400 44.22900
C  4.36600 -3.99800 44.57800
C  5.78700 -4.29600 44.68400
C  6.36200 -3.09300 44.16100
C  5.23800 -2.20100 43.79900
C  6.41400 -5.62400 45.24000
C  7.57100 -2.31300 43.82200
O  8.75300 -2.52300 44.01000
C  7.09500 -0.91300 43.29600
C  7.50200 0.13600 44.25500
O  7.53700 0.04000 45.47600
O  8.03300 1.31100 43.65200
C  8.31000 2.44500 44.62700
H  1.03100 2.44100 42.51100
H  -1.99200 -3.23600 43.73600
H  3.60000 -5.90900 45.18800
H  5.68600 1.95000 42.94900
H  3.23100 2.90900 41.81500
H  4.68100 3.72600 44.02600
H  3.33200 2.82200 44.78800
H  3.01700 4.23100 43.74400
H  4.49200 1.45300 40.22300
H  5.79300 0.38700 40.75800
H  7.37000 1.78900 40.54800
H  6.45000 3.21300 41.10500
H  -2.63600 2.17100 42.00600
H  -0.95700 2.46200 41.47500
H  -1.34400 2.86600 43.12100
H  -5.12400 -2.01500 42.83800
H  -3.96100 -2.24000 44.07400
H  -3.59000 -2.83800 42.40300
H  -0.45000 -5.66500 43.06600
H  0.79900 -6.00100 45.72000
H  -2.22800 -6.48900 44.44900
H  -2.24200 -4.80100 45.03500
H  -1.37400 -5.99100 45.94100
H  2.45800 -6.88800 43.51000
H  0.81900 -7.58700 43.28900
H  1.48900 -9.27800 44.47700
H  1.27100 -8.14800 45.92100
H  2.84300 -8.37100 45.21200
H  6.08600 -5.89400 46.24300
H  7.47300 -5.53400 45.48000
H  6.14000 -6.46500 44.60300
H  7.45300 -0.84400 42.26900
H  7.58400 2.57800 45.42900
H  8.27500 3.43500 44.17300
H  9.31500 2.27900 45.01600

