158

Mg 1.54200 -1.51700 43.98800
C  5.05200 -0.90500 43.56200
C  1.02100 1.58200 42.46400
C  -1.57700 -2.39800 43.57600
C  2.34000 -4.74700 45.04900
N  2.84900 0.14700 43.14900
C  4.26200 0.16800 42.99300
C  4.76000 1.38600 42.28700
C  3.50500 2.31900 42.42700
C  2.36900 1.27000 42.68900
C  3.57000 3.33000 43.58400
C  5.22100 1.19100 40.89900
C  6.65500 1.68500 40.63600
H  6.83300 2.39800 39.27800
N  -0.12600 -0.46600 43.21200
C  -0.17800 0.75500 42.57900
C  -1.52100 1.10300 42.26800
C  -2.30800 -0.01000 42.63200
C  -1.34200 -1.03200 43.17400
C  -1.84500 2.54600 41.68300
C  -3.81000 -0.11900 42.40600
O  -4.47100 0.79900 41.88900
C  -4.54100 -1.43300 42.68600
N  0.57400 -3.36900 44.00700
C  -0.75200 -3.39800 44.01900
C  -1.31500 -4.67500 44.55000
C  -0.05300 -5.46800 45.02100
C  1.03200 -4.46100 44.70200
C  -2.53200 -4.63300 45.56500
C  0.12200 -6.81700 44.25000
C  0.46400 -8.03400 45.11500
N  3.27900 -2.67500 44.29600
C  3.45500 -3.90900 44.83900
C  4.88500 -4.18800 44.89400
C  5.52800 -3.03600 44.38500
C  4.52300 -2.17300 44.00800
C  5.54000 -5.46800 45.36400
C  6.85100 -2.39700 44.14800
O  7.96600 -2.83100 44.45100
C  6.53000 -1.00900 43.50100
C  7.31200 0.01600 44.24500
O  7.11500 0.34500 45.40700
O  8.28200 0.53900 43.42100
C  9.08500 1.66100 43.94100
H  0.87600 2.62000 42.15800
H  -2.58000 -2.79400 43.40500
H  2.39500 -5.71500 45.55100
H  5.58700 1.79600 42.86800
H  3.26700 2.82600 41.49200
H  3.15600 2.76700 44.42100
H  3.00900 4.22200 43.30500
H  4.57900 3.64400 43.85000
H  4.58000 1.61100 40.12400
H  5.30400 0.12800 40.67200
H  7.26600 0.78200 40.62900
H  7.13700 2.34500 41.35700
H  -2.71700 2.47900 41.03200
H  -0.99700 2.99000 41.16200
H  -2.05900 3.31800 42.42400
H  -5.57800 -1.10200 42.73500
H  -4.15700 -1.81000 43.63400
H  -4.45600 -2.09200 41.82100
H  -1.75100 -5.12600 43.65900
H  0.02600 -5.59800 46.10100
H  -2.24600 -5.33500 46.34900
H  -3.46700 -4.86800 45.05700
H  -2.66900 -3.59700 45.87400
H  0.94700 -6.69500 43.54800
H  -0.84600 -7.04700 43.80700
H  1.18700 -8.75900 44.74300
H  -0.47600 -8.57100 45.24400
H  0.69700 -7.81400 46.15700
H  6.61500 -5.43900 45.18600
H  5.08500 -6.33000 44.87600
H  5.18600 -5.66300 46.37600
H  6.87100 -1.01400 42.46500
H  8.88200 2.56200 43.36200
H  10.15100 1.43600 43.90000
H  8.75300 1.84600 44.96200
Mg 16.88700 -2.29500 28.78600
C  15.68000 -0.13700 31.15800
C  18.45500 -4.01600 31.36700
C  18.56100 -3.98300 26.45700
C  15.43300 -0.24400 26.24600
N  17.07100 -2.03000 31.10400
C  16.44000 -1.08800 31.82500
C  16.55100 -1.40100 33.33400
C  17.64700 -2.54200 33.37700
C  17.72700 -2.93700 31.87400
C  18.94700 -2.10400 34.17400
C  15.15400 -1.63300 33.98600
C  15.10000 -2.43400 35.33400
H  16.14200 -2.00900 36.41200
N  18.35100 -3.72200 28.86200
C  18.70100 -4.38000 30.04100
C  19.47200 -5.55300 29.58600
C  19.55100 -5.54300 28.15600
C  18.85100 -4.38900 27.77500
C  19.92700 -6.53500 30.57700
C  20.30100 -6.50200 27.22800
O  20.29500 -6.38000 26.02900
C  21.16500 -7.59100 27.70800
N  17.16300 -2.00800 26.60000
C  17.82400 -2.95500 25.91700
C  17.60400 -2.71900 24.31300
C  16.62100 -1.56800 24.30400
C  16.37100 -1.29200 25.73700
C  18.89100 -2.44500 23.62800
C  15.31900 -1.81500 23.49800
C  15.03700 -0.76700 22.38000
N  15.65500 -0.63300 28.66800
C  15.14700 0.08700 27.56900
C  14.30800 1.13600 28.12400
C  14.49200 1.06400 29.51600
C  15.35500 0.00300 29.80600
C  13.45800 2.14300 27.47600
C  14.07500 1.69000 30.75400
O  13.26200 2.58300 31.02400
C  14.86800 0.93300 31.85400
C  15.53500 1.93200 32.82500
O  16.58200 2.51800 32.62500
O  14.67000 2.16800 33.86800
C  15.35300 2.85500 34.99500
H  19.09300 -4.43800 32.14700
H  18.99800 -4.55700 25.63700
H  14.84300 0.33100 25.53000
H  16.92400 -0.54600 33.89800
H  17.37200 -3.40500 33.98300
H  18.72500 -2.08000 35.24100
H  19.28100 -1.11500 33.86000
H  19.77400 -2.78300 33.96700
H  14.44600 -1.93300 33.21400
H  14.86300 -0.64800 34.35100
H  15.00500 -3.49600 35.10600
H  14.17400 -2.11800 35.81300
H  19.12900 -6.78100 31.27800
H  20.72500 -6.17000 31.22400
H  20.21400 -7.51100 30.18500
H  21.53100 -8.21800 26.89500
H  20.57700 -8.26000 28.33500
H  22.01000 -7.12900 28.21900
H  17.25500 -3.60600 23.78500
H  17.16100 -0.75700 23.81600
H  18.81700 -1.86800 22.70600
H  19.40400 -3.38900 23.44400
H  19.48100 -1.83700 24.31300
H  14.48600 -1.92300 24.19200
H  15.42200 -2.73900 22.92900
H  14.04600 -0.32000 22.46000
H  15.01300 -1.31000 21.43500
H  15.79300 0.00900 22.25200
H  13.49900 2.01800 26.39400
H  13.76200 3.15500 27.74300
H  12.44300 1.95100 27.82200
H  14.16200 0.38700 32.48100
H  15.40600 2.12100 35.79900
H  14.81400 3.74100 35.33100
H  16.37700 3.16900 34.79200

