158

Mg 26.41100 50.38400 26.41600
C  24.15400 51.70300 28.91400
C  28.40200 49.44500 29.01100
C  28.43500 49.48900 24.12100
C  24.21200 51.80700 24.02600
N  26.36800 50.79900 28.63600
C  25.36300 51.16800 29.43200
C  25.61900 50.89200 30.93400
C  26.99100 50.12400 30.96400
C  27.28400 50.04800 29.42000
C  28.19300 50.69200 31.67500
C  24.53000 50.01000 31.67900
C  24.37300 50.45300 33.14800
H  23.70800 49.44700 34.11600
N  28.23500 49.58800 26.52400
C  28.90800 49.22100 27.65500
C  30.10100 48.43500 27.29800
C  30.18000 48.53800 25.82800
C  28.99700 49.26400 25.41800
C  31.09400 47.84100 28.29000
C  31.25200 48.09000 24.82900
O  31.19900 48.32200 23.60900
C  32.43700 47.21000 25.30800
N  26.37200 50.60000 24.37900
C  27.31800 50.08800 23.58100
C  26.92300 50.06300 22.11900
C  25.47600 50.68400 22.09600
C  25.32600 51.10700 23.60400
C  27.94600 50.72200 21.18000
C  24.30800 49.71500 21.55600
C  24.31200 48.26900 21.93200
N  24.56200 51.56700 26.43700
C  23.80600 52.06600 25.40100
C  22.61500 52.71700 25.87100
C  22.66500 52.60100 27.26500
C  23.85700 51.89400 27.55600
C  21.58300 53.38700 24.94900
C  22.04800 52.86200 28.45900
O  20.94400 53.34600 28.62100
C  22.96100 52.29300 29.63900
C  23.37100 53.44200 30.60900
O  24.45700 53.99800 30.54900
O  22.37600 53.71700 31.50800
C  22.85200 54.58700 32.60100
H  29.06200 48.97400 29.74200
H  29.02400 49.00200 23.34100
H  23.59700 52.19200 23.20900
H  25.64800 51.87900 31.39600
H  26.80900 49.10400 31.30000
H  28.67400 51.36300 30.96400
H  28.92500 49.97000 32.03500
H  27.85700 51.22400 32.56600
H  24.83300 48.96400 31.72200
H  23.58200 50.07700 31.14400
H  23.71100 51.31700 33.07900
H  25.29200 50.87700 33.55400
H  31.00400 48.29000 29.27900
H  32.13500 48.01500 28.01800
H  30.96700 46.76100 28.35300
H  32.05100 46.33400 25.82800
H  33.14300 47.80600 25.88600
H  32.99400 46.89300 24.42600
H  26.96700 48.98800 21.94400
H  25.49000 51.64400 21.57900
H  28.86300 51.08400 21.64400
H  27.64700 51.57600 20.57200
H  28.33100 49.90200 20.57300
H  24.33800 49.77500 20.46800
H  23.45500 50.25400 21.96700
H  23.40800 48.03700 22.49600
H  25.19200 47.91000 22.46600
H  24.29300 47.71800 20.99100
H  20.83300 52.61400 24.78400
H  21.95400 53.58200 23.94300
H  21.17200 54.32400 25.32600
H  22.46800 51.55500 30.27300
H  23.34400 55.47100 32.19500
H  23.50000 53.99100 33.24400
H  22.15200 55.02700 33.31200
Mg -13.04900 16.00000 42.37300
C  -9.99200 14.47500 41.69500
C  -11.75400 18.82500 40.45200
C  -16.13200 17.30200 41.92500
C  -14.40300 12.90100 43.18200
N  -11.15200 16.53700 41.16700
C  -10.00700 15.73500 41.12000
C  -8.82300 16.49600 40.38100
C  -9.40900 17.94300 40.21100
C  -10.89600 17.73600 40.59200
C  -8.73600 19.06500 41.06400
C  -8.30700 15.93400 39.01100
C  -6.78400 16.26300 38.91400
H  -6.39300 16.88400 37.66300
N  -13.82800 17.85900 41.61000
C  -13.08300 18.84200 40.88000
C  -14.08800 19.88500 40.42800
C  -15.39200 19.30400 40.46100
C  -15.17100 18.09700 41.34800
C  -13.77900 21.21000 39.86700
C  -16.65000 19.95700 40.01200
O  -16.60900 20.99200 39.39200
C  -17.94900 19.33500 40.28700
N  -14.96600 15.15800 42.37800
C  -16.04800 15.97400 42.39200
C  -17.30000 15.16000 42.77300
C  -16.82600 13.64600 42.81000
C  -15.31600 13.87700 42.80200
C  -17.83900 15.65900 44.13200
C  -17.41800 12.75800 41.67100
C  -18.03700 11.41300 42.19500
N  -12.33600 14.06700 42.75700
C  -12.94800 12.98000 43.12400
C  -11.96000 11.98200 43.27500
C  -10.77300 12.48200 42.74500
C  -11.05900 13.76100 42.38700
C  -12.19700 10.56000 43.66600
C  -9.38200 12.27100 42.47200
O  -8.69500 11.26400 42.61900
C  -8.83200 13.58300 41.76500
C  -7.72500 14.05700 42.60900
O  -7.79200 14.19700 43.82200
O  -6.63400 14.23600 41.75100
C  -5.29300 14.66900 42.31300
H  -11.51100 19.76200 39.94600
H  -17.08900 17.82600 41.96500
H  -14.81900 11.95500 43.53500
H  -8.03600 16.56400 41.13200
H  -9.42000 18.20900 39.15400
H  -7.93700 18.69400 41.70500
H  -9.40400 19.51200 41.80000
H  -8.38000 19.75200 40.29600
H  -8.84700 16.37600 38.17300
H  -8.45800 14.85900 39.11300
H  -6.17600 15.38100 39.11400
H  -6.55500 17.01400 39.67000
H  -14.18400 22.04900 40.43300
H  -14.13400 21.16600 38.83700
H  -12.72400 21.45000 39.73300
H  -18.02200 18.26800 40.07600
H  -18.63700 19.87800 39.63900
H  -18.26800 19.52200 41.31300
H  -17.91000 15.45200 41.91800
H  -17.02600 13.26700 43.81100
H  -17.01600 16.16400 44.63800
H  -17.92200 14.80800 44.80700
H  -18.75200 16.23700 43.99000
H  -16.54000 12.37400 41.15200
H  -18.05800 13.24800 40.93600
H  -19.12600 11.43800 42.16200
H  -17.86600 11.23900 43.25700
H  -17.69200 10.49000 41.73000
H  -12.89600 10.19300 42.91400
H  -12.70700 10.53500 44.62800
H  -11.30800 9.93000 43.69100
H  -8.64200 13.26300 40.74000
H  -4.61200 14.78400 41.46900
H  -4.88200 13.93400 43.00500
H  -5.40300 15.63400 42.80800

