158

Mg 35.45900 3.12500 29.50700
C  33.43300 4.20900 32.18300
C  38.20700 3.03800 31.60500
C  37.58300 2.73200 26.87600
C  32.77900 3.36400 27.38500
N  35.77100 3.47100 31.69300
C  34.78300 3.86300 32.55200
C  35.32500 3.80700 33.93800
C  36.84600 3.79300 33.74000
C  37.01000 3.47300 32.27900
C  37.61400 5.03400 34.25000
C  34.59300 2.63400 34.74600
C  34.25200 2.92600 36.23400
H  35.25300 3.84000 37.05500
N  37.51200 2.76400 29.26200
C  38.46500 2.70700 30.25300
C  39.66000 2.09500 29.68500
C  39.62300 2.13000 28.30900
C  38.20000 2.67100 28.04200
C  40.89400 1.66500 30.56500
C  40.71300 1.82400 27.23100
O  40.59100 1.83700 26.01000
C  42.08400 1.41900 27.74500
N  35.24000 3.13300 27.48300
C  36.19100 2.88200 26.56500
C  35.72000 2.93700 25.10500
C  34.17200 2.85300 25.34000
C  34.02400 3.16400 26.84200
C  36.19400 4.16800 24.25400
C  33.60300 1.40900 25.03400
C  32.51800 1.39000 23.95700
N  33.44800 3.60600 29.70500
C  32.47300 3.68600 28.76200
C  31.16200 4.03600 29.34900
C  31.44800 4.26000 30.72400
C  32.91900 4.11400 30.82600
C  29.80100 4.06500 28.56200
C  30.97100 4.65700 32.04200
O  29.83800 4.84900 32.52800
C  32.19000 4.60800 32.99400
C  32.31500 5.90200 33.71900
O  32.31600 7.02700 33.26500
O  32.23300 5.68000 35.04500
C  32.35700 6.85500 35.90900
H  39.04400 2.90100 32.29400
H  38.12700 2.42400 25.98100
H  31.87000 3.42900 26.78400
H  35.06200 4.78700 34.33500
H  37.25800 3.02300 34.39300
H  36.90800 5.85900 34.35000
H  38.46400 5.22700 33.59600
H  38.03300 4.78300 35.22400
H  35.28800 1.79500 34.78300
H  33.66200 2.41000 34.22600
H  34.31300 1.97100 36.75700
H  33.24100 3.31600 36.34400
H  41.16900 0.67300 30.20800
H  40.55700 1.66900 31.60100
H  41.71400 2.37800 30.65600
H  42.66800 2.08000 28.38600
H  42.62300 1.03600 26.87800
H  41.98300 0.49800 28.31900
H  36.14700 2.01800 24.70400
H  33.76800 3.66700 24.73800
H  37.16000 4.35100 24.72400
H  35.55900 5.04900 24.16400
H  36.52700 3.92400 23.24600
H  33.13400 1.10400 25.96900
H  34.40700 0.72100 24.77400
H  32.20500 2.43400 23.92600
H  31.63800 0.79400 24.20200
H  32.95500 0.99900 23.03900
H  29.70200 3.14300 27.98900
H  29.95400 4.88100 27.85500
H  28.97800 4.08400 29.27700
H  32.01900 3.81900 33.72600
H  33.39700 7.17000 35.83200
H  32.13300 6.56800 36.93700
H  31.66200 7.67900 35.74400
Mg 50.11800 46.11100 42.85700
C  46.96300 46.53100 41.18300
C  50.42500 43.09500 41.25900
C  53.27300 46.09600 43.88800
C  49.71300 49.39200 43.88200
N  48.91100 45.05900 41.18500
C  47.63000 45.38100 40.83100
C  47.16300 44.26600 39.83600
C  48.13700 43.04900 40.06900
C  49.22000 43.76800 40.98000
C  47.52200 41.82200 40.92800
C  47.11000 44.78300 38.40600
C  46.04000 44.03500 37.60100
H  45.72600 44.41600 36.12600
N  51.64600 44.69300 42.64600
C  51.56700 43.48900 41.96200
C  52.86300 42.84600 42.09300
C  53.60400 43.64000 43.05300
C  52.88200 44.88100 43.26800
C  53.18200 41.45800 41.48600
C  54.93800 43.40400 43.67700
O  55.48000 42.40900 43.27600
C  55.60300 44.22600 44.76500
N  51.41100 47.52100 43.77100
C  52.69300 47.34600 44.05600
C  53.31700 48.58300 44.72800
C  52.19100 49.68700 44.59400
C  50.99000 48.78300 44.07700
C  53.80700 48.37200 46.18900
C  52.62900 50.88600 43.65500
C  53.17900 52.11500 44.42600
N  48.67600 47.63400 42.73500
C  48.63900 48.86300 43.26400
C  47.35400 49.51500 43.01000
C  46.69800 48.67000 42.15600
C  47.50600 47.50500 42.06400
C  47.05300 50.93700 43.41700
C  45.51200 48.56700 41.35500
O  44.55000 49.29300 41.18200
C  45.60800 47.09800 40.66600
C  44.41700 46.25700 41.08400
O  44.31200 45.63500 42.10600
O  43.49400 46.26400 40.05900
C  42.22200 45.68000 40.32400
H  50.42600 42.08600 40.84200
H  54.25600 46.05700 44.36400
H  49.50800 50.39600 44.26100
H  46.18100 43.92300 40.16400
H  48.46100 42.59400 39.13300
H  46.54100 42.21000 41.20300
H  48.03600 41.77000 41.88800
H  47.54800 40.91000 40.33200
H  48.01800 44.58400 37.83800
H  47.00200 45.84700 38.19700
H  45.08100 44.13300 38.11100
H  46.29100 42.97500 37.55600
H  53.47800 40.74300 42.25400
H  54.10800 41.51900 40.91600
H  52.42000 41.00100 40.85300
H  56.16800 45.13700 44.56700
H  56.34500 43.58400 45.24100
H  54.90500 44.47500 45.56300
H  54.23500 48.81000 44.18600
H  51.99300 50.01500 45.61400
H  53.73800 49.38000 46.59800
H  54.81700 47.96900 46.11000
H  53.14000 47.67500 46.69500
H  51.82000 51.25900 43.02700
H  53.38000 50.64400 42.90400
H  54.11100 52.49500 44.00700
H  53.29400 51.80600 45.46500
H  52.44100 52.91100 44.32600
H  47.89100 51.60100 43.62900
H  46.54100 51.03100 44.37400
H  46.56000 51.47900 42.61000
H  45.60200 47.14500 39.57700
H  42.31600 44.60100 40.19900
H  41.50900 46.07700 39.60200
H  41.87500 46.10400 41.26600

