158

Mg 29.13600 56.66400 41.21000
C  26.38800 54.85200 39.77000
C  31.21600 54.44300 39.92000
C  31.39900 59.14800 41.27600
C  26.67900 59.21900 41.91400
N  28.79000 54.95700 39.77200
C  27.67300 54.30700 39.52300
C  28.05700 53.05000 38.65200
C  29.49800 52.64500 39.23100
C  29.88100 54.10200 39.65900
C  29.49400 51.60200 40.38400
C  28.10900 53.49900 37.16000
C  27.02600 52.89300 36.25600
H  26.34500 53.80800 35.25700
N  31.03400 56.68100 40.88300
C  31.72700 55.64500 40.33100
C  33.12200 56.01400 40.41400
C  33.21900 57.35400 40.74900
C  31.86900 57.80900 40.97600
C  34.21800 54.99200 40.01400
C  34.55500 58.07500 40.69900
O  35.63400 57.57000 40.41400
C  34.66700 59.48200 41.00000
N  29.08300 58.92800 41.57300
C  30.18300 59.65100 41.64900
C  29.93900 61.08800 42.06400
C  28.41800 61.03600 42.50000
C  28.03300 59.66400 41.89900
C  30.92300 61.60000 43.16500
C  27.56300 62.23400 41.92600
C  26.80600 62.99600 42.93000
N  27.00300 57.01800 40.98300
C  26.17100 58.04000 41.35600
C  24.74500 57.77100 41.02600
C  24.85800 56.42200 40.52000
C  26.25400 56.06700 40.44300
C  23.57700 58.64700 41.31300
C  24.08700 55.33300 40.02600
O  22.88400 55.24200 39.86000
C  25.00400 54.23100 39.52500
C  24.75800 53.10400 40.32400
O  25.27500 52.86300 41.41200
O  23.90100 52.15200 39.64100
C  23.58300 50.98600 40.49900
H  31.92400 53.64800 39.67700
H  32.14000 59.94700 41.34100
H  26.00900 60.01900 42.23700
H  27.38100 52.19900 38.74000
H  30.10500 52.37700 38.36700
H  29.83100 50.64100 39.99600
H  28.54700 51.50700 40.91500
H  30.12400 51.86500 41.23400
H  29.05800 53.27300 36.67600
H  27.89600 54.56800 37.16900
H  26.32000 52.30600 36.84200
H  27.51200 52.14400 35.63000
H  34.68200 55.35500 39.09700
H  33.79000 54.00700 39.82200
H  34.95500 54.85700 40.80500
H  34.09100 60.14000 40.34900
H  35.71500 59.74100 41.15700
H  34.31900 59.57100 42.02900
H  30.14500 61.62200 41.13600
H  28.31600 60.82500 43.56500
H  31.52600 62.38600 42.71000
H  31.61000 60.90200 43.64500
H  30.24000 62.11800 43.83700
H  26.88600 61.79400 41.19400
H  28.19700 62.84300 41.28200
H  26.89600 62.59000 43.93700
H  25.76800 62.80800 42.65400
H  27.10100 64.04100 42.83700
H  23.10200 58.53400 42.28800
H  22.87600 58.43400 40.50600
H  23.94000 59.66300 41.15800
H  24.79800 54.02100 38.47500
H  23.55300 51.25300 41.55600
H  24.34600 50.21500 40.39400
H  22.65100 50.49400 40.21800
Mg -5.54500 24.66600 26.16500
C  -4.26700 26.31700 29.11200
C  -7.90700 23.20000 28.01200
C  -6.39200 23.07400 23.37100
C  -3.15300 26.59500 24.39300
N  -5.96500 24.63000 28.30400
C  -5.35200 25.40200 29.32500
C  -6.10300 25.18900 30.67300
C  -7.22600 24.11700 30.29700
C  -7.05100 24.02800 28.75100
C  -7.00300 22.67400 31.01000
C  -6.89600 26.46200 31.20100
C  -6.78900 26.64700 32.79700
H  -6.16400 25.50600 33.59900
N  -6.90800 23.26600 25.74600
C  -7.84700 22.81600 26.63600
C  -8.73100 21.92000 25.98500
C  -8.30400 21.85300 24.65300
C  -7.14600 22.76800 24.52100
C  -9.89800 21.27500 26.70100
C  -8.81200 20.93200 23.59600
O  -8.24300 20.89100 22.50200
C  -9.87700 19.87100 23.86600
N  -4.94400 24.89300 24.17700
C  -5.41400 24.02200 23.18800
C  -4.60000 24.28400 21.97200
C  -3.89300 25.67700 22.17800
C  -3.94400 25.71300 23.68800
C  -3.66100 23.07300 21.65500
C  -4.67500 26.86400 21.57500
C  -3.98800 27.61300 20.40000
N  -3.89700 25.96700 26.61300
C  -3.07700 26.65400 25.77000
C  -2.31600 27.64000 26.45500
C  -2.73200 27.43900 27.79100
C  -3.63000 26.44400 27.87400
C  -1.31200 28.60700 25.88200
C  -2.44600 27.97100 29.04900
O  -1.60200 28.76500 29.47900
C  -3.46900 27.29400 29.96100
C  -2.72500 26.59900 31.10500
O  -2.13000 25.59700 31.02500
O  -2.77700 27.47300 32.14900
C  -2.10200 27.00600 33.34600
H  -8.71900 22.81000 28.63000
H  -6.66100 22.40200 22.55300
H  -2.55200 27.23900 23.74600
H  -5.31000 24.71700 31.25400
H  -8.24600 24.48200 30.42400
H  -7.92400 22.40800 31.53000
H  -6.17000 22.60200 31.70900
H  -6.75700 21.89000 30.29500
H  -7.94500 26.44000 30.90500
H  -6.56600 27.33400 30.63600
H  -7.79800 26.90400 33.11700
H  -6.16500 27.49800 33.07200
H  -10.69400 21.38000 25.96300
H  -10.13600 21.73300 27.66100
H  -9.76700 20.20700 26.87000
H  -10.80900 20.41600 24.01300
H  -9.46200 19.36300 24.73600
H  -9.90000 19.18000 23.02300
H  -5.30000 24.45200 21.15300
H  -2.86000 25.62800 21.83400
H  -3.86900 22.26400 22.35600
H  -2.65000 23.40400 21.89000
H  -3.82800 22.66900 20.65700
H  -4.79300 27.69800 22.26600
H  -5.64700 26.55600 21.19000
H  -3.58900 28.55900 20.76800
H  -4.74500 27.70600 19.62200
H  -3.22300 26.92800 20.03600
H  -0.73100 28.97100 26.72900
H  -1.85500 29.41200 25.38600
H  -0.68700 28.10800 25.14100
H  -4.16600 27.90700 30.53200
H  -1.37900 27.75100 33.67700
H  -1.67700 26.00400 33.39500
H  -2.80000 27.09100 34.17900

