158

Mg 2.18400 -2.43500 43.94800
C  5.47200 -1.18200 43.24500
C  1.04400 0.08900 41.92400
C  -0.71700 -4.06600 43.97400
C  3.76700 -5.24000 45.38700
N  3.20000 -0.68600 42.59500
C  4.49600 -0.42600 42.55800
C  4.80000 0.70300 41.51800
C  3.32900 1.28800 41.21300
C  2.48300 0.27400 41.98400
C  3.02400 2.81100 41.54700
C  5.45500 0.14700 40.29200
C  6.65300 0.98100 39.69300
H  6.30700 1.77900 38.37100
N  0.33000 -1.97100 43.16100
C  0.11000 -0.89400 42.36100
C  -1.34300 -1.00000 41.98600
C  -1.89800 -2.11200 42.73500
C  -0.75200 -2.76700 43.33100
C  -2.03200 -0.04200 41.02400
C  -3.34700 -2.38000 42.84900
O  -4.18800 -1.62500 42.45200
C  -3.86400 -3.54500 43.56200
N  1.61300 -4.29200 44.61200
C  0.31000 -4.74600 44.54700
C  0.19300 -6.13500 45.03300
C  1.66400 -6.60900 45.31500
C  2.45200 -5.29200 45.08400
C  -0.77500 -6.19900 46.29100
C  2.16500 -7.70700 44.39500
C  2.63400 -8.98600 45.07000
N  4.13800 -3.02800 44.38700
C  4.59200 -4.18200 45.02800
C  6.08900 -4.06000 45.15000
C  6.42900 -2.86200 44.50600
C  5.24000 -2.29400 44.02800
C  7.03000 -5.03100 45.90100
C  7.52600 -2.05800 44.19300
O  8.71900 -2.27600 44.38800
C  6.99300 -0.94300 43.25700
C  7.32000 0.35100 43.97200
O  6.91400 0.61100 45.07500
O  8.08900 1.14200 43.16600
C  8.64400 2.34200 43.78600
H  0.65200 0.88500 41.28700
H  -1.60100 -4.70600 43.94100
H  4.20500 -6.11100 45.87900
H  5.40200 1.44800 42.03800
H  3.04800 1.27700 40.16000
H  2.83900 3.40300 40.65000
H  3.95600 3.20400 41.95200
H  2.13600 2.88400 42.17600
H  4.76000 0.39000 39.48900
H  5.56500 -0.93700 40.25400
H  7.44900 0.28200 39.43400
H  7.11100 1.60300 40.46200
H  -2.14100 0.89100 41.57800
H  -2.96900 -0.48400 40.68600
H  -1.42300 0.05100 40.12500
H  -4.95300 -3.58800 43.54500
H  -3.55000 -3.48000 44.60300
H  -3.48000 -4.48100 43.15500
H  -0.28500 -6.78100 44.29600
H  1.88700 -6.85400 46.35400
H  -1.77000 -6.38300 45.88500
H  -0.81800 -5.21200 46.75200
H  -0.40500 -7.03300 46.88700
H  3.03800 -7.43900 43.80000
H  1.37700 -8.10400 43.75400
H  2.81500 -8.79800 46.12800
H  3.57600 -9.35900 44.66700
H  1.90000 -9.78800 44.98800
H  6.87900 -6.00200 45.42900
H  6.79600 -5.08400 46.96400
H  8.09300 -4.81800 45.78900
H  7.52100 -1.02100 42.30600
H  7.87800 3.11300 43.87400
H  9.48300 2.74300 43.21800
H  8.91600 2.03100 44.79400
Mg 9.36900 48.29900 25.50000
C  6.99400 48.54700 28.15200
C  11.69000 49.63800 27.66800
C  11.58300 47.86000 23.08100
C  6.70000 47.51600 23.46100
N  9.29300 49.01600 27.61200
C  8.29100 48.86300 28.53000
C  8.76700 49.30500 29.95400
C  10.07000 50.08600 29.62100
C  10.40400 49.51100 28.21000
C  9.95800 51.63700 29.52200
C  8.93300 48.11700 30.92800
C  8.48400 48.32200 32.33400
H  8.29700 47.04100 33.16900
N  11.40900 48.55200 25.38400
C  12.15300 49.11100 26.40000
C  13.55900 49.11200 26.00100
C  13.55300 48.70700 24.56700
C  12.14800 48.33500 24.30100
C  14.61900 49.73500 26.83600
C  14.65000 48.68900 23.57400
O  14.33900 48.28500 22.48200
C  15.94100 49.33200 23.78700
N  9.12600 47.84500 23.50300
C  10.22900 47.67300 22.71300
C  9.70600 47.12600 21.35300
C  8.23800 46.97000 21.48700
C  7.98000 47.39800 22.93100
C  10.21400 47.95500 20.11100
C  7.73600 45.52500 21.25200
C  8.46200 44.34400 21.95200
N  7.19500 48.08500 25.70000
C  6.29000 47.84200 24.73200
C  4.95600 47.79900 25.34300
C  5.19000 48.12400 26.70700
C  6.55200 48.18500 26.87500
C  3.68900 47.50300 24.55300
C  4.51200 48.27700 27.96500
O  3.34600 48.21200 28.29000
C  5.68000 48.62200 29.06300
C  5.63800 47.53500 30.06800
O  6.28200 46.48600 30.03400
O  4.81000 47.86200 31.12200
C  4.57100 46.80600 32.18000
H  12.46000 50.00700 28.34800
H  12.18500 47.73500 22.17900
H  5.88800 47.14300 22.83400
H  8.17700 50.10400 30.40300
H  10.85700 49.81100 30.32400
H  10.53800 52.10500 30.31800
H  8.98900 52.13200 29.57600
H  10.35700 51.81100 28.52300
H  9.97800 47.87700 31.12700
H  8.55000 47.19900 30.48300
H  7.57700 48.91600 32.44500
H  9.33000 48.74600 32.87500
H  14.88100 50.71900 26.44600
H  15.48800 49.08100 26.75700
H  14.35600 49.78800 27.89200
H  16.38400 49.20800 24.77500
H  15.67400 50.38100 23.66000
H  16.58100 49.13200 22.92700
H  10.18500 46.14700 21.33800
H  7.67300 47.61200 20.81100
H  11.03900 48.58800 20.43900
H  9.39800 48.60200 19.79000
H  10.50000 47.26400 19.31800
H  7.85800 45.37100 20.18000
H  6.70100 45.39000 21.56700
H  9.20500 44.66800 22.68100
H  8.87500 43.77400 21.12000
H  7.73200 43.73700 22.48700
H  3.85700 47.24300 23.50800
H  2.97800 48.32900 24.51800
H  3.16600 46.74200 25.13200
H  5.62600 49.62600 29.48300
H  4.81900 45.82800 31.76800
H  3.58400 46.86700 32.64000
H  5.28200 47.11100 32.94700

