158

Mg 2.55500 -0.98000 44.59400
C  5.81600 -0.49700 43.58900
C  1.60100 1.45200 42.35500
C  -0.72400 -1.97100 44.88100
C  3.54400 -3.97300 46.27900
N  3.58200 0.39700 43.13700
C  4.94500 0.45800 42.98900
C  5.29000 1.52200 41.96000
C  3.98700 2.37300 41.78700
C  2.97400 1.38800 42.46800
C  4.21400 3.77300 42.40200
C  5.98000 0.93800 40.69400
C  7.29800 1.56500 40.24000
H  7.25900 2.34900 38.94400
N  0.67300 -0.14300 43.95000
C  0.52100 0.72700 42.98400
C  -0.88200 1.04500 42.74800
C  -1.55500 0.02200 43.49500
C  -0.57800 -0.77500 44.20900
C  -1.44500 2.22900 41.85900
C  -3.04600 -0.20900 43.44500
O  -3.76700 0.52500 42.83500
C  -3.72600 -1.23400 44.28400
N  1.57700 -2.73700 45.40400
C  0.13400 -2.90000 45.39500
C  -0.23700 -4.14500 46.11200
C  1.15500 -4.84300 46.52100
C  2.15700 -3.79100 46.09700
C  -1.25600 -4.08100 47.28600
C  1.47800 -6.17000 45.78800
C  2.30600 -7.11800 46.54500
N  4.28300 -2.03500 44.90200
C  4.54900 -3.23400 45.63900
C  6.01700 -3.40000 45.65100
C  6.52200 -2.27000 44.91100
C  5.44400 -1.51600 44.50800
C  6.83100 -4.50300 46.20600
C  7.75700 -1.66600 44.35500
O  8.94100 -1.98800 44.46500
C  7.36900 -0.42700 43.48000
C  7.81400 0.82300 44.11200
O  7.39900 1.19500 45.14200
O  8.76000 1.49000 43.42100
C  9.26800 2.65900 44.12700
H  1.33900 2.21600 41.62100
H  -1.73100 -2.39200 44.90300
H  3.94400 -4.66400 47.02300
H  6.04900 2.14500 42.43200
H  3.59800 2.52900 40.78100
H  3.32300 4.40100 42.41300
H  5.11500 4.28500 42.06600
H  4.50100 3.71800 43.45200
H  5.33500 1.01300 39.81900
H  6.02500 -0.11100 40.98600
H  7.99300 0.72500 40.25700
H  7.56300 2.22900 41.06300
H  -2.20400 1.92000 41.14100
H  -0.62400 2.68500 41.30500
H  -1.86700 3.00600 42.49700
H  -4.79100 -1.01800 44.37300
H  -3.26100 -1.20300 45.27000
H  -3.54300 -2.19500 43.80300
H  -0.70900 -4.86500 45.44400
H  1.26000 -4.94400 47.60100
H  -2.11600 -4.68600 47.00000
H  -1.56000 -3.04000 47.39200
H  -0.80400 -4.25300 48.26300
H  1.95800 -5.82100 44.87300
H  0.60400 -6.68900 45.39400
H  1.82000 -8.07100 46.75500
H  2.60700 -6.66100 47.48700
H  3.20900 -7.14400 45.93500
H  6.45400 -4.82500 47.17700
H  7.85100 -4.21800 46.46100
H  6.84800 -5.34800 45.51700
H  7.67800 -0.51900 42.43900
H  10.32400 2.38600 44.13500
H  9.02700 2.90300 45.16100
H  9.25200 3.57400 43.53400
Mg 47.27800 16.03600 28.02600
C  45.34600 15.76500 31.00000
C  49.82300 17.52600 30.11100
C  49.03100 16.94200 25.28200
C  44.77400 14.84000 26.24700
N  47.53600 16.57400 30.27500
C  46.56400 16.35900 31.31300
C  47.12600 16.76600 32.72200
C  48.50700 17.39000 32.32300
C  48.61000 17.18100 30.78500
C  48.65400 18.96700 32.63500
C  47.37000 15.58700 33.63100
C  46.99200 15.78100 35.12500
H  46.80600 17.15400 35.72800
N  49.18200 16.97500 27.70100
C  50.08100 17.45700 28.70400
C  51.29200 17.77500 28.06200
C  51.04700 17.77400 26.65100
C  49.69400 17.28200 26.46300
C  52.63100 17.87900 28.88100
C  51.95100 18.30800 25.50500
O  51.71000 18.25200 24.32000
C  53.28200 18.96800 25.92300
N  46.98700 15.83500 26.10300
C  47.82100 16.25000 25.09800
C  47.16800 16.19200 23.75200
C  45.96100 15.33500 24.03000
C  45.82700 15.38900 25.56600
C  46.93700 17.56000 23.02100
C  46.20500 13.86000 23.59600
C  45.89500 13.50200 22.12600
N  45.52500 15.25300 28.47700
C  44.53200 14.82200 27.60400
C  43.47600 14.29100 28.35500
C  43.69500 14.68800 29.67300
C  44.97800 15.27800 29.69500
C  42.24100 13.60100 27.92200
C  43.11700 14.77000 31.00400
O  42.08000 14.36000 31.52800
C  44.16100 15.52200 31.92100
C  43.49500 16.64800 32.59500
O  43.49900 17.82700 32.21000
O  42.95000 16.19700 33.77100
C  42.18000 17.19800 34.51600
H  50.71600 17.83400 30.65900
H  49.49400 17.20300 24.32800
H  44.08000 14.38600 25.53600
H  46.36200 17.43600 33.11400
H  49.36700 16.90900 32.78800
H  49.58400 19.06600 33.19500
H  47.80600 19.42200 33.14900
H  48.73400 19.52000 31.69900
H  48.38700 15.19700 33.59300
H  46.89500 14.68300 33.25100
H  47.71500 15.27800 35.76700
H  46.00700 15.33300 35.25800
H  53.49700 17.73400 28.23500
H  52.65300 17.11700 29.66000
H  52.57100 18.86400 29.34300
H  53.28300 19.71200 26.72000
H  53.72200 19.29800 24.98200
H  53.84900 18.05200 26.09000
H  47.81000 15.63200 23.07200
H  45.03300 15.67400 23.56700
H  45.85300 17.67000 23.00900
H  47.43800 17.52900 22.05400
H  47.36000 18.37000 23.61600
H  45.60400 13.20200 24.22400
H  47.25100 13.60700 23.76900
H  46.75200 12.94200 21.75100
H  45.87300 14.36300 21.45700
H  45.06100 12.80600 22.03900
H  41.95500 13.00300 28.78800
H  42.32100 12.99900 27.01600
H  41.39300 14.22700 27.64600
H  44.49400 14.84400 32.70700
H  41.64700 16.60400 35.25900
H  41.45300 17.70600 33.88200
H  42.76900 17.99400 34.97200

