158

Mg 26.36800 49.00000 26.12200
C  24.58100 50.51700 28.66000
C  28.78900 48.11600 28.51900
C  28.36800 47.82100 23.64800
C  24.17200 50.29600 23.68600
N  26.69500 49.35200 28.34300
C  25.66700 49.77600 29.17800
C  26.05700 49.44700 30.67900
C  27.48700 48.94300 30.57400
C  27.66300 48.72000 29.09000
C  28.60700 49.90700 31.11900
C  24.96600 48.54200 31.33300
C  25.40100 47.80100 32.59000
H  24.60000 48.10500 33.85700
N  28.22300 47.98200 26.10600
C  29.04800 47.78600 27.17600
C  30.19400 47.06800 26.76000
C  30.19000 47.02700 25.35500
C  28.86200 47.58000 24.93600
C  31.19000 46.54100 27.76900
C  31.24800 46.50100 24.45300
O  31.15800 46.36000 23.22300
C  32.50400 45.98600 25.05600
N  26.26700 49.12000 24.03100
C  27.19800 48.44200 23.24400
C  26.95500 48.71200 21.80100
C  25.53000 49.38800 21.75400
C  25.26200 49.57000 23.18200
C  27.97900 49.56500 21.08900
C  24.46500 48.55100 20.96000
C  23.90600 47.23600 21.72100
N  24.69100 50.16300 26.13100
C  23.87400 50.61500 25.07200
C  22.71600 51.26700 25.66900
C  22.96800 51.28200 27.03600
C  24.19100 50.61500 27.25900
C  21.49600 51.71600 25.03300
C  22.45400 51.64700 28.34100
O  21.34900 52.08000 28.52100
C  23.41400 51.09400 29.41600
C  23.85800 52.18400 30.30600
O  24.82800 52.88500 30.17000
O  23.01600 52.33600 31.36900
C  23.36100 53.36600 32.36200
H  29.36100 47.72100 29.36100
H  28.89700 47.33200 22.82800
H  23.38400 50.65500 23.02200
H  26.05400 50.37300 31.25400
H  27.52600 48.06200 31.21500
H  29.50800 49.90500 30.50400
H  28.87500 49.47100 32.08100
H  28.18800 50.90500 31.25100
H  24.56400 47.78400 30.66000
H  24.07200 49.11800 31.57000
H  26.44600 47.95700 32.85900
H  25.35700 46.72400 32.43000
H  32.11700 47.10000 27.89500
H  31.47500 45.51000 27.56200
H  30.78400 46.41000 28.77100
H  33.17700 45.82500 24.21400
H  32.45200 45.02700 25.57000
H  32.88600 46.81900 25.64500
H  26.86700 47.73800 21.32100
H  25.41000 50.40700 21.38700
H  27.41400 50.15700 20.36900
H  28.64400 48.90500 20.53100
H  28.60100 50.16200 21.75600
H  24.95000 48.27400 20.02400
H  23.64400 49.24100 20.76700
H  24.24100 47.39400 22.74600
H  24.44900 46.39300 21.29400
H  22.81700 47.24700 21.66700
H  21.69300 52.48100 24.28200
H  20.80400 52.09900 25.78300
H  21.01500 50.86900 24.54300
H  22.81800 50.48800 30.09700
H  22.70000 54.20500 32.57900
H  24.37800 53.74000 32.24800
H  23.51600 52.94100 33.35300
Mg -2.58900 35.13700 26.68000
C  -4.28600 33.44200 29.05600
C  -1.15300 37.26600 29.19900
C  -0.85600 36.68100 24.37200
C  -4.28300 33.31000 24.20800
N  -2.79100 35.36900 28.89400
C  -3.47400 34.45100 29.65100
C  -3.34800 34.78300 31.12600
C  -2.41000 36.03000 31.16100
C  -2.08400 36.28800 29.65500
C  -2.86400 37.37700 31.78100
C  -3.09000 33.63400 32.16300
C  -2.30200 34.01300 33.41700
H  -2.64700 33.26100 34.69300
N  -1.40900 36.94600 26.72300
C  -0.90700 37.58500 27.86300
C  -0.02500 38.68500 27.36200
C  -0.06700 38.59000 25.95500
C  -0.79100 37.35500 25.61500
C  0.65400 39.71600 28.28700
C  0.50800 39.61400 24.96000
O  0.44700 39.36600 23.73800
C  1.25800 40.74600 25.39300
N  -2.60200 35.05300 24.46600
C  -1.72600 35.74600 23.77200
C  -1.75500 35.25900 22.26900
C  -2.97500 34.25600 22.27000
C  -3.31200 34.19600 23.76300
C  -1.74400 36.35800 21.15000
C  -2.72200 32.81500 21.71800
C  -1.68800 31.92100 22.34400
N  -3.89400 33.61500 26.57500
C  -4.55200 32.99600 25.52900
C  -5.31400 31.90400 26.02300
C  -5.30800 32.05200 27.40100
C  -4.40500 33.13100 27.66800
C  -6.01900 30.92700 25.19600
C  -5.74500 31.50100 28.65600
O  -6.52300 30.54900 28.76600
C  -5.14500 32.39400 29.76800
C  -6.17500 33.03000 30.52900
O  -6.73700 34.04100 30.22200
O  -6.47300 32.22400 31.66900
C  -7.70200 32.54700 32.41200
H  -0.40600 37.70900 29.86200
H  -0.29400 37.13600 23.55300
H  -4.77400 32.68400 23.46000
H  -4.37600 35.11600 31.26800
H  -1.51500 35.66400 31.66400
H  -3.88500 37.60800 31.47700
H  -2.11100 38.14800 31.61800
H  -2.84800 37.16500 32.85000
H  -2.68900 32.77500 31.62400
H  -4.07100 33.51400 32.62200
H  -2.69800 35.01600 33.58100
H  -1.21800 33.93700 33.33700
H  0.49400 40.73400 27.93200
H  1.70600 39.43100 28.28200
H  0.26100 39.63500 29.30000
H  0.67600 41.51400 25.90300
H  1.75100 41.19300 24.53100
H  2.03100 40.36000 26.05700
H  -0.89600 34.63800 22.01200
H  -3.85500 34.57400 21.71100
H  -0.83100 36.34500 20.55300
H  -2.07200 37.34600 21.47200
H  -2.51800 36.05900 20.44300
H  -2.41300 33.00000 20.68900
H  -3.76300 32.49400 21.69300
H  -1.00000 31.66500 21.53800
H  -2.04900 30.95500 22.69500
H  -1.21400 32.40900 23.19600
H  -6.05100 29.98200 25.73800
H  -5.56100 30.82500 24.21200
H  -7.08400 31.13600 25.09100
H  -4.52100 31.83900 30.46800
H  -8.50200 32.36600 31.69400
H  -7.65400 33.53100 32.87800
H  -7.72200 31.81200 33.21700

