158

Mg 47.69300 45.96600 43.59800
C  44.30600 46.06800 42.75700
C  47.95200 43.04500 41.87300
C  51.06700 46.19900 44.00800
C  47.51800 49.46500 44.29100
N  46.26500 44.64300 42.57000
C  44.97200 44.93600 42.31600
C  44.23800 43.85900 41.54700
C  45.40000 42.78400 41.38600
C  46.62200 43.52500 41.90000
C  45.10100 41.43600 42.07300
C  43.71400 44.34000 40.15100
C  42.38100 43.77900 39.69300
H  42.48100 42.82800 38.51100
N  49.27300 44.78800 42.94300
C  49.13900 43.52700 42.38200
C  50.40600 42.85300 42.21500
C  51.35600 43.76700 42.79100
C  50.62000 45.00700 43.25900
C  50.72700 41.57600 41.42400
C  52.87500 43.56300 42.80400
O  53.36300 42.58000 42.26400
C  53.80400 44.46200 43.55700
N  49.08400 47.66000 43.87700
C  50.37100 47.37600 44.25400
C  50.98500 48.56400 45.06400
C  49.99900 49.74200 44.63800
C  48.81800 48.91700 44.24600
C  50.88500 48.22200 46.56800
C  50.51400 50.63600 43.54100
C  49.73400 51.95500 43.37800
N  46.19700 47.49300 43.82100
C  46.27500 48.78700 44.08200
C  44.94200 49.36300 44.02900
C  44.11400 48.36200 43.56500
C  44.94700 47.23500 43.32900
C  44.53100 50.68400 44.53700
C  42.78500 47.96000 43.35200
O  41.70900 48.60200 43.41300
C  42.80800 46.42300 42.80400
C  41.97300 45.55300 43.64900
O  41.05400 44.79700 43.25500
O  42.47200 45.44900 44.91300
C  41.92000 44.35900 45.78800
H  47.98100 42.07300 41.37700
H  52.02400 46.00700 44.49700
H  47.47700 50.53900 44.48800
H  43.46900 43.48700 42.22400
H  45.70400 42.54500 40.36600
H  45.87000 40.87800 41.53900
H  44.15100 40.99100 41.77300
H  45.41700 41.40100 43.11600
H  44.51800 44.09300 39.45800
H  43.59100 45.42300 40.16500
H  41.69400 44.61100 39.54200
H  42.01600 43.19900 40.54100
H  50.73000 41.55200 40.33400
H  49.98600 40.89100 41.83600
H  51.70600 41.20000 41.71900
H  53.62100 44.50800 44.63100
H  53.81600 45.46700 43.13600
H  54.82600 44.10400 43.43700
H  52.00300 48.77000 44.73400
H  49.64400 50.38000 45.44800
H  51.86100 47.93600 46.95900
H  50.35600 47.28000 46.71800
H  50.34800 48.95400 47.17200
H  50.54300 50.22200 42.53300
H  51.49900 50.89500 43.93000
H  50.39800 52.79500 43.58400
H  48.87400 52.08300 44.03700
H  49.25300 51.92500 42.40000
H  44.61100 51.47800 43.79500
H  45.11000 50.85500 45.44500
H  43.46700 50.66000 44.77300
H  42.40000 46.46800 41.79400
H  41.58500 43.50900 45.19400
H  41.18900 44.76300 46.48800
H  42.78700 43.93400 46.29300
Mg -0.26600 43.88600 25.96800
C  2.06400 43.78500 28.80100
C  -2.75500 43.33200 28.21900
C  -2.31200 43.24400 23.36200
C  2.44900 44.23600 23.91000
N  -0.24000 43.36000 28.25800
C  0.76100 43.47400 29.15500
C  0.15100 43.41400 30.59100
C  -1.32000 43.08800 30.34200
C  -1.46900 43.31500 28.88000
C  -1.71800 41.59100 30.74800
C  0.41000 44.74300 31.37000
C  1.03000 44.71500 32.79800
H  0.69900 43.40900 33.61700
N  -2.36300 43.55700 25.84300
C  -3.21100 43.39200 26.90800
C  -4.54100 43.12400 26.34100
C  -4.47400 43.09500 24.90400
C  -3.05900 43.26000 24.66000
C  -5.74800 43.04000 27.26300
C  -5.53900 42.85300 23.85100
O  -5.33300 42.96400 22.64000
C  -6.85500 42.37000 24.36400
N  0.02400 43.64900 23.97300
C  -0.96100 43.30600 23.10400
C  -0.31600 43.14700 21.69800
C  0.98300 43.98600 21.80200
C  1.18800 43.96000 23.29100
C  -0.08800 41.72300 21.13400
C  0.87500 45.35900 21.08500
C  2.21100 46.04400 20.60500
N  1.83400 44.05800 26.17600
C  2.82600 44.35600 25.27600
C  4.08200 44.55000 26.00100
C  3.80900 44.40400 27.29000
C  2.43400 44.07800 27.39300
C  5.41500 44.85800 25.36600
C  4.46300 44.36600 28.63100
O  5.61400 44.44700 28.94500
C  3.28800 44.00300 29.63600
C  3.73100 42.77000 30.26900
O  3.22600 41.64900 30.00700
O  4.70600 42.96500 31.16900
C  5.21700 41.73700 31.82700
H  -3.57900 43.14100 28.90900
H  -2.85800 43.13500 22.42200
H  3.28900 44.55300 23.28900
H  0.75200 42.60700 31.01000
H  -1.93800 43.70500 30.99400
H  -2.44800 41.61100 31.55700
H  -0.91700 40.92800 31.07500
H  -2.19700 41.11600 29.89200
H  -0.55600 45.21500 31.54700
H  1.07600 45.41300 30.82600
H  0.61500 45.59400 33.29100
H  2.10200 44.85200 32.65900
H  -6.25000 42.07300 27.25400
H  -6.39500 43.77800 26.78900
H  -5.62900 43.41100 28.28100
H  -6.66600 41.38900 24.80100
H  -7.45000 42.21800 23.46300
H  -7.35300 43.15900 24.92700
H  -1.08000 43.63000 21.08800
H  1.84600 43.49200 21.35600
H  -0.79900 41.03600 21.59300
H  0.91100 41.36000 21.37800
H  -0.21300 41.82500 20.05600
H  0.34300 45.98500 21.80100
H  0.27300 45.28900 20.17900
H  2.30500 46.93200 21.23100
H  2.13500 46.28700 19.54500
H  3.06400 45.37200 20.69900
H  5.40300 45.78400 24.79000
H  5.71100 44.12100 24.61900
H  6.19800 44.88100 26.12400
H  3.29200 44.79900 30.38000
H  5.15600 40.88800 31.14500
H  4.45000 41.53700 32.57500
H  6.21500 41.83200 32.25500

