158

Mg 16.77700 52.67400 26.73600
C  18.65000 51.22800 29.32200
C  14.28500 53.37100 28.98100
C  15.06800 53.92600 24.15000
C  19.11200 51.26000 24.50600
N  16.48000 52.23400 28.88900
C  17.50100 51.85400 29.78200
C  17.05100 52.07500 31.24300
C  15.46900 52.26500 31.01700
C  15.35600 52.69300 29.53900
C  14.65000 51.05000 31.44800
C  17.94500 53.13000 31.96600
C  18.10000 53.22200 33.50400
H  17.27500 52.17100 34.41800
N  14.91400 53.59700 26.57900
C  14.03000 53.81300 27.65100
C  12.86800 54.54900 27.08800
C  13.10100 54.69000 25.67500
C  14.37600 54.05600 25.40300
C  11.69200 55.05600 27.94200
C  12.13900 55.32800 24.66700
O  12.39500 55.31400 23.42900
C  10.80300 55.78600 25.10500
N  17.02600 52.51700 24.64700
C  16.27500 53.30000 23.83900
C  16.80800 53.31300 22.35000
C  18.20700 52.55800 22.54700
C  18.12100 52.04800 23.99400
C  15.84000 52.61800 21.37600
C  19.46600 53.56900 22.37200
C  20.17400 53.50200 21.02200
N  18.46400 51.38700 26.80000
C  19.30500 50.93100 25.87200
C  20.34400 50.14300 26.42100
C  20.20900 50.34100 27.80800
C  19.01600 51.05700 28.00900
C  21.39400 49.42900 25.66900
C  20.82600 50.16100 29.13400
O  21.95300 49.79300 29.41100
C  19.74700 50.64700 30.14400
C  19.36900 49.54000 31.07900
O  18.60400 48.58900 30.82700
O  19.96100 49.83200 32.35200
C  19.98800 48.61300 33.23100
H  13.49300 53.58500 29.70200
H  14.56900 54.46700 23.34300
H  19.84800 50.91500 23.77700
H  17.15900 51.16900 31.84000
H  15.05200 53.11000 31.56600
H  15.21300 50.51200 32.21100
H  14.38500 50.31300 30.69100
H  13.71200 51.24800 31.96700
H  17.47000 54.04700 31.62000
H  18.91700 53.19600 31.47600
H  17.78400 54.20300 33.85900
H  19.14600 53.25400 33.80700
H  10.70100 54.68100 27.68600
H  11.70600 56.13900 28.06500
H  11.81700 54.76500 28.98500
H  10.20300 54.97100 25.51200
H  10.22700 55.93200 24.19100
H  10.85200 56.62700 25.79700
H  16.89600 54.37300 22.11100
H  18.37100 51.76100 21.82200
H  15.50400 53.37400 20.66700
H  14.98700 52.13400 21.85300
H  16.18900 51.76300 20.79600
H  20.23900 53.44500 23.13000
H  19.09300 54.58900 22.46500
H  19.82700 52.64500 20.44600
H  21.21500 53.35800 21.31100
H  20.05000 54.42800 20.46000
H  22.21900 49.29700 26.36800
H  21.75800 50.03300 24.83800
H  21.10800 48.51300 25.15100
H  20.15100 51.44500 30.76800
H  18.96300 48.57300 33.60000
H  20.74100 48.70500 34.01300
H  20.22700 47.69900 32.68600
Mg -1.95700 34.64500 27.03800
C  -3.64700 32.80000 29.38700
C  -0.59100 36.50800 29.53600
C  -1.01700 36.81000 24.64000
C  -3.88000 32.91900 24.53400
N  -2.16700 34.67400 29.18800
C  -2.82200 33.75000 29.95900
C  -2.60800 34.00800 31.47200
C  -1.70100 35.26200 31.45900
C  -1.39500 35.43500 29.88800
C  -2.10500 36.59500 32.13300
C  -1.88600 32.82900 32.31100
C  -2.62700 32.67500 33.69200
H  -1.72300 32.52000 34.88300
N  -0.85900 36.37500 27.02000
C  -0.35600 36.97000 28.20600
C  0.49300 38.11400 27.82600
C  0.35800 38.23600 26.39900
C  -0.60200 37.16400 25.94600
C  1.32200 38.93500 28.79000
C  1.01000 39.27500 25.49300
O  0.84300 39.24700 24.25700
C  1.88600 40.37300 25.90600
N  -2.48300 34.88800 24.88600
C  -1.86700 35.85400 24.08500
C  -2.31200 35.63800 22.58300
C  -3.16500 34.35400 22.69600
C  -3.13700 33.98100 24.13500
C  -3.01000 36.85900 22.05200
C  -2.86700 33.27700 21.59500
C  -3.99500 32.96000 20.54900
N  -3.38100 33.13700 26.92600
C  -3.96200 32.48800 25.89100
C  -4.78000 31.43900 26.33300
C  -4.70400 31.50100 27.71400
C  -3.81900 32.53400 28.03600
C  -5.38700 30.44300 25.43600
C  -5.15900 30.91200 28.91400
O  -5.97200 30.05300 29.14400
C  -4.44600 31.67300 30.07500
C  -5.42900 32.39600 30.92000
O  -6.06300 33.34300 30.51400
O  -5.59100 31.73200 32.18500
C  -6.59200 32.46300 33.08000
H  -0.19300 37.03400 30.40600
H  -0.55100 37.41300 23.85700
H  -4.40300 32.49200 23.67600
H  -3.55500 34.34700 31.89300
H  -0.74100 34.99700 31.90100
H  -2.60800 37.24800 31.42000
H  -1.16400 36.94700 32.55600
H  -2.68400 36.37900 33.03100
H  -0.81300 32.99000 32.42200
H  -1.98500 31.97000 31.64700
H  -3.13700 31.71400 33.62400
H  -3.35800 33.47300 33.81600
H  2.36600 38.83400 28.49500
H  1.18600 38.62500 29.82600
H  1.07600 39.99700 28.76600
H  1.29900 41.00500 26.57200
H  2.29200 40.87300 25.02700
H  2.69600 39.97800 26.51900
H  -1.41900 35.55600 21.96300
H  -4.21000 34.64800 22.59700
H  -2.94300 37.66200 22.78600
H  -4.06600 36.64300 21.89000
H  -2.55600 37.18100 21.11500
H  -2.61900 32.32100 22.05600
H  -1.96700 33.62900 21.09000
H  -4.46700 31.99700 20.74700
H  -3.57800 32.85000 19.54800
H  -4.63900 33.83200 20.66300
H  -4.71200 30.29400 24.59300
H  -6.34200 30.69400 24.97500
H  -5.56200 29.49800 25.94900
H  -3.80600 31.00900 30.65600
H  -7.33400 33.09500 32.59300
H  -6.01400 33.11400 33.73600
H  -7.12000 31.77800 33.74300

