158

Mg 35.31200 1.77000 29.74500
C  32.91600 2.46900 32.18200
C  37.78100 2.43300 32.23000
C  37.76800 1.53300 27.42400
C  32.95600 2.24900 27.30700
N  35.31000 2.20200 31.93100
C  34.23500 2.42000 32.68400
C  34.60300 2.48700 34.15900
C  36.11000 2.66400 34.13300
C  36.46300 2.35900 32.68600
C  36.58900 4.15200 34.51200
C  33.98200 1.34800 35.05300
C  33.04000 1.85600 36.19400
H  33.60700 3.10200 36.93800
N  37.49000 1.77200 29.83200
C  38.30400 2.18500 30.92800
C  39.66200 1.84700 30.61200
C  39.69900 1.67500 29.17500
C  38.30100 1.56300 28.71000
C  40.80500 1.87600 31.62100
C  40.93200 1.56300 28.25300
O  40.81900 1.34700 27.05300
C  42.33300 1.53700 28.77500
N  35.38000 1.71800 27.65600
C  36.46600 1.61800 26.94100
C  36.08900 1.57500 25.42700
C  34.52900 1.62800 25.45200
C  34.25000 1.85300 26.88100
C  36.82400 2.63600 24.54200
C  33.82800 0.36500 24.93100
C  32.53100 0.50900 24.14600
N  33.34500 2.22800 29.69800
C  32.53500 2.28400 28.62500
C  31.20000 2.64500 29.13400
C  31.31600 2.66600 30.48900
C  32.61000 2.42400 30.80300
C  29.97300 2.84400 28.32500
C  30.52000 2.79100 31.70300
O  29.34700 3.07300 31.99300
C  31.58500 2.77900 32.87000
C  31.59000 4.12800 33.48800
O  32.11100 5.15200 33.09000
O  30.75700 4.18600 34.59000
C  30.41000 5.49900 35.15700
H  38.51800 2.67300 32.99900
H  38.41400 1.70500 26.56000
H  32.21200 2.31600 26.51000
H  34.17000 3.41200 34.54100
H  36.57100 1.96600 34.83200
H  35.76100 4.76100 34.87700
H  37.16600 4.56800 33.68700
H  37.18800 3.95500 35.40200
H  34.88400 0.85700 35.41900
H  33.45300 0.63000 34.42600
H  32.87100 1.12300 36.98300
H  31.99800 2.10400 35.99400
H  41.56400 2.59300 31.30800
H  41.25000 0.88100 31.61300
H  40.51100 2.12900 32.64000
H  42.36700 0.83600 29.60800
H  42.56600 2.51600 29.19500
H  43.12200 1.19700 28.10400
H  36.43400 0.60700 25.06300
H  34.20300 2.54900 24.96800
H  37.59100 2.04700 24.03900
H  37.44500 3.33200 25.10600
H  36.27100 3.17500 23.77300
H  33.81900 -0.25100 25.83000
H  34.51100 -0.24800 24.34300
H  31.80200 -0.27700 24.34700
H  32.71300 0.42300 23.07500
H  32.11300 1.48200 24.40200
H  29.54100 3.84500 28.32700
H  29.39200 2.13200 28.91100
H  30.11600 2.46000 27.31500
H  31.23400 2.00200 33.55000
H  29.52300 5.44600 35.78800
H  30.29900 6.17100 34.30600
H  31.15900 5.95600 35.80400
Mg 0.46100 42.75900 26.11200
C  2.78200 42.56300 28.74100
C  -1.99300 41.80800 28.32200
C  -1.68000 42.56200 23.44900
C  3.08600 43.45100 24.04700
N  0.44200 42.05500 28.20100
C  1.48400 42.28600 29.13600
C  0.96500 42.23100 30.60300
C  -0.47000 41.60800 30.39600
C  -0.78100 41.84200 28.87700
C  -0.59600 40.12900 30.81700
C  1.07200 43.63400 31.32400
C  1.00900 43.78200 32.91100
H  0.60900 42.49600 33.76200
N  -1.51900 42.27600 25.92400
C  -2.37600 42.00300 26.96300
C  -3.70600 41.90800 26.46000
C  -3.67000 42.06400 25.01500
C  -2.23800 42.27000 24.68600
C  -4.91000 41.68000 27.30100
C  -4.80600 42.02800 24.03000
O  -4.59500 42.16300 22.84300
C  -6.18300 41.77100 24.56100
N  0.68600 42.82500 24.00200
C  -0.31900 42.87000 23.11200
C  0.10700 43.27800 21.67300
C  1.62600 43.56200 21.91200
C  1.84200 43.21400 23.41000
C  -0.21000 42.14500 20.70600
C  2.08600 44.96900 21.56300
C  1.70700 46.02900 22.57800
N  2.53400 43.03800 26.32600
C  3.42500 43.24500 25.36600
C  4.77900 43.27400 25.89400
C  4.62200 42.99400 27.26200
C  3.19500 42.87200 27.42800
C  6.04700 43.31200 25.10800
C  5.23700 42.81400 28.50400
O  6.41700 42.80000 28.76800
C  4.07100 42.54000 29.52400
C  4.30300 41.28900 30.30700
O  3.84200 40.15600 30.06700
O  5.21800 41.51500 31.28900
C  5.68200 40.36100 32.10200
H  -2.71800 41.65700 29.12400
H  -2.32700 42.62700 22.57200
H  3.82900 43.82600 23.34000
H  1.65700 41.58300 31.14100
H  -1.26700 42.14100 30.91400
H  0.38400 39.67100 30.94900
H  -0.98200 39.66500 29.90900
H  -1.25400 39.87500 31.64800
H  0.31300 44.34300 30.99600
H  1.99300 44.12100 31.00400
H  0.34200 44.57900 33.24100
H  1.91800 44.18400 33.35800
H  -5.61500 42.51000 27.27500
H  -4.61100 41.36000 28.30000
H  -5.47200 40.87500 26.82700
H  -6.29200 40.72800 24.85800
H  -6.90900 41.88600 23.75600
H  -6.46200 42.38100 25.42000
H  -0.50400 44.11500 21.33700
H  2.25400 42.86500 21.35800
H  0.33700 42.18000 19.76300
H  -1.28500 41.97400 20.66700
H  0.15700 41.24400 21.19700
H  1.55000 45.13500 20.62800
H  3.17300 45.05200 21.57900
H  1.07000 45.55900 23.32700
H  1.19100 46.85200 22.08400
H  2.66000 46.39900 22.95800
H  6.84900 43.86400 25.60000
H  5.74600 43.70900 24.13900
H  6.45500 42.31900 24.92100
H  4.15900 43.33400 30.26600
H  4.89300 39.62200 32.23700
H  5.84100 40.71100 33.12200
H  6.60900 39.91600 31.73900

