158

Mg -1.82800 17.75300 26.34700
C  -2.11000 15.43000 29.03100
C  -2.30200 20.29300 28.56400
C  -2.27100 19.85900 23.73400
C  -1.79600 15.02900 24.24200
N  -2.18200 17.83100 28.56000
C  -2.10000 16.79900 29.47600
C  -2.27700 17.29400 30.92000
C  -2.43500 18.85200 30.75100
C  -2.33000 19.03200 29.18500
C  -3.62800 19.57800 31.44200
C  -1.09200 16.77100 31.82500
C  -0.48600 17.62000 32.96800
H  -0.15400 16.90100 34.27800
N  -2.11700 19.69100 26.21600
C  -2.26300 20.65800 27.22900
C  -2.12100 22.02700 26.66100
C  -2.13900 21.85800 25.23600
C  -2.15500 20.41700 25.02700
C  -1.84300 23.21200 27.59000
C  -1.98500 22.92400 24.17000
O  -1.78700 22.69500 22.98300
C  -2.23900 24.34100 24.58100
N  -2.17200 17.47600 24.26100
C  -2.18100 18.48500 23.36100
C  -2.03600 18.00400 21.90200
C  -1.99800 16.47200 22.10900
C  -1.92900 16.28300 23.63700
C  -3.31500 18.46800 21.11300
C  -0.74700 15.77400 21.39200
C  0.64600 16.02700 21.95700
N  -1.98700 15.66700 26.56200
C  -1.91700 14.68200 25.60500
C  -1.98300 13.39600 26.24200
C  -2.10000 13.62600 27.60300
C  -2.01300 15.01200 27.74600
C  -1.96600 12.18500 25.46600
C  -2.21600 12.93900 28.85600
O  -2.25000 11.78600 29.23400
C  -2.25400 14.11700 29.77500
C  -1.15900 13.74300 30.65400
O  -0.01600 13.96700 30.45800
O  -1.62300 13.05700 31.74200
C  -0.64100 12.75500 32.83500
H  -2.27200 20.99800 29.39800
H  -2.35700 20.57000 22.91000
H  -1.71600 14.17800 23.56300
H  -3.19300 16.84900 31.31000
H  -1.47000 19.26600 31.04100
H  -3.20000 20.49900 31.83700
H  -4.20800 19.06100 32.20600
H  -4.32000 19.90400 30.66500
H  -0.27300 16.62000 31.12100
H  -1.43500 15.81200 32.21400
H  -1.21300 18.39600 33.20700
H  0.40200 18.03900 32.49700
H  -1.05300 23.88700 27.26200
H  -1.57600 23.00200 28.62600
H  -2.72300 23.85600 27.60000
H  -3.00700 24.34500 25.35500
H  -2.52700 25.08600 23.84000
H  -1.33700 24.68500 25.08600
H  -1.09700 18.43300 21.55300
H  -2.96600 16.06200 21.82100
H  -3.09500 19.00800 20.19200
H  -4.06000 19.14200 21.53500
H  -3.78500 17.56200 20.72900
H  -0.64900 16.31900 20.45300
H  -0.95300 14.71000 21.27700
H  0.93700 15.05000 22.34400
H  0.61700 16.69600 22.81600
H  1.38700 16.41700 21.26000
H  -1.54600 11.31800 25.97700
H  -1.23900 12.38100 24.67900
H  -2.96000 11.97700 25.07100
H  -3.15500 14.27700 30.36700
H  -0.00300 12.02100 32.34000
H  -1.01800 12.31900 33.76000
H  -0.06700 13.65200 33.06500
Mg 6.49000 53.12200 41.01400
C  6.15000 49.71000 41.20000
C  9.76500 52.91600 40.39400
C  6.52600 56.60200 40.89800
C  3.01800 53.46400 41.27200
N  7.74800 51.45400 40.53800
C  7.45100 50.16000 40.81400
C  8.68900 49.37200 40.55000
C  9.81700 50.42900 40.80100
C  9.12700 51.70900 40.59500
C  10.64000 50.25800 42.06200
C  8.94100 48.52100 39.22900
C  8.89900 49.28600 37.89200
H  7.88800 48.83200 36.77200
N  7.88500 54.50900 40.53700
C  9.23400 54.23800 40.26900
C  9.90500 55.46300 39.97800
C  8.93500 56.48900 40.09700
C  7.71000 55.88900 40.58400
C  11.30200 55.41300 39.46900
C  9.23200 57.93400 39.79200
O  10.34800 58.27900 39.56900
C  8.12300 58.91400 39.62400
N  4.90600 54.85200 40.99800
C  5.22600 56.14400 41.08300
C  3.97600 57.01700 41.26800
C  2.84400 55.97500 41.08100
C  3.66300 54.69600 41.08800
C  4.04600 57.77400 42.65200
C  1.98600 56.07200 39.83300
C  0.41300 55.89800 39.98200
N  4.86800 51.94100 41.34200
C  3.47700 52.21900 41.45000
C  2.80200 50.86700 41.63500
C  3.83700 49.91000 41.64400
C  5.03300 50.59600 41.42600
C  1.29200 50.58100 41.83200
C  4.10400 48.54100 41.87700
O  3.34600 47.64200 42.26800
C  5.56800 48.28300 41.49900
C  5.58500 47.43000 40.37500
O  5.03400 47.68800 39.28400
O  6.20800 46.20200 40.69600
C  5.74300 45.08700 39.81300
H  10.82800 52.76400 40.19700
H  6.59300 57.69000 40.96100
H  1.94300 53.58200 41.42600
H  8.72200 48.62400 41.34300
H  10.66600 50.33400 40.12300
H  11.68000 50.54100 41.89700
H  10.53500 49.22000 42.37800
H  10.29200 50.95400 42.82500
H  8.11300 47.81200 39.22300
H  9.77700 47.82500 39.30600
H  9.87500 49.31700 37.40800
H  8.64700 50.33100 38.06900
H  12.12200 55.51800 40.17900
H  11.46400 56.18900 38.72100
H  11.48800 54.46600 38.96300
H  7.27700 58.56300 39.03400
H  8.47600 59.62700 38.87900
H  7.78600 59.46500 40.50200
H  3.99800 57.72900 40.44200
H  2.14800 56.02200 41.91900
H  3.44000 58.67400 42.54700
H  5.08200 57.99000 42.91500
H  3.57800 57.09700 43.36700
H  2.35600 55.49200 38.98700
H  2.13000 57.10900 39.52900
H  0.01800 56.70600 39.36600
H  -0.05000 56.01200 40.96200
H  0.00800 55.02100 39.47600
H  0.92800 50.53200 40.80500
H  0.77000 51.42000 42.29200
H  1.05800 49.66800 42.37900
H  5.88200 47.74000 42.39100
H  6.23800 45.10800 38.84200
H  4.65700 45.13600 39.73100
H  5.99900 44.06800 40.10400

