158

Mg 27.42000 50.22100 26.93300
C  25.17100 51.12600 29.43400
C  29.77700 49.37800 29.39600
C  29.51400 49.20600 24.42300
C  25.10000 51.17200 24.51400
N  27.42400 50.24100 29.16300
C  26.34800 50.56400 29.97500
C  26.69200 50.44700 31.41100
C  28.24100 50.07400 31.41100
C  28.54400 49.85200 29.90700
C  29.10600 51.12800 32.09900
C  25.73200 49.38600 32.16400
C  24.87200 49.81700 33.38700
H  24.92300 48.83600 34.54200
N  29.35600 49.47000 26.93700
C  30.19100 49.21200 28.04100
C  31.42900 48.64600 27.58000
C  31.36500 48.62500 26.11800
C  30.04300 49.13600 25.76400
C  32.47800 48.14900 28.49100
C  32.44800 48.27000 25.14500
O  32.32000 48.27700 23.89600
C  33.75900 47.82300 25.76700
N  27.38000 50.34700 24.79500
C  28.22000 49.63700 23.99200
C  27.81000 49.57300 22.56900
C  26.42500 50.18200 22.64400
C  26.27500 50.64800 24.08400
C  28.82800 50.13200 21.49400
C  25.25500 49.17100 22.20000
C  24.05100 49.82500 21.49800
N  25.53700 51.14700 26.91700
C  24.67700 51.33800 25.91500
C  23.44600 51.93800 26.39600
C  23.54100 51.79300 27.83100
C  24.87700 51.38400 28.04000
C  22.35500 52.50900 25.54900
C  22.80500 52.02900 29.09300
O  21.69100 52.50200 29.26800
C  23.84600 51.57300 30.16900
C  23.97800 52.72100 31.05300
O  24.41300 53.80500 30.76100
O  23.28500 52.42300 32.15900
C  23.15200 53.40400 33.19000
H  30.62000 49.28400 30.08500
H  30.15000 48.82900 23.61900
H  24.29300 51.23100 23.78200
H  26.46300 51.40100 31.88500
H  28.31400 49.23400 32.10300
H  29.60900 51.67000 31.29900
H  29.81900 50.69900 32.80300
H  28.49600 51.89500 32.57500
H  26.14200 48.41700 32.45100
H  25.05300 49.02000 31.39300
H  23.82200 49.91700 33.11300
H  25.14500 50.84700 33.61700
H  32.91900 47.19300 28.20800
H  32.12700 48.15800 29.52300
H  33.23700 48.93000 28.44800
H  33.77900 46.81300 26.17800
H  34.13600 48.61100 26.41900
H  34.36900 47.76600 24.86600
H  27.75000 48.52800 22.26700
H  26.40300 51.11300 22.07800
H  29.47600 50.59800 22.23700
H  28.37000 50.89600 20.86600
H  29.44600 49.50900 20.84800
H  25.02800 48.68900 23.15100
H  25.67200 48.36700 21.59400
H  23.91700 49.39600 20.50400
H  24.09700 50.88600 21.25400
H  23.12100 49.55900 22.00100
H  21.61500 51.70900 25.52900
H  22.69400 52.72400 24.53600
H  21.95600 53.33600 26.13500
H  23.58900 50.66100 30.70700
H  22.11900 53.48300 33.52700
H  23.38700 54.41500 32.85800
H  23.72800 53.14200 34.07700
Mg 10.78300 46.76700 25.88200
C  8.61400 47.04300 28.45200
C  13.23100 48.46300 27.83700
C  13.02600 46.35300 23.41900
C  8.11300 45.91300 23.66000
N  10.86000 47.66000 27.88800
C  9.87500 47.51700 28.90100
C  10.32600 48.15100 30.24900
C  11.51200 49.07000 29.71500
C  11.94800 48.35100 28.40800
C  11.11100 50.58400 29.52300
C  10.86900 47.02300 31.21600
C  10.08300 47.02400 32.53900
H  10.23800 45.69400 33.37400
N  12.86700 47.13800 25.79200
C  13.57200 47.78100 26.68700
C  14.93600 47.63800 26.37600
C  15.04300 47.03200 25.09200
C  13.60600 46.87900 24.72500
C  16.03800 48.21200 27.27900
C  16.27600 46.61700 24.17100
O  16.11000 46.13900 23.08600
C  17.63900 46.87000 24.66200
N  10.55100 46.20700 23.78200
C  11.69700 46.08000 23.00000
C  11.28400 45.51900 21.60600
C  9.75800 45.41800 21.67300
C  9.40000 45.92500 23.09900
C  11.77200 46.45300 20.42800
C  9.13900 44.07500 21.17200
C  9.13400 43.03400 22.25700
N  8.79900 46.48400 26.00000
C  7.80700 46.15000 25.06100
C  6.54900 46.14400 25.74100
C  6.84300 46.53000 27.03900
C  8.21100 46.62600 27.17500
C  5.22700 46.07000 25.04200
C  6.17000 46.81400 28.25000
O  4.98500 46.85800 28.54800
C  7.35200 46.96500 29.23700
C  7.45100 45.87900 30.16900
O  8.24500 44.94200 30.08200
O  6.60700 46.13800 31.24300
C  6.50300 45.11700 32.27600
H  13.88800 49.19700 28.30900
H  13.71000 46.10200 22.60600
H  7.26600 45.83000 22.97600
H  9.49600 48.71900 30.66900
H  12.33300 49.05600 30.43200
H  11.52200 51.12300 30.37600
H  10.02200 50.55600 29.57600
H  11.15200 50.90700 28.48300
H  11.89100 47.28000 31.49300
H  10.77900 45.99200 30.87500
H  9.01800 47.06700 32.31100
H  10.46900 47.80900 33.19000
H  15.72600 48.39700 28.30700
H  16.48900 49.12000 26.88000
H  16.67500 47.33500 27.39500
H  17.70600 47.90800 24.98700
H  18.36700 46.58900 23.90100
H  17.64500 46.18600 25.51000
H  11.91400 44.64900 21.41800
H  9.34700 46.25300 21.10500
H  11.72600 47.50300 20.71800
H  11.01500 46.23700 19.67400
H  12.80300 46.28200 20.11900
H  9.72200 43.62300 20.36900
H  8.15300 44.31200 20.77200
H  9.78200 43.33600 23.08000
H  9.65900 42.13800 21.92400
H  8.13500 42.68200 22.51500
H  4.44900 45.84100 25.77000
H  5.25900 45.33200 24.23900
H  4.94400 46.97300 24.50200
H  7.28000 47.88200 29.82100
H  6.60500 44.08300 31.94900
H  5.49900 45.32700 32.64500
H  7.19900 45.21000 33.11000

