158

Mg 1.22300 -2.62400 44.74300
C  4.56600 -2.20700 44.08300
C  0.68800 0.02700 42.57600
C  -1.95300 -3.50900 44.57400
C  1.99200 -5.67100 46.23400
N  2.54100 -1.28100 43.40100
C  3.82400 -1.25800 43.37800
C  4.38000 0.01900 42.66800
C  3.06600 0.82400 42.38700
C  1.99100 -0.17500 42.83400
C  2.90900 2.17000 43.21400
C  5.23600 -0.25500 41.43000
C  6.36900 0.74200 41.28400
H  6.56200 1.34600 39.87600
N  -0.42200 -1.75300 43.81800
C  -0.46900 -0.74800 42.96200
C  -1.86700 -0.40200 42.59300
C  -2.66300 -1.36200 43.25700
C  -1.69900 -2.26900 43.92800
C  -2.14600 0.73400 41.59300
C  -4.19300 -1.38700 43.33600
O  -4.85700 -0.52400 42.72600
C  -4.98400 -2.45300 43.99100
N  0.16100 -4.39700 45.25900
C  -1.12800 -4.45700 45.22700
C  -1.68500 -5.72000 45.89100
C  -0.41600 -6.49900 46.33100
C  0.68000 -5.42500 45.97700
C  -2.52100 -5.42600 47.09900
C  -0.28700 -7.86300 45.54500
C  -0.30000 -7.92000 43.97100
N  2.90800 -3.68900 45.26700
C  3.05100 -4.93300 45.92400
C  4.43300 -5.20100 46.14500
C  5.09700 -4.04800 45.46900
C  4.12600 -3.31000 44.84300
C  4.92600 -6.42700 46.81400
C  6.40100 -3.51900 45.14500
O  7.52200 -3.94700 45.47000
C  6.13600 -2.29300 44.21600
C  6.73900 -1.01600 44.81900
O  6.62700 -0.73600 45.98100
O  7.44400 -0.23100 43.87300
C  7.81200 1.13300 44.32200
H  0.51800 0.85600 41.88600
H  -3.00100 -3.81100 44.51700
H  2.22000 -6.64200 46.67700
H  4.97600 0.56400 43.39900
H  2.90500 1.08000 41.34000
H  3.78600 2.29700 43.84900
H  2.01200 2.16100 43.83300
H  2.82000 2.98800 42.49900
H  4.52600 -0.27900 40.60300
H  5.64600 -1.26300 41.48600
H  7.26700 0.17700 41.53100
H  6.24000 1.54000 42.01500
H  -3.10800 0.50200 41.13600
H  -1.43400 0.86400 40.77800
H  -2.23400 1.67600 42.13400
H  -4.85500 -2.34000 45.06800
H  -4.77700 -3.47100 43.66100
H  -6.04700 -2.29500 43.81000
H  -2.33600 -6.24700 45.19200
H  -0.47700 -6.75900 47.38800
H  -1.92300 -5.32900 48.00500
H  -3.27000 -6.21300 47.18800
H  -3.21100 -4.60200 46.91700
H  -0.98300 -8.64900 45.83600
H  0.64500 -8.33700 45.85500
H  0.71400 -8.04200 43.59000
H  -0.67300 -6.95800 43.61700
H  -0.90400 -8.69500 43.49800
H  5.98000 -6.24900 47.02700
H  4.86100 -7.26000 46.11400
H  4.34000 -6.68000 47.69800
H  6.47200 -2.47300 43.19500
H  8.53000 1.09700 45.14100
H  6.83000 1.55800 44.52800
H  8.29800 1.65000 43.49400
Mg -12.21200 37.45100 42.89000
C  -9.58100 35.19800 42.65600
C  -10.01700 39.88600 41.87800
C  -14.80100 39.52600 42.62800
C  -14.33600 34.75800 43.66500
N  -9.98100 37.57100 42.46300
C  -9.14200 36.51400 42.40100
C  -7.77200 36.89700 41.82500
C  -7.88800 38.49200 41.91400
C  -9.37200 38.67900 42.10900
C  -6.92200 39.14100 42.93500
C  -7.57900 36.40400 40.34200
C  -6.48600 35.35000 40.13600
H  -6.87000 34.42100 38.97400
N  -12.43700 39.40800 42.26700
C  -11.35400 40.27000 41.96900
C  -11.88600 41.55200 41.68500
C  -13.25000 41.50900 41.86100
C  -13.56900 40.13700 42.31700
C  -10.99300 42.72600 41.22400
C  -14.21100 42.70000 41.67500
O  -13.70200 43.80200 41.40900
C  -15.77500 42.58700 41.70600
N  -14.31100 37.13100 43.07100
C  -15.22800 38.19200 42.96800
C  -16.60800 37.74700 43.45700
C  -16.42200 36.27600 43.83000
C  -14.92800 36.03900 43.52900
C  -17.25700 38.58100 44.54500
C  -17.27700 35.33000 42.88800
C  -16.80600 34.86600 41.45700
N  -12.08400 35.39800 43.02300
C  -13.02100 34.41800 43.29500
C  -12.44200 33.13100 43.29100
C  -11.13500 33.35800 42.95700
C  -10.93300 34.76600 42.85900
C  -13.17000 31.87100 43.56800
C  -9.88300 32.73700 42.84100
O  -9.55600 31.55400 43.01700
C  -8.81100 33.85600 42.60700
C  -7.91300 33.83200 43.89700
O  -7.90900 34.61400 44.77800
O  -6.95300 32.88100 43.78900
C  -5.98900 32.74800 44.90400
H  -9.30200 40.68400 41.66600
H  -15.68100 40.14400 42.82000
H  -15.01000 33.98100 44.03000
H  -6.99200 36.50600 42.47800
H  -7.71800 38.92500 40.92800
H  -6.19300 38.44200 43.34600
H  -7.36400 39.57100 43.83400
H  -6.34600 39.92700 42.44800
H  -7.48300 37.22500 39.63100
H  -8.42800 35.76800 40.09300
H  -6.30000 34.72700 41.01100
H  -5.57200 35.91800 39.96300
H  -11.53800 43.28300 40.46200
H  -10.11700 42.36100 40.69000
H  -10.65100 43.37100 42.03400
H  -15.99700 41.72400 41.07800
H  -16.23100 43.48000 41.27700
H  -16.08300 42.44100 42.74100
H  -17.26600 37.80300 42.58900
H  -16.64600 36.13200 44.88700
H  -17.78900 38.03600 45.32400
H  -17.96900 39.19600 43.99300
H  -16.48800 39.25700 44.91800
H  -18.29500 35.69900 42.76300
H  -17.26300 34.45900 43.54400
H  -16.84000 33.77700 41.47600
H  -15.77800 35.09500 41.17400
H  -17.43200 35.27700 40.66500
H  -13.05600 31.76300 44.64600
H  -12.80000 31.00100 43.02600
H  -14.23200 31.98900 43.35400
H  -8.23900 33.58200 41.72100
H  -5.76900 31.68200 44.95300
H  -6.36400 33.18800 45.82800
H  -5.11200 33.25900 44.50700

