158

Mg 24.13700 -5.56000 45.33900
C  26.19600 -3.13900 43.86200
C  21.41700 -4.28400 43.55500
C  22.50900 -8.36600 45.83400
C  26.98900 -6.76700 47.03900
N  23.84500 -3.86500 43.93200
C  24.84400 -3.03300 43.47600
C  24.34700 -2.10400 42.34300
C  22.78700 -2.29500 42.48000
C  22.62100 -3.58200 43.40700
C  21.97700 -0.96900 42.92600
C  24.91400 -2.49300 40.94400
C  25.39800 -1.31000 40.07100
H  25.07900 -1.44000 38.56100
N  22.18000 -6.16900 44.94300
C  21.16800 -5.49300 44.23000
C  20.05600 -6.28200 44.09000
C  20.32000 -7.45400 44.75900
C  21.71700 -7.35200 45.20900
C  18.72800 -5.83900 43.36500
C  19.31800 -8.61600 44.99200
O  18.19900 -8.49300 44.46700
C  19.59300 -9.69300 45.97100
N  24.66700 -7.32700 46.39500
C  23.76900 -8.31100 46.44900
C  24.44700 -9.49700 47.18100
C  25.90000 -9.00500 47.63000
C  25.90200 -7.59900 47.00800
C  23.52600 -10.07100 48.36600
C  27.01400 -9.93300 47.10100
C  28.19300 -10.28400 47.96400
N  26.18900 -4.93700 45.57200
C  27.15600 -5.55900 46.33500
C  28.49800 -4.85900 46.20600
C  28.16800 -3.87700 45.16400
C  26.71100 -4.02800 44.83300
C  29.80500 -5.38900 46.70000
C  28.71500 -2.86900 44.15000
O  29.91400 -2.51400 43.88300
C  27.49200 -2.34300 43.39200
C  27.45400 -0.88100 43.60800
O  26.87300 -0.35500 44.57000
O  27.98100 -0.23900 42.55800
C  27.85100 1.22900 42.61800
H  20.61000 -3.91800 42.91600
H  22.01700 -9.32900 45.98800
H  27.81600 -7.18500 47.61600
H  24.57200 -1.08100 42.64500
H  22.38400 -2.63900 41.52800
H  22.64000 -0.11100 43.04100
H  21.70500 -1.24200 43.94500
H  21.11100 -0.76700 42.29500
H  24.12500 -2.89500 40.30800
H  25.70200 -3.22500 41.11600
H  26.46800 -1.12600 40.16600
H  24.97500 -0.44000 40.57400
H  18.79700 -6.02100 42.29200
H  18.74200 -4.76600 43.55700
H  17.76900 -6.24000 43.69200
H  18.62700 -10.02300 46.35200
H  20.17100 -9.26900 46.79200
H  20.16300 -10.44800 45.42900
H  24.48700 -10.30300 46.44900
H  25.83800 -8.89300 48.71300
H  24.13100 -10.39500 49.21200
H  23.16300 -11.03200 48.00100
H  22.68400 -9.41200 48.58000
H  27.34500 -9.50900 46.15300
H  26.56700 -10.87900 46.79600
H  28.13500 -11.32400 48.28800
H  28.17300 -9.63200 48.83800
H  29.01100 -10.12200 47.26100
H  30.13700 -4.90200 47.61700
H  30.55000 -5.36300 45.90500
H  29.86300 -6.40700 47.08400
H  27.63000 -2.48500 42.32000
H  27.83100 1.56300 41.58100
H  28.76700 1.66200 43.02100
H  26.99900 1.68400 43.12200
Mg 47.99400 25.57800 29.98000
C  48.81500 28.03300 32.33000
C  46.77200 23.68200 32.60000
C  47.37700 23.19700 27.79100
C  49.45800 27.50800 27.53200
N  47.83500 25.90000 32.27400
C  48.20400 26.92100 33.00900
C  47.80000 26.77900 34.48500
C  47.35500 25.29100 34.51600
C  47.36000 24.90900 32.99800
C  48.29500 24.40000 35.31900
C  46.81200 27.79600 35.04600
C  47.33000 28.45300 36.39800
H  46.18800 28.60600 37.43400
N  47.12900 23.81100 30.19100
C  46.66800 23.18500 31.29900
C  45.95800 21.96900 30.94500
C  46.04600 21.85500 29.57200
C  46.94300 22.94900 29.12100
C  45.20600 21.12500 32.07000
C  45.43900 20.84800 28.71300
O  45.64100 20.84800 27.48800
C  44.58200 19.78600 29.29700
N  48.19800 25.45200 27.91900
C  48.01600 24.30300 27.27300
C  48.45500 24.38300 25.85900
C  48.81000 25.93900 25.72800
C  48.83200 26.33900 27.14100
C  49.59600 23.45100 25.44700
C  47.73700 26.87300 24.96300
C  48.44700 28.02000 24.19400
N  48.91800 27.37300 29.90500
C  49.55300 28.05600 28.84400
C  50.05700 29.32600 29.31700
C  49.81600 29.31500 30.63800
C  49.09600 28.13700 30.97200
C  50.85300 30.32500 28.45800
C  50.01600 30.10500 31.82200
O  50.52700 31.17600 31.99300
C  49.37000 29.30000 32.97400
C  50.45300 29.04100 34.00500
O  51.53700 28.48300 33.84300
O  50.03300 29.58600 35.22800
C  51.02200 29.71900 36.31500
H  46.65800 22.95200 33.40400
H  47.16000 22.38700 27.09100
H  49.83200 28.20200 26.77600
H  48.72200 26.72300 35.06400
H  46.33200 25.10900 34.84500
H  47.99700 23.35400 35.37400
H  48.50800 24.76800 36.32200
H  49.22600 24.46000 34.75400
H  45.86000 27.26500 35.06700
H  46.59800 28.57700 34.31600
H  47.62500 29.43300 36.02400
H  48.20800 28.01000 36.86800
H  45.61500 20.13400 32.26400
H  44.21800 20.89200 31.67200
H  44.93500 21.74200 32.92700
H  43.56100 20.08100 29.53700
H  45.06200 19.31800 30.15600
H  44.51400 18.99500 28.54900
H  47.60600 24.18300 25.20600
H  49.77700 26.08000 25.24500
H  50.49300 23.93800 25.06300
H  49.24300 22.81400 24.63500
H  49.91600 22.88800 26.32400
H  47.01500 27.37500 25.60800
H  47.24100 26.15000 24.31600
H  48.23100 28.01600 23.12600
H  49.52800 27.89700 24.24500
H  48.17500 28.98500 24.62300
H  50.89800 29.97100 27.42800
H  51.85000 30.50100 28.86200
H  50.34300 31.28400 28.36600
H  48.58500 29.93400 33.38600
H  52.03900 29.58500 35.94700
H  50.80100 28.95600 37.06100
H  50.87900 30.71900 36.72500

