158

Mg 16.45400 -2.83800 27.04600
C  15.66100 -0.43700 29.49900
C  18.36800 -4.48200 29.42100
C  17.62900 -4.75400 24.57300
C  14.90900 -0.66400 24.54600
N  17.22200 -2.20700 29.14600
C  16.57800 -1.37400 30.00600
C  17.08100 -1.48200 31.54000
C  18.07300 -2.77700 31.37900
C  17.93800 -3.17200 29.83600
C  19.52400 -2.54000 31.74400
C  15.97000 -1.62900 32.57500
C  15.81100 -0.66500 33.65100
H  17.12200 -0.07800 34.25000
N  17.64000 -4.55500 27.08900
C  18.30300 -5.14100 28.13900
C  18.88900 -6.35200 27.66400
C  18.73000 -6.38300 26.26000
C  17.94600 -5.24300 25.88200
C  19.82300 -7.06800 28.50100
C  19.32400 -7.38500 25.30100
O  19.07700 -7.37300 24.06800
C  20.14100 -8.70100 25.86000
N  16.21700 -2.76100 24.91700
C  16.95100 -3.65400 24.14600
C  16.90100 -3.30300 22.62200
C  15.78700 -2.17400 22.64800
C  15.63600 -1.83300 24.10400
C  18.26300 -2.78700 22.02600
C  14.53300 -2.41400 21.83700
C  13.26100 -2.54500 22.59500
N  15.51600 -0.97800 26.95000
C  14.83800 -0.27000 25.95600
C  14.09000 0.89800 26.60900
C  14.40400 0.84800 27.97100
C  15.30600 -0.30600 28.13400
C  13.16000 1.83500 25.95800
C  14.11700 1.58100 29.25200
O  13.43700 2.55200 29.49600
C  14.87600 0.65200 30.22600
C  15.90500 1.61100 30.91500
O  16.99500 1.85500 30.40900
O  15.50000 2.23400 32.06900
C  16.43600 3.34100 32.51800
H  18.91600 -5.06000 30.16800
H  18.01100 -5.19300 23.64900
H  14.39100 -0.02000 23.83300
H  17.58300 -0.54500 31.78200
H  17.86200 -3.60700 32.05200
H  19.85700 -3.20300 32.54300
H  19.63300 -1.49600 32.04000
H  20.17100 -2.71700 30.88500
H  15.92900 -2.59900 33.07200
H  15.08100 -1.58700 31.94500
H  15.51100 -1.29000 34.49200
H  15.10300 0.14000 33.45400
H  20.83900 -7.00700 28.11200
H  19.64100 -8.13900 28.59000
H  19.78500 -6.74500 29.54100
H  19.53300 -9.36500 26.47500
H  21.04500 -8.30100 26.31800
H  20.63600 -9.28100 25.08100
H  16.56700 -4.14300 22.01200
H  16.17700 -1.25500 22.20900
H  19.10800 -3.21300 22.56700
H  18.41600 -1.71000 22.10100
H  18.35500 -3.07800 20.98000
H  14.74900 -3.25000 21.17200
H  14.42900 -1.48000 21.28400
H  13.40700 -3.04000 23.55500
H  12.60100 -3.19800 22.02300
H  12.77800 -1.58300 22.76500
H  12.74600 1.19500 25.17900
H  13.63400 2.72000 25.53200
H  12.52200 2.11900 26.79500
H  14.15500 0.33000 30.97800
H  16.29300 4.29000 32.00200
H  17.50000 3.10400 32.51600
H  16.24100 3.54700 33.57100
Mg -9.48500 41.17700 42.42900
C  -8.55500 38.05400 41.17800
C  -7.11700 42.61700 40.36900
C  -10.86300 44.05000 43.15700
C  -12.27900 39.54500 43.66600
N  -8.04000 40.51700 40.97700
C  -7.76600 39.18700 40.73600
C  -6.45000 39.00400 40.01100
C  -5.91900 40.46000 39.86700
C  -7.09100 41.26000 40.51900
C  -4.54600 40.75400 40.58700
C  -6.61200 38.31600 38.65100
C  -5.97700 36.93200 38.43200
H  -4.89100 36.73900 37.39000
N  -9.03900 43.12400 41.88100
C  -8.01300 43.46900 41.06600
C  -7.93200 44.90900 41.14200
C  -8.99900 45.38900 41.92300
C  -9.72300 44.17700 42.35700
C  -6.94500 45.78100 40.35100
C  -9.41000 46.88200 42.18800
O  -8.58500 47.79000 41.89200
C  -10.71600 47.29400 42.72100
N  -11.27600 41.71600 43.20700
C  -11.59200 42.98500 43.52400
C  -12.98100 43.12900 44.21700
C  -13.42700 41.59100 44.23100
C  -12.27900 40.92900 43.67500
C  -12.86200 43.68100 45.65800
C  -14.69500 41.25200 43.35400
C  -15.48000 40.07600 43.97700
N  -10.25800 39.18200 42.55000
C  -11.35000 38.68500 43.14500
C  -11.41600 37.28500 43.08100
C  -10.29000 36.98800 42.23000
C  -9.69500 38.17700 41.96600
C  -12.48400 36.18800 43.61500
C  -9.63100 35.81500 41.56400
O  -9.90600 34.60500 41.60500
C  -8.37300 36.45300 40.89600
C  -7.21600 35.78200 41.54300
O  -6.59300 36.25400 42.43200
O  -6.92200 34.67300 40.77000
C  -5.82000 33.82500 41.29700
H  -6.29200 43.12500 39.86500
H  -11.34700 44.90200 43.64000
H  -13.13500 38.96900 44.02300
H  -5.76200 38.49900 40.68900
H  -5.89700 40.75400 38.81800
H  -3.76500 40.00400 40.46100
H  -4.61300 40.96000 41.65500
H  -4.20000 41.61500 40.01400
H  -6.06400 38.89900 37.91100
H  -7.62000 38.35100 38.23800
H  -6.73600 36.20300 38.14700
H  -5.62700 36.49600 39.36800
H  -6.11600 45.28700 39.84400
H  -6.48400 46.39500 41.12400
H  -7.44700 46.40700 39.61200
H  -10.69600 47.10400 43.79400
H  -11.49800 46.93600 42.05200
H  -10.80200 48.37800 42.64000
H  -13.70300 43.67200 43.60800
H  -13.71200 41.13800 45.18100
H  -13.16800 42.89400 46.34700
H  -13.60100 44.48200 45.63600
H  -11.96300 44.25900 45.86900
H  -14.29800 41.09300 42.35100
H  -15.37900 42.08700 43.20200
H  -15.26100 39.84000 45.01800
H  -15.39100 39.19500 43.34200
H  -16.52700 40.37600 43.94300
H  -13.50600 36.31100 43.25700
H  -12.47200 36.34200 44.69400
H  -12.04700 35.21500 43.39000
H  -8.30500 36.23600 39.82900
H  -5.20300 34.21700 42.10500
H  -5.21800 33.41500 40.48600
H  -6.48300 33.00200 41.56600

