158

Mg -9.92700 39.77300 39.75100
C  -8.61100 36.60400 38.98600
C  -6.91400 41.16100 38.94000
C  -11.44300 42.91600 39.61700
C  -13.01500 38.33900 39.90800
N  -8.00900 38.90700 39.04500
C  -7.67900 37.60100 38.86900
C  -6.20200 37.50200 38.49300
C  -5.61700 38.92200 38.70800
C  -6.92000 39.74800 38.84800
C  -4.56100 39.12400 39.84800
C  -6.02500 36.98400 37.02200
C  -6.69700 37.79700 35.79700
H  -7.45400 37.05500 34.71300
N  -9.19500 41.80700 39.38400
C  -7.94400 42.13600 39.06200
C  -7.86900 43.55700 38.87700
C  -9.11400 44.09500 39.14000
C  -10.01700 42.93500 39.39600
C  -6.65300 44.26000 38.23700
C  -9.45600 45.65400 38.99700
O  -8.63100 46.52100 38.72600
C  -10.90700 46.15700 39.24000
N  -11.89800 40.52800 39.85800
C  -12.31000 41.82500 39.85500
C  -13.85300 42.00900 40.01500
C  -14.31400 40.54200 39.99300
C  -12.99100 39.74600 39.90000
C  -14.34400 42.80100 41.23600
C  -15.28500 40.25800 38.76700
C  -16.34600 39.12100 38.93700
N  -10.70600 37.78700 39.78700
C  -12.02500 37.39500 39.72000
C  -12.04400 35.94700 39.70200
C  -10.74800 35.57900 39.38400
C  -9.98300 36.77300 39.41700
C  -13.32900 35.11500 39.82500
C  -9.88800 34.45200 39.05500
O  -10.13200 33.27400 38.92200
C  -8.47400 35.10200 38.85700
C  -7.42000 34.50500 39.82200
O  -7.55600 34.35400 41.01900
O  -6.42300 34.01500 39.04200
C  -5.42900 33.06700 39.70100
H  -5.88500 41.51700 38.85700
H  -12.09300 43.79300 39.63700
H  -14.00600 37.89000 39.99600
H  -5.77200 36.71300 39.11000
H  -5.13900 39.26000 37.78900
H  -4.71500 40.16000 40.14900
H  -3.54000 38.94600 39.51000
H  -4.80900 38.41900 40.64100
H  -6.35300 35.96700 36.80400
H  -4.95000 37.03100 36.84900
H  -5.86800 38.22300 35.23100
H  -7.31300 38.64900 36.08400
H  -6.69400 44.51000 37.17700
H  -5.72900 43.68500 38.28600
H  -6.54400 45.13900 38.87200
H  -11.33200 45.72400 40.14600
H  -11.53600 45.74000 38.45300
H  -11.09800 47.22600 39.14700
H  -14.11600 42.62800 39.15800
H  -14.82000 40.31500 40.93100
H  -14.87000 42.25100 42.01600
H  -14.96400 43.68200 41.07100
H  -13.46800 43.27100 41.68400
H  -14.69000 40.11400 37.86600
H  -15.86000 41.16600 38.58400
H  -17.32500 39.59900 38.91600
H  -16.21500 38.62400 39.89800
H  -16.32800 38.36500 38.15200
H  -14.05900 35.60700 39.18200
H  -13.68200 35.02300 40.85200
H  -13.25300 34.05400 39.58700
H  -8.14000 34.79100 37.86700
H  -5.80200 32.09800 39.36700
H  -5.30200 32.94700 40.77700
H  -4.52600 33.07000 39.09000
Mg -10.22400 17.62200 41.15300
C  -6.84100 17.57100 41.09800
C  -10.14500 21.07700 40.64400
C  -13.57100 17.75400 40.57700
C  -10.35700 14.19600 41.03600
N  -8.63000 19.13000 40.83800
C  -7.31600 18.84200 40.84700
C  -6.57500 20.10500 40.54400
C  -7.61400 21.29000 40.91100
C  -8.86300 20.49100 40.90300
C  -7.35300 22.02200 42.20700
C  -6.06300 20.18100 39.07400
C  -4.64800 19.70900 38.85000
H  -4.34400 18.75700 37.66400
N  -11.63400 19.17200 40.64600
C  -11.37300 20.49200 40.51600
C  -12.65200 21.22800 40.29900
C  -13.65100 20.31700 40.32700
C  -12.99300 19.01200 40.51500
C  -12.73800 22.72200 40.14200
C  -15.12600 20.54900 40.18800
O  -15.43400 21.73000 40.08400
C  -16.14100 19.58200 40.29300
N  -11.75300 16.12100 40.88800
C  -13.03100 16.46600 40.75400
C  -13.92900 15.20600 40.91800
C  -12.90300 14.02500 40.87100
C  -11.61600 14.81900 40.92400
C  -14.76500 15.25600 42.16400
C  -12.96500 13.01300 39.69400
C  -12.31400 13.49300 38.38600
N  -8.87200 16.12900 41.14500
C  -9.08300 14.75000 41.10000
C  -7.78100 14.09900 41.00800
C  -6.90800 15.13900 41.12800
C  -7.56100 16.38400 41.16700
C  -7.61700 12.64900 40.88000
C  -5.49500 15.50400 41.16100
O  -4.52300 14.75400 41.16600
C  -5.37600 17.11300 41.14400
C  -4.69400 17.59000 42.37500
O  -3.54000 17.23800 42.58200
O  -5.48700 18.35300 43.16900
C  -4.80600 19.08100 44.27300
H  -10.13500 22.16600 40.56500
H  -14.64700 17.65800 40.41600
H  -10.47400 13.12100 40.88300
H  -5.74500 20.10500 41.25100
H  -7.79100 21.93200 40.04800
H  -6.28000 22.13800 42.36500
H  -7.84900 21.51100 43.03200
H  -7.87700 22.97600 42.16200
H  -6.33300 21.14900 38.65200
H  -6.67800 19.45100 38.54700
H  -4.01200 19.37000 39.66800
H  -4.16700 20.63000 38.51800
H  -13.24000 22.87000 39.18600
H  -11.79800 23.25700 40.00900
H  -13.39100 23.11600 40.92100
H  -16.06500 18.89800 39.44800
H  -17.14200 20.01400 40.30900
H  -15.93900 19.11400 41.25600
H  -14.60100 15.14600 40.06200
H  -13.08700 13.36900 41.72200
H  -14.39600 15.95200 42.91800
H  -14.83200 14.27100 42.62500
H  -15.74900 15.62200 41.86800
H  -14.01800 12.82200 39.48700
H  -12.55100 12.07900 40.07300
H  -11.41900 12.93000 38.12100
H  -12.19500 14.57600 38.41100
H  -12.96700 13.37400 37.52200
H  -8.25600 12.25700 40.08900
H  -7.89600 12.04400 41.74300
H  -6.59900 12.33100 40.65500
H  -4.85700 17.50500 40.27000
H  -5.38600 18.89600 45.17700
H  -4.88400 20.15900 44.12900
H  -3.79200 18.74500 44.48800

