158

Mg 54.18500 22.83500 45.41600
C  51.85700 24.98400 43.68400
C  52.43000 20.17100 44.15000
C  56.88500 21.19700 46.01400
C  55.86500 25.91000 46.30800
N  52.37200 22.66000 44.12800
C  51.62700 23.63000 43.53100
C  50.41300 23.07600 42.72700
C  50.42200 21.48400 43.22200
C  51.88200 21.42100 43.78000
C  49.33400 21.10600 44.30900
C  50.52500 23.10400 41.21200
C  49.11700 23.26900 40.46300
H  49.01700 22.55900 39.11000
N  54.60700 20.91900 45.09500
C  53.69600 19.91000 44.72600
C  54.47700 18.64700 44.74700
C  55.78700 18.97600 45.24900
C  55.83700 20.39600 45.48700
C  53.89200 17.39200 44.20800
C  56.86100 17.91900 45.41500
O  56.60900 16.72900 45.15800
C  58.32200 18.16700 45.97700
N  56.12200 23.56800 46.14300
C  57.06600 22.57500 46.35100
C  58.43300 23.21300 46.72800
C  57.96100 24.66900 47.08800
C  56.60200 24.76800 46.43300
C  59.42600 22.45700 47.68900
C  58.90700 25.84000 46.57600
C  59.11400 26.90300 47.63200
N  53.91900 25.01200 45.11100
C  54.62800 26.08300 45.60600
C  53.97800 27.32700 45.22500
C  52.84800 26.96900 44.47300
C  52.89300 25.54900 44.39400
C  54.45300 28.58700 45.76700
C  51.75100 27.42800 43.69900
O  51.42300 28.57300 43.53300
C  51.05700 26.16500 43.15200
C  51.27200 26.31300 41.70500
O  52.33700 26.16000 41.11300
O  50.12800 26.73600 41.10700
C  50.26700 27.27700 39.82200
H  51.87900 19.28300 43.83300
H  57.68600 20.52300 46.32700
H  56.37900 26.79900 46.67900
H  49.48600 23.51800 43.09000
H  50.08900 20.78500 42.45500
H  49.13900 20.03700 44.22000
H  48.43100 21.70800 44.20800
H  49.70900 21.33200 45.30700
H  50.84000 22.12100 40.86100
H  51.26900 23.86900 40.99100
H  48.90600 24.32600 40.30300
H  48.32400 22.88500 41.10500
H  52.94100 17.50900 43.68900
H  53.93900 16.57100 44.92400
H  54.61200 17.01100 43.48400
H  58.85500 19.00500 45.52800
H  58.92100 17.26000 45.89800
H  58.18700 18.25300 47.05500
H  58.88900 23.25400 45.73800
H  57.94200 24.83600 48.16500
H  59.64800 23.11800 48.52700
H  60.28000 22.24500 47.04500
H  59.04400 21.45000 47.85500
H  58.55200 26.32600 45.66700
H  59.92500 25.45200 46.61300
H  60.19600 27.02400 47.69700
H  58.49100 26.83500 48.52300
H  58.71500 27.80700 47.17100
H  55.41900 28.82800 45.32300
H  54.59700 28.50100 46.84400
H  53.68700 29.31300 45.49500
H  50.01700 26.19700 43.47800
H  50.86300 28.18200 39.93800
H  49.26500 27.55200 39.48900
H  50.70000 26.57400 39.11100
Mg 8.68400 48.49400 27.87800
C  7.09900 47.68500 30.88100
C  11.62500 48.64400 29.70700
C  10.35500 49.66400 25.20300
C  5.73000 48.80300 26.36200
N  9.23500 48.22600 30.06500
C  8.45500 47.85300 31.13500
C  9.19100 47.88400 32.50800
C  10.67300 48.27200 32.01800
C  10.50700 48.40300 30.53500
C  11.25800 49.59600 32.66000
C  9.07000 46.68200 33.44100
C  8.74200 46.99000 34.90200
H  9.48300 46.03200 35.87700
N  10.72400 48.95600 27.44100
C  11.76000 48.83900 28.33900
C  12.96700 49.01200 27.64700
C  12.66600 49.31400 26.30100
C  11.19500 49.39500 26.25600
C  14.37700 48.85900 28.29000
C  13.56300 49.75700 25.09200
O  13.15800 50.14600 24.02600
C  15.06400 49.43900 25.18800
N  8.11700 49.11000 26.04200
C  9.00100 49.61800 25.07100
C  8.18800 50.15100 23.87400
C  6.72900 49.75400 24.24300
C  6.85300 49.08800 25.60400
C  8.39500 51.67400 23.60400
C  6.07400 48.78700 23.23100
C  6.73200 47.45800 22.75300
N  6.80000 48.05300 28.39900
C  5.65100 48.21300 27.66000
C  4.44900 47.89400 28.47400
C  5.00000 47.75000 29.72600
C  6.42600 47.83700 29.69100
C  2.97500 47.79300 27.98000
C  4.65300 47.38100 31.13800
O  3.55200 47.08100 31.54700
C  5.97700 47.27600 31.88300
C  6.05100 45.78200 32.24200
O  6.51800 44.95000 31.54100
O  5.39800 45.54000 33.46200
C  5.52000 44.16900 34.07200
H  12.57800 48.67200 30.23900
H  10.84700 50.07100 24.31700
H  4.78300 48.95100 25.83800
H  8.77700 48.75100 33.02400
H  11.32900 47.40200 32.03100
H  12.34200 49.51500 32.58300
H  10.91900 49.83200 33.66800
H  11.09800 50.41300 31.95600
H  10.03400 46.18100 33.52600
H  8.51300 45.92300 32.89100
H  7.68800 46.73700 35.01600
H  8.82800 48.05900 35.09600
H  14.82700 47.92300 27.96100
H  14.32900 48.94600 29.37500
H  14.99400 49.68100 27.92700
H  15.66500 50.18200 25.71200
H  15.42800 49.27800 24.17300
H  15.08400 48.50700 25.75300
H  8.55500 49.70800 22.94800
H  6.09600 50.63900 24.31100
H  9.21100 51.78000 22.89000
H  8.62400 52.08400 24.58700
H  7.58100 52.32200 23.27800
H  5.97600 49.36900 22.31500
H  5.04800 48.51200 23.47400
H  7.35900 47.63200 21.87800
H  5.91300 46.76300 22.56600
H  7.45300 47.08200 23.47900
H  2.57600 48.77500 27.72600
H  2.36700 47.35700 28.77300
H  2.97100 47.16100 27.09100
H  6.03200 47.86000 32.80200
H  6.33900 44.11800 34.79000
H  5.54700 43.35300 33.35000
H  4.62500 44.08300 34.68900

