158

Mg 47.61100 25.11700 27.84600
C  48.41000 27.27000 30.46700
C  46.94600 22.70600 30.27100
C  47.31200 22.95900 25.35400
C  49.11400 27.38300 25.61200
N  47.34700 25.09000 30.11800
C  47.81000 26.10600 30.95500
C  47.55900 25.78400 32.41300
C  47.01600 24.34900 32.28600
C  47.09500 24.00200 30.82900
C  47.60200 23.21400 33.20200
C  46.41200 26.73000 32.90900
C  45.83900 26.30000 34.28300
H  45.47200 27.38300 35.34000
N  47.20300 23.12700 27.77500
C  46.89600 22.28900 28.88900
C  46.61800 20.92500 28.43300
C  46.73300 21.02400 26.97900
C  47.16900 22.40700 26.61200
C  46.17400 19.71400 29.26900
C  46.34800 20.02100 25.96700
O  46.50100 20.20300 24.78200
C  45.67500 18.66000 26.24200
N  48.19700 25.20600 25.84500
C  47.85700 24.17300 24.98900
C  48.03900 24.59900 23.50700
C  48.32200 26.09700 23.60700
C  48.63700 26.21200 25.07300
C  49.19200 23.78300 22.73100
C  47.07100 27.00500 23.16700
C  47.44200 28.00600 22.06200
N  48.54800 26.98800 27.94600
C  49.15600 27.80600 26.94000
C  49.69200 28.95100 27.61700
C  49.44800 28.84200 28.99200
C  48.68700 27.62100 29.14400
C  50.43500 30.04900 26.90800
C  49.69300 29.37300 30.26400
O  50.28800 30.41700 30.59400
C  49.11100 28.38700 31.23200
C  50.22700 27.93400 32.17000
O  50.87800 26.95900 31.92300
O  50.27100 28.68700 33.32500
C  51.41700 28.34800 34.16200
H  46.78200 21.82400 30.89400
H  47.04500 22.35100 24.48800
H  49.46100 28.00000 24.78100
H  48.45700 25.94900 33.00900
H  45.99000 24.27700 32.64500
H  47.93400 22.30100 32.70700
H  47.03800 22.89700 34.07900
H  48.58900 23.55600 33.51600
H  45.59000 26.75400 32.19300
H  46.74700 27.76200 33.01400
H  46.51000 25.62800 34.81600
H  44.89900 25.80300 34.04400
H  46.61900 18.77600 28.93600
H  45.09500 19.68400 29.12400
H  46.49000 19.83400 30.30500
H  45.27900 18.12600 25.37900
H  44.81700 18.81200 26.89700
H  46.49300 18.06400 26.64800
H  47.08700 24.46300 22.99400
H  49.19600 26.37700 23.01800
H  50.12300 24.34100 22.62900
H  48.89200 23.65600 21.69100
H  49.34800 22.82900 23.23600
H  46.70700 27.50500 24.06500
H  46.27900 26.34600 22.81200
H  47.00500 27.62400 21.13900
H  48.52600 28.04800 21.95700
H  47.13300 29.00300 22.37600
H  50.96900 30.67300 27.62500
H  49.76800 30.69800 26.34000
H  51.20600 29.65900 26.24300
H  48.43100 28.87500 31.93100
H  52.28700 28.37800 33.50800
H  51.27500 27.37700 34.63600
H  51.53600 29.02400 35.00900
Mg 41.82900 40.70500 26.43900
C  40.97000 43.08300 29.05700
C  42.83700 38.64600 29.01600
C  43.10300 38.70900 24.09800
C  41.25300 43.11200 24.10400
N  41.89700 40.93700 28.84200
C  41.41200 41.88800 29.69200
C  41.46100 41.49500 31.17100
C  42.42700 40.22500 31.03500
C  42.35800 39.82900 29.52700
C  43.88100 40.31300 31.52700
C  40.17300 41.34600 31.88200
C  39.96300 42.23300 33.17300
H  39.24500 41.61100 34.32700
N  42.66600 38.80900 26.47800
C  43.06800 38.21000 27.69200
C  43.59800 36.87100 27.23900
C  43.64700 36.86000 25.80100
C  43.03800 38.17100 25.40800
C  43.96100 35.78500 28.24300
C  44.22100 35.88000 24.78600
O  44.11100 35.95800 23.57400
C  44.88300 34.59000 25.30600
N  42.16800 40.93300 24.41200
C  42.69700 39.97300 23.61000
C  42.42500 40.19900 22.15500
C  41.71000 41.59200 22.16000
C  41.72500 41.96200 23.62800
C  43.63500 40.01700 21.24900
C  40.28200 41.71100 21.49800
C  39.94000 42.98700 20.67100
N  41.22300 42.71400 26.55100
C  41.00400 43.52900 25.43700
C  40.48000 44.76500 25.96000
C  40.41300 44.65300 27.34300
C  40.94600 43.41400 27.68400
C  40.01100 45.93100 25.10700
C  39.97500 45.30700 28.58800
O  39.39200 46.43000 28.74800
C  40.27000 44.19400 29.71700
C  41.13800 44.76000 30.76900
O  42.34200 44.60300 30.86200
O  40.32700 45.51000 31.59800
C  41.03800 46.02400 32.77800
H  43.05600 37.84300 29.72200
H  43.54000 38.18600 23.24500
H  40.96400 43.88100 23.38500
H  41.97200 42.29700 31.70300
H  42.02000 39.48100 31.71900
H  44.70900 40.45700 30.83300
H  44.05500 39.35900 32.02500
H  43.86500 41.09500 32.28600
H  40.04900 40.30700 32.18800
H  39.27500 41.50800 31.28600
H  39.41500 43.09000 32.78200
H  40.90400 42.63300 33.55100
H  43.64400 34.82200 27.84300
H  43.50500 35.86700 29.23000
H  45.03100 35.71000 28.43400
H  44.12600 34.00100 25.82300
H  45.84500 34.61300 25.81800
H  45.15200 34.03900 24.40500
H  41.62000 39.53000 21.85000
H  42.28800 42.34800 21.62800
H  43.29400 39.33100 20.47500
H  44.51400 39.68700 21.80300
H  43.97600 40.88800 20.68900
H  39.55400 41.58300 22.29900
H  40.16500 40.80500 20.90400
H  40.79000 43.65300 20.52600
H  39.11000 43.54300 21.10800
H  39.55700 42.54100 19.75300
H  39.79900 45.65900 24.07200
H  40.77200 46.71100 25.10100
H  39.03300 46.23900 25.47600
H  39.27700 43.96500 30.10500
H  41.27300 45.18500 33.43400
H  40.31100 46.70200 33.22500
H  41.91100 46.63100 32.53900

