158

Mg 2.03800 8.24500 27.06200
C  2.15000 10.45000 29.86500
C  2.07200 5.69700 29.32900
C  1.91600 6.15800 24.50300
C  2.46200 10.96900 24.87700
N  2.05300 8.12800 29.38100
C  2.00800 9.10100 30.25200
C  1.86400 8.57500 31.71800
C  2.20800 7.05900 31.59800
C  2.19000 6.93800 30.02700
C  3.62100 6.60300 32.22900
C  0.44300 8.85300 32.39800
C  0.54000 9.60400 33.70300
H  1.13100 8.83600 34.92300
N  1.87500 6.27200 26.90000
C  1.90500 5.35200 27.93400
C  1.78300 3.97800 27.44400
C  1.81600 4.09400 26.06200
C  1.88800 5.57400 25.80200
C  1.57600 2.75000 28.39800
C  1.74600 3.02900 24.94700
O  1.90300 3.25500 23.77100
C  1.64400 1.58600 25.33500
N  2.01200 8.51900 25.02300
C  1.98000 7.49000 24.11400
C  2.19400 8.08400 22.67500
C  1.86600 9.58800 22.88700
C  2.25000 9.69200 24.35600
C  3.58800 7.85400 21.98100
C  0.35500 9.98800 22.57600
C  -0.00900 11.35600 22.11400
N  2.42300 10.27200 27.27500
C  2.60100 11.24200 26.27700
C  2.73900 12.47100 26.93600
C  2.63000 12.21500 28.33000
C  2.49000 10.84300 28.52200
C  2.95800 13.83500 26.20800
C  2.55200 12.80200 29.66200
O  2.76000 13.93200 30.02700
C  2.25600 11.67300 30.63900
C  3.34000 11.61500 31.69300
O  4.44100 11.07900 31.62600
O  2.81800 12.18700 32.85700
C  3.71200 12.08700 34.00900
H  2.03400 4.90300 30.07900
H  1.74600 5.46200 23.67900
H  2.75000 11.74800 24.16800
H  2.68800 9.03200 32.26600
H  1.50300 6.39200 32.09400
H  3.37900 5.60800 32.60300
H  3.95100 7.34000 32.96100
H  4.43800 6.59600 31.50800
H  -0.11200 7.93700 32.60100
H  -0.14500 9.38100 31.64600
H  -0.44900 10.03100 33.86900
H  1.17600 10.45500 33.46000
H  2.47000 2.42600 28.93000
H  1.13800 1.91500 27.85000
H  0.93700 3.05800 29.22700
H  0.63200 1.28400 25.60300
H  2.31400 1.51200 26.19100
H  2.00200 0.85700 24.60700
H  1.50300 7.67800 21.93700
H  2.68700 10.01600 22.31200
H  4.00900 7.03200 22.56100
H  4.29800 8.68000 22.00500
H  3.47800 7.40200 20.99500
H  -0.21600 9.76700 23.47800
H  0.03800 9.24400 21.84500
H  0.87200 11.83100 21.68100
H  -0.56600 11.99500 22.79900
H  -0.74800 11.30700 21.31400
H  2.18000 13.83700 25.44500
H  3.92000 13.91700 25.70300
H  2.78800 14.69000 26.86300
H  1.33600 11.86700 31.19000
H  3.78300 11.05600 34.35600
H  3.40100 12.75700 34.81000
H  4.71300 12.43200 33.75100
Mg -1.84000 34.75700 26.40300
C  -3.61600 33.21000 29.15400
C  -0.75200 37.02500 28.68400
C  -0.67700 36.32700 23.79800
C  -3.23200 32.25800 24.41900
N  -2.23300 35.07900 28.72400
C  -2.97500 34.37000 29.58200
C  -2.92200 34.99900 31.03100
C  -2.04600 36.25000 30.82700
C  -1.65500 36.11800 29.34000
C  -2.59400 37.71100 31.34000
C  -2.33700 34.07600 32.03600
C  -2.43900 34.47600 33.53600
H  -3.17100 33.58900 34.60100
N  -0.91500 36.47800 26.25600
C  -0.44500 37.22600 27.30800
C  0.32500 38.29000 26.82200
C  0.44500 38.09200 25.47400
C  -0.42200 36.93600 25.08900
C  0.94200 39.29000 27.75900
C  1.28100 38.81600 24.47100
O  1.45400 38.48600 23.26300
C  2.12000 40.00500 24.93600
N  -2.03600 34.44500 24.42800
C  -1.42200 35.17100 23.49600
C  -1.40700 34.51500 22.08600
C  -2.11700 33.16200 22.37600
C  -2.44100 33.25000 23.84200
C  -1.97900 35.51700 21.03700
C  -1.39900 31.89600 21.89400
C  -0.05000 31.50600 22.58800
N  -3.28400 33.08300 26.60000
C  -3.71400 32.17500 25.75100
C  -4.45300 31.15300 26.41100
C  -4.40800 31.47900 27.71700
C  -3.70100 32.72000 27.80400
C  -5.13100 30.02500 25.74800
C  -4.87200 31.10500 28.96900
O  -5.59600 30.16500 29.25900
C  -4.37600 32.21800 30.01600
C  -5.50900 32.67500 30.73500
O  -6.50900 33.17800 30.27300
O  -5.31700 32.43000 32.12100
C  -6.57600 32.55100 32.91600
H  -0.26100 37.71100 29.37800
H  -0.22500 36.83600 22.94400
H  -3.58400 31.53700 23.67800
H  -3.96000 35.21700 31.28500
H  -1.11500 36.09200 31.37000
H  -2.59300 38.40000 30.49600
H  -2.06700 38.08800 32.21600
H  -3.62600 37.51800 31.63600
H  -1.33200 33.78100 31.73300
H  -2.84800 33.12300 31.89800
H  -2.73400 35.52200 33.45200
H  -1.37700 34.55300 33.77000
H  2.01800 39.29500 27.57900
H  0.70500 39.23900 28.82200
H  0.75800 40.31000 27.42200
H  1.42600 40.77200 25.28100
H  2.61000 40.31300 24.01200
H  2.87300 39.68500 25.65500
H  -0.33700 34.39800 21.91500
H  -3.05000 33.08500 21.81900
H  -1.19000 35.78800 20.33600
H  -2.33900 36.45100 21.46800
H  -2.74300 35.08000 20.39400
H  -1.26900 31.99100 20.81600
H  -2.16700 31.12500 21.95900
H  0.13300 32.13600 23.45900
H  0.79500 31.40800 21.90700
H  -0.09700 30.48400 22.96300
H  -5.42700 29.37700 26.57300
H  -4.53800 29.51400 24.99000
H  -6.04300 30.42100 25.30300
H  -3.66200 31.60600 30.56700
H  -6.39900 32.73900 33.97500
H  -7.14600 31.62300 32.86600
H  -7.24400 33.38100 32.68600

