158

Mg -0.33600 7.99100 26.53800
C  0.46500 9.80100 29.35700
C  -0.33000 5.19700 28.51600
C  -0.80100 6.13700 23.72100
C  0.22000 10.80100 24.54600
N  0.33200 7.55500 28.69300
C  0.30600 8.47000 29.69400
C  0.17400 7.88100 31.08500
C  0.33600 6.38500 30.72600
C  0.12700 6.33200 29.20800
C  1.70200 5.70000 31.14600
C  -1.15000 8.34900 31.73800
C  -1.25900 8.80700 33.19600
H  0.04400 8.71200 34.01900
N  -0.51900 5.96600 26.17100
C  -0.63000 4.95300 27.12900
C  -1.07100 3.78500 26.58300
C  -1.25500 3.96900 25.19100
C  -0.83000 5.40400 24.95300
C  -1.21900 2.48600 27.45900
C  -1.77400 2.87900 24.12500
O  -1.81500 3.11800 22.95200
C  -2.20600 1.52200 24.62600
N  -0.16600 8.39600 24.36900
C  -0.50200 7.50000 23.42200
C  -0.42700 8.16200 21.99600
C  -0.28200 9.65100 22.30200
C  -0.04900 9.66700 23.85200
C  0.73700 7.59400 21.21800
C  -1.39200 10.44100 21.73800
C  -2.67600 10.69300 22.50500
N  0.28200 9.92300 26.82400
C  0.48200 10.95300 25.93900
C  0.85400 12.13200 26.68100
C  0.77700 11.75000 27.99200
C  0.48300 10.35200 28.10700
C  1.19300 13.45000 26.08000
C  1.02400 12.27300 29.26700
O  1.45900 13.36000 29.57200
C  0.76800 11.07400 30.23700
C  1.95100 10.90900 31.24500
O  2.80200 10.00100 31.32200
O  1.89700 11.92500 32.18700
C  3.08600 11.97200 33.08600
H  -0.27100 4.33500 29.18400
H  -0.96400 5.71200 22.72900
H  0.25500 11.60700 23.81100
H  1.01300 8.11500 31.74000
H  -0.42100 5.71500 31.13300
H  2.47400 6.36300 31.53600
H  2.11700 5.22700 30.25600
H  1.59200 4.93400 31.91400
H  -1.84500 7.52000 31.61000
H  -1.44900 9.20200 31.12800
H  -2.00600 8.10500 33.56600
H  -1.59500 9.83700 33.31000
H  -0.55400 2.49800 28.32300
H  -0.89800 1.63200 26.86200
H  -2.25000 2.31600 27.76700
H  -2.99900 1.50100 25.37300
H  -1.37000 0.91800 24.97900
H  -2.67500 1.07300 23.75000
H  -1.34900 7.90000 21.47800
H  0.57600 10.17400 21.88100
H  0.70600 6.56300 21.57000
H  1.67500 8.10400 21.43700
H  0.39900 7.74900 20.19300
H  -1.65700 10.10600 20.73500
H  -0.99100 11.44800 21.62600
H  -3.58300 10.59700 21.90900
H  -2.70500 11.69700 22.92800
H  -2.71500 9.98600 23.33300
H  1.62000 13.96700 26.94000
H  0.25700 13.93700 25.80800
H  1.92300 13.34600 25.27700
H  -0.01500 11.27300 30.97000
H  4.00300 12.00400 32.49700
H  3.12500 11.11800 33.76200
H  3.08700 12.92200 33.62100
Mg 24.83700 -5.17100 45.38000
C  26.63900 -2.58700 43.75400
C  22.17300 -4.46400 43.46700
C  23.73400 -8.17200 46.11300
C  27.99500 -5.95200 47.02700
N  24.50900 -3.75000 43.82800
C  25.33000 -2.76500 43.35200
C  24.75000 -2.08500 42.15000
C  23.32000 -2.44700 42.26900
C  23.26500 -3.61500 43.35800
C  22.17000 -1.35500 42.45600
C  25.34600 -2.38700 40.73000
C  25.55900 -1.13700 39.84200
H  24.78400 -1.10800 38.52600
N  23.20400 -6.20100 44.81800
C  22.12700 -5.71700 44.14800
C  20.97300 -6.61600 44.22800
C  21.40200 -7.81900 44.86400
C  22.87900 -7.43400 45.29400
C  19.64100 -6.44200 43.60700
C  20.62400 -9.15800 44.95900
O  19.49500 -9.26100 44.49000
C  21.16800 -10.40900 45.49300
N  25.85900 -6.91400 46.26900
C  25.09900 -7.99900 46.48600
C  25.78200 -8.98500 47.36700
C  27.04500 -8.23900 47.78600
C  26.99500 -6.92700 46.99500
C  24.97600 -9.66300 48.52000
C  28.26700 -9.15100 47.57400
C  29.49800 -9.10700 48.56900
N  26.82700 -4.40400 45.55900
C  27.96800 -4.78000 46.28700
C  29.08900 -3.88100 46.03200
C  28.66200 -3.07400 44.98400
C  27.27100 -3.38200 44.73700
C  30.43300 -3.95100 46.50000
C  29.11200 -2.15000 43.99000
O  30.19200 -1.66500 43.72100
C  27.73600 -1.71300 43.25800
C  27.59700 -0.32000 43.65600
O  27.01200 0.13900 44.62600
O  28.21400 0.42100 42.70100
C  28.21900 1.86400 42.80700
H  21.26900 -4.09300 42.97900
H  23.31200 -9.15300 46.34100
H  28.89400 -6.27200 47.55800
H  24.88500 -1.01800 42.32700
H  23.01400 -2.98500 41.37100
H  21.41000 -1.47900 41.68400
H  22.61500 -0.38600 42.23200
H  21.75100 -1.40900 43.46100
H  24.74300 -3.04500 40.10400
H  26.30800 -2.89300 40.80900
H  26.62200 -1.04300 39.62000
H  25.25700 -0.22600 40.35700
H  19.64100 -5.39000 43.32200
H  18.93300 -6.58700 44.42300
H  19.43600 -7.08200 42.74900
H  20.34000 -11.11400 45.56600
H  21.62000 -10.30000 46.47900
H  21.93600 -10.66400 44.76200
H  25.96700 -9.74900 46.61100
H  27.01500 -7.88900 48.81700
H  24.13300 -9.04000 48.81800
H  25.61100 -9.80700 49.39500
H  24.63900 -10.65400 48.21600
H  28.67600 -9.00300 46.57500
H  27.95400 -10.19200 47.49000
H  29.57300 -10.03600 49.13300
H  29.38800 -8.37000 49.36500
H  30.43500 -8.90500 48.04900
H  30.70900 -4.86600 45.97600
H  30.65900 -4.00300 47.56500
H  31.03900 -3.08300 46.23900
H  27.79900 -1.74200 42.17100
H  27.63600 2.10100 41.91700
H  29.24300 2.23600 42.82200
H  27.71800 2.20200 43.71500

