158

Mg 54.07000 24.68600 44.80800
C  51.02300 26.30700 44.02300
C  52.47300 21.66300 44.08000
C  57.03100 23.28600 44.86800
C  55.48400 27.66100 45.74800
N  52.05000 24.10400 43.88600
C  50.94700 24.89300 43.75800
C  49.74900 24.00600 43.33100
C  50.13100 22.61700 43.92700
C  51.68100 22.79800 43.97600
C  49.43200 22.38300 45.33700
C  49.46800 23.99800 41.75800
C  48.00300 23.75500 41.20100
H  47.87200 23.65500 39.69100
N  54.67200 22.79600 44.33300
C  53.92200 21.67700 44.06100
C  54.73600 20.55900 43.85700
C  56.03100 21.00300 44.04700
C  56.00300 22.40500 44.46000
C  54.34300 19.15100 43.40800
C  57.33700 20.14200 43.69300
O  57.31600 18.97400 43.34500
C  58.64200 20.73900 43.99900
N  56.01600 25.40800 45.06500
C  57.10300 24.65000 45.09300
C  58.47000 25.33200 45.47600
C  57.84200 26.73400 45.94800
C  56.34600 26.61200 45.58900
C  59.41900 24.59800 46.42600
C  58.43700 27.97600 45.14500
C  58.99100 29.21400 45.93300
N  53.42100 26.57900 44.90000
C  54.11200 27.70400 45.37500
C  53.18600 28.81600 45.45400
C  51.98800 28.34000 44.88300
C  52.18000 27.00300 44.49700
C  53.46400 30.22300 45.98600
C  50.60900 28.69900 44.52900
O  49.98600 29.72100 44.74300
C  49.98500 27.41600 43.84500
C  49.84200 27.69400 42.41100
O  50.72400 28.17400 41.69500
O  48.52900 27.48400 41.96000
C  48.17100 27.95400 40.67200
H  51.94200 20.73400 43.86000
H  58.08000 22.98200 44.83300
H  55.82100 28.66900 46.00200
H  48.82900 24.34700 43.80400
H  49.93600 21.82400 43.20400
H  50.19300 22.14200 46.07900
H  48.65500 21.62200 45.26400
H  49.11000 23.35300 45.71400
H  49.96600 23.12700 41.33300
H  49.81600 24.91100 41.27600
H  47.33500 24.55900 41.51100
H  47.67300 22.86000 41.72900
H  53.27100 18.98500 43.31100
H  54.66200 18.38000 44.11000
H  54.75000 18.97600 42.41200
H  58.57600 21.59400 43.32600
H  59.40300 20.08700 43.57100
H  58.91900 20.96400 45.02900
H  58.94700 25.51600 44.51300
H  57.95500 26.83900 47.02700
H  60.37900 24.33700 45.98000
H  58.98000 23.65700 46.75700
H  59.56900 25.16100 47.34800
H  57.71000 28.30500 44.40200
H  59.41900 27.76200 44.72500
H  59.14200 28.96200 46.98300
H  58.36400 30.09600 45.80200
H  59.99900 29.48400 45.61900
H  52.54000 30.77200 45.80100
H  54.39200 30.54200 45.51200
H  53.51000 30.13300 47.07200
H  49.03800 27.08000 44.26800
H  48.92800 28.16900 39.91700
H  47.71000 28.93100 40.81800
H  47.43200 27.23900 40.31100
Mg 31.03600 58.33200 39.75400
C  28.31400 56.49800 38.71800
C  33.07800 55.53100 39.08700
C  33.67700 60.25400 40.13400
C  28.95700 61.23000 39.92800
N  30.70400 56.25600 38.82800
C  29.50200 55.74800 38.61500
C  29.68900 54.20400 38.29000
C  31.15500 53.90400 38.46700
C  31.69300 55.30400 38.81900
C  31.53500 52.87200 39.47100
C  29.25500 53.75600 36.92200
C  29.78300 54.51800 35.69800
H  28.67100 55.17700 34.79900
N  33.18200 57.95800 39.46900
C  33.78800 56.77300 39.19300
C  35.23000 56.96900 39.27100
C  35.41000 58.29400 39.70700
C  34.09200 58.91800 39.76700
C  36.28300 55.89900 38.96200
C  36.66800 58.93100 39.97900
O  37.66800 58.22400 40.00500
C  36.87000 60.49000 40.25700
N  31.30700 60.46900 39.87100
C  32.46200 60.95600 40.21500
C  32.47600 62.48400 40.52900
C  30.96400 62.72500 40.70300
C  30.33200 61.51600 40.04700
C  33.41900 63.08700 41.60800
C  30.42300 64.07800 40.01200
C  29.61600 64.96600 41.00100
N  29.02200 58.87200 39.43800
C  28.32200 60.02000 39.59300
C  26.92500 59.76200 39.38700
C  26.83200 58.38100 39.01900
C  28.10100 57.87300 39.08600
C  25.78400 60.80900 39.44300
C  25.94200 57.30100 38.66100
O  24.72400 57.36900 38.45100
C  26.82700 56.03300 38.56700
C  26.32600 55.03100 39.54400
O  26.76600 54.81100 40.67100
O  25.42400 54.18400 38.93000
C  25.11100 52.96200 39.67500
H  33.68300 54.63600 38.92600
H  34.45600 60.94400 40.46300
H  28.22800 61.98400 40.23100
H  29.17700 53.58200 39.02500
H  31.62700 53.51900 37.56300
H  31.64700 51.88600 39.02000
H  30.88900 52.76300 40.34200
H  32.47400 53.13500 39.95700
H  28.17100 53.70200 36.81900
H  29.60900 52.73200 36.80800
H  30.35300 53.87300 35.02900
H  30.35500 55.39400 36.00300
H  36.59900 56.08400 37.93500
H  35.82700 54.90900 38.95600
H  37.03600 55.88600 39.74900
H  36.62700 60.73600 41.29000
H  36.35200 61.13100 39.54400
H  37.93000 60.74000 40.21600
H  32.71200 62.84300 39.52700
H  30.72200 62.64500 41.76300
H  32.80500 63.55400 42.37800
H  34.18100 63.69800 41.12400
H  34.04000 62.38200 42.16100
H  29.82400 63.88200 39.12200
H  31.20900 64.71200 39.60100
H  28.60600 64.91500 40.59500
H  29.98500 65.99100 40.95900
H  29.77300 64.57000 42.00400
H  25.69900 61.25200 38.45100
H  25.83900 61.59500 40.19600
H  24.90600 60.17700 39.58000
H  26.75700 55.50800 37.61500
H  24.68100 52.21200 39.01100
H  24.27800 53.15400 40.35200
H  25.86600 52.37200 40.19400

