158

Mg 42.70000 41.35100 26.22100
C  41.92200 43.92200 28.55100
C  43.62800 39.38300 28.66300
C  43.78200 39.25500 23.77600
C  41.99500 43.77700 23.68000
N  42.57500 41.59200 28.37000
C  42.26900 42.68400 29.12200
C  42.21800 42.26600 30.61700
C  43.01700 40.92100 30.58900
C  43.11900 40.60700 29.11100
C  44.41000 40.94500 31.32100
C  40.76900 42.27400 31.26700
C  40.58800 43.18100 32.45400
H  40.19200 42.59900 33.78600
N  43.35500 39.58500 26.20000
C  43.73700 38.91700 27.34900
C  44.36400 37.59600 26.96100
C  44.02400 37.42800 25.59100
C  43.70300 38.79000 25.09000
C  44.96800 36.68400 28.06300
C  43.98800 36.24600 24.72000
O  43.37500 36.35300 23.66600
C  44.47900 34.91500 25.14900
N  42.95100 41.52900 24.00800
C  43.44600 40.53100 23.29300
C  43.32000 40.73300 21.73800
C  42.63600 42.13300 21.72600
C  42.46500 42.49300 23.21300
C  44.70500 40.57000 20.92900
C  41.20200 42.13500 21.13600
C  40.67100 43.32900 20.31000
N  42.00000 43.40000 26.11900
C  41.73200 44.19000 25.02200
C  41.11100 45.41300 25.48400
C  41.17200 45.36500 26.83100
C  41.74200 44.16300 27.17000
C  40.67000 46.55600 24.51700
C  40.87500 46.14300 28.05600
O  40.25200 47.15500 28.17300
C  41.32200 45.22200 29.25400
C  42.38600 45.77700 30.11800
O  43.59800 45.59300 29.96700
O  41.83400 46.60800 31.06200
C  42.80800 47.26000 31.83800
H  43.94000 38.71000 29.46500
H  44.08900 38.66400 22.91100
H  41.72000 44.56800 22.98000
H  42.87200 43.03800 31.02300
H  42.41200 40.19900 31.13600
H  44.44300 40.09400 32.00100
H  44.48400 41.85600 31.91500
H  45.22200 40.98800 30.59400
H  40.58600 41.24600 31.58000
H  39.97800 42.48500 30.54800
H  39.75700 43.78400 32.08900
H  41.33800 43.96100 32.58400
H  45.30300 37.25900 28.92600
H  45.86000 36.20900 27.65600
H  44.25500 35.92500 28.38400
H  45.54800 35.04700 25.31500
H  44.44000 34.15500 24.36900
H  44.05100 34.60600 26.10300
H  42.54300 40.05400 21.38900
H  43.05800 42.94200 21.12900
H  45.27400 39.72700 21.32200
H  45.28200 41.47700 20.75000
H  44.43900 40.21800 19.93300
H  40.53500 42.08000 21.99700
H  40.93700 41.36500 20.41200
H  40.24000 44.07400 20.98000
H  39.93600 42.85200 19.66000
H  41.48400 43.81700 19.77300
H  40.14200 46.24900 23.61400
H  41.55900 47.16500 24.34800
H  39.97400 47.20100 25.05200
H  40.46100 44.99600 29.88300
H  43.54500 47.77200 31.22000
H  43.33500 46.60900 32.53500
H  42.33700 48.06500 32.40200
Mg -5.40300 25.09200 25.91100
C  -3.82800 26.21200 28.91200
C  -7.33100 22.99300 28.00800
C  -6.46100 23.33600 23.20700
C  -3.06200 26.78600 24.05400
N  -5.48800 24.66900 28.19700
C  -4.84800 25.32000 29.23500
C  -5.31000 24.85400 30.62300
C  -6.25700 23.65700 30.24300
C  -6.42400 23.79900 28.74600
C  -5.91200 22.25300 30.71800
C  -6.02700 25.96900 31.44800
C  -5.68900 26.16100 32.94800
H  -5.10800 25.00100 33.76800
N  -6.82300 23.48200 25.64700
C  -7.57600 22.84800 26.63900
C  -8.56000 22.01800 26.00300
C  -8.24200 21.99600 24.60700
C  -7.13100 22.95700 24.44100
C  -9.71500 21.38600 26.77600
C  -8.94200 21.12700 23.49800
O  -8.66200 21.25100 22.31300
C  -9.90100 20.00600 23.81800
N  -4.80800 24.97700 23.85800
C  -5.48300 24.26000 22.98800
C  -4.75200 24.51900 21.64800
C  -3.80200 25.69200 21.84100
C  -3.87300 25.85500 23.34500
C  -4.21400 23.17100 21.08100
C  -4.06300 27.02800 21.08600
C  -3.10400 27.34000 19.98600
N  -3.86100 26.34700 26.30100
C  -3.08000 26.96200 25.44200
C  -2.15700 27.85600 26.14000
C  -2.39900 27.54500 27.55500
C  -3.44700 26.63800 27.56500
C  -1.16400 28.85000 25.62000
C  -2.02300 27.90900 28.95100
O  -1.12000 28.70400 29.32200
C  -3.00800 27.16300 29.85300
C  -2.15000 26.34300 30.93700
O  -1.59600 25.29100 30.78000
O  -2.00200 27.11400 32.04300
C  -1.18500 26.53400 33.16400
H  -7.87400 22.22300 28.56100
H  -6.79100 22.74800 22.34800
H  -2.34500 27.38600 23.49000
H  -4.43000 24.43200 31.11000
H  -7.17800 23.82300 30.80100
H  -5.99900 21.65800 29.80900
H  -6.62500 21.90500 31.46600
H  -4.88300 22.30000 31.07400
H  -7.09700 25.80100 31.33000
H  -5.75400 26.84900 30.86600
H  -6.52900 26.57200 33.50700
H  -4.99000 26.99600 32.98300
H  -9.87900 21.85900 27.74400
H  -9.39000 20.39800 27.10500
H  -10.67100 21.41200 26.25300
H  -9.73300 19.35900 22.95700
H  -10.89500 20.36000 24.09200
H  -9.66100 19.51300 24.76000
H  -5.46100 24.89600 20.91100
H  -2.78100 25.33200 21.71100
H  -4.99700 22.42500 21.21700
H  -3.34100 22.76000 21.58700
H  -3.91600 23.36600 20.05100
H  -3.95600 27.86500 21.77600
H  -5.03900 26.96000 20.60600
H  -2.35200 28.06300 20.30200
H  -3.56100 27.77200 19.09600
H  -2.58200 26.41500 19.74200
H  -0.35900 28.79300 26.35200
H  -1.61200 29.83700 25.73600
H  -0.80400 28.70900 24.60100
H  -3.62400 27.87500 30.40300
H  -0.15300 26.88400 33.13900
H  -1.17700 25.44500 33.10200
H  -1.65300 26.72400 34.13000

