158

Mg 30.39200 57.31700 39.05700
C  27.66300 55.38700 38.17700
C  32.57100 54.81100 38.36200
C  32.94100 59.58500 39.24600
C  28.12700 60.06700 39.44700
N  30.12300 55.34600 38.44800
C  28.97100 54.79400 38.06100
C  29.23700 53.42400 37.51500
C  30.73900 53.12000 37.73000
C  31.25400 54.50200 38.20000
C  31.13100 51.98100 38.68700
C  28.76300 52.99700 36.11200
C  29.17000 53.81800 34.85400
H  28.08500 54.50700 34.03000
N  32.45700 57.26900 38.73300
C  33.17900 56.11900 38.54400
C  34.51300 56.39400 38.54200
C  34.67800 57.78000 38.91100
C  33.31300 58.26800 38.99900
C  35.65700 55.43100 38.34100
C  36.06600 58.53900 39.11000
O  37.11600 57.94300 38.88100
C  36.18700 59.98800 39.40700
N  30.53000 59.49400 39.07600
C  31.69800 60.17500 39.37200
C  31.50700 61.64600 39.79700
C  29.95900 61.62600 40.06200
C  29.48500 60.31300 39.44900
C  32.37000 62.23800 41.07100
C  29.29700 62.88100 39.50600
C  28.10600 63.52900 40.25400
N  28.27600 57.68300 38.92400
C  27.51400 58.83300 39.13200
C  26.07600 58.51400 39.00200
C  26.09900 57.18000 38.63500
C  27.41500 56.74200 38.54900
C  24.78800 59.45000 39.06400
C  25.25300 56.05000 38.35200
O  24.01500 55.99900 38.36700
C  26.29100 54.84100 37.92200
C  26.05200 53.73700 38.82000
O  26.65400 53.47900 39.87900
O  25.05000 52.91500 38.28600
C  24.70700 51.65900 39.11300
H  33.26100 53.96600 38.32400
H  33.66400 60.37700 39.45400
H  27.47100 60.83300 39.86500
H  28.67500 52.74600 38.15800
H  31.32400 52.93900 36.82800
H  30.26800 51.38900 38.99300
H  31.51400 52.34000 39.64200
H  31.89800 51.34400 38.24600
H  27.67600 52.95600 36.18900
H  29.06800 51.96500 35.93700
H  29.50600 52.98600 34.23500
H  29.98600 54.47300 35.15700
H  36.47700 55.89400 37.79400
H  35.30500 54.65300 37.66200
H  36.03900 55.18500 39.33100
H  35.88400 60.37800 40.37900
H  35.49400 60.47500 38.72200
H  37.19600 60.36600 39.24800
H  31.76900 62.24000 38.92200
H  29.73900 61.66800 41.12900
H  31.77300 62.62300 41.89700
H  33.00100 63.02700 40.66100
H  33.08300 61.45700 41.33700
H  28.95300 62.61300 38.50700
H  30.05500 63.66000 39.42700
H  27.30700 63.90100 39.61300
H  28.52100 64.43800 40.69100
H  27.68800 62.93300 41.06600
H  24.99200 60.50500 38.88600
H  24.24300 59.40400 40.00700
H  24.11500 59.11900 38.27300
H  26.01000 54.49800 36.92700
H  23.87300 51.81400 39.79700
H  25.56700 51.13400 39.52700
H  24.37900 50.96900 38.33500
Mg -6.37000 25.35100 26.15500
C  -5.04700 26.88200 29.09100
C  -8.11200 23.26100 28.28600
C  -7.08400 23.43800 23.49100
C  -4.22600 27.21700 24.29500
N  -6.43800 25.09300 28.44000
C  -5.91400 25.87000 29.44200
C  -6.46100 25.49000 30.83100
C  -7.30100 24.20900 30.57100
C  -7.28200 24.17200 29.01000
C  -6.86100 22.90200 31.25600
C  -7.08300 26.60600 31.65500
C  -6.72300 26.73700 33.15000
H  -6.06400 25.60500 33.86500
N  -7.54300 23.71400 25.88100
C  -8.17800 22.99700 26.88500
C  -9.10400 22.11800 26.26400
C  -8.91000 22.20500 24.87000
C  -7.81000 23.14600 24.68700
C  -10.14000 21.28500 27.05500
C  -9.64700 21.55400 23.72500
O  -9.34900 21.83400 22.59600
C  -10.62400 20.46200 24.07200
N  -5.79700 25.29600 24.25200
C  -6.21700 24.50300 23.23200
C  -5.45700 24.61700 21.95400
C  -4.86700 26.10100 22.16500
C  -4.87300 26.13600 23.73400
C  -4.47000 23.49000 21.61500
C  -5.64000 27.23300 21.47200
C  -5.15100 27.85900 20.15800
N  -4.99400 26.84300 26.56100
C  -4.19100 27.55200 25.66600
C  -3.52000 28.65100 26.38500
C  -3.78600 28.37300 27.70800
C  -4.71800 27.30700 27.76200
C  -2.69600 29.75200 25.73400
C  -3.46400 28.76600 29.02800
O  -2.67300 29.60500 29.47300
C  -4.30000 27.83500 29.91500
C  -3.26400 27.13500 30.79100
O  -2.58300 26.20500 30.49600
O  -3.34100 27.77900 31.97000
C  -2.25700 27.52200 32.88400
H  -8.73100 22.59300 28.88900
H  -7.18200 22.68200 22.71000
H  -3.74300 27.85200 23.55000
H  -5.59100 25.24700 31.44100
H  -8.26800 24.58000 30.91200
H  -7.38800 22.05300 30.81900
H  -7.14900 22.90400 32.30700
H  -5.78100 22.79600 31.35300
H  -8.17200 26.58000 31.69700
H  -6.85000 27.48700 31.05700
H  -7.60900 27.04800 33.70400
H  -6.03200 27.57800 33.10700
H  -9.88100 21.40900 28.10600
H  -10.26400 20.24200 26.76200
H  -11.08700 21.80400 26.90300
H  -10.14300 19.71400 24.70300
H  -11.06200 20.15800 23.12200
H  -11.43400 20.82600 24.70500
H  -6.11500 24.76400 21.09800
H  -3.80200 26.21100 21.96100
H  -4.48100 22.81000 22.46700
H  -3.45600 23.74200 21.30300
H  -4.89400 22.97700 20.75300
H  -5.83800 28.05300 22.16300
H  -6.66200 26.88900 21.31400
H  -4.71300 28.83400 20.37200
H  -5.87300 27.85700 19.34100
H  -4.23000 27.36400 19.85100
H  -2.07100 29.30200 24.96300
H  -2.11200 30.35000 26.43400
H  -3.42900 30.32900 25.17100
H  -4.89200 28.47300 30.57100
H  -1.28400 27.89400 32.56300
H  -2.24600 26.49000 33.23200
H  -2.53100 28.11600 33.75600

