158

Mg 26.01200 0.89000 29.26800
C  27.69300 0.56300 32.19200
C  23.05500 1.42700 30.88600
C  24.57400 0.92000 26.16800
C  29.14900 0.18400 27.61100
N  25.32700 0.66600 31.36100
C  26.28700 0.79700 32.32900
C  25.53700 1.21400 33.69100
C  24.14500 1.37000 33.23700
C  24.13500 1.18900 31.74300
C  23.17100 0.41100 34.01200
C  26.14700 2.46600 34.30600
C  26.85900 2.24900 35.65600
H  26.44200 3.11100 36.89300
N  24.14000 1.09100 28.61300
C  23.03800 1.33400 29.44500
C  21.86100 1.36900 28.59400
C  22.25100 1.23100 27.29000
C  23.69600 1.08100 27.31500
C  20.48400 1.50600 29.24600
C  21.47700 1.45200 25.97300
O  21.91000 1.23000 24.85500
C  20.01200 1.85300 26.09300
N  26.74700 0.67000 27.19000
C  25.96100 0.85400 26.11000
C  26.73900 0.58500 24.81400
C  28.23600 0.59300 25.25100
C  28.08400 0.55200 26.79100
C  26.34000 -0.66300 23.94600
C  29.16200 1.80000 24.83200
C  29.74000 1.64100 23.47500
N  27.99500 0.20800 29.73600
C  29.19000 0.06000 28.95200
C  30.26800 -0.18700 29.83200
C  29.69800 0.04600 31.11300
C  28.33100 0.26600 31.03100
C  31.62700 -0.66100 29.56700
C  30.02500 0.12700 32.56100
O  31.04700 0.06400 33.21800
C  28.73400 0.44000 33.27100
C  28.50100 -0.67300 34.27000
O  27.86800 -1.72300 34.05600
O  28.88300 -0.26000 35.53600
C  28.45100 -1.13900 36.65100
H  22.19200 1.88100 31.37800
H  24.17900 0.91400 25.15000
H  30.10700 0.02600 27.11200
H  25.67700 0.35200 34.34300
H  23.81700 2.37300 33.51200
H  23.66700 -0.49400 34.36200
H  22.35200 0.20900 33.32200
H  22.85400 0.89100 34.93700
H  25.37200 3.18100 34.58300
H  26.93200 2.82800 33.64300
H  27.89200 2.56200 35.50400
H  26.90800 1.18300 35.87800
H  19.79600 0.76900 28.83400
H  20.05700 2.50100 29.11700
H  20.32200 1.18500 30.27500
H  19.41700 1.11700 26.63300
H  19.49000 2.05200 25.15700
H  19.86600 2.76400 26.67400
H  26.61200 1.36300 24.06000
H  28.71000 -0.34700 24.96900
H  25.62000 -1.31000 24.44700
H  27.22700 -1.18600 23.59000
H  25.79900 -0.26600 23.08700
H  30.02800 2.03600 25.45000
H  28.52900 2.68400 24.75600
H  29.55500 0.66600 23.02500
H  30.80700 1.86400 23.49300
H  29.32300 2.35200 22.76200
H  32.24700 0.06400 29.04000
H  31.65800 -1.57100 28.97000
H  32.09000 -0.94800 30.51100
H  28.99300 1.39200 33.73600
H  28.71400 -2.17900 36.45400
H  27.37400 -1.06100 36.79800
H  28.99200 -0.81000 37.53800
Mg 0.78400 43.95400 24.46100
C  2.65100 43.82600 27.32100
C  -2.19000 43.95500 26.22600
C  -0.84100 43.33900 21.49500
C  3.81200 43.96100 22.50700
N  0.23600 43.64400 26.51000
C  1.21200 43.80800 27.54600
C  0.54600 43.92900 28.93400
C  -1.01900 44.00100 28.54800
C  -1.01700 43.84300 27.01600
C  -1.97000 43.02700 29.20800
C  0.96300 45.11100 29.86700
C  1.38700 44.82200 31.28400
H  0.93900 43.49700 31.95200
N  -1.20800 43.89200 23.93600
C  -2.29300 43.92200 24.78600
C  -3.47900 43.97300 23.98800
C  -3.07900 43.87800 22.61500
C  -1.62300 43.69700 22.64800
C  -4.80700 44.11400 24.66900
C  -3.95700 43.98500 21.36600
O  -3.41000 43.93300 20.22500
C  -5.46500 44.35500 21.55900
N  1.35900 43.83000 22.32200
C  0.51900 43.53600 21.31000
C  1.26800 43.00200 20.07800
C  2.59900 43.77700 20.33200
C  2.63100 43.88700 21.80300
C  1.39900 41.48400 20.05700
C  2.66000 45.24700 19.77000
C  4.03500 45.73700 19.25700
N  2.84300 43.90400 24.75000
C  3.96900 43.92400 23.97000
C  5.09300 43.80200 24.80500
C  4.66300 43.84900 26.12700
C  3.28000 43.86200 26.04100
C  6.56000 43.84100 24.25800
C  5.11800 43.75700 27.45100
O  6.28400 43.55600 27.86800
C  3.84300 43.89100 28.33300
C  3.80100 42.87500 29.34200
O  3.35900 41.73400 29.17400
O  4.42800 43.27200 30.48700
C  4.71300 42.24000 31.62200
H  -3.05500 43.99400 26.89100
H  -1.36200 42.94700 20.61900
H  4.77500 43.78800 22.02200
H  0.70300 42.96100 29.41000
H  -1.34500 45.02300 28.74000
H  -1.47200 42.49800 30.02100
H  -2.26500 42.31600 28.43600
H  -2.89200 43.44700 29.61000
H  0.16500 45.84400 29.98800
H  1.81500 45.59200 29.38700
H  0.86600 45.49900 31.96100
H  2.42400 45.05600 31.52600
H  -5.31700 45.06400 24.50800
H  -4.74000 44.00500 25.75200
H  -5.46800 43.28400 24.42100
H  -6.01200 43.60600 22.13200
H  -5.88100 44.47800 20.56000
H  -5.53900 45.30000 22.09800
H  0.76700 43.47200 19.23200
H  3.46700 43.22300 19.97600
H  2.40200 41.06400 19.98200
H  0.82200 41.06800 19.23100
H  0.90800 41.02600 20.91600
H  2.39200 46.07100 20.43100
H  1.91300 45.28500 18.97700
H  4.01300 45.95300 18.18900
H  4.76600 44.95100 19.44800
H  4.35800 46.62800 19.79500
H  6.66500 43.08400 23.48100
H  7.26600 43.60800 25.05500
H  6.86600 44.83700 23.93900
H  3.93300 44.90200 28.73200
H  5.79900 42.20600 31.54300
H  4.33900 41.21900 31.54100
H  4.46200 42.56500 32.63100

