158

Mg 36.01100 49.29700 25.52300
C  36.01800 47.31200 28.43400
C  34.96800 51.92700 27.33900
C  35.59000 50.93300 22.62200
C  36.77800 46.45100 23.71900
N  35.31300 49.47700 27.68200
C  35.58600 48.64000 28.69900
C  35.50100 49.34500 30.02800
C  34.92500 50.79000 29.69800
C  35.04300 50.73400 28.13100
C  33.48400 51.18300 30.26600
C  36.80700 49.36500 30.84700
C  36.67000 48.92600 32.36300
H  36.76000 50.07500 33.35000
N  35.47600 51.20200 25.05100
C  34.98300 52.17700 25.93200
C  34.95100 53.46200 25.28500
C  35.08300 53.17500 23.89100
C  35.35000 51.70600 23.78500
C  34.74800 54.68000 26.08500
C  35.06700 54.09600 22.69100
O  35.00800 53.85100 21.47100
C  34.92300 55.59500 22.98900
N  36.03400 48.72500 23.44300
C  35.90900 49.60500 22.47900
C  35.98400 49.02400 21.10900
C  36.42500 47.57500 21.40400
C  36.40900 47.56500 22.95600
C  34.69900 49.00400 20.14400
C  37.76200 47.31600 20.69500
C  39.11100 47.40200 21.51700
N  36.26300 47.32400 25.90700
C  36.60300 46.28700 25.05300
C  36.85300 45.04900 25.87200
C  36.60000 45.42700 27.19100
C  36.25500 46.82200 27.13300
C  37.37700 43.84000 25.40100
C  36.67000 44.97600 28.50600
O  36.80100 43.83800 28.94600
C  36.42600 46.25700 29.37400
C  35.23400 46.05700 30.22400
O  34.04000 46.02700 29.86100
O  35.71900 45.70700 31.51400
C  34.69400 45.41400 32.50500
H  34.84700 52.75500 28.04100
H  35.47000 51.53500 21.71900
H  37.16100 45.60800 23.14000
H  34.76500 48.92700 30.71500
H  35.57200 51.61000 30.01300
H  33.07900 50.27000 30.70100
H  32.91700 51.51800 29.39700
H  33.51500 52.09500 30.86300
H  37.26300 50.35300 30.78100
H  37.57500 48.70400 30.44400
H  37.53400 48.29300 32.56200
H  35.76300 48.32900 32.45900
H  35.39100 55.55500 25.99300
H  34.62800 54.51500 27.15500
H  33.80500 55.04000 25.67400
H  35.80400 55.98900 23.49500
H  34.03400 55.84400 23.56800
H  34.65700 56.06000 22.04000
H  36.81100 49.57800 20.66500
H  35.72900 46.74800 21.26000
H  33.88900 49.63700 20.50800
H  34.31700 47.99600 19.98600
H  35.01200 49.30200 19.14300
H  37.87400 48.00500 19.85800
H  37.74800 46.30200 20.29700
H  39.82600 46.67800 21.12400
H  38.93900 47.27100 22.58500
H  39.56900 48.37500 21.33800
H  37.95900 43.40900 26.21600
H  37.92300 43.79700 24.45900
H  36.55500 43.15200 25.20500
H  37.29900 46.33400 30.02200
H  34.03100 44.57400 32.29500
H  33.99700 46.25200 32.52800
H  35.21500 45.29600 33.45500
Mg 16.40800 52.25500 25.31800
C  18.04100 51.21500 28.19700
C  13.59000 52.94200 27.08600
C  15.00200 53.15700 22.36000
C  19.02300 50.73700 23.43800
N  15.99300 52.16900 27.43600
C  16.83400 51.86300 28.45000
C  16.22300 52.14000 29.86700
C  14.78900 52.61700 29.46500
C  14.74200 52.51600 27.86200
C  13.59900 51.81900 30.20300
C  17.07900 53.20800 30.69900
C  17.73000 52.80200 32.05100
H  16.88300 52.01800 33.02400
N  14.57300 52.95600 24.80900
C  13.51000 53.20500 25.66600
C  12.36800 53.72900 24.92400
C  12.76700 53.87700 23.53100
C  14.20700 53.35900 23.49100
C  11.01500 54.01900 25.62900
C  12.03000 54.36700 22.28800
O  12.52300 54.62200 21.16000
C  10.65200 54.77900 22.40900
N  16.98000 52.07400 23.26500
C  16.23800 52.57600 22.20700
C  16.86300 52.20800 20.81500
C  18.28300 51.73100 21.26700
C  18.08700 51.42700 22.75400
C  16.02800 51.11300 20.10200
C  19.37700 52.79800 20.95200
C  20.06700 52.57900 19.62600
N  18.19100 51.14800 25.67100
C  19.11500 50.57300 24.83700
C  20.08000 49.86200 25.58100
C  19.65900 50.10200 26.94000
C  18.54600 50.92100 26.93000
C  21.37600 49.16200 25.21500
C  20.05400 49.73400 28.28200
O  20.96800 49.05000 28.71600
C  18.90300 50.45100 29.25800
C  18.20500 49.31600 29.88300
O  17.17600 48.83400 29.51000
O  18.83200 48.96500 31.05900
C  18.12100 48.00300 31.88500
H  12.73000 53.21000 27.70300
H  14.58500 53.46100 21.39800
H  19.91700 50.53600 22.84200
H  16.07700 51.19600 30.39100
H  14.59800 53.65500 29.73600
H  14.01900 51.15400 30.95800
H  13.03600 51.26500 29.45100
H  12.91700 52.52400 30.67600
H  16.52600 54.14700 30.71700
H  17.87900 53.52500 30.03000
H  18.17600 53.59900 32.64500
H  18.65600 52.26800 31.84000
H  10.34400 53.16400 25.54100
H  10.55000 54.91300 25.21300
H  11.09000 54.20800 26.70000
H  10.16000 55.10200 21.49200
H  10.59800 55.68100 23.01900
H  10.23300 54.00500 23.05300
H  17.06300 53.00400 20.09900
H  18.68900 50.84200 20.78500
H  15.70200 51.41900 19.10900
H  15.22900 50.71900 20.73000
H  16.68300 50.25200 19.97100
H  20.03700 52.94600 21.80600
H  18.91400 53.77600 20.82100
H  21.13500 52.41500 19.77000
H  19.99800 53.44000 18.96200
H  19.51200 51.80000 19.10300
H  21.74600 49.53600 24.26100
H  21.37100 48.07200 25.20400
H  22.15800 49.44600 25.92000
H  19.45100 51.00900 30.01700
H  17.89900 48.48100 32.83900
H  18.84700 47.22500 32.12200
H  17.16600 47.58400 31.56900

