158

Mg 24.35100 -4.62500 45.98000
C  26.39800 -2.16200 44.74400
C  21.85600 -3.68700 43.76300
C  22.58400 -7.35000 46.90100
C  26.98200 -5.70000 48.10400
N  24.04700 -2.90700 44.59500
C  25.07300 -2.04700 44.23000
C  24.61000 -1.18500 42.95700
C  23.06200 -1.43300 42.98700
C  22.95200 -2.80500 43.76600
C  22.22400 -0.30500 43.65200
C  25.33300 -1.88900 41.69000
C  25.73800 -0.96800 40.59300
H  25.15300 -1.13100 39.20000
N  22.50400 -5.38800 45.42000
C  21.63100 -4.84700 44.51000
C  20.41300 -5.65400 44.42400
C  20.55000 -6.68100 45.39500
C  21.89900 -6.54400 45.94500
C  19.24400 -5.32700 43.32200
C  19.53900 -7.75700 45.66400
O  18.43500 -7.62100 45.19000
C  19.80300 -9.06200 46.37600
N  24.84000 -6.38600 47.25600
C  23.84800 -7.34900 47.50900
C  24.39300 -8.51900 48.43600
C  25.63600 -7.81200 48.98300
C  25.87200 -6.62800 47.98400
C  23.43300 -8.94100 49.52000
C  26.95600 -8.71700 49.13800
C  27.65500 -8.68600 50.44900
N  26.37600 -4.14400 46.30700
C  27.28400 -4.62000 47.20900
C  28.49400 -3.83000 47.15500
C  28.22700 -2.85800 46.11500
C  26.87500 -3.04500 45.69200
C  29.71900 -3.96500 47.99300
C  28.77100 -1.78100 45.30400
O  29.83700 -1.17100 45.24100
C  27.53800 -1.28700 44.42500
C  27.24400 0.12400 44.71000
O  26.62300 0.72900 45.59100
O  27.68300 0.83300 43.65300
C  27.48400 2.28300 43.54900
H  21.04400 -3.41200 43.08600
H  22.06200 -8.26300 47.19400
H  27.73000 -5.90800 48.87300
H  24.87900 -0.13000 43.01000
H  22.68800 -1.39700 41.96400
H  21.78500 0.36300 42.91100
H  22.93700 0.28100 44.23200
H  21.43000 -0.72000 44.27200
H  24.62800 -2.60100 41.26200
H  26.16900 -2.51200 42.00700
H  26.82500 -1.04200 40.61500
H  25.59800 0.08100 40.85600
H  19.72500 -4.80600 42.49400
H  18.43100 -4.74800 43.76000
H  18.92900 -6.31700 42.99300
H  18.91100 -9.68700 46.41300
H  19.98100 -8.94400 47.44500
H  20.57900 -9.55600 45.79100
H  24.75500 -9.26300 47.72600
H  25.32100 -7.42400 49.95100
H  22.55300 -8.31000 49.64400
H  23.82000 -8.97100 50.53900
H  22.99200 -9.89000 49.21400
H  27.66800 -8.44000 48.36000
H  26.73000 -9.77200 48.98100
H  27.40500 -7.80400 51.04000
H  28.72600 -8.66100 50.25300
H  27.50500 -9.59900 51.02500
H  29.43200 -4.36300 48.96700
H  30.08500 -2.96100 48.20800
H  30.57400 -4.44000 47.51300
H  27.89300 -1.32400 43.39500
H  26.92700 2.48300 42.63300
H  28.41700 2.84500 43.50300
H  26.86700 2.75900 44.31000
Mg 35.58400 48.63900 24.95700
C  35.60900 47.05300 28.03400
C  34.73900 51.53400 26.66900
C  35.08100 50.08900 21.95700
C  36.31800 45.74500 23.35100
N  35.07000 49.16600 27.11400
C  35.22100 48.36700 28.21200
C  34.93800 49.20600 29.48900
C  34.59800 50.64200 29.02400
C  34.72400 50.42600 27.54300
C  33.13000 51.13000 29.33800
C  36.07800 49.12200 30.59500
C  35.65800 48.42400 31.92000
H  34.22000 48.40900 32.34400
N  34.89100 50.58100 24.34600
C  34.69700 51.62000 25.21600
C  34.45600 52.85500 24.36000
C  34.41000 52.42100 23.01300
C  34.79600 50.98900 23.07600
C  34.21800 54.21500 25.00600
C  34.18400 53.24000 21.69300
O  34.09400 52.72400 20.57800
C  33.91000 54.68400 21.79900
N  35.55600 48.04000 22.95200
C  35.42700 48.80400 21.89000
C  35.79300 48.14600 20.55800
C  36.32500 46.77000 21.07900
C  36.03900 46.81800 22.54000
C  34.63200 47.96400 19.53100
C  37.80200 46.45900 20.71200
C  38.96800 47.30300 21.36200
N  35.82300 46.72000 25.52900
C  36.20500 45.60300 24.73800
C  36.61400 44.53800 25.65800
C  36.43200 45.07300 26.92500
C  35.85600 46.37200 26.79500
C  37.08200 43.14700 25.22500
C  36.63100 44.76300 28.33600
O  36.98300 43.69300 28.85100
C  35.99900 45.93100 29.06700
C  34.90000 45.44400 29.82700
O  33.71900 45.73600 29.66800
O  35.26700 44.60000 30.78000
C  34.30300 44.06100 31.68600
H  34.58400 52.49800 27.15800
H  35.12400 50.65400 21.02300
H  36.70200 44.88800 22.79400
H  33.95600 48.83200 29.77700
H  35.25400 51.45500 29.33600
H  32.49500 51.15000 28.45200
H  33.18300 52.15800 29.69600
H  32.62700 50.52200 30.09000
H  36.33100 50.12200 30.94800
H  36.96200 48.61300 30.20900
H  36.26400 48.83500 32.72800
H  35.95500 47.37700 31.87100
H  34.94500 55.00200 24.80500
H  34.29700 54.16500 26.09200
H  33.22400 54.57900 24.74600
H  34.87100 55.15300 22.01000
H  33.10500 54.84100 22.51600
H  33.59400 55.00900 20.80800
H  36.58800 48.68100 20.03800
H  35.96900 45.89800 20.53100
H  33.71800 48.51100 19.76000
H  34.26200 46.94600 19.41700
H  34.92000 48.21800 18.51000
H  38.00600 46.59000 19.64900
H  37.88300 45.38200 20.86400
H  39.67800 47.68400 20.62800
H  39.69600 46.64500 21.83500
H  38.79400 48.20700 21.94500
H  36.42100 42.70900 24.47700
H  36.98200 42.52600 26.11500
H  38.08700 43.22400 24.81100
H  36.83300 46.17800 29.72400
H  33.27400 44.41500 31.63800
H  34.61400 44.14900 32.72700
H  34.24600 42.97500 31.60400

