158

Mg 1.90600 -2.33600 44.20300
C  5.30300 -1.40600 43.87100
C  0.95500 0.39900 42.52600
C  -1.15000 -3.73900 43.62400
C  3.02200 -5.54500 45.25100
N  3.04800 -0.76700 43.17500
C  4.40200 -0.49900 43.35000
C  4.74800 0.91300 42.86000
C  3.31400 1.59700 42.74200
C  2.34200 0.37700 42.87300
C  2.90200 2.69500 43.68600
C  5.66000 0.93100 41.65000
C  5.51100 -0.08200 40.56000
H  5.15000 0.54200 39.15600
N  0.10600 -1.70500 43.31900
C  -0.06500 -0.57900 42.63500
C  -1.44700 -0.37300 42.21700
C  -2.13600 -1.50600 42.68400
C  -1.07200 -2.34100 43.18200
C  -1.95600 0.83000 41.40200
C  -3.61800 -1.65500 42.61200
O  -4.32600 -0.81500 42.06200
C  -4.34000 -2.86700 43.14900
N  1.05800 -4.38900 44.45100
C  -0.24200 -4.63400 44.21300
C  -0.57900 -6.01600 44.67700
C  0.73700 -6.58800 45.17800
C  1.68900 -5.43400 45.04000
C  -1.85800 -6.02900 45.66500
C  1.16500 -7.81900 44.39900
C  2.02300 -8.90300 45.18500
N  3.81300 -3.30900 44.60800
C  4.08100 -4.60000 45.01800
C  5.55300 -4.75400 45.15900
C  6.07200 -3.52900 44.81100
C  5.01700 -2.65700 44.38700
C  6.21700 -5.91300 45.70400
C  7.27100 -2.71300 44.71600
O  8.44500 -2.93000 44.96900
C  6.81200 -1.36000 44.07800
C  7.10400 -0.27900 45.09300
O  6.38800 -0.20400 46.06100
O  8.14700 0.52000 44.80200
C  8.26500 1.79300 45.57400
H  0.53900 1.35600 42.20400
H  -2.14300 -4.18300 43.52200
H  3.39600 -6.47000 45.69400
H  5.30500 1.39500 43.66300
H  3.08400 1.99300 41.75300
H  3.82800 3.10400 44.09000
H  2.31700 2.37400 44.54800
H  2.53400 3.53200 43.09200
H  6.70200 0.88100 41.96700
H  5.44700 1.94900 41.32300
H  4.81100 -0.85800 40.87100
H  6.47900 -0.57700 40.48800
H  -2.59900 0.33600 40.67300
H  -1.16400 1.32100 40.83700
H  -2.60500 1.49600 41.97100
H  -5.40800 -2.76600 43.33900
H  -3.81600 -2.99600 44.09600
H  -4.20200 -3.75700 42.53500
H  -0.97200 -6.45400 43.75900
H  0.75500 -6.87400 46.23000
H  -1.73200 -6.60000 46.58500
H  -2.66900 -6.54700 45.15300
H  -1.98400 -4.95900 45.82800
H  1.71800 -7.55800 43.49700
H  0.28500 -8.42300 44.17500
H  2.85900 -9.18300 44.54500
H  1.39700 -9.76000 45.43200
H  2.39200 -8.48500 46.12200
H  6.31700 -6.71400 44.97200
H  5.82000 -6.35000 46.62100
H  7.23100 -5.60800 45.96100
H  7.40700 -1.22500 43.17500
H  7.29000 2.25900 45.71000
H  8.83700 2.51000 44.98500
H  8.84300 1.58500 46.47400
Mg 24.30300 -5.61100 45.67200
C  26.33800 -3.30800 44.06000
C  21.64000 -4.34700 43.73100
C  22.48200 -8.38900 46.25200
C  27.09700 -7.16500 46.98100
N  24.06600 -4.13300 43.84700
C  25.03000 -3.21200 43.59900
C  24.38900 -2.09500 42.68300
C  22.88000 -2.46000 42.64400
C  22.82200 -3.71900 43.49800
C  21.90100 -1.34400 43.13500
C  25.00900 -2.18400 41.24700
C  25.60200 -0.87300 40.63200
H  25.63400 -0.78100 39.06400
N  22.37000 -6.21700 45.15000
C  21.42300 -5.53800 44.44200
C  20.11800 -6.25400 44.47300
C  20.30900 -7.37500 45.34300
C  21.75600 -7.35100 45.65000
C  18.99400 -5.71700 43.64300
C  19.25800 -8.41400 45.67600
O  18.09500 -8.29800 45.24700
C  19.60700 -9.58800 46.50200
N  24.78700 -7.60700 46.29900
C  23.80600 -8.50100 46.61300
C  24.39800 -9.72700 47.28400
C  25.92200 -9.33800 47.38300
C  25.99200 -8.05400 46.78300
C  23.81300 -10.17200 48.65900
C  26.88000 -10.37800 46.83500
C  27.81100 -11.03400 47.84600
N  26.27800 -5.21100 45.79100
C  27.29000 -5.84900 46.48800
C  28.50100 -5.06200 46.43900
C  28.20200 -4.07400 45.48300
C  26.84700 -4.25300 45.04800
C  29.79000 -5.33000 47.10600
C  28.75300 -2.91300 44.80400
O  29.85600 -2.33200 44.84400
C  27.52800 -2.39200 43.84600
C  27.21700 -1.00300 44.24000
O  26.52200 -0.66100 45.13000
O  27.72200 -0.17300 43.18200
C  27.51000 1.27000 43.29200
H  20.77000 -3.91400 43.23300
H  21.96300 -9.32000 46.48600
H  27.93200 -7.64600 47.49500
H  24.56900 -1.09100 43.06700
H  22.51900 -2.65900 41.63500
H  21.50800 -0.81700 42.26600
H  22.53100 -0.62200 43.65500
H  21.14800 -1.69000 43.84300
H  24.61900 -2.73100 40.38800
H  25.93500 -2.73900 41.40000
H  26.62100 -0.85000 41.01700
H  25.13200 0.04400 40.98700
H  19.30800 -5.48100 42.62600
H  18.61600 -4.85700 44.19700
H  18.17500 -6.43500 43.65000
H  20.12100 -9.25800 47.40500
H  20.19800 -10.34800 45.99200
H  18.63400 -9.97100 46.81000
H  24.26900 -10.49900 46.52600
H  26.17600 -9.03600 48.39900
H  23.60200 -11.24100 48.68500
H  23.02500 -9.48600 48.97000
H  24.54100 -10.11700 49.46900
H  27.42300 -9.98600 45.97500
H  26.30700 -11.18700 46.38300
H  28.78700 -11.00800 47.36100
H  27.64800 -12.07500 48.12700
H  27.78900 -10.42500 48.74900
H  30.25800 -6.27600 46.83300
H  29.63600 -5.45600 48.17700
H  30.52300 -4.58500 46.79800
H  28.05300 -2.44000 42.89100
H  28.46000 1.63000 42.89700
H  27.36200 1.51600 44.34400
H  26.72700 1.54100 42.58400

