158

Mg 44.92600 4.70900 45.98100
C  43.31400 7.76900 46.04500
C  41.85900 3.17800 45.32800
C  46.63900 1.91200 45.31000
C  48.02000 6.56300 45.82400
N  42.86200 5.43400 45.44800
C  42.36500 6.74900 45.77200
C  40.91200 6.87200 45.51400
C  40.50900 5.32600 45.54000
C  41.82700 4.53100 45.52800
C  39.44700 4.94700 46.64800
C  40.65600 7.60400 44.21100
C  41.49900 7.15200 42.99700
H  40.76700 6.71900 41.72100
N  44.30200 2.79100 45.43400
C  43.01600 2.34000 45.17100
C  43.00600 0.95600 44.79000
C  44.41600 0.54800 44.88200
C  45.18900 1.75600 45.37500
C  41.81100 0.18000 44.46200
C  44.84500 -0.85900 44.52200
O  44.10400 -1.72200 44.07800
C  46.25900 -1.28300 44.64500
N  47.13700 4.33400 45.60500
C  47.50500 2.99300 45.44300
C  49.02600 2.93200 45.23400
C  49.38100 4.43200 45.62800
C  48.09400 5.18000 45.69000
C  49.70700 1.85100 46.19600
C  50.52900 5.09100 44.84400
C  51.57900 5.73900 45.74000
N  45.55800 6.74400 45.90100
C  46.80000 7.34100 45.94900
C  46.71900 8.74000 46.07200
C  45.30000 8.94400 46.16400
C  44.66100 7.70100 46.05100
C  47.71500 9.78700 46.09400
C  44.34800 9.94400 46.47200
O  44.53500 11.15800 46.69600
C  42.97800 9.21100 46.31400
C  42.13200 9.39600 47.52000
O  41.97600 8.54000 48.38600
O  41.38800 10.60300 47.46600
C  40.44400 10.66100 48.59300
H  40.85400 2.78800 45.15600
H  47.12500 0.96600 45.06000
H  48.96600 7.09600 45.93400
H  40.40600 7.27500 46.39100
H  39.96900 5.00200 44.65100
H  38.68200 5.69400 46.86300
H  39.93500 4.58800 47.55400
H  38.97900 4.07700 46.18800
H  40.72400 8.68600 44.32000
H  39.63000 7.30000 44.00300
H  42.20700 6.33700 43.15100
H  42.07600 7.99500 42.61800
H  41.87100 -0.60400 43.70700
H  40.95200 0.77700 44.15400
H  41.64000 -0.28200 45.43400
H  46.22600 -2.29100 44.23300
H  46.54800 -1.34000 45.69500
H  46.81000 -0.56600 44.03600
H  49.33200 2.60500 44.24000
H  49.64400 4.33700 46.68100
H  49.96500 0.97600 45.59900
H  48.98200 1.52100 46.94000
H  50.58100 2.26800 46.69600
H  50.15900 5.87300 44.18000
H  51.07000 4.42600 44.17000
H  51.52300 5.35800 46.75900
H  51.40300 6.81500 45.72200
H  52.54900 5.50600 45.30100
H  48.59100 9.31400 45.65000
H  47.95500 10.08600 47.11500
H  47.31200 10.68200 45.61900
H  42.49500 9.59100 45.41400
H  41.02500 10.77600 49.50800
H  39.73100 9.83700 48.57300
H  39.90800 11.60900 48.53400
Mg 49.75400 35.73600 28.35900
C  47.31400 34.24200 30.46100
C  49.86800 38.25700 30.38000
C  51.85100 37.12900 26.05500
C  49.32800 32.99100 26.12500
N  48.54100 36.23900 30.09100
C  47.76200 35.47000 30.91700
C  47.54000 36.13800 32.25000
C  47.99500 37.62700 31.97300
C  48.91100 37.38200 30.80200
C  46.99200 38.76500 31.77900
C  48.20000 35.27400 33.33500
C  49.15800 35.82600 34.34900
H  48.60700 37.01700 35.12000
N  50.74500 37.42800 28.25900
C  50.68800 38.39600 29.25300
C  51.63300 39.49200 28.97900
C  52.17600 39.14000 27.68400
C  51.56500 37.87100 27.27100
C  51.77100 40.62100 29.83800
C  53.18100 39.92900 26.83400
O  53.44900 39.58100 25.68900
C  54.04700 41.00600 27.37000
N  50.33800 35.22400 26.32700
C  51.24800 35.97300 25.62800
C  51.67500 35.34900 24.35800
C  50.91400 33.98900 24.37600
C  50.17200 34.02000 25.70700
C  51.58500 36.29300 23.07700
C  51.65400 32.67500 24.13100
C  50.95800 31.80500 23.07200
N  48.51900 34.06300 28.22100
C  48.58600 32.95300 27.31400
C  47.68800 31.88900 27.78100
C  47.24000 32.35000 29.01300
C  47.72300 33.64400 29.19000
C  47.47000 30.60600 27.08400
C  46.42500 32.01000 30.12400
O  45.67800 31.05200 30.36900
C  46.39300 33.16600 31.12300
C  46.92300 32.62900 32.39800
O  48.04500 32.22900 32.60800
O  45.92600 32.71600 33.35800
C  46.36300 32.16400 34.64500
H  50.04300 38.91300 31.23500
H  52.72300 37.43700 25.47500
H  49.30800 32.13300 25.44900
H  46.47700 36.08000 32.48500
H  48.66000 38.03300 32.73600
H  47.20600 39.13800 30.77800
H  47.17000 39.56500 32.49700
H  45.99500 38.34000 31.89800
H  48.89100 34.58200 32.85400
H  47.41100 34.92600 34.00200
H  50.08400 36.11900 33.85300
H  49.53400 35.09600 35.06500
H  52.79400 40.86700 30.12000
H  51.16800 40.49400 30.73800
H  51.36900 41.49400 29.32200
H  54.25100 40.89800 28.43500
H  53.50400 41.92300 27.14300
H  55.06800 40.84300 27.02600
H  52.72300 35.10500 24.53200
H  50.02900 34.06100 23.74400
H  51.36500 35.66900 22.21100
H  52.53100 36.82100 22.96000
H  50.85900 37.09200 23.23000
H  51.73500 32.13900 25.07700
H  52.68600 32.83500 23.81800
H  51.54900 31.58000 22.18400
H  49.95700 32.06300 22.72700
H  50.78600 30.83700 23.54400
H  48.35100 30.31800 26.50900
H  46.57000 30.85700 26.52400
H  47.16500 29.96500 27.91200
H  45.35100 33.48000 31.17000
H  45.49600 32.09700 35.30200
H  47.21900 32.69300 35.06300
H  46.65000 31.12400 34.48700

