158

Mg 8.27400 3.10000 27.77900
C  9.80200 1.91200 30.68000
C  6.72900 5.59000 29.48700
C  6.36200 3.68400 25.05400
C  10.06600 0.66300 26.01100
N  8.22300 3.62300 29.76800
C  8.91400 3.04900 30.81300
C  8.52000 3.73300 32.18100
C  7.59000 4.85100 31.72400
C  7.47700 4.68900 30.18000
C  6.27600 5.07000 32.57300
C  9.89500 4.09100 32.97100
C  9.76200 5.17300 34.03500
H  10.54900 4.96700 35.39900
N  6.78900 4.48800 27.34700
C  6.35900 5.48300 28.14900
C  5.31600 6.32100 27.44300
C  5.11400 5.66800 26.21400
C  6.06900 4.57200 26.14300
C  4.68700 7.47100 28.01400
C  4.10100 5.99400 25.17000
O  4.05500 5.40400 24.12400
C  3.18200 7.13600 25.27400
N  8.14700 2.23100 25.78200
C  7.22100 2.65800 24.89300
C  7.36400 1.80100 23.55400
C  8.73500 1.11800 23.82800
C  9.00000 1.33800 25.29700
C  6.16900 0.87700 23.25200
C  9.96200 1.56200 22.99900
C  10.91600 0.48700 22.62500
N  9.61600 1.61800 28.18500
C  10.14400 0.59500 27.36900
C  10.93900 -0.31400 28.15600
C  10.87200 0.24100 29.45300
C  10.04600 1.33200 29.44500
C  11.85700 -1.44400 27.75700
C  11.37500 0.08600 30.83400
O  12.25100 -0.62800 31.33500
C  10.57700 1.13000 31.70400
C  9.71400 0.33300 32.59400
O  8.56600 -0.00500 32.30200
O  10.43700 0.10800 33.81200
C  9.59100 -0.70700 34.71700
H  6.29300 6.36500 30.12000
H  5.77600 3.89500 24.15700
H  10.69200 -0.08700 25.52300
H  8.09400 2.87500 32.70000
H  8.19200 5.72600 31.97000
H  5.36500 5.37700 32.05900
H  6.41800 5.86100 33.30900
H  5.98900 4.15200 33.08600
H  10.66600 4.46800 32.29900
H  10.24800 3.19900 33.48900
H  8.68800 5.32600 34.14200
H  10.16000 6.08500 33.59000
H  3.65600 7.40000 28.35900
H  4.56500 8.31700 27.33700
H  5.26100 7.85900 28.85500
H  2.78500 7.11800 26.28900
H  2.42500 6.92300 24.51800
H  3.71800 8.07900 25.17200
H  7.41000 2.53800 22.75200
H  8.77900 0.06200 23.56200
H  6.32800 -0.13500 22.87800
H  5.45400 1.35900 22.58500
H  5.62100 0.78000 24.18900
H  10.60200 2.29200 23.49400
H  9.56100 2.03500 22.10300
H  10.82700 -0.42500 23.21500
H  11.90400 0.91400 22.79300
H  10.83800 0.25400 21.56300
H  12.84000 -1.19600 28.15800
H  11.88500 -1.59000 26.67700
H  11.55900 -2.40800 28.17000
H  11.26400 1.81400 32.20300
H  9.16900 -1.47400 34.06700
H  8.83100 -0.11400 35.22500
H  10.14100 -1.24800 35.48700
Mg 48.65900 45.54300 43.83400
C  45.09100 45.56800 42.83200
C  48.77100 42.34100 42.87600
C  51.86300 45.91500 43.80000
C  48.36700 49.15100 44.17600
N  47.12000 44.18500 42.84000
C  45.80900 44.36600 42.51000
C  45.24100 43.05100 42.01300
C  46.32800 42.02200 42.40000
C  47.53300 42.90200 42.80700
C  45.91600 41.09200 43.58100
C  44.65800 42.98800 40.61900
C  45.64900 43.07300 39.43200
H  45.36900 42.29100 38.09700
N  50.16500 44.21300 43.46200
C  50.03200 42.93900 43.01400
C  51.27900 42.31700 42.95700
C  52.19200 43.35400 43.18100
C  51.46100 44.55800 43.54000
C  51.51400 40.89800 42.50700
C  53.75500 43.07000 43.13200
O  54.16400 41.96800 42.89400
C  54.65400 44.11000 43.44700
N  49.93200 47.33400 43.77700
C  51.25800 47.16600 43.81400
C  52.04700 48.45600 43.83700
C  50.88300 49.56300 43.74200
C  49.57500 48.62300 43.77400
C  53.00900 48.77400 45.04600
C  51.01500 50.43500 42.50700
C  51.04300 52.00400 42.76900
N  47.05800 46.99100 43.73100
C  47.14600 48.39100 43.93200
C  45.82400 48.93700 43.71000
C  44.98200 47.88300 43.31800
C  45.75000 46.70300 43.32300
C  45.41600 50.38400 43.71400
C  43.63900 47.51900 42.81700
O  42.73000 48.20300 42.42000
C  43.63400 45.90500 42.55300
C  42.68400 45.21400 43.44800
O  42.14100 44.07900 43.17000
O  42.26800 45.99300 44.53400
C  41.39600 45.41400 45.56000
H  48.83400 41.25500 42.78300
H  52.94900 45.91200 43.91400
H  48.36000 50.19200 44.50700
H  44.33400 42.91000 42.60100
H  46.50700 41.36900 41.54600
H  44.88300 41.28500 43.86900
H  46.55400 41.32900 44.43200
H  46.02400 40.02900 43.36200
H  43.83400 43.68600 40.47100
H  44.13000 42.04100 40.50600
H  46.63500 42.96400 39.88200
H  45.53500 44.08800 39.05000
H  52.28100 40.83600 41.73500
H  50.61100 40.33400 42.27800
H  51.92500 40.30100 43.32200
H  54.57800 45.02300 42.85600
H  55.68500 43.75900 43.41600
H  54.40700 44.34900 44.48100
H  52.63900 48.52900 42.92500
H  50.89900 50.28900 44.55400
H  52.59000 49.57300 45.65800
H  53.90500 49.18400 44.57900
H  53.25700 47.92400 45.68300
H  50.10400 50.28400 41.92800
H  51.74200 50.11200 41.76200
H  51.88100 52.48800 42.26600
H  51.17900 52.20700 43.83100
H  50.08800 52.46800 42.52100
H  44.71600 50.80300 44.43700
H  44.83700 50.41900 42.79100
H  46.23300 51.10600 43.70600
H  43.23200 45.68000 41.56500
H  41.40600 45.68300 46.61600
H  41.34500 44.33800 45.39200
H  40.36800 45.58600 45.24000

