158

Mg 23.29800 -6.33800 45.42200
C  25.81200 -4.05500 44.37400
C  21.02200 -4.55300 43.62300
C  21.40200 -9.08100 45.47200
C  25.99800 -8.22900 46.90700
N  23.49300 -4.54000 44.05500
C  24.52900 -3.71000 43.84300
C  24.15100 -2.46200 43.02100
C  22.60600 -2.52800 43.16300
C  22.31400 -3.99700 43.60400
C  22.06700 -1.40500 44.13700
C  24.76600 -2.51000 41.67400
C  25.56400 -1.25200 41.24300
H  25.68200 -0.91100 39.74900
N  21.29500 -6.78200 44.75000
C  20.58600 -5.89100 43.95100
C  19.28100 -6.50300 43.76900
C  19.37400 -7.80900 44.38400
C  20.73200 -7.98200 44.87800
C  18.28800 -5.65300 43.05700
C  18.19300 -8.77500 44.56300
O  17.04600 -8.42600 44.20900
C  18.40800 -9.98100 45.32500
N  23.69700 -8.34100 46.07800
C  22.73800 -9.28600 46.03600
C  23.23400 -10.62800 46.56700
C  24.63800 -10.25700 47.12200
C  24.80500 -8.88400 46.59200
C  22.25500 -11.34400 47.55400
C  25.72700 -11.21400 46.60300
C  26.64400 -12.01400 47.59700
N  25.46700 -6.18400 45.70100
C  26.36600 -6.98700 46.35600
C  27.69900 -6.51600 46.20600
C  27.55900 -5.33300 45.47600
C  26.18500 -5.18600 45.17300
C  28.97400 -7.13700 46.80600
C  28.22200 -4.14900 44.89100
O  29.40300 -3.80700 44.88100
C  27.08100 -3.21900 44.22200
C  27.03600 -1.89400 44.90900
O  26.28500 -1.62700 45.78700
O  27.92200 -0.98000 44.36500
C  27.88000 0.45200 44.73500
H  20.25700 -3.90500 43.19100
H  20.90100 -10.04300 45.60100
H  26.70800 -8.91700 47.37100
H  24.48400 -1.53200 43.48200
H  22.10100 -2.45800 42.20000
H  21.58100 -1.78200 45.03800
H  21.36000 -0.77600 43.59700
H  22.85400 -0.77900 44.55600
H  23.96400 -2.57700 40.93800
H  25.36300 -3.40900 41.52400
H  26.56100 -1.38900 41.66000
H  25.11000 -0.36800 41.69200
H  18.10800 -4.72200 43.59400
H  17.28000 -6.06500 43.02200
H  18.63900 -5.36500 42.06500
H  17.45300 -10.47800 45.49300
H  18.89700 -9.78000 46.27900
H  18.95800 -10.74800 44.77900
H  23.34600 -11.25200 45.68000
H  24.62100 -10.18100 48.20900
H  22.05700 -12.36200 47.21800
H  21.32600 -10.78700 47.67500
H  22.58400 -11.22500 48.58600
H  26.37700 -10.71000 45.88800
H  25.25900 -11.89800 45.89500
H  27.67600 -11.84500 47.29000
H  26.49700 -13.08900 47.69400
H  26.48000 -11.57600 48.58200
H  29.36800 -7.92400 46.16400
H  28.77300 -7.64000 47.75200
H  29.68700 -6.34000 47.01700
H  27.33800 -3.14500 43.16600
H  26.91600 0.69600 45.18200
H  28.00200 1.17700 43.93000
H  28.62300 0.69400 45.49400
Mg 35.22800 2.30200 29.79800
C  33.09800 3.65100 32.21900
C  37.61600 2.06300 32.16100
C  37.45500 1.91500 27.22900
C  32.75900 3.17200 27.38000
N  35.25300 2.82000 31.88900
C  34.28900 3.24300 32.75400
C  34.64500 3.14700 34.19800
C  36.22200 3.01000 34.10300
C  36.38900 2.62900 32.56100
C  37.07700 4.17800 34.61600
C  33.94200 1.98900 35.02800
C  33.96000 2.23100 36.57900
H  34.86500 3.32300 37.19900
N  37.30900 2.00400 29.73200
C  38.11800 1.81800 30.84800
C  39.38700 1.43300 30.40800
C  39.41600 1.41200 28.94900
C  38.00500 1.85600 28.58600
C  40.50800 1.22800 31.40400
C  40.60500 1.11600 28.02900
O  40.54200 1.21700 26.80200
C  41.90900 0.61900 28.67900
N  35.14600 2.54200 27.63400
C  36.18600 2.15700 26.82100
C  35.76200 2.15400 25.32000
C  34.18000 2.48600 25.43100
C  34.02000 2.76200 26.91300
C  36.70300 3.04900 24.42200
C  33.20500 1.31300 25.04000
C  32.21400 1.64200 23.95300
N  33.30300 3.04000 29.72300
C  32.44000 3.41500 28.66200
C  31.18700 3.97500 29.17600
C  31.44800 3.99800 30.57600
C  32.73400 3.49900 30.85700
C  30.06400 4.68200 28.42200
C  30.86600 4.46900 31.81800
O  29.84200 5.03500 32.15100
C  31.86600 4.06600 32.97000
C  32.20000 5.31300 33.75100
O  32.97500 6.21100 33.47400
O  31.52400 5.19400 34.97700
C  31.85000 6.16800 36.05500
H  38.29000 1.95700 33.01300
H  38.20800 1.65700 26.48100
H  31.93400 3.25600 26.66900
H  34.39900 4.12100 34.62100
H  36.57100 2.10900 34.60600
H  37.90900 4.48400 33.98300
H  37.53200 3.74100 35.50400
H  36.46500 5.05400 34.83500
H  34.48300 1.10700 34.68500
H  32.93700 1.81900 34.64200
H  34.04300 1.22400 36.98600
H  32.96900 2.53900 36.91400
H  41.36700 1.85800 31.17200
H  40.84800 0.19200 31.42300
H  40.17700 1.51400 32.40300
H  42.66100 0.15200 28.04400
H  41.68200 -0.10700 29.45900
H  42.37000 1.51700 29.09100
H  35.95000 1.12400 25.01600
H  33.80100 3.36300 24.90700
H  37.16600 3.82300 25.03400
H  36.07300 3.70600 23.82300
H  37.43000 2.58200 23.75800
H  32.80200 0.80200 25.91400
H  33.91700 0.68500 24.50400
H  32.73000 1.65000 22.99300
H  31.91500 2.68500 24.06500
H  31.42200 0.90000 24.05400
H  29.22700 5.03600 29.02400
H  29.77900 4.08500 27.55600
H  30.51600 5.53500 27.91700
H  31.61800 3.25000 33.64900
H  31.30000 7.10900 36.05100
H  32.91600 6.36600 35.93700
H  31.76900 5.73700 37.05200

