158

Mg 1.56700 8.68900 27.57300
C  2.17900 10.77300 30.25200
C  1.25000 6.07400 29.66500
C  1.40100 6.65700 24.76000
C  1.61900 11.58800 25.42000
N  1.74000 8.43800 29.70300
C  1.92800 9.43600 30.65100
C  1.58300 8.97400 32.05900
C  1.68000 7.39300 31.87700
C  1.47500 7.31800 30.31400
C  2.95300 6.66500 32.34800
C  0.09100 9.44000 32.54300
C  -0.17200 9.40000 34.05400
H  1.00300 8.84800 34.93400
N  1.31600 6.68400 27.26400
C  1.18200 5.73900 28.29500
C  0.83100 4.47300 27.65100
C  0.88800 4.58000 26.21800
C  1.27500 5.98800 26.01600
C  0.52100 3.24200 28.48300
C  0.63100 3.56700 25.18100
O  0.70200 3.82500 23.97700
C  0.26100 2.09800 25.54100
N  1.46800 9.05600 25.40200
C  1.42000 8.03200 24.48700
C  1.51300 8.56700 23.01900
C  1.33500 10.12400 23.25600
C  1.44200 10.31000 24.73800
C  2.93400 8.25500 22.38000
C  0.05000 10.83300 22.66700
C  0.25600 11.74900 21.50400
N  1.90400 10.68600 27.71600
C  1.94900 11.70000 26.83900
C  2.17200 12.90300 27.53700
C  2.32700 12.61600 28.87000
C  2.16400 11.24500 28.98500
C  2.26600 14.21700 26.84400
C  2.57400 13.19800 30.16700
O  2.94100 14.31300 30.51500
C  2.45200 12.01500 31.17300
C  3.57200 11.90100 32.18500
O  4.73300 11.79900 31.92800
O  3.03300 12.08000 33.44500
C  3.97800 12.08600 34.56200
H  0.91300 5.30800 30.36700
H  1.40200 6.11500 23.81200
H  1.68000 12.49000 24.80800
H  2.32400 9.34400 32.76800
H  0.89900 6.86100 32.42000
H  3.58800 7.22100 33.03900
H  3.60700 6.42500 31.51000
H  2.70800 5.76000 32.90400
H  -0.60300 8.72100 32.10800
H  -0.10800 10.42900 32.13300
H  -1.06300 8.78700 34.19100
H  -0.23000 10.41500 34.44700
H  1.26600 2.45600 28.36000
H  -0.40000 2.68200 28.31600
H  0.67500 3.39200 29.55100
H  1.02800 1.73500 26.22400
H  0.24800 1.57100 24.58700
H  -0.69200 2.17000 26.06600
H  0.70500 8.26800 22.35100
H  2.23200 10.71700 23.07800
H  3.50200 7.51000 22.93800
H  3.56700 9.12400 22.20400
H  2.69900 7.73100 21.45300
H  -0.48400 11.34000 23.47100
H  -0.64000 10.05500 22.34100
H  -0.44600 11.46800 20.71900
H  1.21600 11.76200 20.98800
H  0.04500 12.77200 21.81600
H  1.37600 14.25000 26.21600
H  3.16700 14.47800 26.29000
H  2.26900 14.94700 27.65300
H  1.60200 12.32700 31.78000
H  4.80600 12.77100 34.38600
H  4.30300 11.05400 34.69500
H  3.42900 12.33900 35.47000
Mg -5.26500 26.11600 26.91700
C  -4.21900 27.80400 29.82400
C  -7.34400 24.25800 28.80000
C  -5.89100 24.24800 24.13600
C  -2.90800 27.90600 25.16100
N  -5.65200 26.02000 29.09900
C  -5.25300 26.88500 30.10300
C  -6.01800 26.66700 31.36500
C  -6.84200 25.43600 31.08400
C  -6.55600 25.15800 29.58200
C  -6.52700 24.09900 31.94600
C  -6.87900 27.96200 31.69200
C  -7.47600 27.99500 33.09500
H  -7.15500 26.93900 34.17500
N  -6.60000 24.58200 26.46700
C  -7.38300 23.92800 27.41800
C  -8.19400 22.91100 26.71000
C  -7.80100 22.88000 25.36200
C  -6.67600 23.89000 25.27700
C  -9.32100 22.12700 27.41800
C  -8.19500 21.99300 24.22400
O  -7.68500 22.07900 23.15800
C  -9.22700 20.94000 24.48400
N  -4.70000 26.22100 24.89300
C  -4.96600 25.24000 23.95100
C  -4.29200 25.58800 22.60000
C  -3.42600 26.83500 22.95300
C  -3.68600 27.02500 24.44300
C  -3.58600 24.45700 21.85300
C  -3.74400 28.13600 22.12700
C  -3.27300 28.13000 20.63500
N  -3.80900 27.45800 27.36000
C  -2.97700 28.15700 26.51900
C  -2.22000 29.15800 27.28300
C  -2.75500 29.11300 28.49400
C  -3.66900 28.01600 28.55700
C  -1.33200 30.24900 26.78400
C  -2.61400 29.73200 29.79500
O  -1.90100 30.67600 30.13700
C  -3.57900 28.93800 30.73500
C  -2.70500 28.19200 31.73400
O  -1.77000 27.48600 31.39100
O  -3.17000 28.44600 32.99700
C  -2.45700 27.77300 34.01500
H  -7.97700 23.75100 29.53100
H  -6.12300 23.69800 23.22200
H  -2.04300 28.43800 24.75900
H  -5.36700 26.49000 32.22100
H  -7.90200 25.59100 31.28500
H  -6.38200 23.26200 31.26300
H  -7.48000 23.99100 32.46500
H  -5.71500 24.16900 32.66900
H  -7.64800 28.15100 30.94400
H  -6.14400 28.76000 31.80700
H  -8.55100 28.14900 33.00200
H  -7.07700 28.81300 33.69400
H  -8.89200 21.16900 27.71400
H  -10.15700 21.94600 26.74200
H  -9.66200 22.77600 28.22400
H  -10.16400 21.46100 24.68200
H  -9.03000 20.31400 25.35400
H  -9.24900 20.30600 23.59700
H  -4.98200 25.90200 21.81600
H  -2.38000 26.55500 22.82300
H  -2.51800 24.60200 21.68900
H  -4.02600 24.32200 20.86500
H  -3.62000 23.50200 22.37900
H  -3.50000 29.01600 22.72200
H  -4.82400 28.27300 22.07600
H  -2.64700 27.25400 20.46500
H  -2.57900 28.95700 20.48200
H  -4.08400 28.30300 19.92800
H  -1.93300 30.98600 26.25100
H  -0.62400 29.77000 26.10800
H  -0.85900 30.86100 27.55200
H  -4.34400 29.56300 31.19500
H  -1.50400 28.22600 34.28800
H  -2.18800 26.75300 33.73800
H  -3.01100 27.75400 34.95300

