158

Mg 48.11100 25.69100 28.05000
C  49.12200 27.89200 30.62400
C  47.71500 23.23800 30.40800
C  47.32200 23.56800 25.60400
C  49.69200 27.84800 25.73400
N  48.37200 25.62800 30.30200
C  48.65700 26.66800 31.13100
C  48.40200 26.31300 32.62800
C  48.10400 24.73400 32.53000
C  48.10500 24.47400 30.97500
C  48.85900 23.69000 33.32900
C  47.32600 27.32100 33.25700
C  46.59900 26.88800 34.51200
H  46.60000 27.82000 35.78900
N  47.51800 23.70200 28.07800
C  47.52000 22.80300 29.09300
C  46.89400 21.54000 28.64000
C  46.61400 21.73900 27.24500
C  47.19000 23.02800 26.90600
C  46.75400 20.36800 29.51700
C  45.87200 20.85500 26.30400
O  45.67700 21.15600 25.14800
C  45.44900 19.52700 26.79500
N  48.36700 25.71500 25.99500
C  47.88700 24.77700 25.20600
C  48.15200 25.08300 23.68700
C  48.85300 26.44800 23.74000
C  48.97200 26.73900 25.26100
C  49.01600 23.99600 22.92100
C  48.14100 27.63700 22.99400
C  48.98200 28.36300 21.99900
N  49.10000 27.55600 28.10400
C  49.72100 28.30200 27.10200
C  50.22500 29.55600 27.59000
C  50.00600 29.40400 28.96400
C  49.34500 28.16700 29.26000
C  50.89100 30.63300 26.77900
C  50.19100 30.04700 30.22700
O  50.79600 31.07500 30.44500
C  49.61500 29.13500 31.32800
C  50.70900 28.91000 32.33300
O  51.77600 28.32800 32.16300
O  50.29900 29.33800 33.55900
C  51.02800 28.77700 34.68600
H  47.36300 22.52000 31.15100
H  46.91300 22.98900 24.77400
H  50.11200 28.51400 24.97700
H  49.34200 26.40900 33.17200
H  47.05100 24.62200 32.78500
H  48.22400 23.28600 34.11700
H  49.74100 24.03600 33.86800
H  49.27300 22.85100 32.77100
H  46.64100 27.39600 32.41200
H  47.85100 28.25000 33.48000
H  47.06400 25.92700 34.73200
H  45.57700 26.67700 34.19600
H  47.20300 19.47400 29.08300
H  45.68900 20.23400 29.71000
H  47.19600 20.51300 30.50200
H  44.66100 19.61300 27.54300
H  46.30400 18.97400 27.18500
H  45.05500 18.88600 26.00600
H  47.19800 25.15700 23.16400
H  49.85400 26.27000 23.35000
H  50.07000 23.88000 23.17300
H  48.86000 24.09500 21.84700
H  48.54600 23.04400 23.16500
H  47.85000 28.37800 23.73800
H  47.41200 27.18000 22.32400
H  49.95100 27.86900 21.93100
H  49.07100 29.43200 22.19500
H  48.45800 28.32500 21.04400
H  50.18400 30.99400 26.03100
H  51.68800 30.12000 26.24200
H  51.26400 31.48900 27.34100
H  48.85500 29.72900 31.83600
H  50.31400 28.79300 35.50900
H  51.76500 29.45800 35.11000
H  51.37600 27.76200 34.49200
Mg -12.03600 38.72200 43.03900
C  -9.93000 36.16400 41.84700
C  -9.94000 40.93700 41.25300
C  -14.45200 41.04900 43.26200
C  -14.12900 36.30600 44.32500
N  -10.18900 38.52600 41.57100
C  -9.55600 37.39200 41.31600
C  -8.36200 37.58500 40.40600
C  -8.20600 39.14100 40.50600
C  -9.58800 39.56200 41.07800
C  -7.05200 39.62100 41.40000
C  -8.75000 37.08400 38.89800
C  -7.79000 36.00100 38.31400
H  -6.89400 36.44000 37.12900
N  -12.22500 40.75300 42.32500
C  -11.17100 41.51000 41.71700
C  -11.63200 42.88000 41.68100
C  -12.95700 42.95300 42.17400
C  -13.30000 41.56100 42.62500
C  -10.80400 44.00800 41.18700
C  -13.85800 44.16100 42.22600
O  -13.41300 45.24000 41.90700
C  -15.31400 44.04100 42.59700
N  -14.03900 38.74500 43.56900
C  -14.82700 39.77500 43.74300
C  -16.18500 39.45800 44.47200
C  -16.03600 37.96600 44.69200
C  -14.66200 37.61500 44.19200
C  -16.69400 40.30100 45.71700
C  -17.13100 37.06100 44.00300
C  -16.86400 36.45400 42.65800
N  -12.06600 36.70700 43.11500
C  -12.91100 35.84300 43.76800
C  -12.42500 34.46200 43.71400
C  -11.30200 34.60300 42.95300
C  -11.10600 35.96000 42.63000
C  -12.99900 33.18900 44.36000
C  -10.24600 33.76800 42.34800
O  -10.11000 32.52000 42.40800
C  -9.18000 34.78800 41.78900
C  -7.88100 34.68900 42.64000
O  -7.23500 33.66300 42.68100
O  -7.51400 35.84500 43.34100
C  -6.42700 35.70600 44.26900
H  -9.19100 41.66800 40.94100
H  -15.28600 41.72500 43.46200
H  -14.77200 35.52600 44.73900
H  -7.47100 37.06200 40.75400
H  -8.08200 39.65700 39.55300
H  -7.40700 39.86800 42.40100
H  -6.60500 40.41300 40.79900
H  -6.23200 38.91500 41.52500
H  -8.76800 37.85400 38.12700
H  -9.72100 36.58900 38.91300
H  -8.32100 35.12300 37.94700
H  -7.18100 35.61500 39.13100
H  -11.00400 44.18900 40.13100
H  -9.76200 43.70100 41.27700
H  -11.02100 44.92100 41.74100
H  -15.89600 43.36100 41.97500
H  -15.79300 45.01400 42.49700
H  -15.32800 43.87200 43.67400
H  -16.90900 39.69600 43.69400
H  -15.92500 37.75600 45.75500
H  -17.54100 40.95300 45.50100
H  -15.82600 40.90500 45.98100
H  -16.78000 39.68200 46.61000
H  -18.04100 37.63800 43.83400
H  -17.39200 36.25300 44.68600
H  -16.27100 35.55100 42.79900
H  -16.38400 37.16800 41.98900
H  -17.72600 36.24800 42.02400
H  -12.28800 32.38800 44.56200
H  -13.79300 32.74600 43.75900
H  -13.46600 33.37200 45.32800
H  -8.86700 34.63800 40.75600
H  -5.75500 36.55100 44.12100
H  -5.80400 34.82000 44.15000
H  -6.74500 35.89900 45.29400

