158

Mg 28.32900 56.64200 40.69300
C  26.71800 53.68000 39.81600
C  31.27200 55.34600 39.32300
C  29.83900 59.53000 41.42400
C  25.16600 58.03000 41.36600
N  28.90700 54.70300 39.67900
C  28.05000 53.67700 39.39200
C  28.73800 52.51500 38.78700
C  30.22600 52.92300 38.83300
C  30.17800 54.39600 39.39200
C  31.32500 51.96800 39.58700
C  28.16000 51.93500 37.38100
C  27.67700 53.08600 36.45800
H  27.94400 53.01400 34.94800
N  30.34200 57.37100 40.36200
C  31.34000 56.71300 39.78300
C  32.50400 57.63300 39.70600
C  32.15200 58.83700 40.38500
C  30.73600 58.61300 40.78900
C  33.86100 57.22200 39.09200
C  33.05100 60.01900 40.58300
O  34.22300 59.89900 40.27000
C  32.67000 61.27600 41.32000
N  27.59000 58.54800 41.03400
C  28.41500 59.50400 41.50500
C  27.64800 60.75200 42.06200
C  26.14900 60.36400 41.83900
C  26.24600 58.87500 41.39100
C  28.01500 61.02800 43.52900
C  25.46800 61.20300 40.71100
C  26.31100 61.54500 39.51100
N  26.29200 56.00000 40.75200
C  25.12100 56.65300 41.01500
C  23.92500 55.76100 40.87500
C  24.53700 54.60000 40.45400
C  25.96900 54.79100 40.34300
C  22.53400 56.09400 41.26100
C  24.31600 53.21900 40.05700
O  23.29000 52.59500 39.99000
C  25.72000 52.52400 39.81700
C  25.93000 51.51300 40.87500
O  25.74500 51.69200 42.08200
O  26.58900 50.50900 40.31700
C  27.35000 49.58900 41.20000
H  32.25900 55.00400 39.00200
H  30.36900 60.38700 41.84600
H  24.24200 58.31400 41.87300
H  28.63000 51.66400 39.45900
H  30.51400 53.06200 37.79100
H  32.22000 51.87200 38.97300
H  30.79900 51.06000 39.88200
H  31.66100 52.47900 40.49000
H  27.33500 51.26400 37.62400
H  28.93900 51.35500 36.88600
H  28.21800 54.00500 36.68300
H  26.62700 53.29800 36.65800
H  34.21800 58.01300 38.43300
H  33.80700 56.22400 38.65800
H  34.60800 57.07100 39.87200
H  32.23500 60.97800 42.27400
H  31.97200 61.87300 40.73400
H  33.52900 61.82700 41.70300
H  27.89900 61.67000 41.53100
H  25.59700 60.36900 42.77900
H  27.13100 61.10200 44.16100
H  28.51300 61.98700 43.67400
H  28.54000 60.21500 44.03200
H  25.14200 62.13100 41.17900
H  24.57200 60.77400 40.26100
H  27.15500 60.88300 39.31700
H  26.68300 62.54700 39.72600
H  25.69500 61.53800 38.61200
H  22.25900 57.10500 40.96000
H  22.49400 55.97000 42.34400
H  21.91200 55.32500 40.80400
H  25.53200 51.98600 38.88800
H  28.38000 49.45900 40.86700
H  26.85900 48.63000 41.36200
H  27.47200 50.06300 42.17400
Mg 9.45200 47.92600 25.43900
C  7.14400 48.33500 28.10200
C  11.81300 49.29600 27.64000
C  11.69800 47.80800 22.94300
C  6.84500 47.01800 23.28000
N  9.49700 48.44700 27.70800
C  8.46100 48.65500 28.50900
C  8.96900 49.04000 29.92400
C  10.29000 49.74500 29.60800
C  10.59100 49.09900 28.26600
C  10.20000 51.21600 29.51900
C  9.09100 47.77300 30.75300
C  8.62900 47.92200 32.17600
H  8.87700 46.79500 33.19800
N  11.47800 48.43500 25.32200
C  12.28100 48.95000 26.34700
C  13.63000 49.19200 25.84100
C  13.62300 48.73900 24.47600
C  12.20600 48.34700 24.19300
C  14.78900 49.65500 26.58000
C  14.72900 48.42700 23.53000
O  14.54900 48.05300 22.39400
C  16.14600 48.72700 23.96900
N  9.27600 47.61900 23.39900
C  10.36600 47.49500 22.53300
C  9.95300 47.18400 21.09400
C  8.41900 46.80400 21.24900
C  8.18200 47.16800 22.74700
C  10.17100 48.30400 20.08800
C  8.07900 45.32200 20.93700
C  8.57500 44.33100 21.99800
N  7.40900 47.76400 25.57600
C  6.51800 47.42400 24.61200
C  5.14100 47.44000 25.19200
C  5.39200 47.65200 26.55200
C  6.78800 47.91800 26.72700
C  3.87900 47.19300 24.51200
C  4.74200 47.84600 27.87500
O  3.57400 47.80700 28.30300
C  5.86100 48.21500 28.88800
C  5.87100 47.18200 29.94600
O  6.31600 46.04900 29.73800
O  5.37900 47.61300 31.15700
C  5.37600 46.65500 32.24600
H  12.56800 49.66000 28.34100
H  12.32100 47.69300 22.05300
H  5.96700 46.73800 22.69400
H  8.28100 49.78500 30.32300
H  11.11800 49.45600 30.25500
H  9.16900 51.56700 29.46900
H  10.56500 51.61100 28.57100
H  10.68200 51.63700 30.40000
H  10.14900 47.65900 30.98900
H  8.64500 46.89900 30.27700
H  7.61600 48.31300 32.26700
H  9.19900 48.71400 32.66300
H  15.39800 50.30600 25.95300
H  15.32000 48.75100 26.87700
H  14.33600 50.07600 27.47800
H  16.41200 49.78400 23.99900
H  16.75000 48.14700 23.27100
H  16.31100 48.27100 24.94500
H  10.50200 46.29500 20.78500
H  7.66800 47.40500 20.73800
H  9.78400 49.28100 20.37900
H  9.62000 48.11000 19.16800
H  11.20000 48.41500 19.74800
H  8.41200 45.06700 19.93200
H  6.98900 45.30700 20.92900
H  9.28100 44.67100 22.75600
H  9.04100 43.46700 21.52400
H  7.73900 43.95900 22.59000
H  3.99100 46.90000 23.46800
H  3.34800 48.14400 24.52300
H  3.22100 46.46600 24.98900
H  5.67200 49.19700 29.32100
H  5.90300 47.18900 33.03600
H  5.71500 45.67900 31.89700
H  4.31200 46.48700 32.41400

