158

Mg 53.70300 23.58700 45.20400
C  51.24800 25.71300 43.77200
C  52.07700 20.95500 43.88300
C  56.40300 21.79600 45.48100
C  55.30600 26.52500 46.30400
N  51.93700 23.40200 43.96900
C  51.08300 24.35800 43.55700
C  49.87200 23.76500 42.78000
C  50.00200 22.24900 43.25000
C  51.43400 22.17400 43.67200
C  49.05700 21.87100 44.41600
C  49.99700 23.95100 41.26200
C  48.77700 24.23400 40.36100
H  49.04800 24.49900 38.82600
N  54.17500 21.60400 44.82800
C  53.42200 20.69000 44.22400
C  54.06200 19.35700 44.30600
C  55.32200 19.60300 44.74300
C  55.36500 21.02600 44.95300
C  53.31100 18.06000 44.00800
C  56.39700 18.62200 44.90400
O  56.05800 17.46700 44.65400
C  57.82300 18.95100 45.27000
N  55.55000 24.10700 45.77800
C  56.50400 23.14100 45.89500
C  57.89200 23.80200 46.17000
C  57.48200 25.16100 46.86300
C  56.05000 25.32000 46.27500
C  58.82900 23.00000 47.12000
C  58.42900 26.37500 46.60900
C  58.67800 27.32300 47.69000
N  53.30100 25.67100 45.25200
C  53.96800 26.67600 45.82000
C  53.25000 27.93500 45.68900
C  52.09600 27.57300 44.92200
C  52.26400 26.20400 44.61800
C  53.63500 29.21600 46.33700
C  50.82000 28.03300 44.32900
O  50.23600 29.10000 44.37300
C  50.26800 26.84900 43.57800
C  50.04900 27.22700 42.19400
O  50.88300 27.59100 41.37100
O  48.69500 27.35100 41.95900
C  48.45700 27.80300 40.53000
H  51.46400 20.11800 43.54600
H  57.36000 21.37000 45.79000
H  55.83000 27.40600 46.67900
H  48.99400 24.32400 43.10600
H  49.86000 21.52000 42.45200
H  48.26700 22.62200 44.44200
H  49.53600 21.80000 45.39300
H  48.43000 21.01800 44.15700
H  50.56400 23.06300 40.98200
H  50.67700 24.78600 41.10000
H  48.34900 25.02400 40.97800
H  48.08300 23.39400 40.34500
H  52.30100 18.26700 43.65500
H  53.16700 17.44200 44.89400
H  53.82400 17.49200 43.23200
H  58.23400 19.87500 44.86300
H  58.48300 18.10000 45.09900
H  57.74100 19.10000 46.34700
H  58.43900 23.97300 45.24200
H  57.28100 25.17400 47.93400
H  58.22300 22.19000 47.52700
H  59.28400 23.57300 47.92800
H  59.61700 22.57000 46.50200
H  57.95800 26.95500 45.81500
H  59.39500 26.00300 46.26800
H  59.74200 27.47600 47.86700
H  58.18300 26.97000 48.59500
H  58.15000 28.25600 47.48900
H  52.71900 29.50800 46.85200
H  53.96900 29.99100 45.64700
H  54.41300 29.08900 47.09000
H  49.29400 26.59100 43.99500
H  47.50000 27.41700 40.17800
H  49.13100 27.24200 39.88300
H  48.48800 28.88100 40.37400
Mg 6.82000 54.46500 40.58700
C  6.54200 50.89400 40.46200
C  10.12700 54.09400 39.49200
C  6.97800 57.87900 39.68300
C  3.39600 54.62800 40.81800
N  8.07700 52.70900 40.07800
C  7.83500 51.32900 40.11800
C  9.03300 50.49800 39.73500
C  10.19200 51.55700 39.83100
C  9.42100 52.90600 39.71800
C  11.14200 51.41000 41.09300
C  8.91100 49.87000 38.33700
C  8.61700 50.77500 37.23400
H  7.29400 50.65600 36.54400
N  8.38900 55.81800 39.75800
C  9.66400 55.45100 39.47700
C  10.38300 56.65900 39.03700
C  9.52900 57.76400 39.42000
C  8.21900 57.17500 39.63800
C  11.83700 56.74300 38.57700
C  9.92800 59.20800 39.55400
O  11.09000 59.53800 39.32400
C  8.88800 60.22400 39.76500
N  5.42700 56.03800 40.25900
C  5.70800 57.36500 40.12800
C  4.44800 58.24400 40.26500
C  3.28200 57.13300 40.46900
C  4.08300 55.84000 40.48400
C  4.53700 59.32700 41.37500
C  2.09400 57.10100 39.36000
C  0.64500 57.53100 39.77100
N  5.25200 53.12700 40.85300
C  3.90700 53.35600 40.96300
C  3.23500 52.09500 41.22300
C  4.21500 51.20300 41.03800
C  5.41900 51.80300 40.81100
C  1.79100 51.82000 41.36300
C  4.40300 49.75700 41.13000
O  3.67400 48.81800 41.44400
C  5.96200 49.56400 40.69000
C  5.86400 48.72500 39.46000
O  5.54000 49.08500 38.34900
O  6.16000 47.45100 39.77400
C  5.74500 46.45700 38.81100
H  11.15700 53.94400 39.16300
H  6.83700 58.86500 39.23600
H  2.35200 54.76000 41.11000
H  9.17800 49.70700 40.47000
H  10.80100 51.43600 38.93500
H  10.62500 50.79700 41.83200
H  11.37400 52.40700 41.46700
H  12.11200 50.98700 40.83400
H  8.15400 49.09200 38.23700
H  9.86300 49.40200 38.08700
H  9.34400 50.72000 36.42400
H  8.68000 51.82200 37.53100
H  11.97900 57.20300 37.59900
H  12.27200 55.74500 38.52100
H  12.52000 57.30200 39.21700
H  8.26500 60.50500 38.91600
H  9.26500 61.22700 39.96300
H  8.31700 60.05600 40.67800
H  4.24200 58.75800 39.32600
H  2.79300 57.25900 41.43400
H  5.17400 59.01700 42.20300
H  3.51800 59.35900 41.75900
H  4.97200 60.25600 41.00600
H  2.03400 56.03900 39.12200
H  2.35400 57.64400 38.45100
H  -0.12700 56.79600 39.54400
H  0.35700 58.38100 39.15200
H  0.63700 57.78500 40.83000
H  1.79700 50.89000 41.93200
H  1.21700 51.78700 40.43700
H  1.35400 52.62200 41.95800
H  6.47300 48.96000 41.44000
H  4.98500 46.82100 38.12000
H  5.35400 45.53400 39.24000
H  6.69800 46.16600 38.37000

