158

Mg 16.88000 -1.80000 28.12200
C  15.86800 0.32600 30.46300
C  19.23800 -3.14800 30.33100
C  18.14700 -3.75600 25.49400
C  15.34600 0.25300 25.66100
N  17.45100 -1.43900 30.16100
C  16.81000 -0.62100 30.99200
C  17.19800 -0.76200 32.47800
C  18.44700 -1.68500 32.38600
C  18.39800 -2.13500 30.88300
C  19.85200 -1.20800 32.84500
C  16.02300 -1.33800 33.30100
C  15.72800 -0.58100 34.69600
H  16.93800 -0.16500 35.52100
N  18.29700 -3.27300 28.00200
C  19.13100 -3.70100 29.03000
C  19.79400 -4.94500 28.59500
C  19.45500 -5.16200 27.22600
C  18.56400 -4.04900 26.84900
C  20.62500 -5.88300 29.50400
C  19.84100 -6.27300 26.24800
O  19.44900 -6.34000 25.06700
C  20.86200 -7.25900 26.71000
N  16.76800 -1.73400 25.94700
C  17.44500 -2.52700 25.08500
C  17.17800 -2.25700 23.63900
C  16.16900 -1.07400 23.72400
C  16.07200 -0.82600 25.24500
C  18.55700 -1.98500 22.88200
C  14.84800 -1.28700 22.93500
C  13.49800 -1.65800 23.68400
N  15.86800 0.05100 27.99700
C  15.24000 0.71900 26.99500
C  14.37300 1.80000 27.53100
C  14.55500 1.69400 28.92800
C  15.53500 0.67900 29.12500
C  13.51900 2.79100 26.80900
C  14.26300 2.26400 30.21400
O  13.58000 3.19900 30.56100
C  15.08800 1.36400 31.23400
C  15.90800 2.37500 31.89300
O  16.93700 2.84400 31.43500
O  15.44400 2.66200 33.13400
C  16.07500 3.79700 33.88500
H  20.04500 -3.57000 30.93400
H  18.48400 -4.27300 24.59300
H  14.90300 0.72700 24.78200
H  17.45600 0.19900 32.92400
H  18.31100 -2.53100 33.05900
H  19.82600 -0.30100 33.45000
H  20.52900 -1.03500 32.00900
H  20.25400 -1.98400 33.49600
H  16.16400 -2.39100 33.54400
H  15.14100 -1.07400 32.71800
H  15.03200 -1.19200 35.27000
H  15.21900 0.35800 34.47700
H  21.68900 -5.69300 29.36100
H  20.34200 -6.89100 29.19900
H  20.34200 -5.68400 30.53700
H  20.36800 -7.94200 27.40100
H  21.64300 -6.72900 27.25500
H  21.31900 -7.59100 25.77700
H  16.74200 -3.22300 23.38500
H  16.72000 -0.21000 23.35300
H  18.59600 -2.65200 22.02100
H  19.38100 -2.25000 23.54500
H  18.61200 -0.97400 22.47800
H  14.92100 -2.08700 22.19900
H  14.52000 -0.51500 22.23800
H  13.48700 -1.35400 24.73100
H  13.33200 -2.73500 23.71100
H  12.68800 -1.20200 23.11600
H  14.06100 3.72800 26.67500
H  12.71700 2.81900 27.54600
H  13.17200 2.36000 25.87000
H  14.37700 0.82700 31.86100
H  16.39100 4.56000 33.17400
H  16.87300 3.37700 34.49800
H  15.43800 4.34200 34.58200
Mg -6.16400 24.37500 26.28400
C  -4.29300 25.91800 28.86700
C  -7.51800 22.32000 28.44900
C  -7.69500 22.94900 23.61700
C  -4.21200 26.48900 23.90500
N  -5.86400 24.12900 28.35700
C  -5.06900 24.83300 29.29000
C  -5.37900 24.50000 30.72300
C  -6.13900 23.20700 30.55000
C  -6.52800 23.16700 28.97200
C  -5.29200 21.92800 31.01200
C  -6.09600 25.60300 31.58700
C  -5.87900 25.65800 33.12300
H  -7.12800 25.17500 33.85400
N  -7.50500 22.94900 26.14500
C  -7.98200 22.25300 27.14600
C  -9.11400 21.45400 26.73300
C  -9.16100 21.57100 25.31600
C  -8.11400 22.52200 24.91100
C  -10.07100 20.67600 27.70100
C  -10.08400 20.88300 24.33400
O  -10.00100 21.03600 23.12900
C  -11.15500 19.85000 24.87700
N  -6.00400 24.71800 24.17000
C  -6.77000 23.90300 23.27500
C  -6.43000 24.16800 21.73700
C  -5.43900 25.40000 21.85700
C  -5.11800 25.53200 23.39000
C  -5.95600 22.89300 20.98700
C  -6.01000 26.67900 21.39400
C  -5.04700 27.65900 20.69600
N  -4.55900 25.82400 26.31900
C  -3.96100 26.62200 25.32000
C  -3.09100 27.60500 25.98000
C  -3.19700 27.32400 27.38700
C  -4.08400 26.29300 27.54600
C  -2.40100 28.72100 25.29400
C  -2.72500 27.74200 28.66800
O  -1.95600 28.66500 29.01800
C  -3.49100 26.86200 29.67000
C  -2.52900 26.27700 30.63100
O  -1.84400 25.24900 30.46100
O  -2.48100 27.04900 31.71900
C  -1.58400 26.60100 32.80600
H  -7.87100 21.48800 29.06200
H  -8.11000 22.36100 22.79600
H  -3.83000 27.21300 23.18200
H  -4.43700 24.27900 31.22300
H  -7.02600 23.09700 31.17400
H  -5.39300 21.03200 30.40000
H  -5.43000 21.58000 32.03600
H  -4.23300 22.17800 30.94600
H  -7.14500 25.33200 31.46600
H  -6.06100 26.61300 31.17900
H  -5.69600 26.71000 33.34000
H  -4.96500 25.10700 33.34600
H  -11.08000 21.02600 27.48600
H  -9.84600 20.83400 28.75600
H  -9.88500 19.64700 27.39300
H  -10.54700 18.98700 25.14800
H  -11.90300 19.64800 24.11000
H  -11.79400 20.31800 25.62600
H  -7.32100 24.44100 21.17100
H  -4.52700 25.20800 21.29300
H  -6.80500 22.54900 20.39600
H  -5.79000 22.11700 21.73300
H  -5.16900 23.06100 20.25200
H  -6.38400 27.12700 22.31500
H  -6.78300 26.45800 20.65900
H  -4.02700 27.29500 20.57600
H  -5.01900 28.57700 21.28300
H  -5.47500 27.80300 19.70400
H  -1.55700 28.47500 24.64900
H  -2.00100 29.34000 26.09600
H  -3.18400 29.30200 24.80700
H  -4.13200 27.47900 30.29900
H  -0.61200 26.48100 32.32600
H  -1.81700 25.58800 33.13300
H  -1.52600 27.28700 33.65100

