158

Mg -2.46700 17.28900 26.75700
C  -2.61900 14.73500 29.01000
C  -3.24800 19.61000 29.21500
C  -2.99700 19.59300 24.42300
C  -2.55600 14.75600 24.17900
N  -2.97200 17.16800 28.84000
C  -2.87800 16.02200 29.62900
C  -3.15000 16.34000 31.09700
C  -3.37700 17.95400 31.03300
C  -3.16200 18.28900 29.57500
C  -4.77600 18.36300 31.48900
C  -2.01500 15.78500 32.01700
C  -1.69300 16.64200 33.29300
H  -1.33100 16.01100 34.56200
N  -2.78100 19.37300 26.81400
C  -3.08400 20.15400 27.90300
C  -3.23100 21.50600 27.47900
C  -3.23800 21.52900 26.07600
C  -2.97200 20.14000 25.70000
C  -3.35200 22.70500 28.35100
C  -3.58200 22.58300 25.08000
O  -3.55100 22.38300 23.89500
C  -3.92100 23.94200 25.64200
N  -2.45400 17.24600 24.58200
C  -2.83600 18.28300 23.90000
C  -3.10900 17.92300 22.36200
C  -2.77800 16.40300 22.37700
C  -2.56800 16.10100 23.84800
C  -4.51000 18.16100 21.79100
C  -1.58600 16.02400 21.48800
C  -1.97300 15.25300 20.19700
N  -2.42600 15.13500 26.56400
C  -2.47900 14.25100 25.47900
C  -2.45100 12.92800 25.99900
C  -2.43700 13.08200 27.35600
C  -2.43200 14.46800 27.68500
C  -2.57700 11.68900 25.22900
C  -2.38600 12.36900 28.54700
O  -2.29100 11.13700 28.66700
C  -2.67700 13.31300 29.69900
C  -1.65900 12.90700 30.72200
O  -0.49900 13.26800 30.67300
O  -2.16900 11.99600 31.59300
C  -1.30200 11.40800 32.59000
H  -3.36000 20.31800 30.03800
H  -3.30200 20.26400 23.61700
H  -2.57500 13.99200 23.39900
H  -4.08000 15.86700 31.41300
H  -2.64900 18.57400 31.55600
H  -4.52500 19.10300 32.24800
H  -5.45400 17.64500 31.95100
H  -5.38700 18.81800 30.70900
H  -1.13300 15.59900 31.40400
H  -2.28900 14.79900 32.39200
H  -2.44200 17.43300 33.31400
H  -0.82300 17.24200 33.02800
H  -3.19900 22.47400 29.40500
H  -4.32000 23.20400 28.29600
H  -2.62500 23.45700 28.04400
H  -4.73000 23.90700 26.37100
H  -4.18100 24.51100 24.74900
H  -3.08600 24.41500 26.15900
H  -2.44600 18.45000 21.67600
H  -3.65800 15.82600 22.09400
H  -5.05400 18.78400 22.50200
H  -5.05600 17.23300 21.62500
H  -4.35700 18.66300 20.83600
H  -0.98200 15.26400 21.98400
H  -1.01600 16.90800 21.20100
H  -1.62400 15.68500 19.25900
H  -3.05600 15.15200 20.13000
H  -1.60200 14.22800 20.22200
H  -1.79200 11.62200 24.47500
H  -3.52200 11.66400 24.68600
H  -2.48200 10.76000 25.79200
H  -3.66000 13.05000 30.09100
H  -0.74000 10.60500 32.11300
H  -1.98200 11.03800 33.35700
H  -0.66000 12.04600 33.19700
Mg 0.32000 43.38300 26.70000
C  2.90000 43.04600 29.18700
C  -1.81800 42.32500 29.06100
C  -1.90200 43.01100 24.28900
C  2.95400 43.74100 24.38700
N  0.54600 42.93200 28.83800
C  1.64900 42.87300 29.70900
C  1.22300 42.95500 31.15300
C  -0.20900 42.36900 31.08800
C  -0.58100 42.62600 29.59400
C  -0.38300 40.96700 31.75000
C  1.36300 44.38900 31.78800
C  1.19900 44.42400 33.30600
H  1.00600 43.13600 34.11300
N  -1.65400 42.96900 26.72200
C  -2.37000 42.49600 27.76800
C  -3.74800 42.21100 27.33600
C  -3.76100 42.50500 25.95100
C  -2.38400 42.78800 25.61800
C  -4.80000 41.80700 28.32500
C  -4.96700 42.39500 24.93700
O  -4.91000 42.64700 23.75600
C  -6.25600 41.84900 25.48100
N  0.54000 43.37400 24.60200
C  -0.57300 43.22800 23.86900
C  -0.20800 43.33300 22.34500
C  1.24100 43.88400 22.40200
C  1.60400 43.66100 23.89600
C  -0.33100 41.86200 21.70600
C  1.22900 45.41000 22.07900
C  1.87700 45.81300 20.70700
N  2.55000 43.39200 26.70200
C  3.42900 43.45000 25.67500
C  4.76200 43.53200 26.21200
C  4.61100 43.35900 27.59900
C  3.25300 43.23600 27.81700
C  5.99900 43.90300 25.43000
C  5.35100 43.33100 28.78200
O  6.56300 43.52300 28.94900
C  4.24700 43.15200 29.92700
C  4.55800 41.87300 30.69600
O  4.90000 40.87400 30.08600
O  4.35600 42.04700 32.03800
C  4.84600 41.10700 33.00200
H  -2.49600 41.98900 29.84900
H  -2.54200 42.93800 23.40700
H  3.62400 43.97200 23.55600
H  1.91700 42.26700 31.63500
H  -0.87400 43.09200 31.56200
H  -0.69000 40.28400 30.95800
H  -1.22800 40.98900 32.43800
H  0.45800 40.53900 32.29500
H  0.65400 45.07400 31.32300
H  2.28600 44.85100 31.44000
H  0.43000 45.10500 33.67000
H  2.19000 44.76400 33.60600
H  -5.61000 42.50100 28.10400
H  -4.57200 42.05500 29.36200
H  -4.98400 40.73900 28.21000
H  -6.17000 40.77800 25.66600
H  -6.90300 41.99300 24.61600
H  -6.72900 42.31700 26.34500
H  -0.80200 43.97200 21.69200
H  1.87500 43.27500 21.75800
H  0.63900 41.40800 21.91300
H  -0.47700 41.98500 20.63200
H  -1.17600 41.34400 22.16000
H  1.84600 45.86100 22.85600
H  0.22200 45.81100 22.19600
H  1.39400 46.68700 20.26900
H  1.98400 45.04600 19.94000
H  2.86500 46.21700 20.93000
H  6.18500 43.09700 24.72000
H  6.86000 43.90300 26.09900
H  5.80600 44.79400 24.83400
H  4.35600 43.89200 30.72000
H  5.02300 41.62400 33.94500
H  5.78100 40.62700 32.71500
H  4.17000 40.25600 33.08500

