158

Mg 24.65200 -7.43100 46.51500
C  26.86600 -4.80700 45.31500
C  22.34000 -6.28700 44.13700
C  22.84700 -10.08700 47.17700
C  27.41000 -8.82200 48.05500
N  24.60000 -5.74500 44.97800
C  25.65800 -4.85600 44.59200
C  25.26100 -4.07700 43.39500
C  23.71200 -4.31900 43.39600
C  23.46800 -5.52700 44.23200
C  22.75400 -3.12100 43.74400
C  26.07000 -4.41200 42.08700
C  26.80100 -3.28100 41.32300
H  26.54400 -3.20100 39.81000
N  22.69400 -7.88200 46.05300
C  21.94300 -7.32900 45.04700
C  20.67100 -8.04900 45.04300
C  20.76700 -9.16900 45.95300
C  22.17100 -9.11400 46.45700
C  19.49800 -7.69900 44.10700
C  19.72100 -10.15500 46.17600
O  18.63400 -9.97900 45.66800
C  19.95500 -11.31800 47.10000
N  25.09800 -9.27400 47.49600
C  24.15300 -10.14600 47.71100
C  24.70100 -11.34300 48.68400
C  26.16500 -10.92500 48.82200
C  26.24700 -9.60100 48.10300
C  23.97500 -11.48200 50.09000
C  27.27600 -11.89800 48.45500
C  28.48400 -12.02800 49.45200
N  26.70200 -6.80100 46.84900
C  27.61900 -7.50500 47.53100
C  28.79600 -6.67300 47.65800
C  28.55200 -5.63700 46.75600
C  27.22900 -5.75500 46.28100
C  30.02500 -7.14600 48.38700
C  29.06500 -4.38600 46.11100
O  30.14500 -3.84100 46.19900
C  28.05200 -3.99200 45.04900
C  27.60800 -2.57200 45.41500
O  27.74500 -1.57600 44.67500
O  26.81000 -2.61800 46.52200
C  26.29000 -1.38100 46.98000
H  21.66300 -6.01100 43.32500
H  22.21700 -10.92200 47.49300
H  28.25500 -9.18000 48.64700
H  25.50200 -3.04900 43.66500
H  23.36900 -4.50500 42.37800
H  22.13500 -3.31100 44.62100
H  22.16800 -2.88100 42.85700
H  23.48200 -2.33800 43.95200
H  25.47300 -4.94400 41.34600
H  26.83300 -5.11700 42.41400
H  27.85500 -3.46500 41.53100
H  26.47200 -2.34600 41.77700
H  18.99900 -8.61000 43.77800
H  19.85300 -7.05900 43.29900
H  18.80400 -7.17300 44.76300
H  20.29700 -10.99400 48.08300
H  20.60100 -12.07400 46.65500
H  18.97700 -11.78900 47.19300
H  24.77000 -12.34900 48.27100
H  26.30000 -10.67400 49.87400
H  24.33800 -12.27000 50.74900
H  22.89600 -11.60200 49.98700
H  24.14900 -10.49300 50.51300
H  27.65900 -11.64700 47.46600
H  26.85500 -12.89900 48.36700
H  28.19000 -11.57100 50.39600
H  29.33000 -11.47700 49.03900
H  28.72700 -13.07400 49.64000
H  30.71100 -6.31600 48.55900
H  30.48600 -7.98100 47.85900
H  29.66800 -7.41400 49.38100
H  28.37200 -4.02000 44.00700
H  27.12700 -0.92900 47.51300
H  25.44800 -1.39000 47.67100
H  25.91200 -0.64800 46.26700
Mg 17.47100 -2.98100 27.80800
C  16.30800 -0.96200 30.36800
C  19.39300 -4.64800 29.95400
C  18.72300 -4.77500 25.16800
C  16.01200 -0.67900 25.53500
N  17.86600 -2.74400 29.89100
C  17.18900 -1.98400 30.75300
C  17.67800 -2.21800 32.21700
C  18.83000 -3.24700 32.04500
C  18.78100 -3.54700 30.51800
C  20.21800 -2.81100 32.51200
C  16.51000 -2.71100 33.17400
C  16.52100 -2.12600 34.55100
H  17.84800 -1.50200 35.12500
N  18.68300 -4.59900 27.59700
C  19.33200 -5.16700 28.59500
C  20.04500 -6.32500 28.11500
C  19.83700 -6.34900 26.74600
C  18.96200 -5.27000 26.44400
C  20.72700 -7.26400 29.07600
C  20.39900 -7.35600 25.73900
O  20.22600 -7.26600 24.50500
C  21.22400 -8.46200 26.20000
N  17.43600 -2.72500 25.66900
C  18.08400 -3.54900 24.84000
C  18.12700 -2.97200 23.39500
C  16.97600 -1.92800 23.52300
C  16.83600 -1.71600 25.02900
C  19.51000 -2.37700 23.02200
C  15.59400 -2.30600 22.80700
C  14.40400 -2.66600 23.70200
N  16.22400 -1.25400 27.89600
C  15.77000 -0.36100 26.86100
C  15.07500 0.68700 27.47000
C  15.20900 0.45900 28.82400
C  15.95500 -0.66900 29.02500
C  14.38700 1.79000 26.81100
C  14.78700 0.95100 30.12200
O  14.02000 1.94100 30.30700
C  15.58200 0.02800 31.13100
C  16.32900 0.97400 31.97900
O  17.45600 1.35700 31.76000
O  15.43700 1.33600 32.90200
C  15.98200 2.09300 34.01800
H  19.94900 -5.23300 30.69000
H  19.23300 -5.18100 24.29100
H  15.38400 -0.05500 24.89700
H  18.02100 -1.28000 32.65300
H  18.61200 -4.18200 32.56100
H  21.05600 -2.84100 31.81500
H  20.49800 -3.44000 33.35700
H  20.24500 -1.77800 32.85900
H  16.44500 -3.79700 33.25200
H  15.56400 -2.48000 32.68400
H  16.32200 -2.98200 35.19500
H  15.76400 -1.34300 34.58500
H  21.75500 -7.44400 28.76200
H  20.19400 -8.20500 28.94600
H  20.86300 -6.97800 30.11900
H  20.60800 -8.90000 26.98600
H  22.18000 -8.10900 26.58800
H  21.39200 -9.08500 25.32100
H  17.79600 -3.73600 22.69100
H  17.28800 -0.94700 23.16400
H  20.23700 -2.20100 23.81500
H  19.44500 -1.36000 22.63600
H  19.94700 -3.06200 22.29600
H  15.78800 -3.20000 22.21400
H  15.34100 -1.44600 22.18700
H  14.01700 -1.81600 24.26300
H  14.75900 -3.41100 24.41300
H  13.52300 -3.06200 23.19700
H  14.75600 2.76800 27.12000
H  13.34900 1.74800 27.14000
H  14.44500 1.66900 25.72900
H  14.90100 -0.55700 31.75000
H  17.00400 1.86200 34.31700
H  15.57200 1.95300 35.01900
H  15.77300 3.13600 33.78300

