158

Mg 53.46500 24.98300 43.92900
C  50.86700 27.19400 43.33500
C  51.34500 22.46500 42.77300
C  56.05100 22.89000 43.90000
C  55.56400 27.75400 44.10300
N  51.45600 24.87600 42.90300
C  50.53100 25.87400 42.96700
C  49.15500 25.37800 42.49300
C  49.26900 23.82200 42.51700
C  50.79700 23.74700 42.70400
C  48.48200 23.06900 43.63100
C  48.65100 25.93600 41.12600
C  49.58200 26.21300 39.95500
H  49.42000 25.49100 38.66500
N  53.64900 22.97100 43.58300
C  52.65400 22.08400 43.14600
C  53.23700 20.74400 42.91500
C  54.60200 20.75500 43.22000
C  54.84000 22.22000 43.58200
C  52.48400 19.46600 42.43900
C  55.51700 19.60700 43.23400
O  55.18700 18.45700 42.78400
C  56.88300 19.68200 43.97500
N  55.45600 25.28700 43.89400
C  56.38300 24.26900 43.91800
C  57.80200 24.89100 43.94900
C  57.60400 26.41200 43.78600
C  56.11800 26.48000 43.90800
C  58.65000 24.42300 45.17400
C  58.15300 27.03800 42.47600
C  59.01400 28.30500 42.69700
N  53.34100 27.07500 43.83200
C  54.22600 28.09700 44.10400
C  53.55900 29.39600 44.29800
C  52.20700 29.06700 44.05700
C  52.18000 27.63200 43.66700
C  54.15900 30.70300 44.52800
C  50.88800 29.59700 44.01700
O  50.47500 30.69000 44.33300
C  50.02700 28.45300 43.38100
C  49.64200 28.96700 41.97700
O  50.42300 29.18800 41.04300
O  48.31500 29.30600 41.96500
C  47.90100 30.05500 40.71300
H  50.68800 21.63000 42.51900
H  56.92500 22.23600 43.94500
H  56.21100 28.63400 44.09200
H  48.43400 25.74800 43.22200
H  48.96200 23.41100 41.55400
H  47.78200 23.73000 44.14100
H  49.14400 22.63400 44.37900
H  47.90400 22.31200 43.10000
H  48.01500 26.76900 41.42300
H  47.92200 25.21600 40.75200
H  50.47800 25.67000 40.25800
H  49.71700 27.25500 39.66700
H  53.05700 18.79800 41.79500
H  51.46600 19.59200 42.06900
H  52.49900 18.94200 43.39400
H  57.39400 18.71900 44.00900
H  56.75100 20.07500 44.98300
H  57.48000 20.34700 43.35200
H  58.30200 24.42600 43.09900
H  58.00500 26.92800 44.65800
H  58.08400 23.66200 45.71000
H  58.99600 25.30200 45.71900
H  59.49000 23.86300 44.76400
H  57.33900 27.36400 41.82900
H  58.81300 26.30700 42.00900
H  59.18300 28.46800 43.76100
H  58.57500 29.10700 42.10300
H  59.95100 28.09900 42.17900
H  53.99600 31.19900 43.57100
H  55.23300 30.75400 44.70500
H  53.64400 31.28600 45.29200
H  49.10600 28.28400 43.93900
H  46.93100 30.52700 40.87100
H  47.82100 29.32700 39.90600
H  48.55600 30.80600 40.27000
Mg 36.62800 49.44200 25.12300
C  36.39200 47.63400 28.11600
C  35.15200 52.15900 26.75100
C  36.15500 51.05300 22.21000
C  37.77000 46.69100 23.55900
N  35.80700 49.77900 27.23500
C  35.92100 48.94300 28.29000
C  35.53400 49.62700 29.60200
C  35.12000 51.05000 29.15900
C  35.34000 51.00100 27.57200
C  33.59100 51.43700 29.55200
C  36.76800 49.72300 30.61400
C  36.51900 49.21000 32.05100
H  35.03600 49.15700 32.47800
N  35.79500 51.33500 24.64000
C  35.38100 52.31400 25.41900
C  35.30900 53.61900 24.70700
C  35.41700 53.26900 23.32200
C  35.76800 51.82300 23.35100
C  34.97100 54.92700 25.33700
C  35.30000 54.12200 22.05600
O  35.48900 53.71700 20.93400
C  35.08100 55.69200 22.17700
N  36.83700 48.92300 23.19900
C  36.63300 49.75700 22.14900
C  37.02300 49.09700 20.83400
C  37.82700 47.83000 21.33100
C  37.54700 47.82000 22.79200
C  35.82600 48.81900 19.84000
C  39.34800 47.78800 20.87200
C  40.25700 48.66600 21.68700
N  37.12400 47.61800 25.72700
C  37.64900 46.61100 24.95800
C  37.94400 45.41700 25.85100
C  37.48500 45.83300 27.06000
C  36.98100 47.13900 26.92500
C  38.61600 44.08500 25.54500
C  37.33100 45.31400 28.42300
O  37.70900 44.30200 29.00000
C  36.62000 46.50500 29.17500
C  35.33900 46.06100 29.81600
O  34.24900 46.09200 29.28500
O  35.59000 45.58400 31.06100
C  34.58100 44.66200 31.50500
H  34.74000 53.06700 27.19700
H  36.13700 51.49100 21.21000
H  38.24800 45.86900 23.02200
H  34.75300 48.93300 29.91300
H  35.74600 51.80300 29.63700
H  33.05900 50.64300 30.07400
H  32.93500 51.70100 28.72200
H  33.65200 52.18400 30.34300
H  37.12600 50.73900 30.77800
H  37.57200 49.17300 30.12500
H  37.00800 49.82200 32.80900
H  36.84500 48.17300 32.12200
H  34.00800 55.19800 24.90500
H  35.82700 55.55500 25.09000
H  34.95800 54.93200 26.42700
H  34.08400 55.78100 22.60700
H  35.01000 56.11900 21.17700
H  35.74100 56.26400 22.82800
H  37.72500 49.84200 20.45900
H  37.37900 46.91000 20.95600
H  34.87500 49.30400 20.06100
H  35.57100 47.76100 19.88400
H  36.17900 49.04700 18.83500
H  39.32800 48.07700 19.82100
H  39.70000 46.75700 20.92300
H  40.76100 49.33200 20.98700
H  41.11100 48.09600 22.05300
H  39.79500 49.26500 22.47200
H  37.99100 43.39200 24.98100
H  39.01900 43.54200 26.40000
H  39.45600 44.34200 24.89900
H  37.40400 46.73400 29.89700
H  33.91900 44.21500 30.76300
H  34.04700 45.22200 32.27200
H  35.17600 43.95200 32.08100

