158

Mg -8.12000 39.19500 39.96700
C  -7.73300 35.87400 38.94600
C  -4.79000 39.76500 39.13900
C  -8.68900 42.56000 39.73100
C  -11.49600 38.66200 40.24500
N  -6.52700 38.06000 39.02800
C  -6.53600 36.67800 38.86000
C  -5.12000 36.21600 38.49000
C  -4.14300 37.37900 38.95600
C  -5.18300 38.48300 39.07200
C  -3.38400 37.10800 40.26400
C  -4.95100 35.84300 37.00500
C  -5.29800 36.96400 35.99400
H  -6.53500 36.74800 35.04800
N  -6.92100 40.96100 39.50900
C  -5.59500 40.94300 39.31600
C  -5.06900 42.26900 39.17400
C  -6.22300 43.16700 39.15100
C  -7.35400 42.23700 39.49700
C  -3.69200 42.70000 38.82600
C  -6.16200 44.67200 38.79400
O  -5.10200 45.31300 38.61100
C  -7.51000 45.38000 38.58900
N  -9.78300 40.47200 39.96900
C  -9.74800 41.80800 40.03700
C  -11.20600 42.31900 40.39600
C  -11.95800 41.10600 40.90400
C  -11.07300 39.95800 40.22900
C  -11.28200 43.53400 41.29000
C  -13.49800 40.93900 40.66200
C  -14.36200 40.46500 41.87100
N  -9.36600 37.55100 39.81700
C  -10.72600 37.50300 40.02500
C  -11.15000 36.09700 40.03000
C  -10.05000 35.47400 39.48100
C  -8.99000 36.40000 39.38800
C  -12.59800 35.55300 40.06600
C  -9.53600 34.22900 39.05600
O  -10.03300 33.11400 39.03400
C  -7.99400 34.38800 38.72100
C  -7.07200 33.59700 39.47700
O  -6.76000 33.77600 40.64400
O  -6.56200 32.57100 38.62100
C  -5.56800 31.63400 39.15400
H  -3.72500 39.97000 39.01500
H  -8.92300 43.62700 39.71700
H  -12.53800 38.36100 40.36600
H  -4.81500 35.37900 39.11700
H  -3.55900 37.67800 38.08600
H  -3.39100 36.06900 40.59300
H  -3.67500 37.76100 41.08700
H  -2.36400 37.48500 40.19700
H  -5.53200 34.92600 36.90500
H  -3.89100 35.61100 36.89800
H  -4.39300 37.15400 35.41700
H  -5.42300 37.89100 36.55400
H  -2.97300 41.88100 38.79600
H  -3.33900 43.38500 39.59700
H  -3.80400 43.22100 37.87400
H  -7.94500 45.55900 39.57300
H  -8.04600 44.65900 37.97100
H  -7.34100 46.30600 38.04100
H  -11.55700 42.53300 39.38600
H  -11.78200 40.96400 41.97000
H  -12.06700 43.45800 42.04100
H  -11.45700 44.46100 40.74300
H  -10.39500 43.52300 41.92300
H  -13.75900 40.26300 39.84800
H  -13.83100 41.95700 40.46100
H  -14.68300 39.42800 41.78300
H  -15.32000 40.98500 41.91900
H  -13.85000 40.52400 42.83100
H  -13.12900 36.38600 39.60700
H  -13.05700 35.15400 40.97000
H  -12.63100 34.73900 39.34200
H  -7.87300 34.15200 37.66300
H  -4.67600 31.66800 38.52900
H  -5.91100 30.59900 39.16300
H  -5.20000 31.97900 40.12000
Mg -12.33900 16.96200 40.08300
C  -8.69000 15.98300 39.94800
C  -11.11500 20.25800 39.69600
C  -15.32500 17.69300 39.47800
C  -12.98500 13.46300 39.76200
N  -10.16400 18.02000 39.78400
C  -8.94100 17.42900 39.78700
C  -7.86600 18.40000 39.55300
C  -8.57200 19.80000 39.86900
C  -10.04300 19.35600 39.75000
C  -8.23100 20.61200 41.06300
C  -7.12500 18.26900 38.13100
C  -5.67600 17.83900 38.30200
H  -4.99400 16.95700 37.25800
N  -13.13100 18.74400 39.75300
C  -12.53800 19.94800 39.59700
C  -13.54600 20.87000 39.27300
C  -14.81700 20.22700 39.30000
C  -14.51300 18.78200 39.51900
C  -13.28200 22.34800 39.08900
C  -16.18400 20.88900 39.08400
O  -16.24300 22.12700 38.91900
C  -17.39200 20.10500 39.03100
N  -13.89600 15.71500 39.73100
C  -15.06100 16.25500 39.41200
C  -16.21200 15.20600 39.13300
C  -15.34400 13.90500 38.95400
C  -13.98700 14.38200 39.57000
C  -17.40700 15.04200 40.25900
C  -15.10500 13.42800 37.49800
C  -15.01700 11.88500 37.35500
N  -11.18400 15.04800 40.01900
C  -11.65100 13.73200 39.91100
C  -10.47700 12.87400 39.82000
C  -9.34500 13.72400 39.97700
C  -9.79600 15.07700 39.97600
C  -10.49300 11.39100 39.55200
C  -7.87400 13.73500 39.89600
O  -7.09200 12.78300 39.72400
C  -7.45100 15.16800 39.93300
C  -6.61900 15.33300 41.11800
O  -6.82100 16.02000 42.11700
O  -5.40500 14.69500 40.92200
C  -4.47000 14.65200 42.03100
H  -10.84600 21.31500 39.75500
H  -16.32100 17.92800 39.09700
H  -13.25100 12.40400 39.74900
H  -7.18100 18.19600 40.37600
H  -8.29900 20.48000 39.06200
H  -7.70300 21.52200 40.77800
H  -7.47900 20.04100 41.60700
H  -9.13800 20.72300 41.65700
H  -7.10100 19.29500 37.76400
H  -7.61100 17.65100 37.37600
H  -5.54600 17.42300 39.30200
H  -5.18400 18.81100 38.27500
H  -13.79000 22.71900 38.19900
H  -12.21400 22.53900 38.98700
H  -13.63200 22.92000 39.94800
H  -17.41600 19.69900 38.01900
H  -18.25200 20.74200 39.23800
H  -17.37000 19.39700 39.85900
H  -16.77700 15.38300 38.21700
H  -15.62000 13.19400 39.73400
H  -18.27500 15.61800 39.93700
H  -17.10900 15.34400 41.26400
H  -17.93400 14.09000 40.18600
H  -14.17500 13.78300 37.05500
H  -15.93300 13.70700 36.84600
H  -15.93500 11.62400 36.82800
H  -15.13100 11.47500 38.35800
H  -14.04900 11.53500 36.99600
H  -10.06200 11.11200 38.59000
H  -11.53100 11.05900 39.54800
H  -9.94100 10.95000 40.38300
H  -6.81600 15.50200 39.11300
H  -3.83700 13.76500 42.03700
H  -4.99100 14.69900 42.98800
H  -3.87000 15.54600 41.86000

