158

Mg 0.13300 7.49500 26.50800
C  0.86400 9.51800 29.21300
C  -0.28400 4.80900 28.71600
C  -0.15500 5.48700 23.86300
C  0.57000 10.21500 24.36800
N  0.25700 7.17600 28.80400
C  0.57400 8.16100 29.69400
C  0.68600 7.55000 31.13100
C  0.23700 6.16100 30.92600
C  0.05200 6.00200 29.43100
C  1.08900 5.03300 31.68200
C  -0.36500 8.18500 32.12600
C  -0.04600 8.20000 33.62900
H  -0.58000 6.95900 34.39700
N  -0.22400 5.41400 26.30200
C  -0.48900 4.52500 27.32800
C  -0.66700 3.20600 26.81400
C  -0.60200 3.36600 25.39500
C  -0.38600 4.83400 25.11400
C  -0.81300 1.98600 27.71600
C  -0.66900 2.44700 24.23700
O  -0.59300 2.74000 23.08000
C  -0.88600 1.01800 24.62500
N  0.08300 7.77800 24.40300
C  0.10400 6.76200 23.57900
C  0.67500 7.25300 22.18800
C  0.41900 8.74500 22.35500
C  0.33100 8.96900 23.80600
C  2.17500 6.91500 21.98100
C  -0.73700 9.33100 21.46400
C  -2.11700 9.68700 22.14100
N  0.67800 9.37700 26.66700
C  0.84900 10.41900 25.72300
C  1.35500 11.62500 26.43600
C  1.38400 11.28100 27.72800
C  0.92700 9.97400 27.86300
C  1.74900 13.02800 25.96500
C  1.75600 11.83100 29.03400
O  2.26600 12.91200 29.34200
C  1.33800 10.70400 30.11500
C  2.41200 10.29000 31.02300
O  3.32200 9.49100 30.78900
O  2.30500 10.96800 32.19100
C  3.44800 10.82300 33.06100
H  -0.44900 4.10500 29.53300
H  -0.13600 4.86900 22.96300
H  0.74700 11.00600 23.63600
H  1.68200 7.63100 31.56600
H  -0.76800 5.98200 31.30700
H  1.58100 4.41900 30.92900
H  0.33200 4.48300 32.24200
H  1.93100 5.35600 32.29500
H  -1.28800 7.60600 32.07700
H  -0.58600 9.20600 31.81500
H  -0.56600 9.06800 34.03500
H  1.04100 8.12600 33.63100
H  0.15400 1.48400 27.74200
H  -1.61200 1.33700 27.35800
H  -1.06600 2.23900 28.74600
H  -1.84900 0.95600 25.13200
H  -0.13800 0.49400 25.22000
H  -1.00900 0.42500 23.71900
H  0.00300 6.82300 21.44500
H  1.35700 9.23800 22.09900
H  2.36400 6.02500 22.58100
H  2.98200 7.62100 22.17700
H  2.27500 6.39300 21.02900
H  -0.85700 8.69600 20.58600
H  -0.52700 10.36200 21.17900
H  -2.78300 8.97300 21.65600
H  -2.35300 10.68900 21.78300
H  -2.20600 9.63300 23.22600
H  0.90300 13.69700 26.12200
H  2.10500 13.01300 24.93500
H  2.52400 13.33100 26.66900
H  0.45800 10.90300 30.72700
H  3.41500 11.65100 33.76800
H  4.44700 10.66800 32.65500
H  3.13300 10.03500 33.74600
Mg 7.61200 1.72900 28.60800
C  9.25600 0.28100 31.27200
C  6.09300 4.01200 30.70100
C  6.03700 3.10900 25.97800
C  9.35400 -0.51600 26.35200
N  7.62200 1.98700 30.68400
C  8.42200 1.33300 31.65200
C  8.31200 1.99900 32.99900
C  7.13600 3.06400 32.78200
C  6.93000 3.03900 31.27400
C  5.75200 2.68500 33.48700
C  9.62300 2.66400 33.47600
C  9.47500 3.44900 34.77700
H  10.49400 3.01600 35.80700
N  6.17100 3.27500 28.36300
C  5.66300 4.07700 29.31100
C  4.72700 5.03100 28.73600
C  4.59100 4.67300 27.36400
C  5.61500 3.65300 27.17800
C  4.04400 6.18800 29.51100
C  3.69800 5.17100 26.29000
O  3.88800 4.78000 25.16900
C  2.73200 6.34200 26.58600
N  7.79200 1.34200 26.52100
C  6.90700 2.06900 25.67600
C  7.06000 1.48500 24.21400
C  8.19600 0.37900 24.29600
C  8.48300 0.45300 25.78700
C  5.78100 0.96600 23.53400
C  9.50900 0.53000 23.41300
C  10.01300 -0.78700 22.72400
N  8.99900 0.12700 28.70600
C  9.59600 -0.71500 27.76100
C  10.45300 -1.64200 28.44700
C  10.37700 -1.27700 29.83300
C  9.55000 -0.18000 29.93100
C  11.30000 -2.74000 27.87200
C  10.80200 -1.59100 31.19700
O  11.67000 -2.36000 31.66600
C  10.19900 -0.57300 32.12000
C  9.55600 -1.23600 33.25500
O  8.59700 -1.97700 33.19200
O  10.13000 -0.96900 34.44200
C  9.50400 -1.55700 35.67700
H  5.76600 4.83900 31.33500
H  5.65900 3.44700 25.01100
H  10.09600 -0.97200 25.69500
H  8.02700 1.31000 33.79400
H  7.34700 4.05700 33.17900
H  5.97000 2.50200 34.53900
H  5.40000 1.75700 33.03600
H  4.98000 3.43600 33.31600
H  9.97700 3.42600 32.78100
H  10.33600 1.84100 33.52700
H  8.44300 3.30700 35.09600
H  9.77000 4.48400 34.60000
H  4.46900 7.17400 29.32000
H  4.19600 5.96300 30.56700
H  2.98300 6.30900 29.29400
H  2.13600 6.43600 25.67800
H  3.24200 7.22900 26.96100
H  2.13400 5.94800 27.40700
H  7.53800 2.26500 23.62200
H  7.66700 -0.53300 24.01800
H  5.01300 0.85900 24.30000
H  5.92900 0.11700 22.86700
H  5.27200 1.81000 23.06900
H  10.38600 0.82800 23.98900
H  9.31500 1.34200 22.71300
H  9.31300 -1.60400 22.90000
H  11.04500 -0.96200 23.02900
H  10.12100 -0.73600 21.64000
H  11.34500 -2.57800 26.79500
H  10.87100 -3.69700 28.16900
H  12.30700 -2.60600 28.26900
H  11.05300 -0.01200 32.49900
H  8.55800 -2.09500 35.60700
H  9.31200 -0.70600 36.33100
H  10.31100 -2.21200 36.00200

