158

Mg 2.70100 -3.13000 45.13200
C  5.61000 -1.42200 44.55300
C  0.95700 -0.82700 43.12900
C  -0.12800 -5.12800 45.19700
C  4.45200 -5.71100 46.57800
N  3.24200 -1.34500 44.09300
C  4.49500 -0.88500 43.91700
C  4.58700 0.30400 42.85600
C  3.03200 0.65800 42.72100
C  2.34800 -0.61100 43.30400
C  2.57400 1.91900 43.53900
C  5.22500 -0.23100 41.55200
C  6.10100 0.85700 40.91500
H  5.49700 1.55600 39.63600
N  0.71600 -2.93500 44.27500
C  0.18200 -1.87600 43.58900
C  -1.22200 -2.10400 43.31600
C  -1.55200 -3.30000 43.96600
C  -0.26400 -3.85700 44.47900
C  -2.11100 -1.10700 42.52300
C  -3.01700 -3.75900 44.21000
O  -3.96900 -3.18100 43.70900
C  -3.39400 -5.00200 44.99600
N  2.25200 -5.30900 45.51800
C  0.99900 -5.77100 45.66700
C  0.90500 -7.10400 46.49000
C  2.44800 -7.40600 46.67100
C  3.10600 -6.09600 46.17600
C  -0.04300 -7.13300 47.74700
C  3.01600 -8.60900 45.90200
C  4.15600 -9.43100 46.54000
N  4.60500 -3.56900 45.52400
C  5.23200 -4.61500 46.15400
C  6.67000 -4.29600 46.41500
C  6.84100 -3.04900 45.76700
C  5.57300 -2.61500 45.27900
C  7.72300 -5.17300 47.02300
C  7.78500 -2.08600 45.41800
O  8.97500 -2.05700 45.63900
C  7.06200 -1.04400 44.48300
C  7.24300 0.18600 45.13500
O  6.62600 0.63000 46.10100
O  8.19900 0.77800 44.31700
C  8.58300 2.12900 44.59000
H  0.69600 -0.06600 42.39100
H  -1.01300 -5.74400 45.37100
H  4.97600 -6.53100 47.07300
H  5.03100 1.20600 43.27600
H  2.62900 0.93000 41.74500
H  2.14500 1.65900 44.50700
H  1.81300 2.35600 42.89200
H  3.40000 2.60800 43.71300
H  4.44800 -0.37000 40.80100
H  5.76400 -1.13000 41.85300
H  7.07500 0.40500 40.72500
H  6.25500 1.66200 41.63400
H  -1.59400 -0.30000 42.00300
H  -2.81200 -0.65800 43.22700
H  -2.65900 -1.66300 41.76300
H  -2.89900 -5.90100 44.62700
H  -4.44700 -5.27100 44.91200
H  -3.07000 -4.83400 46.02300
H  0.45200 -7.82200 45.80600
H  2.61700 -7.43300 47.74800
H  -0.92700 -7.73600 47.54100
H  -0.33900 -6.14800 48.11000
H  0.49200 -7.65300 48.54100
H  3.32800 -8.33600 44.89400
H  2.21100 -9.33600 45.80200
H  4.51200 -9.07300 47.50600
H  5.06200 -9.51700 45.93900
H  3.72600 -10.40700 46.76300
H  8.35900 -4.73200 47.79100
H  8.40100 -5.55200 46.25800
H  7.21600 -6.07100 47.37600
H  7.47600 -1.00200 43.47500
H  7.77900 2.86200 44.65300
H  9.37300 2.48800 43.93000
H  9.03700 2.21000 45.57700
Mg 49.39900 34.85200 27.18500
C  47.06600 33.62700 29.57600
C  50.47200 37.22900 29.49000
C  51.07300 36.23800 24.75900
C  48.20100 32.41900 24.95300
N  48.73400 35.38300 29.24400
C  47.90900 34.68000 30.06500
C  48.00300 35.24500 31.53200
C  48.81100 36.56100 31.43200
C  49.40100 36.35100 29.96800
C  47.97800 37.80500 31.69400
C  48.85300 34.27200 32.46700
C  48.44100 34.18800 33.96400
H  47.77100 35.40800 34.63300
N  50.61300 36.57500 27.10900
C  51.02800 37.31600 28.18300
C  51.92100 38.32700 27.70600
C  52.21300 38.03200 26.31100
C  51.29000 36.90400 25.99000
C  52.42800 39.45000 28.62400
C  53.09600 38.63300 25.29700
O  53.29100 38.24200 24.14700
C  53.93600 39.80300 25.59900
N  49.47000 34.50200 25.02800
C  50.35100 35.11200 24.32700
C  50.45300 34.49600 22.89800
C  49.78500 33.13600 23.06400
C  49.10500 33.29500 24.41600
C  49.88900 35.40500 21.81400
C  50.63900 31.89600 22.99200
C  51.40700 31.64600 21.68500
N  47.90900 33.32200 27.20200
C  47.54800 32.49000 26.16400
C  46.55600 31.53200 26.69400
C  46.30100 31.92400 28.01800
C  47.14300 33.08000 28.27100
C  45.83800 30.36600 25.97400
C  45.50000 31.72800 29.22600
O  44.65200 30.84100 29.41500
C  45.86700 32.90000 30.21000
C  45.94300 32.41200 31.59800
O  46.87400 31.72000 32.03200
O  44.88000 32.67400 32.42000
C  44.99100 32.36800 33.87200
H  50.87000 37.88200 30.27000
H  51.64700 36.63100 23.91600
H  47.98000 31.50700 24.39500
H  46.98500 35.44400 31.86600
H  49.65300 36.52100 32.12400
H  48.10700 38.31500 30.73900
H  48.36800 38.36100 32.54700
H  46.97700 37.43600 31.92100
H  49.92100 34.49200 32.43800
H  48.76000 33.26900 32.05200
H  49.34500 34.08300 34.56400
H  47.90900 33.26200 34.18000
H  51.75200 40.30200 28.56400
H  53.43600 39.76200 28.34900
H  52.52300 39.14000 29.66500
H  54.86200 39.48700 26.08000
H  53.22600 40.39000 26.18000
H  54.20300 40.27400 24.65300
H  51.46900 34.24000 22.60100
H  48.99100 32.89500 22.35600
H  50.64800 35.87500 21.19000
H  49.48500 36.26200 22.35300
H  49.09000 34.99900 21.19400
H  50.11100 31.00200 23.32600
H  51.34400 32.08500 23.80100
H  51.01500 32.33500 20.93700
H  51.25900 30.62000 21.34800
H  52.44500 31.90100 21.89900
H  46.39700 29.43600 25.86900
H  45.54800 30.76100 25.00000
H  44.99700 30.16000 26.63600
H  45.06000 33.63200 30.26300
H  44.08600 31.79500 34.07500
H  44.87400 33.29800 34.42800
H  45.81800 31.81100 34.31300

