158

Mg 8.70700 3.69700 27.30600
C  9.93800 2.26900 30.11900
C  6.53000 5.65700 29.17200
C  6.92900 4.62600 24.47100
C  10.27600 1.25800 25.33400
N  8.31000 3.89900 29.41100
C  9.02600 3.29600 30.38200
C  8.57200 3.96700 31.77000
C  7.31800 4.77600 31.33500
C  7.39100 4.80400 29.85600
C  5.99900 4.21200 31.86300
C  9.80000 4.78800 32.35200
C  9.55400 5.60300 33.66100
H  10.35800 5.06000 34.99300
N  7.03500 5.00600 26.92200
C  6.31300 5.67200 27.81600
C  5.25100 6.49000 27.14200
C  5.45400 6.31200 25.75600
C  6.47600 5.24600 25.64800
C  4.27400 7.20100 27.95300
C  4.74700 6.96800 24.57800
O  4.87100 6.64700 23.40000
C  3.79300 8.04800 24.87100
N  8.68400 3.11300 25.21700
C  7.89800 3.63900 24.23000
C  8.23700 3.06800 22.83100
C  9.14600 1.86000 23.13500
C  9.49200 2.12800 24.61500
C  7.01300 2.72300 21.83400
C  10.45300 1.81200 22.32800
C  10.87000 0.41500 21.87500
N  9.98900 2.15500 27.60700
C  10.57500 1.20500 26.72900
C  11.44300 0.25900 27.48400
C  11.27300 0.71900 28.80000
C  10.31500 1.79900 28.83600
C  12.28000 -0.93100 27.01900
C  11.71300 0.52100 30.18600
O  12.47700 -0.30000 30.63300
C  10.84800 1.52000 31.07400
C  10.06400 0.80800 32.17600
O  9.11100 0.06800 31.91900
O  10.47500 1.20900 33.41100
C  9.87500 0.54400 34.61400
H  5.80000 6.17900 29.79500
H  6.39700 4.82000 23.53700
H  10.64400 0.40600 24.75900
H  8.47500 3.23300 32.57100
H  7.34900 5.81900 31.64900
H  5.37300 5.02600 32.22800
H  6.04800 3.43300 32.62300
H  5.48700 3.71500 31.03900
H  10.36800 5.24700 31.54300
H  10.44800 3.95200 32.61600
H  8.48900 5.68800 33.87900
H  9.85600 6.64600 33.56600
H  3.39200 7.48800 27.38000
H  4.69800 7.94300 28.63000
H  3.94200 6.39400 28.60700
H  2.99700 7.56800 25.43900
H  3.37800 8.43700 23.94100
H  4.20400 8.85300 25.48000
H  8.87600 3.79900 22.33700
H  8.56300 0.94000 23.09400
H  6.08900 3.22300 22.12300
H  6.71000 1.68100 21.93600
H  7.35200 2.96900 20.82800
H  11.26800 2.20800 22.93300
H  10.33100 2.42100 21.43200
H  9.96100 -0.18600 21.87200
H  11.65100 -0.03900 22.48500
H  11.24800 0.34600 20.85500
H  12.07500 -1.08200 25.95900
H  11.86100 -1.79600 27.53300
H  13.35800 -0.90600 27.17300
H  11.50700 2.20000 31.61400
H  9.33400 -0.37200 34.37700
H  9.13500 1.19000 35.08800
H  10.55300 0.33000 35.44000
Mg 24.14600 -4.64300 45.99700
C  26.10700 -2.18400 44.64500
C  21.58500 -3.78200 43.95700
C  22.58500 -7.48600 46.85300
C  27.19600 -5.94500 47.57200
N  23.92700 -3.17700 44.62400
C  24.85300 -2.33300 44.12600
C  24.18400 -1.36200 43.11400
C  22.63800 -1.60700 43.20300
C  22.72800 -2.96000 43.91500
C  21.79200 -0.49100 43.88600
C  24.78600 -1.67600 41.70600
C  25.32100 -0.55400 40.82100
H  25.08700 -0.76200 39.32900
N  22.26200 -5.47300 45.53300
C  21.33100 -4.91900 44.66600
C  20.23800 -5.79200 44.50900
C  20.38800 -6.89900 45.41700
C  21.80800 -6.73100 45.95100
C  19.07800 -5.48500 43.64200
C  19.38600 -8.04600 45.74400
O  18.37000 -8.18900 45.10300
C  19.67700 -9.04800 46.76600
N  24.89500 -6.52200 46.94500
C  23.92500 -7.34200 47.41000
C  24.51900 -8.52100 48.21700
C  26.01800 -8.07500 48.38000
C  26.08400 -6.71500 47.62900
C  23.77000 -8.81500 49.54300
C  27.14100 -9.08000 47.81900
C  28.49100 -9.18300 48.64400
N  26.25900 -4.16200 46.20400
C  27.28900 -4.72400 46.88600
C  28.42400 -3.87600 46.73300
C  28.03800 -2.91700 45.83600
C  26.70000 -3.06800 45.55500
C  29.73400 -4.24700 47.31800
C  28.55500 -1.86600 44.92800
O  29.63700 -1.39900 44.79600
C  27.25500 -1.34300 44.16300
C  27.17000 0.17500 44.55600
O  26.47100 0.71400 45.43800
O  28.16600 0.82700 43.87200
C  28.39200 2.22700 44.15600
H  20.79400 -3.43700 43.28800
H  22.24200 -8.51800 46.95500
H  28.10600 -6.19700 48.12000
H  24.26000 -0.30000 43.34900
H  22.16400 -1.77700 42.23600
H  20.88700 -0.22000 43.34200
H  22.35100 0.43200 44.04000
H  21.62100 -0.88700 44.88600
H  23.96000 -2.21200 41.24100
H  25.57800 -2.42400 41.74000
H  26.36500 -0.52200 41.13300
H  24.68200 0.28200 41.10600
H  18.71200 -6.43200 43.24600
H  19.46700 -4.98200 42.75700
H  18.38400 -4.75700 44.06100
H  20.27900 -9.81800 46.28300
H  18.72100 -9.51900 46.99400
H  20.07000 -8.60100 47.67900
H  24.45100 -9.44900 47.64900
H  26.33500 -7.66900 49.34000
H  24.01700 -9.72400 50.09200
H  22.72400 -8.61300 49.31300
H  24.21100 -8.04400 50.17500
H  27.24600 -8.73100 46.79200
H  26.72700 -10.06700 47.61300
H  28.56700 -10.25100 48.84900
H  28.51200 -8.55800 49.53600
H  29.36900 -8.88400 48.07200
H  29.71500 -4.06700 48.39200
H  30.43800 -3.65400 46.73400
H  30.05200 -5.28000 47.17300
H  27.48900 -1.32000 43.09900
H  29.46000 2.28100 44.36700
H  27.79800 2.62900 44.97600
H  28.26000 2.68500 43.17500

