158

Mg 47.28100 16.15500 28.29500
C  45.80800 15.93300 31.45600
C  49.90500 18.00900 29.73000
C  48.79200 16.09600 25.35700
C  44.51700 14.76400 26.88900
N  47.76300 16.95400 30.36900
C  46.97100 16.74500 31.51000
C  47.62300 17.35300 32.78900
C  48.77500 18.27100 32.15400
C  48.86700 17.72500 30.64300
C  48.61100 19.81600 32.24600
C  48.02900 16.15200 33.82700
C  48.00400 16.43900 35.33500
H  48.21800 17.82100 35.94400
N  49.04500 16.90700 27.70700
C  50.03100 17.46600 28.47800
C  51.21900 17.53100 27.67900
C  50.93900 17.03000 26.41400
C  49.53900 16.59200 26.42100
C  52.56700 17.99200 28.22900
C  51.90700 16.95900 25.25900
O  51.68200 16.32800 24.22900
C  53.22100 17.73700 25.18300
N  46.69900 15.71200 26.29700
C  47.50700 15.75200 25.20800
C  46.85200 15.28100 23.87400
C  45.47700 14.70500 24.45400
C  45.53700 15.21200 25.99100
C  46.62900 16.34500 22.82300
C  45.26000 13.26400 24.23700
C  46.16300 12.21100 25.02800
N  45.54900 15.54000 28.94700
C  44.45400 14.99600 28.22800
C  43.47500 14.58700 29.14200
C  43.98700 14.96000 30.42500
C  45.17700 15.59900 30.26500
C  42.22100 13.90500 28.79800
C  43.69500 14.88900 31.87800
O  42.76600 14.41800 32.52300
C  44.84400 15.64200 32.57700
C  44.27000 16.87000 33.17200
O  44.06500 17.90000 32.57500
O  43.89400 16.53800 34.45100
C  42.95600 17.40900 35.15300
H  50.81400 18.48800 30.10000
H  49.34700 15.98700 24.42300
H  43.68800 14.15200 26.53000
H  46.89400 17.99200 33.28800
H  49.77700 18.06500 32.53200
H  47.75900 20.14200 32.84200
H  48.68600 20.40300 31.33000
H  49.48700 20.04800 32.85200
H  48.99000 15.71000 33.56600
H  47.35900 15.32300 33.59800
H  48.82000 15.81200 35.69600
H  47.04800 16.00600 35.62900
H  52.70100 17.89200 29.30600
H  52.80500 18.98500 27.84900
H  53.31700 17.30300 27.84100
H  53.19600 18.78000 25.49600
H  53.54800 17.87500 24.15200
H  54.04300 17.28600 25.73800
H  47.45300 14.42100 23.57800
H  44.58100 15.24900 24.15500
H  46.84100 17.30400 23.29600
H  45.59700 16.49000 22.50400
H  47.35600 16.21200 22.02200
H  45.25300 13.09500 23.16000
H  44.24400 13.13800 24.61300
H  46.59200 12.71300 25.89400
H  46.94300 11.87000 24.34700
H  45.62000 11.32400 25.35700
H  42.25400 13.18200 29.61300
H  42.18900 13.42600 27.81900
H  41.35200 14.55600 28.89400
H  45.21000 15.05600 33.42000
H  41.96600 16.96700 35.04500
H  42.99500 18.38100 34.66100
H  43.35100 17.48800 36.16600
Mg 41.70900 41.08400 27.17100
C  40.98300 43.36400 29.60300
C  43.15800 39.12700 29.72700
C  42.54500 38.65200 24.96200
C  41.26200 43.38300 24.80700
N  42.11800 41.28100 29.48200
C  41.50100 42.29400 30.20000
C  41.61300 42.02900 31.69300
C  42.51700 40.74000 31.71600
C  42.72000 40.39400 30.23800
C  43.89200 40.87700 32.40700
C  40.25500 41.90100 32.39800
C  39.99500 42.90800 33.48400
H  39.57500 42.53900 34.86500
N  42.53800 39.04200 27.32900
C  43.13700 38.51700 28.37800
C  43.45000 37.13500 28.10100
C  43.15400 36.91600 26.72600
C  42.69600 38.23200 26.30000
C  43.75300 36.09100 29.19300
C  43.29500 35.70800 25.83700
O  43.02500 35.73700 24.65200
C  43.92900 34.46600 26.30200
N  42.04400 41.02700 25.12200
C  42.32500 39.92500 24.41900
C  42.10700 40.28100 22.88200
C  41.67800 41.76900 22.89200
C  41.69200 42.09300 24.37000
C  43.29200 40.01700 21.91800
C  40.31500 42.04100 22.19000
C  40.13900 43.30100 21.41800
N  41.22800 43.01200 27.12400
C  41.07700 43.88600 26.12400
C  40.51700 45.16200 26.59100
C  40.38600 44.90900 28.00300
C  40.83800 43.66200 28.20500
C  40.13700 46.35100 25.76100
C  39.88300 45.48600 29.22800
O  39.36300 46.61100 29.43900
C  40.33500 44.53900 30.31100
C  41.30900 45.30100 31.23400
O  42.49500 45.56000 31.01600
O  40.67800 45.73400 32.33800
C  41.50000 46.51600 33.33800
H  43.34800 38.42100 30.53800
H  42.50500 37.91300 24.16000
H  40.94800 44.03500 23.98900
H  42.27200 42.81700 32.05800
H  42.00600 39.90600 32.19800
H  44.58500 41.07300 31.58900
H  44.17800 39.98700 32.96800
H  43.83900 41.72800 33.08600
H  40.17700 40.91900 32.86300
H  39.44900 41.97900 31.66800
H  39.26300 43.63600 33.13400
H  40.88100 43.54300 33.51900
H  43.02200 35.29600 29.04300
H  43.88500 36.46200 30.21000
H  44.76400 35.76400 28.95200
H  44.91700 34.70400 26.69700
H  43.85600 33.82300 25.42500
H  43.42200 33.89600 27.08000
H  41.23800 39.70700 22.56200
H  42.42600 42.37900 22.38300
H  44.24700 40.07900 22.44100
H  43.16100 40.61400 21.01600
H  43.15100 38.93900 21.83800
H  39.49500 42.08900 22.90600
H  40.05900 41.22700 21.51200
H  39.77400 44.08200 22.08500
H  39.47500 43.16900 20.56400
H  40.99400 43.78400 20.94600
H  40.25600 46.12900 24.70000
H  40.67700 47.27400 25.97500
H  39.11000 46.64900 25.97200
H  39.41400 44.38000 30.87200
H  42.12500 45.88200 33.96700
H  40.74100 46.98300 33.96400
H  42.08100 47.28300 32.82600

