158

Mg 41.68900 41.50500 26.98500
C  41.12200 43.80600 29.65800
C  42.37500 39.19500 29.52200
C  42.31700 39.29600 24.59700
C  40.87000 43.97500 24.73500
N  41.73200 41.56500 29.37700
C  41.34700 42.58000 30.17500
C  41.34700 42.19000 31.63100
C  41.98100 40.70500 31.58800
C  42.02500 40.45900 30.00900
C  43.45500 40.54300 32.17900
C  39.91500 42.23200 32.27000
C  39.69300 43.02800 33.57900
H  39.03200 42.41100 34.79800
N  42.41300 39.56400 27.09300
C  42.63000 38.77000 28.13700
C  43.22900 37.59000 27.71000
C  43.15500 37.53200 26.28100
C  42.58900 38.82600 25.92800
C  43.63500 36.48300 28.63400
C  43.53600 36.37400 25.33600
O  43.43500 36.41200 24.12200
C  44.36700 35.20900 25.84800
N  41.59000 41.58200 24.98000
C  41.89800 40.52900 24.18800
C  41.78900 40.96200 22.66900
C  41.12500 42.36000 22.71000
C  41.14000 42.69100 24.20300
C  43.20300 40.94100 22.00900
C  39.68300 42.38100 22.08700
C  38.54000 41.49700 22.81300
N  41.27300 43.43500 27.06200
C  41.01100 44.38400 26.06200
C  40.83200 45.68800 26.60700
C  40.82100 45.47600 28.00800
C  41.15000 44.14000 28.23800
C  40.66600 46.91000 25.86300
C  40.57600 46.18000 29.24400
O  40.20200 47.31900 29.41000
C  40.73500 45.09400 30.37400
C  41.69500 45.61300 31.47500
O  42.93100 45.63200 31.33400
O  41.01800 46.15600 32.55100
C  41.84800 46.62100 33.60600
H  42.60300 38.41900 30.25600
H  42.51400 38.47200 23.90900
H  40.70500 44.82400 24.06900
H  41.90900 43.01800 32.06500
H  41.36200 39.96400 32.09500
H  43.59300 41.33000 32.92000
H  44.25700 40.64800 31.44800
H  43.53000 39.56200 32.64900
H  39.70000 41.21700 32.60600
H  39.21500 42.44400 31.46200
H  39.07700 43.86200 33.24100
H  40.67500 43.39300 33.88100
H  44.54800 35.94900 28.36900
H  42.92000 35.66900 28.75800
H  43.92100 36.88900 29.60400
H  45.30500 35.61800 26.22100
H  44.54000 34.45900 25.07500
H  43.80800 34.81700 26.69800
H  41.10800 40.23100 22.23400
H  41.78700 42.98600 22.11200
H  43.65300 41.91700 21.82500
H  43.06800 40.49900 21.02200
H  43.95900 40.36000 22.53700
H  39.72300 42.07500 21.04200
H  39.37900 43.42800 22.07100
H  38.03700 40.88800 22.06200
H  37.79100 42.20100 23.17500
H  38.90600 40.80900 23.57500
H  41.31100 46.76000 24.99700
H  40.82400 47.83800 26.41200
H  39.60200 46.82400 25.64300
H  39.78100 45.10100 30.90200
H  42.86800 46.85800 33.30100
H  41.85200 46.06800 34.54500
H  41.38100 47.59600 33.74200
Mg 0.84200 43.05200 25.89000
C  3.19500 43.33000 28.53600
C  -1.39300 42.03500 28.27000
C  -1.13200 42.42000 23.41300
C  3.50800 43.72600 23.61900
N  0.90800 42.92900 28.22800
C  1.93700 43.12000 29.04400
C  1.57800 42.93200 30.55800
C  0.08000 42.56000 30.42800
C  -0.18300 42.41200 28.87800
C  -0.34500 41.32200 31.19900
C  1.80800 44.22700 31.35500
C  1.14200 44.46800 32.72000
H  0.94000 43.11900 33.59000
N  -1.03100 42.39600 25.83100
C  -1.78200 41.93100 26.92900
C  -3.05500 41.34700 26.42100
C  -2.96900 41.43800 24.94500
C  -1.68600 42.12700 24.67200
C  -4.06900 40.74400 27.36100
C  -3.98100 41.02000 23.88100
O  -3.90700 41.27700 22.63100
C  -5.23200 40.21600 24.25800
N  1.19100 42.90000 23.78000
C  0.15000 42.66000 22.96500
C  0.48100 42.72400 21.43900
C  1.92700 43.46100 21.56800
C  2.26400 43.37600 23.07400
C  0.58900 41.33400 20.66400
C  1.86700 44.84900 20.88200
C  1.26200 45.98500 21.65200
N  2.91700 43.53700 25.95100
C  3.89200 43.71000 24.96900
C  5.16600 43.80800 25.62500
C  4.96900 43.63700 26.98900
C  3.61000 43.51300 27.18000
C  6.50300 43.84500 24.83600
C  5.63600 43.49900 28.24000
O  6.86200 43.40800 28.43400
C  4.51600 43.43900 29.36800
C  4.83600 42.30000 30.27100
O  5.21800 41.17300 29.99700
O  4.69800 42.77500 31.56700
C  5.09900 41.95200 32.70300
H  -2.12500 41.64000 28.97700
H  -1.82700 42.24000 22.59100
H  4.37800 44.06200 23.05000
H  2.17700 42.09300 30.91200
H  -0.59700 43.35200 30.74700
H  -1.03000 41.71000 31.95300
H  0.51300 41.01600 31.79800
H  -0.76100 40.54000 30.56300
H  1.50300 45.07000 30.73500
H  2.87400 44.44200 31.42800
H  0.23900 45.04600 32.52400
H  1.69500 45.19600 33.31300
H  -5.08000 40.87600 26.97400
H  -4.03500 41.25600 28.32300
H  -3.93600 39.67000 27.48900
H  -4.94700 39.42200 24.94900
H  -5.46800 39.64100 23.36300
H  -6.01600 40.93400 24.49700
H  -0.31600 43.29000 20.95700
H  2.71800 42.88100 21.09300
H  0.18400 40.55500 21.31100
H  1.59900 41.04200 20.37400
H  0.04700 41.35600 19.71900
H  1.42000 44.78400 19.89000
H  2.89200 45.18900 20.73200
H  0.87000 45.72000 22.63400
H  0.53300 46.38300 20.94600
H  2.04800 46.74000 21.68200
H  6.50000 43.43800 23.82500
H  7.16200 43.17100 25.38400
H  6.89500 44.86200 24.84900
H  4.56500 44.32300 30.00400
H  6.14300 42.18600 32.91600
H  4.87000 40.89100 32.60200
H  4.43000 42.19800 33.52800

