158

Mg 54.95600 24.36300 44.17300
C  52.27000 26.27100 43.22300
C  53.37700 21.50100 43.27900
C  58.05700 22.68600 44.13900
C  56.90700 27.38000 44.50400
N  53.06200 24.00600 43.25400
C  52.03900 24.90800 43.01000
C  50.75800 24.18600 42.53200
C  51.11300 22.74000 43.08900
C  52.61700 22.71400 43.22800
C  50.34000 22.54700 44.44000
C  50.63200 24.12600 41.00600
C  49.24200 24.01500 40.44600
H  49.04100 23.73100 38.94300
N  55.58800 22.32600 43.79900
C  54.75500 21.30400 43.45700
C  55.44300 20.09900 43.51900
C  56.82100 20.40500 43.80300
C  56.86100 21.87800 43.96500
C  54.73700 18.86700 43.09000
C  57.86400 19.37500 43.90100
O  57.53800 18.23900 43.69500
C  59.27800 19.65200 44.35900
N  57.15900 24.92800 44.17900
C  58.16200 24.04600 44.23200
C  59.53300 24.71500 44.44900
C  59.21900 26.21000 44.57800
C  57.61600 26.17400 44.35000
C  60.38700 24.12800 45.55600
C  59.97800 27.05300 43.54100
C  60.69100 28.23800 44.10100
N  54.66200 26.45500 43.92000
C  55.48700 27.54100 44.23800
C  54.61500 28.68200 44.42000
C  53.31900 28.22400 43.98900
C  53.49000 26.86700 43.67000
C  54.98800 30.02900 44.90900
C  51.93700 28.63100 43.94400
O  51.36300 29.60600 44.30200
C  51.17200 27.39400 43.34400
C  50.69300 27.86700 42.03100
O  51.46000 28.27600 41.12100
O  49.32500 27.79000 41.84300
C  48.70200 28.24700 40.58200
H  52.85200 20.55200 43.40700
H  58.96600 22.08100 44.12600
H  57.50100 28.25000 44.79300
H  49.83900 24.62500 42.92000
H  50.77700 21.97800 42.38600
H  51.02200 22.24800 45.23500
H  49.63900 21.74100 44.22200
H  49.84200 23.44600 44.80200
H  51.16500 23.21700 40.72800
H  51.18900 24.93000 40.52400
H  48.73000 24.97600 40.48500
H  48.70200 23.30300 41.07100
H  54.34700 19.04700 42.08800
H  53.83500 18.82400 43.70100
H  55.25100 17.91700 43.23100
H  59.83400 20.23500 43.62500
H  59.74700 18.73600 44.72000
H  59.29600 20.18300 45.31100
H  60.09500 24.54800 43.53000
H  59.46300 26.61700 45.55900
H  60.60400 24.89400 46.30100
H  61.24600 23.57800 45.17300
H  59.67000 23.42500 45.98000
H  59.30400 27.42000 42.76800
H  60.78400 26.58300 42.97700
H  61.65800 28.34900 43.60900
H  60.86700 28.18600 45.17500
H  60.11400 29.15200 43.95700
H  55.57700 29.88100 45.81400
H  54.13400 30.69600 45.01900
H  55.58000 30.49700 44.12200
H  50.33900 27.12000 43.99100
H  48.76100 27.53100 39.76200
H  49.34900 29.08100 40.30900
H  47.66300 28.57500 40.58100
Mg 0.21800 44.11000 26.08200
C  2.24300 44.30700 28.91900
C  -2.55400 43.60200 28.35200
C  -1.76200 43.26100 23.44800
C  2.90500 44.08000 24.10200
N  -0.05400 44.05000 28.33100
C  0.90000 44.12400 29.25600
C  0.32700 44.03700 30.63600
C  -1.13900 43.64600 30.50400
C  -1.30200 43.83700 28.98700
C  -1.47200 42.18600 31.00200
C  0.59100 45.28700 31.55600
C  0.83200 45.11500 33.08900
H  0.46500 43.83100 33.84300
N  -1.83100 43.68800 25.90600
C  -2.83400 43.59200 26.95300
C  -4.15700 43.48200 26.39100
C  -3.90900 43.37200 24.95200
C  -2.47100 43.42000 24.68300
C  -5.45300 43.40700 27.26100
C  -5.02800 43.31900 23.89400
O  -4.75900 43.46600 22.69200
C  -6.46100 43.07000 24.34200
N  0.54800 43.50700 24.10100
C  -0.43300 43.35600 23.12200
C  0.14600 43.31700 21.75800
C  1.49000 44.01600 21.99300
C  1.69600 43.84100 23.51600
C  0.15300 41.90600 21.26800
C  1.52000 45.51900 21.53200
C  2.51600 45.88000 20.47100
N  2.27700 44.19600 26.37800
C  3.24300 44.17400 25.45600
C  4.52000 44.39400 26.13700
C  4.20300 44.50500 27.49900
C  2.80200 44.22900 27.63300
C  5.85900 44.54300 25.42000
C  4.71300 44.64500 28.86600
O  5.86200 44.77300 29.25100
C  3.43200 44.48600 29.87000
C  3.72500 43.26700 30.68300
O  3.81300 42.13600 30.18100
O  4.10000 43.64500 31.95400
C  4.82800 42.52000 32.63900
H  -3.37700 43.41900 29.04600
H  -2.43500 42.99200 22.63100
H  3.73500 44.32000 23.43400
H  0.77600 43.18000 31.13900
H  -1.77500 44.40300 30.96200
H  -2.32000 42.33200 31.67100
H  -0.65900 41.76400 31.59300
H  -1.62800 41.54000 30.13900
H  -0.34000 45.85200 31.50700
H  1.32400 45.99000 31.15900
H  0.27000 45.82300 33.69800
H  1.89400 45.17000 33.32700
H  -6.05300 44.30000 27.08900
H  -5.29000 43.33400 28.33700
H  -5.97400 42.47600 27.03700
H  -6.70600 42.04800 24.63100
H  -7.10800 43.16300 23.47000
H  -6.88500 43.68300 25.13800
H  -0.48800 43.83500 21.03900
H  2.32500 43.54800 21.47100
H  -0.10600 41.11300 21.97000
H  1.18600 41.63100 21.05400
H  -0.41600 41.87400 20.33900
H  1.87500 46.14400 22.35200
H  0.55000 45.99600 21.39200
H  2.02800 46.51600 19.73300
H  2.82700 45.03800 19.85200
H  3.31800 46.48700 20.89100
H  6.57700 45.22300 25.87900
H  5.65600 44.94800 24.42900
H  6.26400 43.53400 25.35100
H  3.32400 45.39200 30.46700
H  5.78500 42.26400 32.18500
H  4.18100 41.64600 32.71600
H  5.05600 42.80200 33.66700

