158

Mg 53.40300 24.77700 44.97400
C  50.66200 26.75000 44.13800
C  51.71800 22.14800 43.49300
C  56.31400 22.96400 44.72600
C  55.21500 27.48500 45.88400
N  51.43500 24.49100 43.76600
C  50.43100 25.41600 43.59200
C  49.30300 24.83200 42.64300
C  49.48600 23.35500 43.03400
C  50.99200 23.27400 43.46200
C  48.51100 22.92700 44.16700
C  49.69600 25.10500 41.14400
C  48.56500 25.23600 40.07900
H  47.95600 23.94800 39.54400
N  53.90400 22.75500 44.36700
C  53.03900 21.92600 43.73000
C  53.74600 20.65800 43.51700
C  55.10000 20.85400 43.94000
C  55.17000 22.22400 44.33100
C  53.21600 19.41300 42.85600
C  56.18800 19.74500 43.90100
O  55.94400 18.68400 43.39200
C  57.47800 19.89500 44.45100
N  55.45800 25.20400 45.19400
C  56.42800 24.29500 45.20800
C  57.79200 24.80300 45.69900
C  57.43000 26.29400 45.93800
C  55.93800 26.38600 45.61600
C  58.24700 23.95000 46.95500
C  58.14900 27.33900 45.09600
C  58.40700 28.70400 45.72300
N  52.99100 26.75100 45.14600
C  53.86700 27.78400 45.50200
C  53.10200 28.98800 45.58700
C  51.83700 28.61100 45.01600
C  51.84200 27.23600 44.81100
C  53.51700 30.35100 46.00700
C  50.59600 29.10700 44.59800
O  50.09700 30.24600 44.61900
C  49.75200 27.95000 44.10200
C  48.97100 28.23900 42.80800
O  49.40400 28.41200 41.69900
O  47.63600 28.30700 43.02200
C  46.77000 28.38600 41.81500
H  51.13100 21.31100 43.10700
H  57.28200 22.46900 44.62500
H  55.63800 28.43600 46.21600
H  48.27200 25.13800 42.82100
H  49.23200 22.68700 42.21000
H  48.91800 22.47700 45.07200
H  47.91500 22.11100 43.75700
H  47.70400 23.62700 44.38300
H  50.22300 24.25200 40.71600
H  50.26400 26.03500 41.13200
H  48.96900 25.92800 39.34000
H  47.67500 25.70300 40.50100
H  53.81800 19.17900 41.97900
H  52.21000 19.55600 42.46100
H  53.23900 18.62800 43.61200
H  58.04700 18.97200 44.55900
H  57.39300 20.40800 45.40900
H  58.04500 20.48100 43.72700
H  58.51300 24.61100 44.90400
H  57.43500 26.45900 47.01500
H  59.25700 23.63700 46.68600
H  57.73300 22.99900 47.09400
H  58.34400 24.63700 47.79500
H  57.61300 27.59200 44.18100
H  59.13300 26.93300 44.86200
H  59.45400 28.99300 45.81000
H  57.88500 28.74000 46.67900
H  57.91800 29.47400 45.12700
H  53.03900 31.11300 45.39100
H  54.59900 30.42300 45.89400
H  53.19900 30.52700 47.03500
H  49.04200 27.77700 44.91000
H  46.87000 27.42200 41.31600
H  47.01000 29.12600 41.05200
H  45.75900 28.45400 42.21700
Mg 46.68600 24.95700 28.62300
C  47.39700 27.13500 31.29200
C  45.36900 22.75300 30.80200
C  46.55700 22.65300 26.11600
C  48.12100 27.19800 26.48000
N  46.45800 24.95400 30.82100
C  46.76300 25.98200 31.69900
C  46.21100 25.59800 33.11000
C  45.49200 24.19200 32.89600
C  45.79700 23.88300 31.43200
C  45.85800 23.13300 33.91000
C  45.27400 26.63900 33.84100
C  45.80500 27.19400 35.16400
H  44.82400 27.29400 36.32500
N  46.21400 22.93300 28.48800
C  45.54800 22.24400 29.47700
C  45.35700 20.85400 29.02200
C  45.76900 20.80500 27.67500
C  46.20900 22.15300 27.33600
C  44.62600 19.87200 29.91500
C  45.80800 19.65000 26.63900
O  46.12200 19.77700 25.44500
C  45.34200 18.26700 27.16600
N  47.25500 24.94700 26.55600
C  47.10000 23.87800 25.75900
C  47.64700 24.18800 24.36100
C  47.80700 25.74200 24.39500
C  47.68200 26.02600 25.87800
C  49.00500 23.41100 24.14800
C  46.76100 26.46600 23.61400
C  46.93200 26.66000 22.13900
N  47.56600 26.78300 28.78800
C  48.06800 27.63200 27.81900
C  48.50300 28.90000 28.35800
C  48.29500 28.70900 29.70800
C  47.69500 27.39700 29.97200
C  49.20300 30.00100 27.71400
C  48.45000 29.37200 31.02000
O  48.88500 30.46400 31.39300
C  47.81700 28.40200 32.00700
C  48.78300 28.25500 33.13100
O  49.78200 27.50000 33.14000
O  48.48300 29.10300 34.17400
C  49.14100 28.70300 35.42800
H  44.90600 22.17300 31.60400
H  46.64000 21.99300 25.24900
H  48.48000 27.91400 25.73800
H  47.08200 25.45400 33.75000
H  44.40300 24.14300 32.92400
H  45.22500 22.24800 33.84400
H  45.74700 23.57300 34.90200
H  46.89500 22.82700 33.77200
H  44.40200 26.09100 34.19800
H  45.03400 27.44200 33.14400
H  46.29000 28.16800 35.10200
H  46.57400 26.48500 35.47300
H  43.57000 19.86200 29.64600
H  44.74100 20.17600 30.95500
H  45.00500 18.85100 29.95900
H  45.42000 17.60000 26.30800
H  44.35900 18.14700 27.62300
H  46.07300 18.08700 27.95400
H  47.03700 23.85200 23.52200
H  48.78200 26.08400 24.04600
H  49.86100 24.07200 24.01100
H  49.04300 22.58200 23.44200
H  49.19200 22.93800 25.11200
H  46.75900 27.47100 24.03600
H  45.75300 26.06000 23.69500
H  47.76200 26.04200 21.79600
H  47.21000 27.69500 21.93800
H  46.07500 26.33000 21.55200
H  49.43500 29.56200 26.74400
H  50.11000 30.33400 28.21700
H  48.51900 30.84600 27.63700
H  46.95700 28.93400 32.41400
H  50.16300 29.07600 35.37500
H  49.10000 27.63700 35.65100
H  48.66900 29.20200 36.27500

