158

Mg 26.21900 -0.08900 29.25200
C  28.15600 -0.32700 32.28400
C  23.47300 0.35100 31.28200
C  24.42900 0.05100 26.48700
C  29.00200 -1.12900 27.52600
N  25.87000 0.02300 31.62400
C  26.82900 -0.02300 32.63100
C  26.20500 0.39400 34.00900
C  24.65700 0.61600 33.65600
C  24.66800 0.25000 32.12200
C  23.63100 -0.16700 34.47900
C  26.82700 1.61700 34.73000
C  26.22100 2.08500 36.05200
H  27.04600 2.29900 37.25000
N  24.28500 0.18700 28.93800
C  23.28100 0.31200 29.88400
C  22.04900 0.57200 29.13200
C  22.27700 0.63200 27.74800
C  23.68100 0.26500 27.67900
C  20.73200 1.03300 29.79800
C  21.35700 0.88300 26.55000
O  21.72600 0.79500 25.40800
C  19.92000 1.35800 26.78300
N  26.59800 -0.50400 27.27400
C  25.73300 -0.24000 26.28300
C  26.38600 -0.20800 24.89500
C  27.83000 -0.76400 25.18800
C  27.84400 -0.82100 26.76100
C  25.55100 -0.96100 23.78100
C  28.96800 0.17500 24.66800
C  30.00300 -0.53600 23.79500
N  28.14900 -0.65500 29.75000
C  29.19100 -1.06800 28.87500
C  30.43800 -1.28900 29.66000
C  29.97300 -1.06400 30.95200
C  28.65700 -0.56700 30.94600
C  31.80800 -1.66700 29.17400
C  30.47700 -0.97000 32.27500
O  31.59900 -1.13100 32.73100
C  29.37700 -0.44100 33.21400
C  29.22900 -1.29400 34.37300
O  28.68600 -2.37200 34.35000
O  29.75400 -0.81900 35.51500
C  29.55000 -1.43200 36.86400
H  22.63500 0.69500 31.89200
H  23.98800 0.30200 25.52000
H  29.84100 -1.30700 26.85000
H  26.38500 -0.48500 34.62900
H  24.49600 1.68100 33.82200
H  24.12100 -0.67600 35.30900
H  23.00700 -0.94900 34.04600
H  22.89100 0.44700 34.99100
H  26.95500 2.45900 34.04900
H  27.83600 1.30400 35.00000
H  25.36700 1.44600 36.27300
H  25.87900 3.09600 35.83000
H  20.57500 2.07500 29.51600
H  20.74000 0.92100 30.88200
H  19.92500 0.39700 29.43400
H  19.97200 2.37300 27.17700
H  19.21400 0.71400 27.30600
H  19.32500 1.47800 25.87700
H  26.39100 0.84400 24.61100
H  27.94800 -1.78700 24.83000
H  26.22100 -1.58600 23.19000
H  25.12300 -0.15200 23.19000
H  24.86200 -1.60100 24.33400
H  29.43700 0.53000 25.58600
H  28.67700 1.14300 24.26000
H  30.40700 0.11600 23.02000
H  29.66600 -1.47400 23.35500
H  30.83200 -0.90500 24.39900
H  32.09800 -1.05900 28.31700
H  31.72900 -2.73100 28.95000
H  32.58200 -1.52600 29.92900
H  29.62800 0.56900 33.53800
H  30.40600 -1.06800 37.43200
H  29.52700 -2.52000 36.80400
H  28.61600 -0.95300 37.15900
Mg 46.82600 25.21900 28.29700
C  47.58900 27.47400 30.94300
C  46.01000 22.82700 30.63500
C  47.21300 22.81700 25.85800
C  48.02900 27.58300 26.17700
N  46.81000 25.14600 30.51300
C  47.01000 26.24100 31.37800
C  46.59400 25.92500 32.74100
C  46.31500 24.29800 32.68500
C  46.43000 24.02100 31.15800
C  47.16900 23.39300 33.60500
C  45.43500 26.79500 33.43800
C  45.77400 27.22300 34.90400
H  44.61200 27.28400 35.86300
N  46.50800 23.07200 28.24400
C  46.13300 22.36500 29.32800
C  45.75700 21.08200 28.79500
C  46.29900 20.94900 27.49000
C  46.69200 22.34200 27.13800
C  45.15800 19.95000 29.59200
C  46.29500 19.79800 26.52400
O  46.67400 19.93700 25.33000
C  45.73700 18.43000 26.95300
N  47.44600 25.17300 26.26500
C  47.52700 24.09300 25.44800
C  47.65500 24.50600 24.01500
C  47.72600 26.09300 24.05600
C  47.73100 26.34700 25.61700
C  48.78600 23.80900 23.15100
C  46.62000 26.83800 23.20900
C  45.16800 26.67800 23.59500
N  47.61400 27.19200 28.44000
C  47.99600 28.03500 27.50300
C  48.26400 29.30900 27.97200
C  48.17200 29.21900 29.41500
C  47.71200 27.84300 29.61900
C  48.65500 30.49300 27.13100
C  48.45500 29.79800 30.76600
O  49.00800 30.86400 31.09900
C  47.98400 28.70400 31.80300
C  49.09000 28.37900 32.74800
O  50.08100 27.66000 32.50200
O  48.90900 28.98100 33.99300
C  49.94900 28.68300 34.97600
H  45.57000 22.04200 31.25300
H  47.29900 22.03800 25.09800
H  48.31600 28.34600 25.45000
H  47.41700 26.14400 33.42200
H  45.28300 24.13400 32.99800
H  46.54700 22.88500 34.34200
H  47.71800 24.09200 34.23600
H  47.83300 22.67700 33.12200
H  44.53600 26.18300 33.51400
H  45.25000 27.64300 32.77900
H  46.05000 28.27600 34.86500
H  46.59000 26.61800 35.30000
H  44.50900 19.38300 28.92500
H  44.69100 20.38800 30.47400
H  45.94500 19.27700 29.93200
H  45.79800 17.66500 26.17900
H  44.64800 18.41200 27.00100
H  46.05900 18.14200 27.95400
H  46.69400 24.17300 23.62100
H  48.67500 26.51600 23.72800
H  49.48700 24.56700 22.80200
H  48.40200 23.18500 22.34400
H  49.32300 23.14200 23.82600
H  46.75100 26.47100 22.19100
H  46.97300 27.86900 23.23000
H  44.96200 25.64300 23.86600
H  44.48000 27.01200 22.81800
H  44.86700 27.23600 24.48200
H  49.05800 31.27000 27.78100
H  47.80300 30.87600 26.56900
H  49.43800 30.30500 26.39700
H  47.22200 29.25300 32.35700
H  50.94000 28.96100 34.61900
H  50.02900 27.61400 35.17600
H  49.76500 29.30100 35.85400

