158

Mg 48.53800 35.47000 28.27900
C  46.58600 33.55200 30.65000
C  48.75700 37.88400 30.40400
C  49.42400 37.29700 25.62700
C  47.66300 32.82000 25.94600
N  47.81100 35.58500 30.33200
C  47.02900 34.74300 31.17500
C  46.92000 35.38400 32.54400
C  47.21000 36.95300 32.24200
C  48.02200 36.75000 30.92600
C  45.93600 37.92400 32.11900
C  47.60400 34.72500 33.71900
C  48.76400 35.34600 34.57400
H  48.41200 35.99400 35.94900
N  49.22300 37.29600 28.12000
C  49.28600 38.12500 29.15600
C  49.85000 39.39600 28.76500
C  50.02600 39.28000 27.28800
C  49.51900 37.93400 26.88800
C  49.99600 40.52600 29.74800
C  50.54700 40.36400 26.32100
O  50.40500 40.21600 25.11300
C  51.12800 41.67300 26.84100
N  48.56100 35.12900 26.10300
C  48.96400 36.08100 25.19300
C  48.89700 35.67700 23.69900
C  48.46400 34.16600 23.90900
C  48.12700 34.04100 25.41100
C  47.92900 36.56200 22.85200
C  49.49200 33.22600 23.38400
C  50.58400 32.62700 24.34300
N  47.56200 33.55900 28.33000
C  47.34200 32.62700 27.28900
C  46.75800 31.42100 27.83200
C  46.30200 31.80700 29.06500
C  46.81400 33.09900 29.36400
C  46.52800 30.10500 27.09600
C  45.43700 31.48800 30.13000
O  44.69300 30.53000 30.28500
C  45.47000 32.62500 31.17100
C  45.71100 32.00400 32.50200
O  46.53600 31.20500 32.69300
O  44.79900 32.38400 33.41500
C  44.86100 31.67600 34.76200
H  48.70300 38.62000 31.21000
H  49.74300 37.96200 24.82200
H  47.40800 32.12200 25.14700
H  45.86300 35.32900 32.80400
H  47.73800 37.49600 33.02500
H  46.21900 38.70800 31.41700
H  45.45600 38.32700 33.01100
H  45.17300 37.36100 31.58300
H  47.97100 33.79600 33.28200
H  46.81100 34.39800 34.39100
H  49.33900 36.05700 33.98100
H  49.36800 34.47400 34.82300
H  48.99500 40.88900 29.98100
H  50.67100 41.29500 29.37100
H  50.50500 40.07600 30.60000
H  51.89000 41.40900 27.57400
H  50.34300 42.24100 27.34100
H  51.47600 42.26600 25.99500
H  49.94000 35.80400 23.40800
H  47.60500 33.95000 23.27400
H  47.13700 35.93400 22.44300
H  48.49600 37.15500 22.13400
H  47.43900 37.22800 23.56200
H  50.01800 33.70400 22.55800
H  48.86500 32.40800 23.03000
H  50.75200 33.43000 25.06200
H  51.54800 32.55800 23.83900
H  50.25200 31.67000 24.74500
H  47.36100 29.82500 26.45100
H  45.64300 30.18200 26.46500
H  46.33100 29.29700 27.80000
H  44.52700 33.14200 31.34600
H  45.54000 30.82400 34.73500
H  43.87300 31.36100 35.09800
H  45.18900 32.35700 35.54700
Mg 36.46900 49.24300 24.66600
C  36.58900 47.29300 27.60600
C  35.51000 51.95600 26.63600
C  36.21700 50.97000 21.77600
C  37.13400 46.37800 22.86500
N  35.94900 49.54300 26.88100
C  36.30100 48.63600 27.85800
C  36.32000 49.29000 29.24400
C  35.63200 50.76200 28.96700
C  35.71600 50.75700 27.39000
C  34.16900 50.97400 29.49000
C  37.66000 49.33300 30.03400
C  37.57500 48.79500 31.51700
H  36.26600 48.99600 32.26300
N  35.82300 51.16200 24.25500
C  35.44500 52.10700 25.21900
C  35.15900 53.35600 24.46500
C  35.42400 53.07100 23.11400
C  35.79300 51.66400 22.97700
C  34.89000 54.60100 25.22900
C  35.33000 54.01300 21.88000
O  35.46200 53.64900 20.71400
C  34.96400 55.47700 22.15300
N  36.50500 48.73000 22.59000
C  36.56200 49.62300 21.58000
C  37.03800 49.00800 20.19000
C  37.20700 47.51800 20.59700
C  36.82600 47.50100 22.10400
C  36.01700 49.13900 18.93500
C  38.62300 46.94800 20.32500
C  39.72500 47.61400 21.21400
N  36.73200 47.19200 25.08700
C  37.04800 46.15400 24.29300
C  37.47200 44.97700 25.04000
C  37.28000 45.41000 26.36900
C  36.79700 46.73600 26.36900
C  38.06500 43.68800 24.51400
C  37.47600 45.02700 27.71300
O  37.97800 44.06000 28.16700
C  36.96400 46.23000 28.61100
C  35.75800 45.69900 29.26600
O  34.70800 45.48100 28.69600
O  35.89300 45.66800 30.61900
C  34.70300 45.13700 31.30800
H  35.26000 52.74900 27.34400
H  36.27600 51.52100 20.83500
H  37.68200 45.55300 22.40600
H  35.66700 48.62500 29.81000
H  36.18600 51.61400 29.36100
H  33.98100 51.87500 30.07300
H  33.98200 50.13700 30.16200
H  33.47600 50.99300 28.64800
H  37.95900 50.38100 30.04500
H  38.34400 48.75600 29.41100
H  38.46700 49.13900 32.04000
H  37.66900 47.70900 31.53300
H  35.26900 55.50300 24.74900
H  35.31600 54.65400 26.23100
H  33.81900 54.61500 25.43300
H  35.71700 56.04800 22.69600
H  33.97600 55.43300 22.61200
H  34.91500 56.12000 21.27500
H  38.04400 49.37900 19.99400
H  36.65700 46.76500 20.03300
H  36.53100 49.19100 17.97500
H  35.42000 50.04500 19.03800
H  35.32200 48.30300 19.01100
H  38.90700 47.17400 19.29800
H  38.69500 45.86200 20.25800
H  39.27500 48.16200 22.04200
H  40.17100 48.37900 20.57900
H  40.50600 46.90900 21.50200
H  38.59900 43.30400 25.38300
H  38.64800 43.79700 23.60000
H  37.23100 42.98600 24.49400
H  37.78200 46.48700 29.28400
H  33.79700 45.71400 31.12700
H  34.91100 45.17300 32.37800
H  34.58300 44.12400 30.92300

