158

Mg -3.06400 17.16400 25.88600
C  -3.28000 14.78500 28.51600
C  -3.74300 19.56800 28.01800
C  -3.04600 19.20200 23.20100
C  -2.73000 14.33300 23.71300
N  -3.54700 17.08900 28.01900
C  -3.45500 16.10700 28.98600
C  -3.67200 16.68300 30.38300
C  -3.75900 18.26200 30.18200
C  -3.75600 18.33600 28.63500
C  -4.83900 18.95900 31.02700
C  -2.73000 16.10500 31.37100
C  -2.17200 16.92300 32.55800
H  -1.81800 16.16900 33.89400
N  -3.48000 19.15400 25.57000
C  -3.67300 19.96400 26.66300
C  -3.64100 21.34700 26.17000
C  -3.19200 21.31600 24.82400
C  -3.25200 19.83100 24.44200
C  -3.94900 22.53900 27.14500
C  -2.83300 22.49900 23.94300
O  -2.36000 22.35700 22.81500
C  -2.87300 23.95800 24.42000
N  -2.80700 16.83900 23.73200
C  -2.99900 17.88200 22.83400
C  -2.71200 17.33300 21.40900
C  -2.84900 15.80300 21.60400
C  -2.68700 15.63700 23.13200
C  -3.46700 17.96800 20.29600
C  -1.87500 14.97900 20.68700
C  -2.66600 14.05100 19.71500
N  -3.02600 15.03500 26.04900
C  -2.85500 14.05400 25.10200
C  -2.84600 12.70200 25.72100
C  -3.03400 12.98200 27.02300
C  -3.13000 14.36900 27.17700
C  -2.64400 11.43500 25.13100
C  -3.19200 12.36200 28.33200
O  -3.17900 11.18400 28.61900
C  -3.40700 13.50900 29.31900
C  -2.42100 13.34000 30.43700
O  -1.24000 13.57900 30.38100
O  -3.06900 12.67400 31.44700
C  -2.27500 12.18600 32.57800
H  -3.82900 20.42900 28.68400
H  -2.95400 19.84200 22.32100
H  -2.60000 13.47100 23.05500
H  -4.66600 16.27500 30.56900
H  -2.81900 18.60700 30.61200
H  -4.67000 19.98200 31.36100
H  -4.97900 18.44800 31.98000
H  -5.73000 18.75900 30.43200
H  -1.83200 15.92400 30.77900
H  -3.05700 15.15700 31.79800
H  -2.83600 17.75100 32.80400
H  -1.22100 17.37600 32.27600
H  -3.00700 22.94800 27.50900
H  -4.60300 22.36600 28.00000
H  -4.44600 23.25400 26.48900
H  -3.88000 24.35200 24.28500
H  -2.20000 24.50200 23.75800
H  -2.50300 24.13400 25.43000
H  -1.70000 17.66200 21.17500
H  -3.89200 15.55200 21.41100
H  -2.79900 18.37500 19.53600
H  -4.03700 18.84600 20.60100
H  -4.11800 17.22200 19.84000
H  -1.37400 14.26800 21.34400
H  -1.16400 15.65200 20.20800
H  -2.55000 12.98500 19.91100
H  -2.20900 14.41600 18.79500
H  -3.70700 14.36900 19.67900
H  -1.94900 11.44400 24.29100
H  -3.58200 11.06900 24.71400
H  -2.30600 10.64200 25.79900
H  -4.44900 13.33300 29.58500
H  -1.53700 12.86900 32.99800
H  -1.80000 11.31600 32.12500
H  -2.93200 11.98700 33.42500
Mg -12.91600 16.77800 40.91800
C  -9.90900 15.07800 40.52600
C  -11.45600 19.61000 39.62400
C  -15.95300 18.21600 40.75800
C  -14.40000 13.65600 41.82400
N  -10.91300 17.29900 40.02700
C  -9.83600 16.42800 40.10300
C  -8.52700 17.20100 39.63400
C  -9.05400 18.71700 39.44800
C  -10.53000 18.54300 39.73700
C  -8.32200 19.72500 40.38700
C  -7.89100 16.51700 38.40000
C  -6.35100 16.28600 38.45300
H  -5.57600 16.62400 37.20200
N  -13.68100 18.60800 40.22500
C  -12.89700 19.66800 39.78300
C  -13.75700 20.85000 39.58000
C  -15.07400 20.42200 39.84600
C  -14.95900 18.98000 40.30500
C  -13.30800 22.25900 39.15700
C  -16.31200 21.35800 39.69700
O  -16.16300 22.48200 39.27600
C  -17.74100 20.81100 39.96000
N  -14.96800 15.96500 41.11900
C  -16.00200 16.87200 41.19500
C  -17.30800 16.04600 41.50800
C  -16.71700 14.62600 42.14600
C  -15.24100 14.74500 41.69900
C  -18.51500 16.72000 42.28900
C  -17.49000 13.37100 41.67300
C  -18.02100 12.30200 42.71400
N  -12.31700 14.66600 41.13500
C  -13.05300 13.54800 41.44100
C  -12.14400 12.43800 41.56800
C  -10.86000 12.97200 41.23800
C  -11.08400 14.35400 40.90100
C  -12.56600 11.08300 41.88600
C  -9.45900 12.65600 41.11900
O  -8.76800 11.63900 41.24200
C  -8.77700 14.03200 40.67300
C  -7.71800 14.42600 41.63600
O  -7.85100 15.13600 42.62900
O  -6.48500 14.03200 41.22100
C  -5.25200 14.67900 41.84200
H  -10.96900 20.55100 39.36100
H  -16.97000 18.60400 40.66700
H  -14.79700 12.72200 42.22700
H  -7.93300 17.09000 40.54100
H  -8.99700 19.06800 38.41800
H  -9.05500 20.30300 40.94900
H  -7.69600 20.34400 39.74400
H  -7.65700 19.18000 41.05700
H  -8.03400 17.20400 37.56600
H  -8.46400 15.60000 38.25800
H  -6.09800 15.25100 38.68600
H  -5.90900 16.91700 39.22400
H  -13.79800 22.63100 38.25700
H  -12.25500 22.40900 38.91900
H  -13.53500 22.92100 39.99200
H  -18.40000 21.54400 39.49500
H  -17.88800 20.93000 41.03400
H  -18.06700 19.88400 39.49000
H  -17.78700 15.70700 40.58900
H  -16.66400 14.64500 43.23400
H  -19.43100 16.88000 41.72000
H  -18.19000 17.74900 42.43800
H  -18.79200 16.23300 43.22400
H  -16.85700 12.86300 40.94600
H  -18.34900 13.63400 41.05600
H  -17.93600 12.78400 43.68800
H  -17.37500 11.42500 42.73300
H  -19.07500 12.04000 42.61400
H  -11.65000 10.50800 41.75000
H  -13.34200 10.67100 41.24200
H  -12.96300 10.98200 42.89600
H  -8.34500 13.88900 39.68200
H  -5.40400 15.67000 42.26800
H  -4.45800 14.72900 41.09600
H  -4.89100 14.06000 42.66400

