158

Mg -1.85900 17.11000 25.96100
C  -1.86500 14.97200 28.63200
C  -3.17900 19.52400 28.00000
C  -1.76800 19.30700 23.35900
C  -1.34000 14.48900 23.77400
N  -2.36800 17.24900 28.16900
C  -2.17700 16.24000 29.05300
C  -2.63700 16.65500 30.44500
C  -3.36000 18.04200 30.16000
C  -2.97900 18.34100 28.66400
C  -4.84600 18.15900 30.53700
C  -1.46000 16.82700 31.54900
C  -1.44600 15.85200 32.73600
H  -1.97300 16.20000 34.16200
N  -2.23400 19.10400 25.71700
C  -2.86600 19.94000 26.67300
C  -2.98200 21.29100 26.14400
C  -2.36600 21.32000 24.85500
C  -2.08700 19.85400 24.61500
C  -3.69900 22.40300 26.94600
C  -2.09100 22.44500 23.90200
O  -1.62500 22.27400 22.77900
C  -2.32900 23.83300 24.30300
N  -1.72000 16.92900 23.77700
C  -1.59100 17.95500 22.94600
C  -1.25600 17.46800 21.57300
C  -1.01700 15.97600 21.73200
C  -1.39400 15.76000 23.17600
C  -2.20700 17.93900 20.47500
C  0.35400 15.37300 21.36600
C  0.48800 14.21700 20.52900
N  -1.71600 15.14400 26.08600
C  -1.47500 14.22900 25.14600
C  -1.36000 12.93600 25.78900
C  -1.52700 13.19600 27.14900
C  -1.70100 14.57600 27.32000
C  -1.08900 11.55900 25.11100
C  -1.51800 12.54800 28.41400
O  -1.52800 11.34900 28.73400
C  -1.54700 13.76800 29.45900
C  -0.20900 13.82800 30.03900
O  0.72700 14.34500 29.44200
O  -0.14700 13.31900 31.34100
C  1.10600 13.34500 32.03500
H  -3.62100 20.39500 28.48800
H  -1.47800 19.86800 22.46800
H  -0.84400 13.74600 23.14600
H  -3.44000 15.98600 30.75300
H  -2.90400 18.86400 30.71200
H  -5.35600 18.13800 29.57400
H  -4.90600 19.15400 30.97700
H  -5.20200 17.48100 31.31200
H  -1.51200 17.79600 32.04400
H  -0.54000 16.73400 30.97200
H  -0.38200 15.72200 32.93400
H  -1.91000 14.90000 32.47800
H  -2.98600 22.70600 27.71400
H  -4.57400 22.08500 27.51300
H  -3.75200 23.30600 26.33800
H  -3.38300 24.07500 24.17100
H  -1.78500 24.62900 23.79200
H  -1.97300 23.79200 25.33200
H  -0.35700 17.95300 21.19300
H  -1.64900 15.47300 21.00000
H  -1.85800 18.86000 20.00700
H  -3.17400 18.13000 20.94000
H  -2.31500 17.21900 19.66400
H  0.79600 15.09800 22.32300
H  1.05000 16.17400 21.11800
H  0.84900 14.62200 19.58400
H  -0.43700 13.67900 20.31600
H  1.19200 13.56400 21.04500
H  -0.25300 11.16400 25.68900
H  -0.76600 11.51400 24.07000
H  -1.92100 10.88200 25.30100
H  -2.29700 13.59600 30.23100
H  1.32600 14.30500 32.50100
H  1.87600 13.22200 31.27400
H  1.18100 12.65200 32.87400
Mg 41.29000 40.92500 26.10000
C  40.59500 43.28800 28.67100
C  42.45900 38.83000 28.48600
C  42.11900 38.80300 23.66100
C  40.38800 43.36200 23.76400
N  41.36700 41.06100 28.32900
C  41.09000 42.09200 29.19300
C  41.22700 41.70600 30.66600
C  41.97200 40.29900 30.57600
C  41.97500 40.02800 29.03300
C  43.44900 40.28800 31.15100
C  39.85600 41.72700 31.44600
C  39.63100 42.86500 32.39800
H  39.59400 42.24900 33.77000
N  42.08400 39.11700 26.03900
C  42.48800 38.35300 27.13100
C  42.98400 37.03100 26.70000
C  43.13600 37.11000 25.27100
C  42.42900 38.37900 24.86300
C  43.54200 35.97900 27.67500
C  43.60700 36.12900 24.21300
O  43.69100 36.34900 23.02300
C  44.03500 34.85000 24.68400
N  41.27300 41.08500 24.02700
C  41.51600 39.98100 23.24300
C  41.19800 40.32600 21.69400
C  40.38300 41.62100 21.88500
C  40.73200 42.06800 23.31200
C  42.47100 40.51700 20.87100
C  38.82100 41.38300 21.66700
C  38.10200 40.56000 22.81800
N  40.60900 42.91900 26.19400
C  40.28800 43.70300 25.12800
C  39.95700 45.04500 25.64000
C  40.02900 44.84500 27.01200
C  40.45700 43.56700 27.33200
C  39.63200 46.25500 24.76200
C  39.81600 45.59200 28.29200
O  39.45700 46.72300 28.45800
C  40.20500 44.54800 29.40700
C  41.32900 45.18600 30.15000
O  42.44700 44.98000 29.84100
O  40.93400 45.89500 31.24200
C  42.03100 46.40300 32.09000
H  42.78200 38.10700 29.23900
H  42.09700 38.12200 22.80800
H  40.09800 44.10400 23.01800
H  41.92200 42.46900 31.01500
H  41.45600 39.52700 31.14600
H  43.72600 41.24000 31.60600
H  44.09200 40.02000 30.31200
H  43.54500 39.47700 31.87200
H  39.80200 40.77500 31.97300
H  38.99900 41.78700 30.77400
H  38.75800 43.46800 32.15000
H  40.40200 43.63500 32.40100
H  44.60100 36.23100 27.73000
H  43.44400 34.95600 27.31300
H  43.14500 36.17400 28.67100
H  44.69900 35.00100 25.53500
H  44.60100 34.32800 23.91300
H  43.10900 34.30000 24.84900
H  40.48600 39.62600 21.25800
H  40.67300 42.41700 21.19900
H  43.32700 40.16500 21.44700
H  42.55200 41.54800 20.52700
H  42.40400 39.85300 20.00900
H  38.60600 40.82300 20.75700
H  38.33400 42.35700 21.72300
H  38.26100 41.03600 23.78600
H  38.42100 39.52000 22.74900
H  37.02000 40.49400 22.70000
H  38.82500 46.83600 25.20700
H  39.27100 45.75500 23.86300
H  40.45800 46.90000 24.46400
H  39.40300 44.33500 30.11300
H  42.72200 46.90100 31.41000
H  42.57900 45.66600 32.67500
H  41.62600 47.19600 32.71900

