158

Mg 43.19900 41.55100 26.74500
C  42.36300 43.66800 29.46400
C  44.40000 39.29900 28.84700
C  44.21700 39.77800 24.05700
C  42.76800 44.30400 24.64500
N  43.32400 41.58800 28.90500
C  42.86900 42.43400 29.81000
C  42.98500 41.87000 31.19500
C  43.71100 40.49000 31.04100
C  43.81500 40.40200 29.47700
C  45.13900 40.28400 31.68200
C  41.52600 41.84500 31.95200
C  41.43400 42.64000 33.24000
H  40.90200 42.03900 34.61400
N  44.10000 39.76300 26.46400
C  44.40700 38.91300 27.49900
C  44.87400 37.63600 26.96000
C  44.79700 37.75600 25.58800
C  44.37300 39.11400 25.27900
C  45.45300 36.53700 27.83100
C  45.18300 36.74600 24.53900
O  45.32800 37.02500 23.34200
C  45.66200 35.28300 24.87700
N  43.80600 42.06800 24.60900
C  43.94900 41.09400 23.72000
C  43.89100 41.66300 22.23400
C  43.28200 43.06300 22.47600
C  43.30600 43.17300 23.99300
C  45.28800 41.83700 21.36200
C  41.92200 43.40200 21.81400
C  41.67300 44.89400 21.55800
N  42.55500 43.53100 26.90000
C  42.38200 44.52700 25.95200
C  41.71800 45.74400 26.53800
C  41.71500 45.41400 27.93100
C  42.28900 44.10300 28.10300
C  41.45400 47.07000 25.89200
C  41.51400 45.88200 29.26900
O  41.14800 46.98900 29.60100
C  41.91000 44.81500 30.26700
C  43.00000 45.42900 31.11100
O  44.16300 45.57600 30.74300
O  42.43400 45.77700 32.31300
C  43.43300 46.07200 33.32300
H  44.70600 38.58300 29.61300
H  44.24000 39.14300 23.17000
H  42.52900 45.15400 24.00300
H  43.67300 42.47000 31.79100
H  43.08500 39.68400 31.42200
H  45.89300 40.13300 30.90900
H  44.94800 39.33700 32.18600
H  45.46400 41.02000 32.41700
H  41.25400 40.79400 32.05200
H  40.78100 42.19200 31.23600
H  40.85800 43.52700 32.97600
H  42.43100 42.99400 33.50100
H  45.35400 36.66900 28.90800
H  46.52700 36.41500 27.68600
H  44.93300 35.61500 27.57100
H  46.13800 35.32700 25.85600
H  46.37400 34.93200 24.12900
H  44.82000 34.59400 24.93100
H  43.18900 41.05500 21.66300
H  43.94300 43.84500 22.10200
H  46.05900 41.42200 22.01200
H  45.52200 42.90100 21.32800
H  45.47300 41.30400 20.42900
H  41.18100 43.04500 22.53000
H  41.74400 42.81000 20.91600
H  41.31300 44.98500 20.53300
H  42.55800 45.49200 21.77600
H  40.84600 45.25400 22.17000
H  42.07100 47.13800 24.99700
H  41.59600 47.87900 26.60900
H  40.42500 47.01700 25.53600
H  41.02800 44.52800 30.83900
H  44.12900 45.24800 33.16600
H  43.00000 46.10900 34.32300
H  43.84800 47.07900 33.38400
Mg -2.01000 34.09400 27.37100
C  -3.70200 32.28500 29.72900
C  -0.69800 36.00700 29.94900
C  -0.76200 36.20700 25.14200
C  -3.81800 32.44300 24.77100
N  -2.32500 34.20500 29.60400
C  -3.00800 33.29600 30.29600
C  -2.89600 33.52500 31.81900
C  -2.07300 34.92400 31.87800
C  -1.60400 35.05500 30.42900
C  -2.83200 36.16100 32.33300
C  -2.24300 32.28700 32.50800
C  -2.82100 32.05000 33.85300
H  -1.91100 31.94000 35.05600
N  -0.82700 35.77700 27.50600
C  -0.26600 36.34900 28.63300
C  0.81000 37.28200 28.23200
C  0.66200 37.49700 26.83200
C  -0.31500 36.48000 26.42800
C  1.72900 37.98100 29.19900
C  1.45100 38.41600 25.90700
O  1.09900 38.58900 24.70400
C  2.70800 38.88200 26.43700
N  -2.36400 34.48400 25.24200
C  -1.60100 35.30700 24.50900
C  -1.81200 35.14600 23.01600
C  -2.78100 33.90600 22.92300
C  -3.03300 33.57800 24.39700
C  -2.13900 36.44000 22.18500
C  -2.22400 32.66000 22.18700
C  -3.11800 32.09700 21.03600
N  -3.45300 32.65200 27.21400
C  -4.07900 32.01500 26.12100
C  -4.96100 30.99800 26.62300
C  -4.84900 31.06200 28.06400
C  -3.99200 32.13300 28.34000
C  -5.69200 30.00900 25.73600
C  -5.29100 30.43400 29.28300
O  -6.08700 29.52900 29.44000
C  -4.73900 31.28200 30.40100
C  -5.98700 31.89000 30.99200
O  -6.90900 32.51200 30.40900
O  -5.97300 31.55200 32.31800
C  -7.26200 31.57400 33.10400
H  -0.28800 36.55600 30.79900
H  -0.22000 36.78600 24.39100
H  -4.28500 31.86600 23.97000
H  -3.91000 33.79300 32.11500
H  -1.22600 34.79700 32.55300
H  -3.72500 35.95800 32.92500
H  -3.27300 36.82000 31.58500
H  -2.17400 36.61400 33.07500
H  -1.21400 32.63300 32.60800
H  -2.28600 31.40700 31.86600
H  -3.47500 31.17900 33.83300
H  -3.47400 32.87700 34.13400
H  1.40900 37.77400 30.22000
H  1.57000 39.05100 29.07200
H  2.75300 37.61300 29.12100
H  2.45200 39.60500 27.21100
H  3.44700 39.20900 25.70600
H  3.25200 38.11500 26.98800
H  -0.90100 34.76600 22.55400
H  -3.70600 34.21600 22.43700
H  -3.21800 36.40900 22.03000
H  -1.62600 36.40300 21.22400
H  -1.83700 37.36600 22.67300
H  -1.96500 31.88900 22.91300
H  -1.24100 32.88700 21.77300
H  -2.65900 32.15700 20.04900
H  -4.13500 32.48900 21.00300
H  -3.15300 31.04300 21.31200
H  -5.26500 29.02400 25.92100
H  -5.56800 30.30000 24.69300
H  -6.74100 30.02200 26.03200
H  -4.28700 30.57600 31.09700
H  -8.09600 32.00500 32.55000
H  -7.13100 32.16300 34.01100
H  -7.59200 30.54700 33.26100

