158

Mg 35.88900 2.43900 30.48700
C  33.42200 3.33200 32.75400
C  38.27200 2.24700 33.08000
C  38.31200 1.79800 28.21200
C  33.61900 3.16100 27.90500
N  35.81900 2.87100 32.63200
C  34.67200 2.98900 33.40200
C  34.91200 2.99600 34.85700
C  36.55700 2.83200 34.88100
C  36.98900 2.62000 33.42400
C  37.32300 4.01500 35.55400
C  34.04900 1.95300 35.65500
C  33.97700 2.10000 37.21000
H  34.79300 3.16500 37.98600
N  37.97600 2.08700 30.63000
C  38.72100 1.89000 31.76800
C  40.05100 1.42000 31.40400
C  40.12600 1.45900 30.00300
C  38.79600 1.71700 29.52900
C  41.11600 1.01900 32.37400
C  41.42400 1.26500 29.12900
O  41.34700 1.48900 27.92200
C  42.71900 0.72900 29.70600
N  35.92200 2.54400 28.38100
C  37.08700 2.14500 27.73100
C  36.85400 2.37200 26.22600
C  35.31300 2.47300 26.13400
C  34.89000 2.69600 27.51100
C  37.75600 3.49800 25.60000
C  34.47500 1.35600 25.37500
C  34.03100 0.15700 26.18100
N  33.89000 3.04800 30.31300
C  33.13000 3.34100 29.21600
C  31.78200 3.67400 29.64500
C  31.84700 3.74100 31.05300
C  33.12000 3.24500 31.37700
C  30.60100 4.02300 28.78100
C  31.11700 3.99800 32.25800
O  29.99100 4.50200 32.42200
C  32.11500 3.65200 33.42700
C  32.23900 4.81200 34.35300
O  32.80200 5.87800 34.02200
O  31.62700 4.46800 35.54700
C  31.55000 5.45100 36.57200
H  38.88300 2.24400 33.98600
H  39.01600 1.61600 27.39800
H  32.90700 3.33600 27.09600
H  34.68900 4.01300 35.17700
H  36.88800 1.95700 35.44000
H  36.95100 4.01700 36.57900
H  36.94600 4.93100 35.10100
H  38.40700 4.02900 35.44200
H  34.49800 0.96800 35.52800
H  33.07300 1.95100 35.17100
H  34.29000 1.16300 37.67200
H  32.92200 2.11800 37.48300
H  41.93100 1.74200 32.41500
H  41.57600 0.04200 32.22700
H  40.83000 0.93100 33.42300
H  43.36000 0.52500 28.84900
H  42.53600 -0.17800 30.28300
H  43.28600 1.36400 30.38700
H  37.13100 1.43700 25.73800
H  35.01600 3.45100 25.75600
H  37.07000 4.13500 25.04200
H  38.49700 3.13000 24.89100
H  38.18800 4.27900 26.22600
H  35.16500 1.01200 24.60500
H  33.64200 1.86400 24.88900
H  34.41200 -0.70100 25.62800
H  32.94200 0.10000 26.20800
H  34.52300 0.09200 27.15100
H  29.73300 4.10200 29.43500
H  30.42300 3.39600 27.90700
H  30.81400 4.96400 28.27400
H  31.62700 2.85700 33.99200
H  31.85900 6.44300 36.24500
H  31.90000 5.12400 37.55200
H  30.50500 5.65100 36.81100
Mg -4.95000 25.41900 26.16100
C  -3.84100 26.86400 29.21200
C  -6.86700 23.21200 28.01200
C  -5.57900 23.90200 23.23600
C  -2.69400 27.60100 24.50500
N  -5.22300 25.02200 28.30600
C  -4.77200 25.78700 29.34200
C  -5.37500 25.34700 30.63600
C  -6.06200 24.02400 30.31100
C  -6.04200 24.05400 28.75300
C  -5.27400 22.81800 30.89800
C  -6.40200 26.40500 31.20500
C  -6.39700 26.53900 32.76800
H  -5.84500 25.43300 33.62400
N  -6.24000 23.88500 25.65100
C  -6.92200 23.09400 26.60000
C  -7.57100 21.99800 25.86700
C  -7.20600 22.16000 24.46600
C  -6.30500 23.34200 24.35400
C  -8.56400 21.02600 26.52900
C  -7.56900 21.27500 23.30700
O  -7.13400 21.40000 22.17500
C  -8.50600 20.24800 23.50700
N  -4.27700 25.69800 24.24600
C  -4.65800 24.86100 23.23400
C  -3.89900 25.22100 21.97200
C  -3.28000 26.61800 22.33000
C  -3.42600 26.63500 23.78500
C  -2.92500 24.24600 21.40900
C  -3.89200 27.91600 21.70300
C  -3.58800 28.19500 20.22100
N  -3.50500 26.87000 26.68000
C  -2.69700 27.73800 25.89900
C  -1.99700 28.55700 26.73600
C  -2.37500 28.32800 28.06900
C  -3.23600 27.26500 27.96000
C  -0.84300 29.49300 26.27200
C  -2.23600 28.70300 29.46500
O  -1.57100 29.61800 29.93900
C  -3.24900 27.77000 30.30900
C  -2.46000 27.03200 31.31500
O  -1.94900 25.93000 31.16900
O  -2.31500 27.81500 32.41800
C  -1.70600 27.27400 33.62900
H  -7.33900 22.40100 28.57000
H  -5.69000 23.36900 22.28900
H  -1.98600 28.15900 23.88900
H  -4.58800 25.27500 31.38700
H  -7.05400 24.18700 30.73300
H  -4.27500 23.13600 31.19500
H  -5.10300 22.08400 30.11000
H  -5.74800 22.41700 31.79400
H  -7.44900 26.20900 30.97800
H  -6.16400 27.33500 30.68800
H  -7.38100 26.73100 33.19700
H  -5.95700 27.51400 32.97700
H  -9.51100 21.08600 25.99300
H  -8.64600 21.11300 27.61300
H  -8.15300 20.04700 26.28500
H  -9.51200 20.61100 23.71700
H  -8.03800 19.54600 24.19700
H  -8.59400 19.66200 22.59200
H  -4.63200 25.35200 21.17600
H  -2.22600 26.56300 22.06000
H  -2.09700 24.74300 20.90500
H  -3.39000 23.55400 20.70700
H  -2.42200 23.69800 22.20600
H  -3.64900 28.80800 22.28100
H  -4.96000 27.86100 21.91300
H  -3.15700 29.19600 20.25300
H  -4.35800 28.23000 19.45000
H  -2.88600 27.44000 19.86700
H  -0.10500 29.78400 27.02000
H  -1.20400 30.28400 25.61400
H  -0.21600 28.86000 25.64300
H  -4.06500 28.34900 30.74200
H  -0.74400 27.77600 33.73300
H  -1.58100 26.19100 33.62200
H  -2.25200 27.54900 34.53200

