158

Mg 40.90900 9.01900 29.62600
C  42.74200 10.40100 32.22300
C  38.92100 7.47400 31.97000
C  39.44900 7.38800 27.02300
C  43.61600 9.88200 27.45000
N  40.92900 8.87800 31.94400
C  41.55800 9.68800 32.72800
C  41.04400 9.60000 34.22200
C  40.00000 8.44700 34.11400
C  39.93400 8.25500 32.54200
C  40.45400 7.06700 34.74300
C  40.54800 11.00500 34.64100
C  39.72000 11.10100 35.94300
H  40.13900 12.08200 37.12800
N  39.31100 7.72300 29.53900
C  38.58200 7.22700 30.61200
C  37.39500 6.67200 30.07900
C  37.53100 6.56200 28.67800
C  38.80200 7.20800 28.35200
C  36.27300 6.22200 30.96100
C  36.61100 5.92600 27.63500
O  36.86000 5.83400 26.46100
C  35.28200 5.23200 27.99300
N  41.49500 8.59700 27.45100
C  40.64400 7.98900 26.61200
C  41.32800 7.95700 25.18000
C  42.51300 8.96400 25.30000
C  42.58200 9.12100 26.81300
C  41.68300 6.57400 24.72900
C  42.18500 10.23500 24.47300
C  41.32200 11.36200 25.19200
N  42.73700 10.00100 29.71800
C  43.72100 10.25200 28.78000
C  44.75600 11.00000 29.38600
C  44.44700 11.06100 30.74600
C  43.17700 10.48600 30.87400
C  46.08500 11.35700 28.81900
C  44.91400 11.52300 32.04000
O  45.96700 11.97000 32.46100
C  43.75600 11.15400 33.08100
C  44.40200 10.35100 34.11600
O  44.86700 9.21300 33.97900
O  44.27400 11.05600 35.25700
C  44.37200 10.28100 36.47900
H  38.33200 7.06100 32.79200
H  38.91500 7.00700 26.15000
H  44.40000 10.27700 26.80100
H  41.81900 9.26800 34.91400
H  39.07400 8.74700 34.60500
H  41.47500 7.26600 35.07000
H  40.38600 6.27000 34.00200
H  39.73700 6.85100 35.53500
H  40.15700 11.53300 33.77100
H  41.48700 11.50700 34.87500
H  39.73600 10.15100 36.47700
H  38.68000 11.34300 35.72000
H  36.34600 5.15000 31.14400
H  35.37200 6.46000 30.39700
H  36.23600 6.74500 31.91700
H  34.98800 4.64300 27.12400
H  34.59800 5.93000 28.47500
H  35.59000 4.57300 28.80500
H  40.70900 8.30500 24.35300
H  43.50800 8.62000 25.01900
H  41.16700 5.71500 25.15800
H  42.77000 6.55900 24.81400
H  41.58600 6.53600 23.64400
H  41.78200 9.93800 23.50400
H  43.18800 10.61400 24.27700
H  41.78100 12.34800 25.27000
H  41.02000 11.05400 26.19300
H  40.42000 11.45500 24.58800
H  46.26000 12.42900 28.90800
H  46.25900 11.06400 27.78400
H  46.84300 10.81000 29.37900
H  43.33900 12.07600 33.48600
H  43.60700 10.77200 37.08100
H  45.39100 10.42600 36.83700
H  43.93900 9.29400 36.32000
Mg -5.54400 25.47000 26.28400
C  -4.00500 26.73200 29.14000
C  -7.44000 23.42900 28.45700
C  -6.66100 23.90000 23.65100
C  -3.55600 27.50400 24.32300
N  -5.62700 25.12200 28.49900
C  -4.97800 25.84500 29.43000
C  -5.61900 25.71400 30.79100
C  -6.45900 24.33900 30.66800
C  -6.58100 24.27200 29.09800
C  -5.77200 23.09400 31.35600
C  -6.45700 27.05900 31.28500
C  -6.15400 27.43700 32.72400
H  -5.88100 26.23600 33.61300
N  -7.06600 23.98100 26.06300
C  -7.64600 23.27700 27.09000
C  -8.52300 22.25500 26.47200
C  -8.24600 22.35600 25.02000
C  -7.24900 23.42500 24.87900
C  -9.41400 21.30400 27.26300
C  -8.70200 21.42600 23.88700
O  -8.32700 21.55200 22.69600
C  -9.69100 20.32200 24.23100
N  -5.35000 25.84300 24.25800
C  -5.86000 24.98800 23.27500
C  -5.55600 25.48500 21.84700
C  -4.48700 26.65500 22.12100
C  -4.46000 26.70500 23.71600
C  -4.99700 24.52200 20.83800
C  -4.92500 28.09200 21.55500
C  -5.68100 28.16500 20.23100
N  -3.90100 26.62700 26.60800
C  -3.30500 27.49000 25.68200
C  -2.36300 28.34300 26.45400
C  -2.60000 28.04700 27.72900
C  -3.51100 26.98300 27.85500
C  -1.52700 29.50600 25.88000
C  -2.30000 28.56600 29.05900
O  -1.52000 29.40500 29.42600
C  -3.15400 27.74300 30.05400
C  -2.24900 26.94100 30.93000
O  -1.81200 25.82100 30.75000
O  -1.96300 27.63700 32.06800
C  -1.42900 26.86300 33.20100
H  -7.96600 22.80500 29.18300
H  -6.99900 23.35800 22.76600
H  -3.08700 28.22900 23.65400
H  -4.79100 25.51600 31.47200
H  -7.47800 24.36200 31.05400
H  -5.14000 23.34600 32.20700
H  -5.24600 22.51300 30.59900
H  -6.55100 22.44200 31.75000
H  -7.53800 26.95300 31.19000
H  -6.24000 27.86800 30.58700
H  -7.02700 27.93700 33.14300
H  -5.35800 28.18200 32.71800
H  -9.36100 21.59700 28.31200
H  -9.04700 20.31500 26.98800
H  -10.43400 21.30700 26.87900
H  -9.80700 19.74000 23.31600
H  -10.59400 20.65600 24.74200
H  -9.12100 19.65500 24.87800
H  -6.49800 25.90200 21.49000
H  -3.42900 26.45800 21.94700
H  -3.97300 24.66100 20.49100
H  -5.76400 24.44700 20.06800
H  -5.06800 23.56100 21.34700
H  -3.91800 28.48800 21.42100
H  -5.44600 28.69600 22.29800
H  -6.41800 28.94000 20.01900
H  -6.05900 27.23100 19.81600
H  -4.83500 28.33200 19.56400
H  -2.04900 29.81800 24.97500
H  -0.54400 29.15800 25.56500
H  -1.51700 30.29200 26.63500
H  -3.78200 28.42100 30.63200
H  -0.35800 27.00900 33.34700
H  -1.50300 25.77600 33.17300
H  -1.99100 27.19500 34.07400

