158

Mg 3.22600 -0.91100 44.03200
C  5.61000 1.57900 43.72700
C  0.93100 1.07000 42.53500
C  1.09000 -3.56600 43.95600
C  5.92900 -3.24100 44.78600
N  3.27800 1.13400 43.08300
C  4.27600 2.00900 43.29000
C  3.90200 3.41700 42.90900
C  2.37300 3.22300 42.67700
C  2.15600 1.66700 42.74700
C  1.38900 3.97900 43.61600
C  4.74600 3.98300 41.71700
C  4.62700 3.24900 40.33600
H  5.78400 2.37900 39.80400
N  1.25100 -1.19400 43.42200
C  0.45500 -0.22700 42.86600
C  -0.86900 -0.80300 42.54900
C  -0.84700 -2.14900 43.01900
C  0.56000 -2.33300 43.55300
C  -1.96200 -0.08000 41.95500
C  -1.95700 -3.17000 42.87100
O  -2.99300 -2.83700 42.33200
C  -1.92000 -4.62900 43.45200
N  3.45500 -3.10800 44.28800
C  2.38600 -3.93100 44.37400
C  2.77300 -5.35300 44.69300
C  4.29300 -5.19900 45.03200
C  4.62500 -3.77500 44.60700
C  1.93900 -5.98200 45.77200
C  5.16600 -6.36000 44.40600
C  6.23800 -7.05500 45.28000
N  5.30500 -0.92200 44.35400
C  6.31800 -1.83900 44.61900
C  7.61000 -1.28800 44.67000
C  7.33000 0.10600 44.36500
C  5.98800 0.23700 44.10900
C  8.92500 -2.03700 44.79900
C  7.99000 1.41900 44.26900
O  9.13500 1.80600 44.46000
C  6.87900 2.36300 43.83000
C  6.72400 3.40700 44.89400
O  7.11000 4.56900 44.76800
O  6.19900 2.89300 46.06600
C  6.55800 3.59100 47.31200
H  0.15300 1.80700 42.32600
H  0.46300 -4.45900 43.94100
H  6.68500 -3.99600 45.01000
H  3.99800 4.18400 43.67700
H  2.19900 3.55400 41.65300
H  1.91900 4.39100 44.47500
H  0.67300 3.28300 44.05400
H  0.78600 4.68800 43.05000
H  5.77400 4.26000 41.95100
H  4.35100 4.99400 41.61600
H  4.54200 4.01600 39.56700
H  3.66400 2.74400 40.39900
H  -2.13400 -0.16500 40.88200
H  -1.74300 0.98600 41.90600
H  -2.84800 -0.12500 42.58800
H  -1.34900 -5.25000 42.76200
H  -2.95300 -4.96300 43.54200
H  -1.50200 -4.51600 44.45300
H  2.68700 -6.00400 43.82400
H  4.41700 -5.32500 46.10700
H  1.20900 -6.68300 45.36800
H  1.31200 -5.24500 46.27300
H  2.54900 -6.60000 46.43200
H  5.70300 -5.89600 43.57800
H  4.54600 -7.03900 43.81900
H  6.13100 -8.13300 45.40500
H  6.10100 -6.68900 46.29700
H  7.22500 -6.76100 44.92300
H  9.69900 -1.54100 44.21400
H  8.88600 -3.02400 44.33900
H  9.21800 -2.14900 45.84300
H  7.32300 2.79300 42.93200
H  5.65500 4.03000 47.73600
H  7.21500 4.45900 47.25600
H  6.92100 2.96400 48.12600
Mg 25.69300 52.13400 26.07700
C  23.71200 53.25100 28.87000
C  28.38200 51.84800 28.30500
C  27.86000 52.01000 23.47900
C  23.19500 53.37200 23.97800
N  25.99700 52.46400 28.27500
C  25.01400 52.75700 29.22000
C  25.46300 52.54100 30.72000
C  26.98100 52.14300 30.51000
C  27.14400 52.06800 28.94200
C  27.98500 53.12900 31.33200
C  24.59300 51.37500 31.47800
C  23.87400 51.74800 32.74500
H  24.64800 52.51600 33.78400
N  27.77500 51.71300 25.89300
C  28.67500 51.63000 26.95500
C  30.04500 51.36500 26.42300
C  29.86900 51.47100 24.96900
C  28.49900 51.81900 24.69400
C  31.23000 51.09100 27.28400
C  30.95100 51.45800 23.96100
O  30.69900 51.78000 22.80300
C  32.31100 51.08800 24.45900
N  25.58700 52.55800 24.05100
C  26.55500 52.30500 23.19600
C  26.13600 52.80300 21.79800
C  24.62800 53.02900 21.90500
C  24.38700 52.94200 23.41600
C  27.04900 53.98300 21.20100
C  23.67000 52.11100 21.12900
C  23.40500 52.44500 19.64700
N  23.81400 53.06300 26.28900
C  22.89000 53.45300 25.33900
C  21.69000 53.99900 25.94200
C  22.05800 53.98300 27.35000
C  23.28900 53.38700 27.49800
C  20.46100 54.48400 25.19400
C  21.56600 54.35700 28.69800
O  20.48000 54.83800 29.06600
C  22.52800 53.71300 29.74800
C  23.01200 54.82600 30.63100
O  24.01400 55.45300 30.53200
O  22.07400 55.01700 31.63000
C  22.46800 56.13900 32.52100
H  29.24300 51.64800 28.94800
H  28.42500 51.99600 22.54400
H  22.39800 53.64600 23.28400
H  25.42700 53.49100 31.25400
H  27.15200 51.21500 31.05500
H  28.69800 53.66500 30.70600
H  28.53100 52.57900 32.09900
H  27.41700 53.85600 31.91200
H  25.14100 50.48100 31.77400
H  23.78600 51.10000 30.79900
H  23.56000 50.88300 33.32900
H  23.00000 52.34300 32.47800
H  31.76100 50.19700 26.95600
H  30.93300 50.88700 28.31200
H  31.96900 51.89200 27.28100
H  32.92700 50.95100 23.57100
H  32.34200 50.07600 24.86400
H  32.72800 51.83500 25.13500
H  26.26600 51.91700 21.17800
H  24.50900 54.04600 21.53000
H  26.37100 54.83500 21.14200
H  27.38000 53.76100 20.18600
H  27.91100 54.14900 21.84700
H  22.71200 52.18200 21.64300
H  24.10500 51.11300 21.18200
H  24.18200 53.16000 19.37800
H  22.39800 52.86100 19.67500
H  23.49100 51.53900 19.04600
H  20.17000 53.75000 24.44300
H  20.58800 55.39600 24.61000
H  19.65700 54.69500 25.90000
H  21.94200 53.00500 30.33300
H  22.64700 56.94700 31.81100
H  23.39000 55.91600 33.05800
H  21.62900 56.30500 33.19700

