158

Mg 42.29600 41.45200 26.08800
C  41.65600 43.52400 28.81600
C  44.03400 39.35000 28.37200
C  43.07500 39.45600 23.58400
C  41.33800 43.90800 23.99800
N  42.91500 41.51700 28.35100
C  42.34200 42.36900 29.27200
C  42.71800 41.96400 30.77300
C  43.47200 40.60400 30.59200
C  43.49800 40.48900 28.99700
C  44.95900 40.66700 31.12300
C  41.46600 41.90700 31.76500
C  41.77600 42.42800 33.21100
H  40.82500 42.02500 34.43000
N  43.41000 39.64300 25.98100
C  44.03100 38.90900 27.02000
C  44.41800 37.57600 26.43100
C  44.02400 37.58900 25.08000
C  43.44000 38.94000 24.82100
C  45.02300 36.50500 27.29000
C  44.08300 36.47700 23.96900
O  43.79100 36.57000 22.84400
C  44.56900 35.14900 24.52200
N  42.24100 41.67400 24.06700
C  42.62500 40.72500 23.15600
C  42.19400 41.08600 21.73800
C  41.70400 42.50800 21.89200
C  41.81900 42.76900 23.37300
C  43.38500 40.97100 20.64700
C  40.35800 42.89300 21.19100
C  40.52400 44.18200 20.32700
N  41.68900 43.33700 26.30900
C  41.23500 44.21400 25.33900
C  40.68800 45.36700 25.97300
C  40.93200 45.18400 27.37900
C  41.40500 43.89300 27.50200
C  40.22500 46.60000 25.16200
C  40.73900 45.72500 28.60500
O  40.19900 46.78300 28.94400
C  41.18800 44.66800 29.67500
C  42.24700 45.24300 30.49800
O  43.44500 45.18500 30.35400
O  41.67000 45.78000 31.67300
C  42.65100 46.43000 32.62100
H  44.37200 38.72200 29.19900
H  43.23400 38.82400 22.70700
H  40.98900 44.67500 23.30300
H  43.45600 42.67200 31.14900
H  42.94200 39.74900 31.01200
H  44.83200 40.87300 32.18600
H  45.52500 41.43100 30.58900
H  45.31300 39.64300 31.01100
H  41.19500 40.86300 31.91700
H  40.61700 42.43400 31.32900
H  41.78900 43.48800 32.95600
H  42.81700 42.16300 33.39300
H  45.01700 36.86000 28.32100
H  46.06800 36.37300 27.01000
H  44.50900 35.54700 27.22200
H  44.59900 34.40900 23.72200
H  43.78000 34.94600 25.24600
H  45.57900 35.34600 24.88300
H  41.45900 40.29300 21.60700
H  42.51600 43.13600 21.52500
H  44.32600 40.50600 20.94300
H  43.61300 41.93900 20.19900
H  42.90900 40.34500 19.89200
H  39.55400 42.97200 21.92300
H  40.04500 42.08900 20.52500
H  39.76600 44.94400 20.50400
H  40.79700 43.97500 19.29200
H  41.41500 44.74700 20.60200
H  40.81700 46.70600 24.25300
H  40.28300 47.46100 25.82800
H  39.16900 46.48600 24.91500
H  40.33800 44.47300 30.32800
H  43.10600 47.21600 32.01800
H  43.45400 45.80800 33.01600
H  42.23800 46.92300 33.50100
Mg 30.10000 57.19100 41.39900
C  27.34300 55.35500 40.36400
C  32.08700 54.69500 40.37700
C  32.50700 59.43200 41.56500
C  27.88000 59.72700 42.66500
N  29.70300 55.39700 40.39000
C  28.51200 54.78200 40.04100
C  28.74800 53.44700 39.28700
C  30.14700 53.02000 39.82500
C  30.74100 54.46200 40.27300
C  30.14600 51.95300 40.91700
C  28.62300 53.52400 37.67000
C  27.63500 52.55400 36.94400
H  26.59700 53.12600 35.98100
N  32.02700 57.11100 40.95300
C  32.68100 55.92500 40.65400
C  34.11300 56.21000 40.63300
C  34.24400 57.59600 40.94600
C  32.92000 58.13800 41.18600
C  35.16800 55.18500 40.38100
C  35.55300 58.29400 41.00700
O  36.54700 57.68000 40.67600
C  35.69600 59.70700 41.39000
N  30.11700 59.40000 41.90600
C  31.24600 60.01200 41.84200
C  31.14400 61.54500 42.13200
C  29.73600 61.56600 42.87400
C  29.17800 60.12500 42.42600
C  32.33400 62.44000 42.68500
C  28.73300 62.72500 42.53700
C  28.10300 62.80900 41.05100
N  27.99700 57.44800 41.53000
C  27.26900 58.48100 42.17300
C  25.86500 58.03700 42.24700
C  25.82700 56.81000 41.44300
C  27.15900 56.51900 41.10600
C  24.63500 58.64000 42.87000
C  24.98300 55.75100 41.03100
O  23.79800 55.54600 41.14000
C  25.96000 54.76100 40.26600
C  25.87100 53.39300 40.90600
O  26.23700 53.10700 42.06200
O  25.27600 52.56100 39.98800
C  25.34800 51.14900 40.33400
H  32.77800 53.86300 40.22800
H  33.33600 60.14000 41.50200
H  27.17400 60.35800 43.20800
H  28.05600 52.73300 39.73400
H  30.70400 52.49200 39.05100
H  30.70700 52.40100 41.73700
H  30.59600 51.05200 40.50000
H  29.13000 51.73500 41.24600
H  29.62200 53.40100 37.25100
H  28.26900 54.47800 37.28000
H  27.07000 51.89900 37.60700
H  28.28300 51.96300 36.29700
H  35.89000 55.68000 39.73100
H  34.70800 54.39200 39.79100
H  35.68300 54.93500 41.30800
H  35.13000 59.98700 42.27900
H  35.23500 60.32900 40.62300
H  36.75600 59.88600 41.57200
H  30.95100 62.13000 41.23300
H  29.89500 61.51500 43.95100
H  32.74300 61.78300 43.45300
H  31.84700 63.27400 43.19000
H  32.93800 62.81800 41.86100
H  29.12100 63.68500 42.88000
H  27.87400 62.51500 43.17500
H  27.17400 62.24500 40.97500
H  28.81600 62.32700 40.38300
H  28.00200 63.84100 40.71400
H  24.08100 59.32200 42.22500
H  25.14200 59.29100 43.58200
H  23.99700 57.83300 43.22900
H  25.61900 54.78900 39.23100
H  26.37700 50.81700 40.20200
H  24.79500 50.62900 39.55200
H  24.84000 50.97600 41.28400

