158

Mg 53.16500 24.27700 44.83600
C  50.73400 26.55500 43.77800
C  51.08000 21.78300 43.40800
C  55.67900 22.13300 45.09600
C  55.04200 26.83400 46.11400
N  51.19500 24.24400 43.65100
C  50.47900 25.30900 43.29500
C  49.21900 24.91800 42.51000
C  49.19800 23.34300 42.81500
C  50.64900 23.11200 43.22400
C  48.29700 22.89500 44.03300
C  49.28500 25.27700 40.91000
C  50.71700 25.45900 40.29200
H  50.77500 26.07200 38.90900
N  53.40800 22.23900 44.35000
C  52.32100 21.34300 43.90200
C  52.81000 20.02800 44.03200
C  54.15600 20.09000 44.48000
C  54.52100 21.47000 44.60800
C  52.09300 18.82800 43.44800
C  54.98200 18.86700 44.77700
O  54.54300 17.75400 44.57200
C  56.42100 18.92100 45.35900
N  55.18700 24.50000 45.42900
C  56.04700 23.44600 45.46200
C  57.51400 23.92700 45.75900
C  57.14300 25.38100 46.33300
C  55.70100 25.66200 45.91900
C  58.29000 23.00900 46.73200
C  58.08400 26.53100 45.84200
C  57.85600 27.29800 44.51100
N  52.94100 26.29300 44.97800
C  53.72500 27.18300 45.66700
C  53.07700 28.51900 45.67100
C  51.85500 28.30600 44.97100
C  51.82700 26.95500 44.53100
C  53.60600 29.81800 46.31700
C  50.65200 28.92500 44.50800
O  50.25200 30.08200 44.67700
C  49.90600 27.81300 43.75800
C  49.64100 28.16600 42.32300
O  50.50700 28.32900 41.48800
O  48.28800 28.27700 42.15100
C  47.89500 28.93700 40.90500
H  50.37700 20.97700 43.18900
H  56.51500 21.43700 45.20000
H  55.62000 27.66600 46.52300
H  48.29600 25.39500 42.84200
H  49.06600 22.71000 41.93700
H  47.58900 23.68800 44.27500
H  48.94800 22.66600 44.87600
H  47.66800 22.04200 43.77600
H  48.69400 26.16600 40.69000
H  48.90600 24.53000 40.21300
H  51.19200 24.48100 40.36000
H  51.24200 26.13800 40.96400
H  52.70600 18.23700 42.76700
H  51.25600 19.10100 42.80500
H  51.70500 18.14700 44.20600
H  56.85700 17.92600 45.44500
H  56.27000 19.33800 46.35500
H  56.98600 19.61400 44.73600
H  57.99900 23.98100 44.78400
H  57.13600 25.32200 47.42100
H  59.01100 23.64300 47.24900
H  58.88900 22.24400 46.23900
H  57.58500 22.50900 47.39600
H  59.10500 26.15400 45.79300
H  58.06500 27.20000 46.70200
H  57.82300 28.36800 44.71800
H  56.96100 27.01900 43.95500
H  58.72700 27.14500 43.87300
H  53.24600 29.72900 47.34200
H  53.19000 30.68900 45.81100
H  54.68100 29.86200 46.14400
H  49.03300 27.57600 44.36700
H  48.16800 28.23200 40.12000
H  48.25900 29.96100 40.83000
H  46.80500 28.96200 40.89700
Mg 0.52100 43.04100 25.71100
C  2.40800 43.02400 28.61700
C  -2.28700 42.42200 27.69200
C  -1.16800 42.43900 22.90800
C  3.52800 42.89400 23.81800
N  0.07400 42.67200 27.94000
C  1.01200 42.90800 28.93400
C  0.35400 42.81800 30.33000
C  -1.19400 42.56500 29.98300
C  -1.18100 42.53900 28.47900
C  -2.05900 41.42400 30.58500
C  0.67400 44.10800 31.17500
C  1.46000 43.83600 32.52500
H  1.01200 42.63800 33.33300
N  -1.46900 42.57800 25.34700
C  -2.50300 42.42500 26.27000
C  -3.76000 42.30200 25.53100
C  -3.42800 42.19100 24.16100
C  -1.98100 42.41200 24.12300
C  -5.15300 42.18900 26.21900
C  -4.38800 42.14100 22.97800
O  -4.06100 41.90900 21.83300
C  -5.85900 42.44100 23.29700
N  1.11600 42.79400 23.68000
C  0.21400 42.60800 22.66800
C  0.82200 42.60100 21.24200
C  2.31500 42.95100 21.67400
C  2.34000 42.86500 23.15600
C  0.60700 41.27800 20.49100
C  2.86000 44.24100 21.13700
C  2.47800 45.64500 21.77800
N  2.53500 42.97700 26.04300
C  3.68600 42.99900 25.19500
C  4.88100 43.00900 26.00400
C  4.38600 43.02600 27.31700
C  3.00200 42.96600 27.26600
C  6.31500 43.02100 25.44600
C  4.89800 43.04300 28.64700
O  6.04600 43.11100 29.02400
C  3.61500 43.03700 29.50300
C  3.70300 41.79700 30.32800
O  3.14200 40.69100 30.12500
O  4.51300 42.05600 31.43900
C  4.61700 40.98900 32.38600
H  -3.21300 42.19300 28.22200
H  -1.65800 42.13200 21.98100
H  4.40900 42.91300 23.17300
H  0.76000 41.92500 30.80600
H  -1.76600 43.45100 30.25900
H  -2.93700 41.67100 31.18100
H  -1.42400 40.82900 31.24000
H  -2.40800 40.71200 29.83700
H  -0.22900 44.68500 31.37900
H  1.33700 44.77500 30.62400
H  1.21700 44.74700 33.07200
H  2.53100 43.92600 32.34600
H  -5.17600 42.17400 27.30900
H  -5.49000 41.25400 25.77300
H  -5.77100 42.97300 25.78100
H  -6.28500 41.62000 23.87400
H  -6.39200 42.59200 22.35900
H  -5.98600 43.38500 23.82600
H  0.35800 43.39000 20.65000
H  2.99600 42.13200 21.44400
H  0.21000 40.53600 21.18400
H  1.59100 40.90300 20.21100
H  -0.05200 41.40000 19.63100
H  2.46700 44.35800 20.12700
H  3.94000 44.14900 21.02300
H  2.14900 45.42800 22.79400
H  1.61500 46.01400 21.22400
H  3.38100 46.25500 21.79300
H  6.46000 42.78600 24.39200
H  6.78700 42.25500 26.06100
H  6.82400 43.95700 25.67800
H  3.69200 43.80200 30.27500
H  5.00500 40.13000 31.84000
H  3.67400 40.66200 32.82400
H  5.31700 41.33700 33.14600

