158

Mg 1.25500 8.12000 25.15100
C  1.79500 10.01800 28.03800
C  1.19700 5.29800 27.01200
C  1.07700 6.48300 22.25700
C  1.81800 11.23300 23.26900
N  1.83900 7.72500 27.27200
C  1.74000 8.65200 28.26300
C  1.72400 8.03100 29.67700
C  1.77600 6.50700 29.26900
C  1.53300 6.48100 27.72000
C  3.10100 5.73400 29.54700
C  0.44600 8.36100 30.51100
C  0.70300 8.34800 32.06900
H  1.97700 7.77000 32.61700
N  1.11300 6.14700 24.68100
C  1.09800 5.11400 25.60000
C  1.14800 3.86200 24.92800
C  0.93400 4.16000 23.49300
C  1.00700 5.62700 23.40000
C  1.19400 2.56500 25.72900
C  0.79600 3.24500 22.29000
O  0.99400 3.61700 21.12600
C  0.50100 1.75600 22.50100
N  1.48100 8.79900 23.04000
C  1.36600 7.87100 22.08500
C  1.23500 8.55500 20.73600
C  1.51100 10.09700 21.05200
C  1.68100 10.08800 22.54400
C  2.11100 7.91400 19.59300
C  0.39800 10.96200 20.50200
C  -0.97000 11.02300 21.22200
N  1.79400 10.22700 25.51900
C  1.80400 11.33600 24.68600
C  1.91000 12.51300 25.50700
C  1.92800 12.00400 26.84800
C  1.86200 10.64700 26.77500
C  1.91900 13.94200 25.11000
C  1.91900 12.44300 28.27900
O  1.85800 13.51500 28.83000
C  1.76300 11.13800 29.08900
C  2.98700 11.25200 29.91800
O  4.13100 11.09000 29.47400
O  2.59900 11.38100 31.22300
C  3.78000 11.72000 32.08600
H  1.11500 4.37600 27.59200
H  0.97200 5.88200 21.35100
H  1.69000 12.17200 22.72500
H  2.66800 8.39500 30.08300
H  1.08500 5.90500 29.85700
H  3.02700 4.98000 30.33000
H  3.87500 6.37700 29.96800
H  3.39700 5.13000 28.68900
H  -0.24800 7.55800 30.26300
H  -0.07500 9.26400 30.19200
H  -0.14100 7.75100 32.41600
H  0.55900 9.38400 32.37500
H  1.31400 1.59200 25.25300
H  0.19700 2.55600 26.16900
H  1.95400 2.54400 26.51000
H  1.22000 1.25600 23.14900
H  0.52200 1.17700 21.57800
H  -0.44200 1.45000 22.95200
H  0.20700 8.34800 20.43600
H  2.44100 10.40000 20.57100
H  2.96300 7.36600 19.99400
H  2.44000 8.73900 18.96000
H  1.50900 7.25400 18.96800
H  0.25600 10.49100 19.52900
H  0.78900 11.96500 20.33100
H  -1.72100 11.21800 20.45600
H  -0.90300 11.71300 22.06300
H  -1.24800 10.09100 21.71600
H  0.96500 14.31700 25.48000
H  2.00400 14.02700 24.02600
H  2.80400 14.45300 25.48800
H  0.84400 11.32400 29.64500
H  4.24500 10.80600 32.45500
H  3.57800 12.24800 33.01800
H  4.46800 12.34500 31.51700
Mg 26.63300 0.39900 30.06400
C  28.77600 -0.04200 32.81100
C  24.09100 0.85500 32.04500
C  24.59300 0.48200 27.23300
C  29.35800 -0.59400 28.10100
N  26.43500 0.37700 32.13300
C  27.42900 0.33600 33.07600
C  26.83000 0.73300 34.48300
C  25.26700 0.84600 34.27700
C  25.22000 0.59900 32.70800
C  24.36200 -0.03900 35.08100
C  27.52600 2.04300 35.08700
C  27.63300 1.85900 36.62500
H  27.25900 3.04300 37.52700
N  24.60200 0.76100 29.65200
C  23.72000 0.93200 30.64800
C  22.37100 1.10300 30.06300
C  22.51300 1.06200 28.62400
C  23.96800 0.76000 28.46100
C  21.12300 1.37100 30.87900
C  21.52700 1.39400 27.47400
O  21.84200 1.45200 26.29900
C  20.18300 1.85100 27.89400
N  26.92400 -0.03200 28.03700
C  25.96000 0.07000 27.03200
C  26.47600 -0.38200 25.67100
C  28.09000 -0.11500 25.88100
C  28.14600 -0.27600 27.42800
C  26.18900 -1.88500 25.39300
C  28.77800 1.13800 25.25900
C  30.30700 0.96000 24.89600
N  28.60600 -0.32100 30.30000
C  29.55000 -0.68700 29.44600
C  30.71000 -1.08300 30.13000
C  30.54100 -0.74800 31.46900
C  29.18200 -0.35100 31.51200
C  32.01900 -1.71000 29.51000
C  31.17100 -0.66500 32.75000
O  32.33100 -0.84700 33.11200
C  30.00300 -0.19600 33.73600
C  29.82300 -1.10300 34.95000
O  29.27200 -2.22500 34.89100
O  30.43400 -0.55000 36.05000
C  30.18400 -1.35000 37.24700
H  23.31100 1.06200 32.78100
H  23.91500 0.36600 26.38500
H  30.20700 -0.89600 27.48400
H  27.05100 -0.14200 35.09500
H  24.91800 1.87800 34.32000
H  23.68600 -0.72600 34.57200
H  23.76900 0.62600 35.70900
H  24.81400 -0.69200 35.82800
H  26.83400 2.87600 34.96200
H  28.48100 2.10000 34.56500
H  28.67800 1.71400 36.89800
H  27.02100 1.02300 36.96300
H  20.72200 2.34200 30.58900
H  21.45800 1.46500 31.91200
H  20.35500 0.64200 30.62100
H  19.79600 1.07600 28.55500
H  19.49400 1.93200 27.05300
H  20.27300 2.73300 28.52900
H  26.06800 0.19700 24.84300
H  28.71200 -0.97000 25.61600
H  25.54700 -2.06400 24.53000
H  25.65100 -2.15500 26.30100
H  27.13000 -2.42700 25.30300
H  28.55200 1.89100 26.01400
H  28.26200 1.49100 24.36600
H  30.60700 1.61300 24.07600
H  30.53600 -0.07800 24.65500
H  30.91900 1.37800 25.69500
H  32.03500 -1.71900 28.42100
H  32.04700 -2.73000 29.89300
H  32.91200 -1.22700 29.90800
H  30.26500 0.76900 34.17000
H  29.13700 -1.32200 37.55100
H  30.93700 -0.97200 37.93900
H  30.48200 -2.39400 37.15300

