158

Mg 46.22700 3.59500 47.59800
C  43.68000 5.83700 46.78100
C  43.82300 1.03700 47.55400
C  48.68200 1.13700 47.36200
C  48.56500 6.05800 46.84900
N  44.00600 3.45900 47.12200
C  43.14900 4.52800 46.84200
C  41.69800 3.97200 46.77000
C  41.79300 2.48400 47.23200
C  43.31700 2.30000 47.26600
C  41.11300 2.22200 48.61700
C  41.02000 4.16700 45.32500
C  39.66200 4.96600 45.27600
H  39.63600 6.04700 44.12900
N  46.26400 1.34800 47.40000
C  45.16300 0.59200 47.58900
C  45.59500 -0.80300 47.73800
C  47.08300 -0.80500 47.71300
C  47.44400 0.61100 47.55200
C  44.70300 -1.98900 47.92200
C  47.93700 -2.06800 47.77900
O  47.38600 -3.16400 47.75300
C  49.45900 -2.15400 47.77700
N  48.32800 3.57600 47.12300
C  49.14800 2.46600 47.24100
C  50.60900 2.84400 47.13600
C  50.51900 4.34600 46.62500
C  49.04100 4.71200 46.89400
C  51.36900 2.77000 48.49300
C  50.85800 4.42700 45.08700
C  52.34500 4.39700 44.74400
N  46.19100 5.62200 47.25700
C  47.22700 6.46700 46.92400
C  46.62700 7.77400 46.50900
C  45.20400 7.60900 46.54600
C  45.01600 6.27200 46.86800
C  47.38700 8.99200 45.94200
C  43.92000 8.26700 46.31000
O  43.62400 9.39800 45.92500
C  42.96800 7.15100 46.61500
C  42.03400 7.44200 47.76800
O  42.09700 6.88100 48.85300
O  41.13900 8.44100 47.43000
C  40.17100 8.97800 48.43900
H  43.09900 0.23100 47.68700
H  49.48200 0.43200 47.59800
H  49.26800 6.84700 46.57600
H  41.05800 4.48500 47.48900
H  41.31000 1.80200 46.53200
H  40.57000 3.04600 49.08000
H  41.83800 1.94300 49.38100
H  40.47500 1.34900 48.47800
H  40.95300 3.22600 44.78000
H  41.72400 4.75100 44.73200
H  39.56300 5.43500 46.25500
H  38.84400 4.29700 45.00800
H  43.65700 -1.68500 47.93000
H  44.99100 -2.37500 48.90000
H  44.88400 -2.66700 47.08800
H  49.89900 -3.14600 47.87600
H  49.74200 -1.60900 48.67800
H  49.89500 -1.62700 46.92800
H  51.14700 2.16600 46.47400
H  51.18100 4.98400 47.21000
H  51.79100 3.73700 48.76700
H  52.19200 2.05600 48.48100
H  50.67700 2.52500 49.29900
H  50.31100 5.22500 44.58500
H  50.54800 3.44400 44.73400
H  52.91400 4.54100 45.66200
H  52.60600 5.21900 44.07700
H  52.66300 3.46900 44.27000
H  48.29300 8.65000 45.44100
H  47.77300 9.42200 46.86600
H  46.73000 9.62900 45.35100
H  42.39800 7.18900 45.68700
H  40.63700 9.91900 48.73100
H  40.03500 8.39300 49.34900
H  39.17900 8.99000 47.98800
Mg -0.06900 43.36600 26.94300
C  2.03100 43.50400 29.78400
C  -2.73500 43.07600 29.06300
C  -1.91800 42.37700 24.33100
C  2.75800 43.58000 24.94100
N  -0.27400 43.41700 29.18000
C  0.72100 43.49400 30.15800
C  0.09200 43.47800 31.52900
C  -1.45600 43.25300 31.28200
C  -1.53000 43.30000 29.78300
C  -1.96900 42.01100 31.89800
C  0.39300 44.89000 32.20700
C  0.66200 44.92800 33.71100
H  0.08400 43.73200 34.46000
N  -2.08700 42.93900 26.67300
C  -3.01100 42.89700 27.72200
C  -4.28600 42.50600 27.18200
C  -4.05000 42.33900 25.75900
C  -2.63100 42.51300 25.51800
C  -5.49400 42.32900 28.06800
C  -5.05100 41.91900 24.62000
O  -4.82200 41.73100 23.41700
C  -6.47700 41.88500 25.06000
N  0.37900 43.08700 24.96600
C  -0.53600 42.62700 24.08600
C  0.06000 42.34500 22.67100
C  1.45500 43.18900 22.82600
C  1.54900 43.25400 24.34100
C  0.10900 40.76200 22.54700
C  1.46800 44.53200 22.05300
C  2.38400 44.63500 20.83000
N  1.96500 43.50400 27.24500
C  2.98500 43.65700 26.34600
C  4.24400 43.80000 27.01000
C  3.89400 43.79400 28.36100
C  2.49900 43.58000 28.48100
C  5.57800 44.02200 26.18800
C  4.37000 43.97200 29.66000
O  5.55200 44.15600 29.99400
C  3.23200 43.72400 30.64900
C  3.42700 42.50300 31.44800
O  2.95000 41.40400 31.23400
O  4.28200 42.77900 32.47800
C  4.62800 41.85500 33.53500
H  -3.52000 42.94500 29.81100
H  -2.56600 42.03000 23.52300
H  3.64700 43.62800 24.31000
H  0.48500 42.65700 32.12900
H  -2.07900 44.06200 31.66300
H  -2.79600 41.68500 31.26600
H  -2.43100 42.28100 32.84800
H  -1.26200 41.19800 32.06100
H  -0.47900 45.53100 32.08200
H  1.20600 45.38800 31.67900
H  0.27900 45.87600 34.09100
H  1.74700 44.90500 33.81600
H  -5.91200 43.33000 28.16900
H  -5.29300 41.90300 29.05100
H  -6.23700 41.72300 27.54800
H  -6.72600 41.00900 25.66000
H  -6.98100 41.87600 24.09300
H  -6.88100 42.74300 25.59700
H  -0.56200 42.70700 21.85200
H  2.26700 42.62000 22.37400
H  -0.80100 40.50400 22.00600
H  0.08300 40.39900 23.57500
H  1.02800 40.52800 22.01100
H  1.68800 45.38800 22.69100
H  0.45400 44.70100 21.69000
H  2.90800 45.59000 20.85400
H  1.73600 44.69000 19.95500
H  3.08800 43.81200 20.95000
H  5.50400 44.85800 25.49300
H  5.69200 43.10100 25.61700
H  6.46600 44.23100 26.78500
H  3.16200 44.59500 31.30200
H  5.20100 41.04800 33.07600
H  3.73300 41.56700 34.08600
H  5.29600 42.40200 34.19900

