158

Mg 26.16400 50.62100 27.03600
C  24.15900 51.74000 29.56200
C  28.35500 49.40500 29.42200
C  28.05400 49.30500 24.68100
C  24.08000 51.98900 24.64100
N  26.24000 50.66500 29.19100
C  25.32300 51.11800 30.04600
C  25.72700 50.99400 31.49600
C  27.19500 50.52900 31.37600
C  27.23800 50.22400 29.87300
C  28.17500 51.52800 31.93100
C  24.85600 50.02600 32.24200
C  24.45700 50.34200 33.63500
H  25.48900 50.83200 34.65300
N  27.91600 49.38100 27.06400
C  28.61600 49.02100 28.12400
C  29.78900 48.21300 27.68500
C  29.85700 48.24800 26.26700
C  28.58100 48.98600 25.94100
C  30.84500 47.63900 28.70500
C  30.89800 47.71700 25.29200
O  30.72200 47.85500 24.10400
C  32.07900 47.06000 25.76500
N  26.14200 50.77600 25.05100
C  26.96900 50.01700 24.31200
C  26.66500 50.10500 22.76500
C  25.20100 50.59400 22.79900
C  25.09200 51.14500 24.25900
C  27.68200 51.13200 22.00100
C  24.20900 49.58300 22.41700
C  22.91800 50.10300 21.66800
N  24.55100 51.86300 27.03600
C  23.74600 52.26500 26.01600
C  22.51400 52.76700 26.58500
C  22.63800 52.67100 27.96800
C  23.90100 52.06000 28.19200
C  21.36600 53.29800 25.81000
C  22.02200 52.87900 29.22800
O  20.90600 53.40400 29.53900
C  22.95000 52.24600 30.32600
C  23.37700 53.25900 31.29800
O  24.23900 54.08600 31.10100
O  22.62800 53.09600 32.46100
C  22.85400 54.13700 33.44800
H  29.07000 49.06000 30.17100
H  28.61700 48.90500 23.83500
H  23.38800 52.37600 23.89000
H  25.71300 51.95500 32.01000
H  27.39800 49.65000 31.98700
H  28.53700 51.28100 32.92900
H  27.87300 52.57500 31.90000
H  29.06900 51.53500 31.30700
H  25.38200 49.09100 32.43500
H  23.94600 49.86200 31.66500
H  24.11300 49.36500 33.97400
H  23.69000 51.10700 33.51800
H  30.69400 47.86300 29.76100
H  31.78700 48.01800 28.31100
H  30.90500 46.55400 28.61500
H  32.60900 46.49900 24.99500
H  31.88600 46.23400 26.45000
H  32.80300 47.77000 26.16500
H  26.76400 49.12800 22.29100
H  25.16200 51.48100 22.16600
H  28.24500 51.58200 22.81900
H  27.30300 51.98700 21.44200
H  28.20300 50.53100 21.25700
H  23.83200 49.22100 23.37400
H  24.61900 48.77100 21.81600
H  22.06800 49.90800 22.32200
H  22.78000 49.61900 20.70100
H  22.93300 51.19000 21.58000
H  20.38300 53.22200 26.27500
H  21.30700 52.95300 24.77800
H  21.53100 54.37200 25.73100
H  22.42300 51.45100 30.85400
H  21.92200 54.27700 33.99500
H  23.18000 55.11600 33.09800
H  23.59200 53.84200 34.19300
Mg -10.63600 16.21800 40.89500
C  -7.22700 16.45100 40.58300
C  -10.82600 19.56300 40.21200
C  -13.96600 15.81300 40.59600
C  -10.31500 12.66300 41.13400
N  -9.14200 17.79900 40.40100
C  -7.79600 17.67000 40.29200
C  -7.15200 19.08700 40.01600
C  -8.30800 20.04600 40.49200
C  -9.54300 19.09100 40.35000
C  -8.17100 20.66300 41.92600
C  -6.70300 19.16200 38.53300
C  -5.24500 18.85700 38.28700
H  -4.75200 17.74800 37.26100
N  -12.16700 17.48100 40.44300
C  -12.04500 18.78200 40.19700
C  -13.33800 19.38400 40.01300
C  -14.35700 18.30100 40.02600
C  -13.48200 17.11800 40.31300
C  -13.57700 20.85800 39.66200
C  -15.93000 18.43700 39.72000
O  -16.53900 19.49500 39.74800
C  -16.79600 17.20400 39.49700
N  -11.91900 14.50900 40.69100
C  -13.26600 14.66700 40.77300
C  -13.98300 13.34900 40.97300
C  -12.83900 12.29000 40.78800
C  -11.57800 13.18500 40.92800
C  -14.87800 13.30900 42.31300
C  -12.73300 11.33400 39.57000
C  -12.31700 11.81300 38.17200
N  -9.04800 14.72400 40.93700
C  -9.05100 13.36100 41.08000
C  -7.67600 12.90500 41.25000
C  -6.90200 14.08300 41.02000
C  -7.80600 15.12600 40.81400
C  -7.24700 11.54600 41.38100
C  -5.56100 14.67300 40.99400
O  -4.46600 14.15200 41.09700
C  -5.72300 16.24000 40.60100
C  -4.91100 17.06400 41.60300
O  -3.71300 17.13100 41.55100
O  -5.60600 17.68400 42.58700
C  -4.75200 18.54800 43.46000
H  -10.84300 20.63600 40.01100
H  -15.04900 15.69300 40.67400
H  -10.17200 11.59400 41.30100
H  -6.19900 19.30100 40.50200
H  -8.44800 20.96500 39.92200
H  -8.75100 20.26500 42.75900
H  -8.52900 21.68000 41.76900
H  -7.12100 20.77300 42.19600
H  -6.92300 20.19000 38.24500
H  -7.42800 18.65400 37.89700
H  -4.74100 18.56600 39.20900
H  -4.77500 19.81300 38.06000
H  -12.81600 21.13500 38.93300
H  -13.60500 21.47100 40.56200
H  -14.55100 20.89200 39.17300
H  -16.29900 16.45800 38.87600
H  -17.68900 17.51000 38.95200
H  -17.13300 16.92300 40.49500
H  -14.69000 13.29000 40.14500
H  -12.96700 11.77400 41.74000
H  -14.43400 13.93100 43.09000
H  -14.89700 12.28600 42.69000
H  -15.89200 13.63800 42.08400
H  -13.66500 10.86500 39.25300
H  -12.09600 10.47000 39.75900
H  -11.75700 12.74600 38.23800
H  -13.23000 11.84400 37.57700
H  -11.66800 11.11600 37.64100
H  -7.36200 10.96000 40.46900
H  -7.76000 10.99400 42.16900
H  -6.18200 11.54400 41.61400
H  -5.28200 16.29200 39.60600
H  -5.28600 18.90600 44.34000
H  -4.40900 19.36500 42.82500
H  -3.87600 18.03400 43.85700

