158

Mg 6.52700 52.76900 41.09800
C  5.80700 49.34300 40.78900
C  9.77500 51.94700 40.20200
C  7.15200 55.94000 40.54200
C  3.17200 53.38500 41.70700
N  7.60400 50.84700 40.57300
C  7.16100 49.57700 40.44000
C  8.17500 48.57500 40.02700
C  9.46400 49.42300 40.25200
C  8.89500 50.86600 40.23600
C  10.28500 49.13200 41.56900
C  8.02200 48.09100 38.52100
C  7.03000 48.88200 37.65900
H  6.44200 48.23200 36.41300
N  8.34900 53.83500 40.63400
C  9.50800 53.36900 40.32300
C  10.45400 54.40900 40.12300
C  9.74600 55.63700 40.20300
C  8.37400 55.17700 40.48400
C  12.01500 54.15900 39.98400
C  10.31700 57.00700 39.95900
O  11.52800 57.09800 39.69800
C  9.45900 58.16100 39.98300
N  5.27300 54.38600 41.03400
C  5.80500 55.61300 40.86700
C  4.72400 56.66600 40.99100
C  3.39100 55.83000 41.39100
C  3.98700 54.42900 41.38600
C  5.11700 57.84000 42.00200
C  2.09100 56.10200 40.60600
C  2.11100 55.71800 39.10700
N  4.67700 51.62700 41.12700
C  3.45800 52.03400 41.57200
C  2.70700 50.80600 41.82600
C  3.59100 49.71000 41.52100
C  4.77500 50.29200 41.10800
C  1.22300 50.82100 42.20600
C  3.72600 48.27700 41.55700
O  2.93600 47.40300 41.98700
C  5.16400 48.00400 41.11100
C  5.04700 47.14900 39.87100
O  4.39300 47.30900 38.87500
O  5.73300 45.99400 40.09300
C  5.81100 45.10100 38.97100
H  10.77000 51.61400 39.89600
H  7.23800 57.01400 40.36100
H  2.16600 53.68200 42.00900
H  8.16500 47.69500 40.66900
H  10.22400 49.43700 39.47100
H  11.33600 49.08000 41.28700
H  9.82500 48.25000 42.01400
H  10.07100 49.94400 42.26400
H  7.57200 47.10400 38.62600
H  8.93200 47.92200 37.94500
H  7.56400 49.74500 37.26000
H  6.25300 49.48100 38.13200
H  12.41500 54.24100 38.97300
H  12.23100 53.16100 40.36500
H  12.58700 54.90700 40.53300
H  10.00700 59.02600 39.60900
H  8.99600 58.42400 40.93500
H  8.61700 57.92200 39.33400
H  4.60500 57.12700 40.01000
H  3.12600 55.95400 42.44100
H  4.37100 57.99700 42.78100
H  5.12300 58.73300 41.37800
H  6.10900 57.73700 42.44200
H  1.81200 57.15500 40.56300
H  1.34200 55.48300 41.10000
H  1.16400 55.22300 38.89400
H  2.97600 55.19900 38.69300
H  2.16700 56.68500 38.60700
H  1.21200 50.51700 43.25300
H  0.59600 50.19500 41.57000
H  0.87000 51.84900 42.12600
H  5.81600 47.54700 41.85600
H  5.43900 45.40500 37.99300
H  5.40400 44.12300 39.22700
H  6.89900 45.07700 38.89900
Mg -1.40000 34.17900 26.53400
C  -3.13100 32.54600 29.02300
C  -0.05500 36.27800 28.70700
C  0.00100 35.78700 23.94900
C  -3.11500 32.12800 24.14400
N  -1.77100 34.46500 28.61000
C  -2.38200 33.62800 29.46100
C  -2.01000 34.06900 30.91100
C  -1.26400 35.35500 30.69600
C  -0.95700 35.37600 29.23700
C  -2.14100 36.60900 30.92300
C  -1.37500 32.82200 31.72900
C  -2.06400 32.24800 32.94400
H  -1.37300 32.30700 34.25700
N  0.01300 35.65600 26.36000
C  0.44300 36.38100 27.41500
C  1.31500 37.40900 26.95700
C  1.32200 37.36800 25.49200
C  0.40300 36.19200 25.19800
C  2.06100 38.44500 27.85800
C  2.05400 38.21900 24.40000
O  2.06800 37.86400 23.18800
C  2.84000 39.35800 24.85500
N  -1.59100 33.95600 24.28400
C  -0.73500 34.68200 23.52200
C  -0.83100 34.23400 22.07200
C  -1.96400 33.22100 22.01000
C  -2.22000 33.09200 23.58400
C  -0.99400 35.40300 21.00800
C  -1.73900 31.88000 21.23300
C  -0.81000 30.91500 21.95400
N  -2.87000 32.60000 26.51600
C  -3.46400 31.94700 25.50500
C  -4.35800 31.00800 26.06500
C  -4.18600 31.16800 27.43700
C  -3.32000 32.18500 27.68400
C  -5.27200 30.08700 25.26900
C  -4.66700 30.59700 28.72200
O  -5.49200 29.69400 28.88800
C  -3.91200 31.48500 29.78400
C  -5.03700 31.94000 30.60600
O  -5.61800 33.02500 30.50400
O  -5.21800 31.05300 31.60300
C  -6.23200 31.42400 32.61500
H  0.53700 36.86200 29.41500
H  0.29600 36.37300 23.07600
H  -3.73600 31.63900 23.39100
H  -2.99300 34.34100 31.29500
H  -0.39100 35.36200 31.34900
H  -2.01400 36.93700 31.95400
H  -3.21300 36.52200 30.74600
H  -2.00800 37.47900 30.28000
H  -0.36300 33.08100 32.04200
H  -1.24600 32.02300 30.99800
H  -2.04600 31.18300 32.71200
H  -3.07700 32.63200 33.06400
H  3.11900 38.24000 27.69900
H  1.83200 38.45500 28.92400
H  1.71300 39.43700 27.57100
H  2.23800 40.00300 25.49600
H  3.27700 39.92500 24.03300
H  3.63600 39.01000 25.51300
H  0.14400 33.84100 21.78100
H  -2.82300 33.69900 21.53900
H  -1.38700 36.33500 21.41500
H  -1.70400 35.12300 20.23000
H  -0.06100 35.65300 20.50200
H  -1.28900 32.12000 20.27000
H  -2.70000 31.39400 21.06200
H  -1.19200 29.89400 21.94300
H  -0.77800 31.25000 22.99100
H  0.16300 30.82500 21.47100
H  -4.67100 29.18200 25.35600
H  -5.28400 30.34400 24.21000
H  -6.25700 30.09600 25.73500
H  -3.39400 30.81300 30.46800
H  -5.94500 32.25400 33.26200
H  -6.42100 30.52900 33.20700
H  -7.16500 31.63300 32.09300

