158

Mg 24.15500 -5.47000 45.18300
C  26.42000 -3.04300 43.86700
C  21.67400 -3.98700 43.49900
C  22.50400 -8.28900 45.44300
C  26.91800 -6.84600 46.89600
N  24.18100 -3.68900 43.81700
C  25.11000 -2.87400 43.43900
C  24.57900 -1.80500 42.55000
C  23.11300 -1.82000 42.88900
C  22.92000 -3.23800 43.46000
C  22.50000 -0.76000 43.84900
C  24.80900 -2.05900 41.03500
C  25.30700 -0.86600 40.25200
H  25.07900 -1.01100 38.75500
N  22.30000 -6.08200 44.63000
C  21.40600 -5.27300 43.97500
C  20.19300 -5.99400 43.81900
C  20.42700 -7.28700 44.26000
C  21.78600 -7.29800 44.75900
C  18.91600 -5.37300 43.18400
C  19.34200 -8.45500 44.20900
O  18.24500 -8.33700 43.78400
C  19.75900 -9.87100 44.71700
N  24.63300 -7.28600 46.00400
C  23.71800 -8.28700 46.05600
C  24.36400 -9.50900 46.81500
C  25.54500 -8.86100 47.64000
C  25.71400 -7.60700 46.77000
C  23.29000 -10.17600 47.73700
C  26.68800 -9.72700 47.83800
C  27.22700 -9.76100 49.30300
N  26.17700 -4.95900 45.40600
C  27.20600 -5.66700 46.11000
C  28.35000 -4.95800 46.07100
C  28.18100 -3.92700 45.20900
C  26.79100 -3.96600 44.79300
C  29.55800 -5.34900 46.80300
C  28.77900 -2.78200 44.57700
O  29.90200 -2.28600 44.79200
C  27.74700 -2.30900 43.57500
C  27.52100 -0.77100 43.64900
O  26.98600 -0.17800 44.58300
O  28.11100 -0.05500 42.62000
C  28.03800 1.43500 42.64500
H  20.84800 -3.33700 43.20100
H  22.06400 -9.28200 45.56100
H  27.74700 -7.08500 47.56500
H  25.10600 -0.87000 42.74000
H  22.53100 -1.81900 41.96800
H  23.26100 -0.03300 44.13400
H  22.06500 -1.22900 44.73200
H  21.71900 -0.26600 43.27100
H  23.89700 -2.45200 40.58600
H  25.67900 -2.71300 40.96800
H  26.36900 -0.68800 40.41800
H  24.88200 0.07400 40.60600
H  18.00100 -5.79100 43.60200
H  18.99300 -5.52400 42.10700
H  18.86300 -4.29500 43.33400
H  18.91900 -10.53500 44.51400
H  19.86400 -9.88400 45.80200
H  20.62400 -10.28000 44.19500
H  24.64800 -10.34200 46.17200
H  25.09400 -8.40500 48.52100
H  23.02100 -11.18100 47.41000
H  22.30900 -9.70600 47.67700
H  23.70200 -10.35300 48.73000
H  27.57800 -9.46600 47.26500
H  26.44800 -10.78200 47.70300
H  26.85400 -8.85100 49.77200
H  28.29400 -9.97600 49.35800
H  26.76400 -10.57800 49.85800
H  29.43000 -5.08100 47.85200
H  30.46900 -4.85100 46.47000
H  29.71400 -6.42700 46.77100
H  28.10400 -2.64600 42.60200
H  27.01600 1.71200 42.38400
H  28.45600 1.94200 41.77600
H  28.37300 1.83400 43.60200
Mg -9.92800 39.35500 41.75300
C  -8.33400 36.47900 40.43100
C  -7.80400 41.21200 39.83700
C  -12.06200 41.88400 41.93300
C  -12.43200 37.20600 42.99800
N  -8.34100 38.90500 40.23800
C  -7.74900 37.67800 39.96700
C  -6.60500 37.79700 38.96600
C  -6.36000 39.31100 38.95700
C  -7.55100 39.88400 39.76200
C  -5.02000 39.72100 39.66700
C  -7.00600 37.19000 37.62600
C  -6.13000 36.14300 36.95400
H  -5.57800 36.45700 35.51700
N  -9.74200 41.33800 41.34000
C  -8.78400 41.95800 40.55000
C  -9.03200 43.39000 40.56500
C  -10.26300 43.60700 41.11400
C  -10.72500 42.21600 41.51200
C  -7.96500 44.36700 40.08400
C  -11.01400 44.99300 41.30300
O  -10.44900 46.10300 41.14300
C  -12.47600 45.01100 41.66700
N  -11.97900 39.48900 42.24700
C  -12.61900 40.70900 42.36200
C  -14.05900 40.66200 42.75000
C  -14.21500 39.07200 43.06100
C  -12.82700 38.56200 42.81400
C  -14.33300 41.52000 43.97300
C  -15.20500 38.42100 42.04000
C  -16.05300 37.27200 42.60900
N  -10.30600 37.24800 41.85700
C  -11.25100 36.55000 42.51300
C  -10.90200 35.15500 42.48500
C  -9.76000 35.10500 41.72200
C  -9.42100 36.42100 41.29100
C  -11.74100 33.99200 43.13300
C  -8.78400 34.21400 41.21400
O  -8.78100 33.02300 41.40400
C  -7.87500 34.99600 40.28100
C  -6.54700 34.64400 40.58300
O  -5.77300 34.01600 39.85000
O  -6.05400 35.15800 41.79800
C  -4.68400 34.73000 42.20900
H  -7.08700 41.80800 39.26800
H  -12.85300 42.63600 41.89100
H  -13.22000 36.53100 43.33900
H  -5.82900 37.16200 39.39300
H  -6.31200 39.72800 37.95100
H  -4.26100 39.91900 38.91000
H  -4.71800 39.01200 40.43800
H  -5.04000 40.67600 40.19100
H  -7.09400 37.99000 36.89200
H  -8.01200 36.77200 37.64700
H  -6.66200 35.19300 36.91900
H  -5.24700 35.97500 37.57000
H  -8.43100 45.01500 39.34100
H  -7.11000 43.75300 39.80200
H  -7.53500 44.92300 40.91700
H  -12.88700 46.01800 41.59800
H  -12.53500 44.61500 42.68000
H  -12.86700 44.37000 40.87600
H  -14.65700 41.01500 41.90900
H  -14.51900 38.88400 44.09100
H  -15.09600 42.25700 43.72300
H  -13.44300 42.00500 44.37400
H  -14.94700 41.01200 44.71600
H  -14.63700 38.09100 41.17000
H  -15.88700 39.16400 41.62700
H  -17.11500 37.51700 42.57000
H  -15.79600 37.12900 43.65900
H  -15.97900 36.38400 41.98200
H  -11.07300 33.19700 43.46500
H  -12.41500 33.58200 42.38000
H  -12.37400 34.33200 43.95300
H  -8.12700 34.67800 39.26900
H  -4.02200 34.64300 41.34800
H  -4.65200 33.93500 42.95500
H  -4.18200 35.53400 42.74700

