158

Mg 25.95700 0.66000 29.21100
C  27.73400 0.59600 32.15100
C  23.15000 0.81600 31.05200
C  24.21600 0.60700 26.38600
C  28.96300 -0.03300 27.42300
N  25.50300 0.58600 31.42900
C  26.39500 0.74400 32.46100
C  25.73400 0.91500 33.78900
C  24.17000 0.94200 33.37600
C  24.27900 0.83800 31.85200
C  23.25100 -0.15300 34.10800
C  26.23600 2.24800 34.42200
C  26.84000 2.08600 35.84300
H  26.26900 2.93500 36.95800
N  23.97300 0.78400 28.80500
C  22.93700 0.76000 29.71300
C  21.68000 0.83400 28.96700
C  21.96200 0.76100 27.57600
C  23.40000 0.74000 27.53700
C  20.39800 1.09300 29.71500
C  21.01200 0.84600 26.40600
O  21.37500 0.95900 25.23400
C  19.56600 0.76100 26.63000
N  26.46300 0.22800 27.14800
C  25.53800 0.38300 26.16500
C  26.24800 0.36900 24.85600
C  27.79000 0.36600 25.16700
C  27.74100 0.15500 26.64600
C  25.82200 -0.81000 23.91400
C  28.56800 1.68700 24.79800
C  28.69700 2.04600 23.23300
N  27.98500 0.28200 29.60700
C  29.04800 -0.02600 28.86100
C  30.14100 -0.35700 29.71100
C  29.77000 -0.05500 31.05700
C  28.41900 0.30100 30.91700
C  31.48200 -0.61100 29.26000
C  30.19300 0.09500 32.41600
O  31.30300 -0.03700 32.99900
C  28.86200 0.45900 33.25700
C  28.49900 -0.65100 34.05600
O  27.93200 -1.67800 33.69600
O  29.01900 -0.41700 35.32400
C  29.16400 -1.55500 36.26200
H  22.32600 0.95600 31.75500
H  23.73100 0.62000 25.40700
H  29.91900 -0.16700 26.91400
H  25.81000 0.02300 34.41100
H  23.68100 1.86100 33.70000
H  22.31600 0.24400 34.50200
H  23.77100 -0.53700 34.98600
H  22.98400 -1.03900 33.53200
H  25.40700 2.95400 34.37900
H  27.06400 2.67600 33.85800
H  27.89200 2.35800 35.76300
H  26.77200 1.09900 36.30200
H  19.64200 0.30800 29.67800
H  19.97700 2.01400 29.31300
H  20.49600 1.25700 30.78800
H  19.07500 0.50100 25.69200
H  19.16800 1.69000 27.03700
H  19.35000 -0.10200 27.26000
H  25.97600 1.29600 24.35100
H  28.30600 -0.51400 24.78300
H  26.66200 -1.43100 23.60000
H  25.43600 -0.41700 22.97400
H  24.93600 -1.27900 24.34200
H  29.57300 1.75500 25.21400
H  28.03100 2.48300 25.31400
H  28.01200 1.46600 22.61500
H  29.72900 1.89900 22.91200
H  28.32200 3.06500 23.13800
H  31.53600 -0.69300 28.17500
H  31.96900 -1.42000 29.80500
H  32.08600 0.27400 29.46000
H  28.95700 1.33400 33.89900
H  29.18300 -2.54800 35.81400
H  28.33000 -1.64100 36.95900
H  30.12000 -1.33400 36.73700
Mg -11.62600 16.25400 42.39800
C  -8.61400 14.51900 41.76900
C  -10.28700 19.05600 41.15000
C  -14.73000 17.46900 42.26800
C  -13.01500 13.06500 43.01600
N  -9.77800 16.68600 41.34600
C  -8.67500 15.87100 41.32500
C  -7.47700 16.60100 40.68000
C  -7.95100 18.08600 40.64300
C  -9.40700 17.93800 41.01500
C  -7.03500 18.83600 41.69500
C  -7.11700 16.08700 39.26100
C  -5.57200 16.10700 38.90200
H  -4.95400 17.29800 38.20200
N  -12.42800 18.10800 41.78400
C  -11.65400 19.15700 41.31500
C  -12.52200 20.29000 41.17400
C  -13.85400 19.85100 41.51100
C  -13.73700 18.43300 41.93700
C  -11.97400 21.59300 40.85500
C  -15.19100 20.63900 41.30900
O  -15.14700 21.74600 40.76400
C  -16.45600 20.10500 41.71200
N  -13.61500 15.33400 42.31900
C  -14.65700 16.11000 42.40600
C  -15.95500 15.31400 42.71200
C  -15.43500 13.79800 42.69700
C  -13.90000 14.06000 42.68300
C  -16.75200 15.70300 44.04300
C  -15.97500 12.86500 41.48200
C  -16.51300 11.59000 42.06500
N  -10.94000 14.20400 42.59100
C  -11.61400 13.10300 42.88300
C  -10.61500 11.97300 42.95900
C  -9.41500 12.54100 42.57900
C  -9.69500 13.86300 42.28300
C  -10.92400 10.59500 43.50700
C  -8.07700 12.30700 42.31200
O  -7.41900 11.24500 42.43100
C  -7.45400 13.61700 41.81500
C  -6.39500 14.07500 42.76200
O  -6.35400 13.96700 43.98600
O  -5.28400 14.55700 42.12000
C  -4.20500 15.00100 43.06700
H  -9.79400 19.96100 40.78800
H  -15.72700 17.82500 42.53400
H  -13.48800 12.12400 43.30400
H  -6.53500 16.49400 41.21800
H  -7.84000 18.52600 39.65200
H  -7.67600 19.59700 42.14200
H  -6.16700 19.30600 41.23400
H  -6.70600 18.08400 42.41200
H  -7.59700 16.72000 38.51400
H  -7.36700 15.05000 39.04100
H  -5.42700 15.22300 38.28200
H  -4.97300 15.95800 39.80000
H  -12.69700 22.37400 41.08900
H  -11.75000 21.68700 39.79300
H  -11.09900 21.79200 41.47400
H  -17.23800 20.85600 41.59200
H  -16.35400 19.83000 42.76200
H  -16.63900 19.27300 41.03100
H  -16.64300 15.45500 41.87900
H  -15.67700 13.30900 43.64100
H  -17.78800 15.77200 43.71200
H  -16.51300 16.68200 44.45800
H  -16.64900 14.91700 44.79100
H  -15.07000 12.78800 40.87800
H  -16.71700 13.53700 41.05100
H  -15.78600 10.84100 41.75100
H  -17.53600 11.30500 41.82300
H  -16.36900 11.47000 43.13900
H  -11.83100 10.28300 42.99000
H  -11.20500 10.71000 44.55400
H  -10.23300 9.75300 43.46600
H  -7.08600 13.34900 40.82500
H  -4.56400 16.00500 43.29300
H  -3.34800 15.21400 42.42800
H  -3.97300 14.44200 43.97400

