158

Mg 15.64400 51.10300 26.48500
C  17.91300 50.47500 29.14100
C  13.38200 52.09000 28.74200
C  13.55200 51.24200 23.96000
C  18.19400 50.04200 24.19900
N  15.77400 51.41000 28.67600
C  16.74700 51.01000 29.60000
C  16.35400 51.27100 31.02500
C  14.79100 51.57700 30.87500
C  14.59900 51.66300 29.34600
C  13.96700 50.34200 31.41100
C  17.15200 52.43900 31.62700
C  17.88000 52.13600 32.94700
H  17.00700 51.53900 34.00500
N  13.77500 51.65000 26.35400
C  12.99800 52.09400 27.38500
C  11.60700 52.27600 26.86000
C  11.64600 52.00300 25.48400
C  13.05400 51.61700 25.21800
C  10.51000 52.65500 27.82900
C  10.48900 52.15300 24.42500
O  10.61700 51.83400 23.22700
C  9.10200 52.43900 24.94400
N  15.88500 50.78200 24.30200
C  14.81900 50.84400 23.49200
C  15.14400 50.39400 22.05200
C  16.65800 50.00700 22.20300
C  16.98100 50.32300 23.66500
C  14.24800 49.33800 21.35000
C  17.58100 50.89000 21.26700
C  18.61800 50.10500 20.53300
N  17.49100 50.27600 26.58000
C  18.42900 49.96800 25.63100
C  19.68900 49.52600 26.20500
C  19.51700 49.64100 27.59500
C  18.17200 50.15100 27.78100
C  20.97300 49.01400 25.44100
C  20.12600 49.49300 28.87500
O  21.23900 49.19100 29.25000
C  19.06200 49.92000 29.94000
C  18.63500 48.73000 30.70400
O  17.98000 47.84500 30.22100
O  19.10900 48.83300 32.01200
C  18.58800 47.83200 32.94600
H  12.66000 52.31400 29.52900
H  12.88100 51.08300 23.11200
H  19.00500 49.69700 23.55500
H  16.47800 50.42800 31.70500
H  14.40800 52.49900 31.31300
H  13.57400 49.79400 30.55500
H  13.18400 50.73100 32.06100
H  14.59000 49.63200 31.95600
H  16.43300 53.23200 31.83300
H  17.86200 53.01400 31.03200
H  18.43500 52.98600 33.34300
H  18.58600 51.35400 32.66400
H  10.14200 51.76600 28.34200
H  9.70700 53.25900 27.40700
H  10.94200 53.22300 28.65400
H  8.96100 53.50500 25.12100
H  8.76900 51.87100 25.81300
H  8.37000 52.13400 24.19600
H  15.01100 51.24900 21.39000
H  16.72000 48.94100 21.98300
H  13.85600 48.63000 22.08000
H  14.80800 48.85300 20.55100
H  13.38500 49.86600 20.94600
H  17.98700 51.73000 21.83000
H  16.98100 51.42500 20.53100
H  18.60000 50.49500 19.51500
H  18.42700 49.03500 20.62400
H  19.52900 50.34800 21.07900
H  21.13900 49.81400 24.72000
H  20.78000 48.08400 24.90600
H  21.78800 48.85200 26.14600
H  19.33500 50.68700 30.66500
H  17.50200 47.90300 32.89000
H  18.92000 47.83200 33.98400
H  18.75000 46.80200 32.62800
Mg -4.74300 25.07700 25.67200
C  -3.57900 26.95100 28.40500
C  -5.90400 22.81800 28.12300
C  -5.88500 23.36300 23.21200
C  -3.19500 27.39000 23.59400
N  -4.79800 24.95600 28.02900
C  -4.35200 25.89800 28.85900
C  -4.87600 25.67100 30.32700
C  -5.35700 24.17100 30.24900
C  -5.27000 23.90600 28.74600
C  -4.57900 23.10100 31.08300
C  -5.85500 26.74900 30.71600
C  -5.76700 27.32800 32.18300
H  -5.31700 26.31500 33.22200
N  -5.81900 23.36200 25.61500
C  -6.12600 22.54200 26.73900
C  -6.98900 21.38700 26.15700
C  -7.10100 21.64600 24.77900
C  -6.14300 22.76100 24.45300
C  -7.67400 20.34300 26.98200
C  -7.92900 20.89300 23.68900
O  -7.98100 21.13000 22.50800
C  -8.78100 19.71100 24.11700
N  -4.57000 25.36700 23.73200
C  -5.19900 24.53000 22.85600
C  -4.93400 24.91900 21.37900
C  -4.26900 26.37200 21.53400
C  -3.93700 26.36100 23.07600
C  -4.14400 23.82700 20.58200
C  -5.07600 27.62300 21.20500
C  -5.79900 27.55100 19.83300
N  -3.47900 26.79800 25.86900
C  -2.91600 27.57600 24.96900
C  -2.16300 28.63500 25.64000
C  -2.35500 28.35100 26.99200
C  -3.16900 27.24600 27.07000
C  -1.47600 29.75800 24.93600
C  -2.15400 28.96000 28.26100
O  -1.56000 29.98400 28.54900
C  -2.88900 28.03800 29.29900
C  -1.88800 27.48100 30.25700
O  -1.09700 26.60600 29.93000
O  -2.10500 28.00400 31.50400
C  -1.36900 27.35900 32.52200
H  -6.35500 22.07900 28.78700
H  -6.24500 22.86900 22.30700
H  -2.72500 28.13300 22.94700
H  -4.00600 25.79500 30.97100
H  -6.41100 24.11200 30.52000
H  -5.24000 22.43400 31.63500
H  -3.80700 23.47200 31.75700
H  -4.07900 22.38800 30.42700
H  -6.81600 26.24200 30.62800
H  -5.88700 27.54500 29.97200
H  -6.78900 27.59900 32.45000
H  -5.20300 28.26000 32.20600
H  -7.67700 19.36800 26.49400
H  -8.75400 20.47900 27.03700
H  -7.25400 20.18200 27.97400
H  -8.13800 18.86900 24.37400
H  -9.42500 19.46300 23.27300
H  -9.42300 20.02600 24.94000
H  -5.90200 25.19000 20.95700
H  -3.34100 26.58000 21.00100
H  -3.89700 22.95500 21.18800
H  -3.32100 24.09800 19.92100
H  -4.86100 23.29400 19.95700
H  -4.32500 28.40000 21.34300
H  -5.75400 27.79700 22.04100
H  -5.48500 26.70200 19.22500
H  -5.59800 28.45000 19.25100
H  -6.87200 27.40500 19.95900
H  -1.40200 29.56900 23.86500
H  -0.52900 29.79200 25.47300
H  -2.07800 30.66600 24.95000
H  -3.70200 28.50700 29.85300
H  -0.30600 27.58400 32.43000
H  -1.36600 26.27100 32.44900
H  -1.78600 27.77500 33.43900

