158

Mg 26.80800 50.11900 26.42700
C  24.69500 51.23000 29.12200
C  29.11700 49.28200 28.86000
C  28.88100 49.25000 24.03600
C  24.44100 51.49200 24.22700
N  26.94400 50.49600 28.72900
C  25.94800 50.76200 29.64700
C  26.39500 50.48700 31.08500
C  27.88500 50.09700 30.98800
C  28.03000 49.95100 29.42800
C  28.97700 51.01700 31.64500
C  25.55900 49.34700 31.91600
C  24.55300 49.97500 32.95800
H  24.25100 49.37600 34.35000
N  28.79300 49.48700 26.46500
C  29.53100 49.06300 27.58200
C  30.88100 48.64900 27.11500
C  30.80100 48.56100 25.65400
C  29.49400 49.16100 25.32300
C  31.90700 48.24700 28.06700
C  31.69500 47.95300 24.61900
O  31.51900 48.00800 23.37800
C  32.97800 47.23700 24.98900
N  26.80300 50.58500 24.40100
C  27.63500 49.88500 23.61400
C  27.07200 49.73000 22.16300
C  25.65500 50.41400 22.23000
C  25.63700 50.89200 23.71900
C  27.94300 50.40600 21.10500
C  24.47600 49.42100 21.89200
C  23.15400 49.85100 21.25100
N  24.92900 51.09200 26.63300
C  24.12800 51.63200 25.61300
C  22.96300 52.21100 26.18600
C  23.06900 52.06000 27.62600
C  24.36000 51.41300 27.81000
C  21.74700 52.82700 25.52400
C  22.49700 52.46700 28.84700
O  21.55300 53.16800 29.12100
C  23.41900 51.75300 29.82800
C  23.74300 52.71200 30.98100
O  24.74300 53.46000 30.99600
O  22.65600 52.72500 31.87800
C  22.95500 53.63300 32.96200
H  29.73700 48.82400 29.63400
H  29.20100 48.57600 23.23900
H  23.60200 51.85000 23.62800
H  26.29600 51.43000 31.62300
H  28.08400 49.11800 31.42300
H  29.62100 50.51100 32.36400
H  28.35400 51.67400 32.25200
H  29.54100 51.57300 30.89600
H  26.14300 48.63200 32.49500
H  24.99600 48.70800 31.23600
H  23.65800 50.03200 32.33800
H  24.79700 51.03500 33.02600
H  32.81600 48.78900 27.80500
H  32.22000 47.21500 27.90900
H  31.73800 48.55800 29.09800
H  33.55600 46.97900 24.10200
H  32.56900 46.30800 25.38700
H  33.55300 47.81500 25.71200
H  26.96100 48.68800 21.86000
H  25.57300 51.24400 21.52800
H  28.94700 50.74600 21.35800
H  27.39200 51.14400 20.52200
H  28.14700 49.61600 20.38200
H  24.05800 48.86100 22.72900
H  24.83000 48.59500 21.27500
H  22.95900 49.34500 20.30500
H  23.09700 50.92200 21.05800
H  22.27300 49.65600 21.86300
H  20.99500 52.04900 25.39100
H  21.96400 53.03500 24.47600
H  21.39200 53.74900 25.98400
H  22.97900 50.82600 30.19700
H  23.14200 54.65100 32.61900
H  23.74400 53.37400 33.66900
H  22.03600 53.60100 33.54700
Mg -6.30400 25.22700 25.71300
C  -4.77000 26.46600 28.62000
C  -7.87000 22.78600 27.74100
C  -7.16800 23.50800 22.96400
C  -4.11300 27.19200 23.80600
N  -6.41800 24.81000 27.93600
C  -5.68700 25.48600 28.92000
C  -5.96600 24.91100 30.33300
C  -6.71300 23.50400 29.97200
C  -7.09900 23.74100 28.45200
C  -5.76800 22.31900 30.30300
C  -6.72200 25.94400 31.19200
C  -6.47200 26.12900 32.67900
H  -5.71700 24.99000 33.37500
N  -7.68800 23.55600 25.37900
C  -8.20600 22.69000 26.35500
C  -9.02900 21.72500 25.72000
C  -8.78600 21.91800 24.28600
C  -7.85700 23.02600 24.13900
C  -9.85600 20.69700 26.41400
C  -9.36100 21.05400 23.11400
O  -8.93300 21.28000 21.98300
C  -10.39600 19.96300 23.34000
N  -5.79800 25.47400 23.65100
C  -6.20200 24.48800 22.75100
C  -5.63200 24.70700 21.38200
C  -4.70600 25.96600 21.65200
C  -4.98600 26.34600 23.10700
C  -4.97000 23.46200 20.79900
C  -4.90800 27.17000 20.68500
C  -3.57900 27.88300 20.15800
N  -4.66200 26.57900 26.10500
C  -3.89700 27.29300 25.19100
C  -2.98600 28.17000 25.99800
C  -3.31900 27.88000 27.35400
C  -4.32600 26.92800 27.36300
C  -1.92000 28.99200 25.41400
C  -3.00000 28.11500 28.77900
O  -2.12800 28.76500 29.28000
C  -3.89700 27.23800 29.60200
C  -2.95600 26.41000 30.44200
O  -2.38400 25.41300 29.98100
O  -2.78400 26.95800 31.61300
C  -2.05000 26.15700 32.63300
H  -8.24800 21.93400 28.31000
H  -7.44300 22.97100 22.05400
H  -3.54600 27.89200 23.18800
H  -5.06400 24.64200 30.88200
H  -7.58200 23.34900 30.61100
H  -5.54400 21.79600 29.37400
H  -6.34600 21.56400 30.83600
H  -4.86000 22.63400 30.81600
H  -7.76400 25.66500 31.04000
H  -6.71900 26.91200 30.69100
H  -7.45200 26.21400 33.14900
H  -5.80600 26.97500 32.84600
H  -9.27600 19.79700 26.61700
H  -10.74800 20.45800 25.83600
H  -10.26000 21.22100 27.28000
H  -10.74400 19.58900 22.37700
H  -11.17400 20.45200 23.92600
H  -9.86300 19.16800 23.86100
H  -6.37400 25.02800 20.65200
H  -3.66700 25.69800 21.46200
H  -3.90400 23.66100 20.69200
H  -5.41900 23.10800 19.87100
H  -5.12500 22.68200 21.54500
H  -5.53400 27.93200 21.15000
H  -5.42500 26.84200 19.78300
H  -3.62100 28.90300 20.54000
H  -3.58200 27.75400 19.07600
H  -2.71600 27.33200 20.53100
H  -2.25700 30.02700 25.34700
H  -1.72500 28.70600 24.38000
H  -0.98500 28.98300 25.97400
H  -4.50900 27.86900 30.24700
H  -0.98900 26.39500 32.70200
H  -2.17200 25.07800 32.54600
H  -2.42500 26.43400 33.61900

