158

Mg 8.01500 2.49100 27.25600
C  9.50800 1.19000 30.16700
C  6.11200 4.58100 29.31100
C  6.02300 3.53400 24.70100
C  9.40900 0.15100 25.34000
N  7.93800 2.91300 29.48600
C  8.62400 2.23700 30.48400
C  8.38200 2.90600 31.91000
C  7.13800 3.88700 31.60400
C  7.03700 3.75500 30.01600
C  5.79000 3.56100 32.26900
C  9.65200 3.57600 32.62000
C  9.43700 3.99700 33.99400
H  10.22900 3.52100 35.16000
N  6.40300 3.87000 27.00500
C  5.82400 4.69700 27.95900
C  4.85800 5.65000 27.32300
C  4.91800 5.35500 25.94100
C  5.84700 4.21800 25.81700
C  4.13200 6.67500 28.14100
C  4.09300 5.99900 24.85700
O  4.27700 5.62700 23.66000
C  3.04800 7.13000 25.15600
N  7.77800 2.00200 25.20300
C  6.88100 2.50800 24.36300
C  7.03900 1.79400 22.92200
C  8.22100 0.81200 23.16900
C  8.52200 0.97500 24.60200
C  5.80400 0.89800 22.58500
C  9.44500 1.02500 22.32100
C  10.07000 -0.20300 21.59300
N  9.25400 1.08700 27.58400
C  9.78900 0.21900 26.73500
C  10.81000 -0.58800 27.44300
C  10.65800 -0.34000 28.83600
C  9.78500 0.73800 28.84100
C  11.62500 -1.71400 26.82800
C  10.93700 -0.78300 30.17900
O  11.74000 -1.65400 30.63900
C  10.37800 0.33800 31.12900
C  9.69300 -0.27600 32.26500
O  8.73000 -1.08100 32.21000
O  10.53400 -0.09700 33.41000
C  10.07200 -0.69800 34.70100
H  5.51300 5.28500 29.89200
H  5.41100 3.75400 23.82300
H  9.94000 -0.52900 24.67000
H  8.21300 2.01400 32.51300
H  7.46500 4.86800 31.95000
H  5.02000 3.51500 31.49800
H  5.70000 4.45900 32.88000
H  5.75800 2.62200 32.82200
H  10.08600 4.33900 31.97400
H  10.49600 2.88600 32.62900
H  8.38100 3.97300 34.26300
H  9.58200 5.07600 33.94500
H  3.05600 6.57400 28.00200
H  4.58900 7.65200 27.98400
H  4.17300 6.53900 29.22100
H  2.08700 6.66500 25.37900
H  2.89700 7.82300 24.32900
H  3.35800 7.73400 26.00900
H  7.24700 2.57600 22.19100
H  7.93100 -0.23700 23.21500
H  5.01900 1.01100 23.33200
H  6.02800 -0.12800 22.29300
H  5.43400 1.13400 21.58700
H  10.19800 1.43000 22.99700
H  9.26900 1.73600 21.51400
H  10.17800 0.05700 20.54000
H  9.42500 -1.07700 21.49900
H  10.96200 -0.56100 22.10700
H  12.16000 -1.44400 25.91800
H  10.94000 -2.51100 26.53800
H  12.26000 -2.18700 27.57700
H  11.21500 0.89700 31.54900
H  9.38900 -1.53200 34.53700
H  9.58300 0.02200 35.35700
H  10.86700 -1.03000 35.36900
Mg 43.79400 3.91000 47.14100
C  41.75300 6.85000 46.96900
C  40.74100 2.01000 47.08200
C  45.39600 1.04600 46.50700
C  46.55400 5.79200 46.71500
N  41.49600 4.39500 47.13600
C  40.95700 5.64900 47.08300
C  39.38100 5.56200 47.23900
C  39.17800 4.03500 47.29300
C  40.55800 3.42200 47.10500
C  38.44400 3.43900 48.56100
C  38.57200 6.27700 46.13100
C  38.67100 5.74600 44.76800
H  38.65000 6.73000 43.61000
N  43.22700 1.79800 46.93500
C  41.94900 1.24300 46.90300
C  42.01200 -0.18000 46.69200
C  43.41700 -0.51500 46.52800
C  44.08900 0.78200 46.56200
C  40.84300 -1.05400 46.39800
C  43.96700 -1.92900 46.24400
O  43.28000 -2.94600 46.19600
C  45.50000 -2.22000 45.91800
N  45.68000 3.52900 46.37900
C  46.13900 2.18600 46.52400
C  47.66400 2.22500 46.55200
C  48.04900 3.75800 46.73200
C  46.71600 4.42700 46.65800
C  48.25600 1.30400 47.63200
C  49.08300 4.31600 45.67100
C  50.49800 4.31500 46.25400
N  44.17300 5.92400 46.69300
C  45.38600 6.58900 46.68100
C  45.18500 7.99200 46.70300
C  43.79500 8.15800 46.89200
C  43.19500 6.87100 46.84500
C  46.25400 8.94000 46.56300
C  42.75700 9.11100 47.00700
O  42.75200 10.34500 47.07400
C  41.47200 8.27400 47.07400
C  40.71600 8.65800 48.33700
O  40.85800 8.10800 49.42300
O  39.88000 9.64800 48.04200
C  39.17300 10.24300 49.13900
H  39.81400 1.44400 47.19000
H  45.97800 0.12800 46.40100
H  47.53000 6.28100 46.68800
H  39.17600 5.99700 48.21700
H  38.58200 3.70200 46.44300
H  38.14000 4.35500 49.06600
H  39.12400 2.79300 49.11600
H  37.54700 2.88200 48.28800
H  38.90700 7.30600 46.00800
H  37.52100 6.23700 46.41900
H  37.70700 5.28300 44.56000
H  39.43500 4.97700 44.65800
H  41.07000 -1.63800 45.50600
H  39.98400 -0.42500 46.16600
H  40.42300 -1.59000 47.24900
H  45.62800 -1.64100 45.00300
H  45.56400 -3.23200 45.51900
H  46.16900 -2.10100 46.77000
H  47.89500 1.79800 45.57600
H  48.45300 3.93800 47.72800
H  49.24900 1.66800 47.89500
H  48.35900 0.26400 47.32100
H  47.67100 1.23500 48.54900
H  48.89400 5.33500 45.33600
H  49.07500 3.65300 44.80500
H  50.44100 4.15000 47.33000
H  50.90600 5.29200 45.99600
H  51.07700 3.46300 45.89700
H  47.15000 8.44300 46.19200
H  46.36600 9.39800 47.54600
H  45.94800 9.65500 45.80000
H  40.83500 8.42700 46.20200
H  39.81000 10.30900 50.02200
H  38.42600 9.50700 49.43600
H  38.58500 11.11500 48.85400

