158

Mg 17.06800 -1.93100 28.17400
C  16.30900 0.00900 31.05600
C  19.04600 -3.91900 30.34700
C  18.52400 -3.30300 25.53400
C  15.48100 0.36600 26.24100
N  17.51400 -2.02600 30.42000
C  17.07300 -1.14000 31.39100
C  17.45300 -1.58300 32.79300
C  18.53500 -2.71100 32.57000
C  18.34800 -2.91900 31.00100
C  19.93500 -2.48900 33.17100
C  16.20100 -1.96100 33.77400
C  16.34600 -1.58600 35.29100
H  17.84800 -1.49100 35.95500
N  18.37300 -3.63700 27.96800
C  19.07600 -4.32000 28.95600
C  19.84600 -5.36700 28.36100
C  19.58300 -5.30600 26.95900
C  18.82400 -4.04400 26.70700
C  20.75000 -6.34000 29.11000
C  20.06200 -6.16100 25.88000
O  19.60500 -6.07900 24.75500
C  21.00600 -7.37200 26.25100
N  17.04000 -1.49600 26.17200
C  17.78400 -2.21400 25.22400
C  17.45500 -1.77100 23.76200
C  16.35200 -0.70500 24.04800
C  16.23200 -0.57600 25.56300
C  18.71900 -1.38900 22.88500
C  15.05100 -0.80200 23.21700
C  13.76400 -1.34400 23.85700
N  16.04300 -0.17400 28.48900
C  15.43500 0.64300 27.64700
C  14.73500 1.66300 28.30300
C  15.06700 1.45300 29.62000
C  15.88600 0.32000 29.71600
C  13.84900 2.64200 27.64300
C  14.90900 2.00400 30.98700
O  14.32400 2.95500 31.41500
C  15.71200 1.08400 31.95900
C  16.80500 1.96900 32.67700
O  17.90100 2.27900 32.17400
O  16.23200 2.50100 33.77700
C  17.05400 3.53200 34.45300
H  19.70500 -4.44100 31.04400
H  18.94500 -3.74600 24.62900
H  14.91900 1.05500 25.60800
H  18.03900 -0.79900 33.27300
H  18.31600 -3.66100 33.05900
H  20.16900 -3.31800 33.83900
H  19.95000 -1.55000 33.72400
H  20.67300 -2.47000 32.36900
H  16.10800 -3.04600 33.74600
H  15.27300 -1.59500 33.33600
H  15.88900 -2.35200 35.91800
H  15.81300 -0.64400 35.41500
H  21.79100 -6.51200 28.83700
H  20.23700 -7.30200 29.13800
H  20.82200 -6.18500 30.18700
H  22.00800 -7.08700 26.57200
H  21.13100 -7.86300 25.28600
H  20.49700 -7.95100 27.02100
H  16.92600 -2.61900 23.32800
H  16.87700 0.20800 23.76600
H  19.61500 -1.61800 23.46100
H  18.70000 -0.31600 22.68900
H  18.52500 -1.91800 21.95200
H  15.36900 -1.53000 22.47000
H  14.96100 0.19500 22.78400
H  13.06200 -1.78000 23.14600
H  13.16500 -0.56000 24.32100
H  14.03900 -2.17800 24.50100
H  14.20800 2.72900 26.61700
H  14.00000 3.56100 28.20800
H  12.84000 2.23200 27.70300
H  15.09900 0.60700 32.72400
H  18.08600 3.19100 34.52300
H  16.72100 3.77400 35.46300
H  16.83400 4.47000 33.94300
Mg 26.92600 51.13600 27.14900
C  24.52600 52.12900 29.45600
C  28.95200 50.22800 29.53500
C  29.12000 50.60700 24.78300
C  24.57300 52.24600 24.63500
N  26.73300 51.27500 29.33500
C  25.64100 51.51200 30.06000
C  25.84200 51.23400 31.50700
C  27.33400 50.56000 31.52900
C  27.69600 50.66800 30.04700
C  28.18900 51.31500 32.54500
C  24.76100 50.29800 32.07700
C  24.04400 50.72400 33.41000
H  24.19000 49.76500 34.58700
N  28.83000 50.56000 27.18200
C  29.53400 50.26700 28.26500
C  30.89700 49.93600 27.90200
C  30.96200 50.17300 26.47500
C  29.59500 50.46400 26.06300
C  31.96500 49.58000 28.81400
C  32.12100 50.08800 25.56200
O  32.14000 50.40300 24.34600
C  33.46700 49.60700 26.07600
N  26.78900 51.36700 25.01500
C  27.86400 51.00700 24.26700
C  27.69500 51.02100 22.82300
C  26.13200 51.31900 22.74900
C  25.73000 51.64800 24.23000
C  28.57100 52.05000 22.05200
C  25.16400 50.22000 22.19600
C  23.81200 50.75300 21.64700
N  24.95700 52.01700 27.02400
C  24.21400 52.45700 25.98300
C  23.01700 53.05300 26.41700
C  23.07100 52.91200 27.81700
C  24.26700 52.25500 28.10700
C  22.04200 53.74700 25.51400
C  22.38200 53.24400 29.05500
O  21.31500 53.77400 29.28500
C  23.24900 52.57200 30.12600
C  23.59800 53.62000 31.14600
O  24.42200 54.51200 31.08300
O  22.75000 53.45900 32.21400
C  23.00900 54.44000 33.31500
H  29.61500 49.89000 30.33400
H  29.79100 50.21700 24.01400
H  23.76100 52.33800 23.91100
H  25.81700 52.17500 32.05600
H  27.41000 49.50000 31.77300
H  29.14400 50.79600 32.63700
H  27.89600 51.28500 33.59500
H  28.38200 52.34500 32.24700
H  25.26500 49.36300 32.32000
H  23.90600 50.05300 31.44700
H  22.98900 50.87600 33.18100
H  24.37800 51.66800 33.84000
H  31.60400 49.74900 29.82800
H  32.88900 50.15200 28.72900
H  32.22100 48.54600 28.58100
H  34.14600 49.51500 25.22800
H  33.42000 48.62200 26.54000
H  33.82800 50.36000 26.77600
H  27.93500 50.02500 22.45300
H  26.00600 52.18900 22.10400
H  29.54200 52.03900 22.54700
H  28.15500 53.05600 22.10100
H  28.67000 51.74500 21.01000
H  24.88000 49.64900 23.08000
H  25.66100 49.52000 21.52400
H  23.67100 50.56600 20.58300
H  23.69500 51.79500 21.94600
H  22.99100 50.26300 22.17000
H  21.07500 53.74100 26.01800
H  21.79300 53.05800 24.70700
H  22.40100 54.75200 25.29500
H  22.64200 51.78100 30.56700
H  23.99700 54.39000 33.77300
H  22.30600 54.34700 34.14300
H  22.85100 55.47400 33.00700

