158

Mg 35.36900 0.61300 29.45700
C  33.10200 1.83200 31.89000
C  37.82600 0.44700 31.77400
C  37.45000 -0.02900 26.89300
C  32.80100 1.31000 27.07100
N  35.45900 1.25500 31.52600
C  34.41400 1.45500 32.34900
C  34.95600 1.52700 33.82800
C  36.49400 1.51300 33.60900
C  36.62600 1.01900 32.18300
C  37.14800 2.83300 33.89900
C  34.48200 0.30400 34.75400
C  34.18300 0.66400 36.23100
H  34.87600 1.96200 36.81900
N  37.43000 0.15000 29.33600
C  38.25200 0.04800 30.40800
C  39.56000 -0.27600 29.96900
C  39.44400 -0.42200 28.50900
C  38.06600 -0.12600 28.15600
C  40.73500 -0.47700 30.88700
C  40.48900 -0.67600 27.52700
O  40.22600 -0.70600 26.33500
C  41.92400 -1.20700 28.05900
N  35.20900 0.79200 27.27700
C  36.19100 0.36200 26.48200
C  35.77100 0.32600 25.02500
C  34.23900 0.57100 25.09300
C  34.09000 0.93300 26.61000
C  36.62000 1.26800 24.15300
C  33.31200 -0.62200 24.71500
C  32.12300 -0.43100 23.71700
N  33.33800 1.28400 29.46600
C  32.44900 1.50800 28.45700
C  31.21600 2.09600 28.91300
C  31.34000 2.17000 30.33200
C  32.69200 1.70900 30.61000
C  30.09200 2.53000 28.06500
C  30.75100 2.49700 31.56300
O  29.64700 2.88100 31.77600
C  31.83000 2.20900 32.65800
C  31.98000 3.40900 33.50800
O  32.68700 4.43500 33.30400
O  31.10700 3.24500 34.54000
C  30.81700 4.33400 35.49400
H  38.65400 0.37800 32.48300
H  37.97400 -0.44400 26.03000
H  31.97800 1.38600 26.35700
H  34.62900 2.45500 34.29800
H  36.94100 0.76600 34.26500
H  37.64400 3.14500 32.98000
H  37.96000 2.88200 34.62500
H  36.40700 3.57900 34.18500
H  35.22100 -0.49200 34.84100
H  33.57500 -0.03500 34.25200
H  34.41300 -0.22400 36.82100
H  33.10600 0.76400 36.36400
H  40.99100 -1.53400 30.80700
H  40.36600 -0.28700 31.89500
H  41.57300 0.16600 30.61800
H  42.63300 -1.61300 27.33700
H  41.71700 -2.01000 28.76600
H  42.50400 -0.46300 28.60500
H  36.01500 -0.58500 24.47700
H  34.01200 1.33800 24.35200
H  36.00100 1.80200 23.43200
H  37.35600 0.66700 23.61900
H  37.04800 2.03400 24.79900
H  33.01300 -1.09200 25.65200
H  34.02600 -1.28100 24.22200
H  31.86600 0.61300 23.53800
H  31.19500 -0.76800 24.17800
H  32.32800 -0.92900 22.77000
H  29.60000 3.43500 28.42100
H  29.43500 1.67100 27.93000
H  30.42900 2.83700 27.07500
H  31.50000 1.40800 33.32000
H  29.81600 4.35400 35.92600
H  30.97000 5.33200 35.08500
H  31.48800 4.14600 36.33200
Mg 41.83600 40.50700 26.15700
C  41.51600 43.10300 28.51900
C  42.56600 38.33600 28.89500
C  42.50700 38.17500 24.04800
C  41.25000 42.84200 23.64300
N  42.07500 40.76000 28.42900
C  41.79600 41.92800 29.14800
C  41.75400 41.64800 30.63700
C  42.35300 40.20800 30.74500
C  42.27700 39.71300 29.28100
C  43.77500 40.03700 31.36700
C  40.31500 41.71500 31.27400
C  40.25600 41.48500 32.82600
H  39.62000 42.66400 33.68800
N  42.58000 38.58800 26.40100
C  42.78000 37.91200 27.59500
C  43.16900 36.59000 27.22500
C  43.07300 36.45000 25.82000
C  42.72800 37.73800 25.39000
C  43.69800 35.52500 28.23700
C  43.37200 35.16600 24.97600
O  43.48200 35.25800 23.76500
C  43.48000 33.77800 25.65400
N  41.96800 40.58000 24.16500
C  42.22400 39.43200 23.42300
C  41.88500 39.56700 21.96100
C  41.23500 41.04700 21.97800
C  41.56600 41.55300 23.32100
C  43.07800 39.19400 20.91600
C  39.77600 41.28000 21.54600
C  38.75200 40.75000 22.48600
N  41.47100 42.62200 26.02700
C  41.33100 43.45800 24.94100
C  41.20300 44.87600 25.36200
C  41.19000 44.80700 26.77800
C  41.43300 43.39800 27.12700
C  41.07300 46.13000 24.45200
C  41.03100 45.50200 27.98700
O  40.88800 46.68100 28.21500
C  41.10500 44.45900 29.12400
C  42.21600 44.95800 30.04700
O  43.38600 45.02400 29.76900
O  41.75400 45.01700 31.37800
C  42.81800 45.29400 32.40500
H  42.89500 37.68900 29.71100
H  42.45900 37.37900 23.30100
H  40.98800 43.33200 22.70300
H  42.43400 42.32900 31.14800
H  41.63700 39.61400 31.31400
H  44.18300 41.03700 31.51700
H  44.42500 39.45300 30.71500
H  43.75900 39.41700 32.26300
H  39.79200 40.87300 30.81900
H  39.69500 42.58700 31.06500
H  41.30300 41.40200 33.11500
H  39.83000 40.51500 33.08300
H  43.71700 35.88400 29.26700
H  44.69500 35.31300 27.85200
H  43.11100 34.63700 28.00100
H  42.49800 33.47600 26.01800
H  44.34300 33.81900 26.31800
H  43.74100 33.02900 24.90600
H  41.03900 38.87900 21.95800
H  41.78800 41.56900 21.19800
H  43.29500 40.00600 20.22100
H  42.90600 38.34100 20.26000
H  44.03700 39.09000 21.42400
H  39.62100 40.68800 20.64400
H  39.48400 42.30600 21.32400
H  39.18800 40.63500 23.47800
H  38.35600 39.76400 22.24400
H  37.92400 41.43900 22.65100
H  41.37000 47.11000 24.82500
H  40.02000 46.24900 24.19400
H  41.65700 46.13000 23.53200
H  40.23800 44.58700 29.77200
H  43.80600 45.46000 31.97600
H  42.86700 44.39200 33.01500
H  42.47700 46.18100 32.93800

