158

Mg -2.12400 16.84500 25.87800
C  -2.50300 14.68200 28.61500
C  -2.74500 19.43100 27.96100
C  -2.19900 18.75400 23.18600
C  -1.88400 14.04700 23.82400
N  -2.76800 16.97200 28.04900
C  -2.68800 16.01600 29.00200
C  -2.98600 16.50500 30.43700
C  -3.34100 18.03600 30.11300
C  -3.00400 18.17800 28.67100
C  -4.78200 18.47600 30.48000
C  -1.73500 16.35400 31.37900
C  -2.00000 15.58700 32.71300
H  -2.51000 16.38700 33.94200
N  -2.35000 18.82000 25.61500
C  -2.60800 19.75800 26.59300
C  -2.52600 21.11200 25.97500
C  -2.23800 20.94400 24.59200
C  -2.29400 19.48200 24.38900
C  -2.69900 22.38600 26.81700
C  -1.88700 22.01200 23.59300
O  -1.58400 21.80700 22.42800
C  -1.80600 23.42700 24.05600
N  -2.14800 16.47600 23.84100
C  -2.27900 17.42600 22.89200
C  -2.14000 16.94700 21.46800
C  -1.82700 15.42100 21.68700
C  -1.94100 15.29900 23.23100
C  -3.44900 17.18500 20.65200
C  -0.40100 15.07100 21.18600
C  0.90900 15.51800 22.00200
N  -2.17100 14.76200 26.14800
C  -2.06900 13.70900 25.20500
C  -2.14600 12.45000 25.83200
C  -2.36700 12.79100 27.21300
C  -2.35800 14.20500 27.31600
C  -2.08400 11.17200 24.97700
C  -2.50600 12.27800 28.50400
O  -2.70700 11.11900 28.86000
C  -2.50900 13.40300 29.52800
C  -1.19100 13.21200 30.21400
O  -0.06500 13.48900 29.76200
O  -1.33700 12.63800 31.45500
C  -0.18200 12.17600 32.16900
H  -2.90300 20.25000 28.66600
H  -2.08700 19.38400 22.30100
H  -1.72400 13.17800 23.18200
H  -3.77700 15.82500 30.75400
H  -2.71500 18.78600 30.59800
H  -5.40800 17.63600 30.77800
H  -5.30800 18.97300 29.66500
H  -4.65500 19.14500 31.33100
H  -1.37100 17.28000 31.82400
H  -1.00400 15.82000 30.77100
H  -0.98500 15.26400 32.94600
H  -2.69500 14.76200 32.55600
H  -2.95500 22.25300 27.86800
H  -3.55200 22.81200 26.28800
H  -1.88100 23.09900 26.71100
H  -2.81400 23.63800 24.41300
H  -1.48700 24.07700 23.24200
H  -1.01800 23.39200 24.80900
H  -1.35000 17.45000 20.91000
H  -2.52300 14.70200 21.25700
H  -3.56500 18.14100 20.14000
H  -4.31100 17.11800 21.31500
H  -3.32000 16.40600 19.90000
H  -0.34600 15.39800 20.14800
H  -0.46100 13.98900 21.30300
H  0.55400 16.29200 22.68300
H  1.72100 15.90500 21.38600
H  1.34900 14.73600 22.62100
H  -1.64800 10.47500 25.69300
H  -1.58700 11.23700 24.01000
H  -3.07900 10.83100 24.69000
H  -3.35600 13.22600 30.19100
H  0.66200 11.90000 31.53600
H  -0.37700 11.36900 32.87500
H  0.15100 13.08200 32.67600
Mg -1.82900 33.89300 26.32400
C  -3.00400 32.13400 29.24900
C  0.13600 35.78200 28.41800
C  -1.00400 35.65500 23.64400
C  -3.78300 31.74300 24.39100
N  -1.49900 34.02600 28.60200
C  -2.00700 33.12400 29.52300
C  -1.45600 33.41700 30.92700
C  -0.58500 34.71600 30.68300
C  -0.62600 34.82000 29.19700
C  -1.06800 36.02300 31.36800
C  -0.76000 32.17500 31.56800
C  -1.30500 31.66300 32.93400
H  -0.26400 31.53500 34.07800
N  -0.58500 35.53300 26.03900
C  0.11500 36.21000 27.04500
C  0.90700 37.24700 26.42600
C  0.60300 37.22000 25.00600
C  -0.39000 36.14400 24.84200
C  1.93000 38.17000 27.18300
C  1.24700 37.95000 23.86400
O  0.90200 37.96200 22.71800
C  2.36900 38.98400 24.24700
N  -2.51900 33.92700 24.37400
C  -1.92300 34.66900 23.40400
C  -2.41300 34.26300 21.97100
C  -2.84400 32.77900 22.23800
C  -3.11500 32.78900 23.73600
C  -3.52800 35.18600 21.38200
C  -1.85200 31.62900 21.80300
C  -0.53200 31.62700 22.49800
N  -3.16900 32.35400 26.72400
C  -3.86200 31.58200 25.83600
C  -4.68200 30.61400 26.59100
C  -4.34600 30.85400 27.95600
C  -3.44100 31.86700 27.96900
C  -5.72500 29.65100 26.00400
C  -4.70300 30.40300 29.30500
O  -5.49700 29.52700 29.71700
C  -3.73500 31.19500 30.17700
C  -4.46900 31.75000 31.35700
O  -4.82900 32.93000 31.48200
O  -4.68200 30.79800 32.29100
C  -5.23400 31.34600 33.58000
H  0.96900 36.23200 28.96200
H  -0.68300 36.19400 22.75000
H  -4.14300 30.94500 23.73800
H  -2.27900 33.68500 31.59000
H  0.41700 34.43600 31.01000
H  -2.15400 35.95600 31.43600
H  -0.71000 36.87000 30.78100
H  -0.67400 36.03700 32.38400
H  0.31400 32.35700 31.58500
H  -0.87900 31.33900 30.88000
H  -1.52400 30.60200 32.81600
H  -2.23500 32.08900 33.30900
H  2.90400 37.68900 27.26500
H  1.50700 38.30800 28.17800
H  1.98300 39.19800 26.82600
H  3.07800 39.36000 23.51000
H  3.02600 38.55200 25.00200
H  1.83800 39.85600 24.63000
H  -1.60300 34.27300 21.24200
H  -3.85200 32.53900 21.89800
H  -4.44500 34.60300 21.46700
H  -3.13200 35.47200 20.40800
H  -3.79600 36.03500 22.01100
H  -1.57200 31.81500 20.76600
H  -2.23800 30.61000 21.79000
H  -0.82900 31.98500 23.48400
H  0.08600 32.19800 21.80500
H  -0.14700 30.61000 22.57700
H  -5.87900 30.02300 24.99100
H  -6.63700 29.77100 26.58900
H  -5.41100 28.61100 26.10000
H  -2.98800 30.43200 30.39300
H  -4.49600 31.96400 34.09300
H  -5.45000 30.45000 34.16200
H  -6.13100 31.95600 33.47000

