158

Mg 1.86300 -1.75400 44.83900
C  5.15800 -0.80600 43.96900
C  0.78300 1.07400 43.07300
C  -1.38000 -2.91900 44.80800
C  3.06700 -4.77500 45.89300
N  2.85300 -0.23100 43.52300
C  4.24400 0.04600 43.47400
C  4.54000 1.40300 42.82200
C  3.09400 2.06900 42.86800
C  2.12700 0.90700 43.23400
C  2.86200 3.28200 43.76500
C  5.22600 1.31600 41.39900
C  6.32300 2.30900 41.05700
H  7.58200 1.81300 40.33500
N  -0.13400 -0.91700 44.30700
C  -0.27200 0.20400 43.45800
C  -1.67000 0.35900 43.24300
C  -2.39800 -0.70300 43.91900
C  -1.30400 -1.58900 44.37100
C  -2.23900 1.57400 42.41500
C  -3.90200 -0.92200 43.96700
O  -4.64600 -0.15900 43.35800
C  -4.45200 -2.07600 44.66300
N  0.93300 -3.55600 45.21800
C  -0.41900 -3.81800 45.23300
C  -0.64900 -5.23100 45.81200
C  0.80900 -5.75800 46.14900
C  1.66200 -4.58300 45.75000
C  -1.57100 -5.39500 46.99500
C  1.24200 -7.03200 45.32300
C  1.73900 -8.23000 46.05000
N  3.77400 -2.63800 45.06200
C  4.09100 -3.83200 45.54000
C  5.52400 -4.01500 45.50800
C  5.97600 -2.82200 44.89900
C  4.83400 -2.01600 44.59300
C  6.29200 -5.08800 46.21300
C  7.23700 -2.08500 44.59400
O  8.42200 -2.36800 44.72200
C  6.73300 -0.78100 43.89400
C  7.35600 0.38400 44.51200
O  7.00800 0.93800 45.58100
O  8.33600 0.88900 43.69900
C  8.94200 2.16500 44.14800
H  0.33700 1.95900 42.61400
H  -2.40600 -3.29100 44.86500
H  3.43300 -5.72900 46.27900
H  5.26500 1.88900 43.47600
H  2.80400 2.46500 41.89500
H  2.66400 4.24600 43.29700
H  3.79500 3.39000 44.31700
H  2.10800 3.19800 44.54800
H  4.49100 1.54800 40.62800
H  5.44700 0.26700 41.20600
H  6.59900 2.88400 41.94200
H  5.95100 3.11700 40.42700
H  -2.25400 1.48700 41.32800
H  -1.67100 2.46400 42.68100
H  -3.28200 1.80600 42.63200
H  -4.26700 -3.02200 44.15400
H  -5.49800 -1.94400 44.93600
H  -4.03600 -1.96200 45.66400
H  -1.02700 -5.88300 45.02400
H  0.96100 -5.82400 47.22600
H  -2.28500 -6.18500 46.76300
H  -2.15800 -4.48500 47.12200
H  -1.09600 -5.66600 47.93700
H  1.96800 -6.79600 44.54500
H  0.46000 -7.48500 44.71400
H  1.47100 -8.26300 47.10600
H  2.82500 -8.30500 46.00500
H  1.26400 -9.14800 45.70300
H  6.18500 -4.86800 47.27600
H  7.35200 -5.04400 45.96500
H  5.85100 -6.07300 46.06300
H  7.12100 -0.81100 42.87500
H  8.11900 2.80100 44.47400
H  9.50600 2.56000 43.30200
H  9.64100 1.97300 44.96100
Mg 29.93500 58.91000 39.88200
C  27.53900 56.59700 38.95400
C  32.39400 56.82500 38.67900
C  32.16700 61.50000 40.08600
C  27.22900 61.18800 40.66500
N  29.96500 56.92000 38.98900
C  28.81900 56.17800 38.69200
C  29.28400 54.77600 38.02300
C  30.81300 54.77200 38.23500
C  31.07500 56.27500 38.68100
C  31.36200 53.60300 39.03700
C  28.74000 54.75600 36.57500
C  27.93300 53.50200 36.12400
H  27.10400 53.85900 34.86900
N  32.05000 59.16600 39.44400
C  32.86000 58.13600 38.98700
C  34.21000 58.71600 38.81900
C  34.18500 60.08800 39.26700
C  32.73400 60.26000 39.63000
C  35.34500 57.92200 38.32100
C  35.33500 61.02300 39.29700
O  36.43300 60.59000 38.92600
C  35.36900 62.36000 40.07300
N  29.71100 61.04100 40.28200
C  30.85100 61.82200 40.41800
C  30.42000 63.24100 40.86800
C  28.89000 63.16000 41.11800
C  28.55000 61.74900 40.65100
C  31.28500 63.84100 41.97800
C  28.08900 64.23400 40.38100
C  27.09600 65.02500 41.30200
N  27.83100 58.92600 39.93600
C  26.92400 59.90800 40.15800
C  25.58200 59.37500 39.97500
C  25.77700 58.12400 39.45700
C  27.13200 57.90200 39.43800
C  24.29900 60.13600 40.19100
C  25.08400 57.01700 38.88100
O  23.87200 56.81900 38.63500
C  26.21700 55.93000 38.61100
C  25.99100 54.76000 39.45600
O  26.44700 54.63900 40.56500
O  25.15300 53.84800 38.87600
C  24.69800 52.58700 39.60300
H  33.17700 56.09000 38.48300
H  32.85200 62.33200 40.26000
H  26.46300 61.92700 40.91200
H  28.80200 53.92800 38.50900
H  31.29500 54.67600 37.26200
H  31.48700 53.92400 40.07100
H  32.26000 53.18300 38.58200
H  30.74400 52.70900 39.11600
H  29.49800 54.82500 35.79400
H  28.21800 55.70200 36.42900
H  27.22600 53.31700 36.93200
H  28.55000 52.64200 35.86700
H  35.02900 56.88000 38.28800
H  36.16200 57.96300 39.04000
H  35.67500 58.21400 37.32400
H  34.74900 62.25000 40.96400
H  34.83500 63.09800 39.47500
H  36.38100 62.66800 40.33500
H  30.55500 63.97300 40.07200
H  28.72800 63.27900 42.18900
H  32.23500 63.30800 42.01200
H  30.74900 63.69200 42.91500
H  31.37700 64.91300 41.80700
H  27.55700 63.78500 39.54200
H  28.77500 64.99800 40.01700
H  26.40000 65.51000 40.61800
H  27.55400 65.77300 41.95000
H  26.60000 64.27700 41.92000
H  24.18300 60.43700 41.23200
H  23.41000 59.61100 39.84200
H  24.50600 61.05900 39.64900
H  26.11000 55.60000 37.57800
H  25.05600 52.65500 40.63000
H  25.24800 51.72900 39.21600
H  23.62500 52.45500 39.46300

