158

Mg -2.51300 17.57900 27.16300
C  -2.70100 15.53800 30.13300
C  -3.13800 20.28500 29.23400
C  -2.88500 19.47000 24.40500
C  -3.18300 14.77600 25.30800
N  -2.82100 17.85900 29.51600
C  -2.62300 16.95800 30.47400
C  -2.58300 17.61100 31.90300
C  -2.96800 19.10900 31.58000
C  -3.04100 19.10200 30.05400
C  -4.21800 19.67400 32.18800
C  -1.18300 17.42100 32.60900
C  -1.03200 18.19600 33.98200
H  -0.70700 17.43800 35.20100
N  -2.82800 19.54300 26.83700
C  -2.95500 20.48300 27.82500
C  -2.75200 21.79000 27.23300
C  -2.56400 21.52900 25.84700
C  -2.82900 20.14600 25.65200
C  -2.81500 23.10600 28.05700
C  -2.19200 22.51600 24.67200
O  -2.23200 22.28100 23.47200
C  -1.91500 23.97500 25.02600
N  -2.95200 17.15300 25.14700
C  -3.00400 18.11200 24.17100
C  -3.13900 17.49500 22.71100
C  -3.27500 15.96900 23.02300
C  -3.12500 15.97700 24.58000
C  -4.13900 18.13300 21.76400
C  -2.31800 15.00500 22.22700
C  -1.00000 14.72300 23.00400
N  -2.80200 15.60400 27.55600
C  -2.96700 14.55500 26.70400
C  -3.01100 13.28000 27.38100
C  -2.92100 13.64400 28.72800
C  -2.77000 15.03800 28.82000
C  -3.20500 11.86200 26.85000
C  -2.99800 13.09200 30.05300
O  -3.09000 11.94200 30.45800
C  -2.93100 14.30800 31.07700
C  -1.83600 14.14700 31.97900
O  -0.65100 14.10000 31.77800
O  -2.34200 14.13700 33.24300
C  -1.45400 13.87200 34.35400
H  -3.23000 21.18800 29.84200
H  -2.77500 19.96500 23.43800
H  -3.22700 13.82800 24.76700
H  -3.42500 17.25100 32.49300
H  -2.06400 19.67100 31.81300
H  -4.20400 20.75400 32.33400
H  -4.30800 19.15700 33.14300
H  -5.12200 19.57300 31.58700
H  -0.41200 17.84300 31.96500
H  -0.92600 16.37300 32.76000
H  -1.91200 18.83400 34.06700
H  -0.14500 18.80300 33.80200
H  -1.86700 23.64200 28.02000
H  -3.07200 22.99200 29.11000
H  -3.72900 23.63500 27.78500
H  -2.86100 24.44500 25.29500
H  -1.59900 24.49300 24.12000
H  -1.07900 23.98200 25.72500
H  -2.20100 17.70500 22.19600
H  -4.27800 15.67700 22.71300
H  -4.66700 18.95400 22.25000
H  -4.86500 17.39300 21.43000
H  -3.69200 18.60300 20.88800
H  -2.10700 15.48500 21.27100
H  -2.73800 14.05600 21.89300
H  -0.65300 15.52000 23.66200
H  -0.29600 14.45300 22.21600
H  -1.10100 13.73000 23.44200
H  -2.25500 11.37600 26.62700
H  -3.66100 11.80800 25.86200
H  -3.71700 11.25700 27.59900
H  -3.80600 14.46900 31.70600
H  -1.27200 12.80000 34.42000
H  -2.00600 14.09000 35.26800
H  -0.55200 14.47400 34.24700
Mg 16.22900 -1.66700 27.78100
C  15.20700 0.54400 30.23000
C  18.18000 -3.34400 29.98500
C  17.73200 -3.13700 25.13000
C  14.43700 0.30900 25.38900
N  16.76700 -1.30300 29.81300
C  16.12400 -0.42700 30.70100
C  16.59600 -0.62800 32.13900
C  17.51700 -1.89600 32.10000
C  17.49400 -2.24000 30.55200
C  18.93300 -1.76200 32.57300
C  15.46700 -0.80800 33.25700
C  15.71000 -0.29400 34.65400
H  17.13700 0.28100 34.96000
N  17.66600 -2.98800 27.53100
C  18.27700 -3.68600 28.60000
C  19.21100 -4.64100 28.05500
C  19.07100 -4.62800 26.66200
C  18.14400 -3.54800 26.38000
C  20.04800 -5.49700 28.97300
C  19.77300 -5.43000 25.62400
O  19.56500 -5.32800 24.40600
C  20.84800 -6.42300 26.02300
N  16.13400 -1.42000 25.51500
C  16.85600 -2.16900 24.65100
C  16.51600 -1.88600 23.12100
C  15.36900 -0.78000 23.40000
C  15.21200 -0.71900 24.87000
C  17.66700 -1.27900 22.30400
C  13.96000 -1.00200 22.65100
C  13.52300 -0.07300 21.52200
N  14.95000 -0.03800 27.75100
C  14.23900 0.54400 26.77500
C  13.34400 1.49300 27.31900
C  13.63100 1.50000 28.64600
C  14.66200 0.63500 28.89900
C  12.39300 2.45400 26.55400
C  13.28600 2.21300 29.84700
O  12.47300 3.10600 30.06800
C  14.26200 1.55300 30.97000
C  14.97800 2.65200 31.61600
O  15.71300 3.44300 31.10000
O  14.48300 2.85700 32.90000
C  14.79100 4.14600 33.47900
H  18.53600 -3.98600 30.79400
H  18.16700 -3.62900 24.25800
H  13.77400 0.77000 24.65400
H  17.24100 0.22900 32.33400
H  17.16900 -2.75600 32.67400
H  19.50000 -1.07700 31.94400
H  19.43800 -2.71700 32.71900
H  18.68100 -1.40700 33.57200
H  15.22100 -1.86900 33.30200
H  14.57600 -0.27600 32.92500
H  15.49500 -1.02800 35.43100
H  14.98200 0.51700 34.68600
H  19.60500 -5.52400 29.96800
H  21.04900 -5.06900 29.02200
H  20.06000 -6.51700 28.58900
H  20.51100 -7.23900 26.66200
H  21.65300 -5.89200 26.53100
H  21.18600 -6.81700 25.06400
H  15.98800 -2.65800 22.56200
H  15.71700 0.19300 23.05300
H  18.56300 -1.42000 22.90900
H  17.63400 -0.21000 22.09200
H  17.82100 -1.79600 21.35800
H  13.20600 -1.02100 23.43800
H  14.00100 -2.00200 22.21800
H  14.31100 0.67800 21.45100
H  12.60500 0.45900 21.77100
H  13.34100 -0.65700 20.62000
H  11.58200 1.84500 26.15400
H  12.96100 2.94000 25.76200
H  11.98200 3.24500 27.18200
H  13.58700 1.08900 31.68800
H  14.31300 4.95500 32.92600
H  15.86800 4.27300 33.37600
H  14.43700 4.22800 34.50700

