158

Mg 30.61000 58.17100 40.21500
C  27.91100 55.94100 39.47400
C  32.74800 55.76400 38.83200
C  33.05000 60.50700 40.29000
C  28.23400 60.72700 40.79400
N  30.26000 56.19900 39.05500
C  29.14500 55.45600 39.01700
C  29.44800 54.12100 38.33900
C  30.95800 53.90600 38.64800
C  31.40500 55.30500 38.84900
C  31.26500 52.92100 39.81900
C  29.15800 54.22300 36.80800
C  28.01900 53.34100 36.34100
H  27.16600 54.07500 35.37400
N  32.63200 58.07900 39.82500
C  33.28600 57.05900 39.15600
C  34.68300 57.50000 39.07100
C  34.84300 58.82800 39.58600
C  33.45700 59.19900 39.90500
C  35.82000 56.63300 38.50400
C  36.21300 59.55800 39.52500
O  37.20700 58.97800 39.07100
C  36.39000 61.04800 39.70900
N  30.61700 60.33000 40.49700
C  31.79500 61.03300 40.62700
C  31.55800 62.59400 40.78500
C  30.00400 62.67400 40.94400
C  29.56600 61.17400 40.72000
C  32.48200 63.37600 41.81800
C  29.26200 63.79100 40.19500
C  28.57800 63.58900 38.78300
N  28.47400 58.39400 40.18900
C  27.65800 59.42600 40.55400
C  26.25900 59.01200 40.54300
C  26.33600 57.64700 40.14200
C  27.68000 57.28700 39.92800
C  25.10300 59.91300 40.71100
C  25.53600 56.46400 39.75800
O  24.34300 56.33500 39.61200
C  26.56800 55.28500 39.32100
C  26.24900 54.15600 40.23200
O  26.73800 54.08900 41.32500
O  25.42500 53.23900 39.65700
C  25.33000 51.93300 40.36400
H  33.54500 55.04900 38.61500
H  33.78700 61.29400 40.46600
H  27.47300 61.39500 41.20100
H  28.85500 53.42800 38.93600
H  31.43600 53.44900 37.78100
H  30.42900 52.63300 40.45600
H  32.15900 53.20000 40.37900
H  31.63000 51.98300 39.40100
H  30.03300 53.83500 36.28600
H  29.09400 55.24800 36.44300
H  27.45100 53.00600 37.20900
H  28.32000 52.45500 35.78100
H  36.31300 57.02800 37.61600
H  35.49800 55.61700 38.27400
H  36.55000 56.39100 39.27700
H  36.04600 61.38700 40.68600
H  35.84600 61.61200 38.95100
H  37.45600 61.23500 39.57800
H  31.75300 63.09300 39.83600
H  29.79400 62.70800 42.01300
H  31.83900 63.63700 42.65900
H  33.05700 64.20100 41.39800
H  33.20500 62.61300 42.10500
H  30.05800 64.52000 40.04400
H  28.47600 64.27700 40.77400
H  27.61700 64.10300 38.75600
H  28.42500 62.51700 38.65900
H  29.24000 63.98200 38.01200
H  24.49300 59.39000 41.44800
H  24.62200 59.93600 39.73300
H  25.31500 60.88300 41.15900
H  26.35000 54.94100 38.31000
H  26.15200 51.65400 41.02400
H  25.23900 51.15900 39.60300
H  24.39300 51.98800 40.91800
Mg -1.88600 34.34900 27.46500
C  -3.95300 32.70300 29.71100
C  -0.72100 36.32100 29.97700
C  -0.64400 36.62500 25.13600
C  -3.79900 32.89500 24.84100
N  -2.35100 34.49600 29.60900
C  -3.18600 33.66700 30.31800
C  -3.03900 33.91800 31.85900
C  -2.03300 35.14600 31.98100
C  -1.72600 35.40600 30.39000
C  -2.62500 36.36400 32.71800
C  -2.47500 32.61100 32.53500
C  -3.17900 32.14100 33.86000
H  -2.34700 32.05400 35.12400
N  -0.67300 36.08000 27.52500
C  -0.24200 36.64200 28.68300
C  0.76600 37.56500 28.41800
C  0.85000 37.75000 26.97100
C  -0.19300 36.79400 26.47900
C  1.66500 38.14300 29.49300
C  1.82900 38.51400 26.11900
O  1.79300 38.51800 24.90200
C  2.88900 39.30900 26.75200
N  -2.35200 34.77500 25.34600
C  -1.58000 35.68800 24.65600
C  -1.90400 35.63100 23.11500
C  -2.55900 34.18600 22.99600
C  -2.90700 33.90300 24.46100
C  -2.89900 36.78600 22.75000
C  -1.69600 32.98800 22.50000
C  -0.37100 32.74300 23.22600
N  -3.39000 32.94600 27.29200
C  -4.06300 32.47700 26.15400
C  -5.06800 31.49000 26.56400
C  -4.99400 31.50100 27.95700
C  -4.04200 32.45800 28.32600
C  -5.83500 30.57500 25.68900
C  -5.53100 30.92200 29.15800
O  -6.37400 30.09300 29.36700
C  -4.85200 31.65500 30.34500
C  -5.83800 32.36500 31.20700
O  -6.37600 33.41800 30.85800
O  -5.91600 31.78200 32.49700
C  -7.11400 32.25600 33.20000
H  -0.36700 36.95600 30.79200
H  -0.14900 37.32900 24.46400
H  -4.35800 32.38100 24.05700
H  -4.04000 34.14300 32.22600
H  -1.06300 34.80400 32.34100
H  -1.88500 37.16000 32.80300
H  -2.68900 36.20800 33.79500
H  -3.51000 36.79000 32.24500
H  -1.40500 32.67500 32.73100
H  -2.62700 31.79600 31.82800
H  -3.64500 31.15900 33.77700
H  -3.87300 32.94100 34.11800
H  1.73600 37.42600 30.31200
H  1.08700 38.92600 29.98400
H  2.67300 38.49800 29.27700
H  2.44200 39.90200 27.54900
H  3.49600 39.92100 26.08400
H  3.57300 38.64300 27.27800
H  -1.00500 35.74200 22.51000
H  -3.52100 34.24800 22.48800
H  -3.09500 37.33300 23.67200
H  -3.91000 36.57200 22.40000
H  -2.49200 37.31200 21.88600
H  -1.57800 33.08000 21.42100
H  -2.13500 31.99100 22.52500
H  -0.00600 31.71900 23.14700
H  -0.27900 33.09300 24.25500
H  0.39100 33.35700 22.74800
H  -6.87700 30.89600 25.71200
H  -5.71400 29.57300 26.09900
H  -5.51900 30.54700 24.64700
H  -4.29600 30.88200 30.87700
H  -7.07500 33.30200 33.50400
H  -6.97300 31.68400 34.11700
H  -8.03400 32.16200 32.62200

