158

Mg 41.02800 8.09600 29.08200
C  42.64200 9.06900 32.01600
C  38.66600 6.68400 31.01000
C  39.50500 6.85400 26.21600
C  43.66900 9.30400 27.16100
N  40.69000 8.10200 31.28600
C  41.45500 8.45900 32.30400
C  40.69500 8.31700 33.67500
C  39.41600 7.53700 33.31500
C  39.60700 7.45200 31.77300
C  39.28300 6.08900 33.93300
C  40.32700 9.75300 34.21900
C  39.30400 9.93700 35.29300
H  39.75000 10.93700 36.40000
N  39.27100 6.95900 28.70500
C  38.43100 6.41400 29.67200
C  37.44200 5.67900 29.02900
C  37.57800 5.87800 27.65900
C  38.82700 6.59100 27.48700
C  36.36100 5.05800 29.79100
C  36.53500 5.59300 26.55400
O  36.74900 5.92000 25.38900
C  35.15900 4.95300 26.88700
N  41.45900 8.15800 26.89500
C  40.78400 7.52000 25.98300
C  41.50300 7.61300 24.64500
C  42.78000 8.52500 24.94400
C  42.66100 8.70000 26.44400
C  41.93400 6.20300 24.02400
C  43.01000 9.78200 24.02600
C  42.93900 11.15000 24.63200
N  42.85500 8.99300 29.42000
C  43.81500 9.44800 28.52300
C  44.94700 10.01200 29.29900
C  44.44200 9.98600 30.64900
C  43.25600 9.28400 30.67200
C  46.17500 10.75200 28.79100
C  44.79700 10.37800 32.04300
O  45.80700 10.89300 32.47600
C  43.57500 9.85500 32.96100
C  44.19000 9.06700 34.01900
O  44.95300 8.11200 33.80500
O  43.55200 9.31200 35.17700
C  43.84100 8.36800 36.30400
H  37.97400 6.14600 31.66100
H  39.14800 6.45600 25.26400
H  44.39000 9.70400 26.44500
H  41.22600 7.84700 34.50300
H  38.49100 8.08200 33.50400
H  39.54500 5.27800 33.25300
H  38.24000 5.94600 34.21400
H  39.80900 6.10300 34.88700
H  40.12600 10.41200 33.37400
H  41.26000 10.10600 34.65900
H  38.78400 9.09200 35.74400
H  38.49800 10.50500 34.82700
H  36.54700 5.09200 30.86400
H  36.27600 3.99600 29.56000
H  35.43700 5.61400 29.63200
H  35.13200 4.05300 27.50100
H  34.73700 4.56600 25.96000
H  34.49900 5.78100 27.14500
H  40.91400 8.03400 23.83100
H  43.63200 7.84500 24.92300
H  41.39800 6.05200 23.08700
H  41.74000 5.43300 24.77000
H  42.99300 6.05000 23.81500
H  42.27600 9.63300 23.23400
H  44.01700 9.73400 23.61100
H  42.53500 10.99400 25.63200
H  42.25700 11.78500 24.06700
H  43.88600 11.68900 24.61200
H  45.92900 11.45600 27.99600
H  46.79800 10.05600 28.23000
H  46.72900 11.25200 29.58600
H  43.08700 10.74800 33.35100
H  44.89600 8.43900 36.56900
H  43.59500 7.31900 36.14200
H  43.21000 8.76500 37.09900
Mg 47.92900 15.46100 28.33200
C  45.64500 14.91900 31.19700
C  50.00000 16.86700 30.55700
C  49.75200 16.15200 25.72300
C  45.40900 14.04400 26.34800
N  47.64700 15.95600 30.61500
C  46.75100 15.56900 31.57200
C  47.15900 16.08400 32.97300
C  48.39500 16.98000 32.58300
C  48.78300 16.49000 31.19400
C  48.21800 18.47400 32.65700
C  47.40600 14.98600 33.99900
C  46.78400 15.01200 35.39600
H  46.49700 16.22200 36.15600
N  49.71600 16.37300 28.15300
C  50.47100 16.87800 29.20700
C  51.68800 17.44000 28.63300
C  51.59500 17.14200 27.23000
C  50.28400 16.52400 26.96800
C  52.67500 18.24200 29.40500
C  52.65000 17.30500 26.08000
O  52.46500 16.99100 24.93200
C  54.00400 17.73000 26.52500
N  47.56200 15.20800 26.30500
C  48.52900 15.52000 25.40100
C  48.08600 15.27400 23.98000
C  46.77800 14.53900 24.17100
C  46.48000 14.62600 25.67700
C  47.81600 16.59300 23.21100
C  46.74100 13.03300 23.76300
C  46.07700 12.76300 22.41600
N  45.94600 14.64900 28.62800
C  45.12900 13.98500 27.72600
C  43.96100 13.45900 28.43800
C  44.20500 13.67600 29.79000
C  45.36200 14.51500 29.89600
C  42.70700 13.01000 27.86200
C  43.61500 13.51900 31.10200
O  42.61700 12.82800 31.37200
C  44.52200 14.37500 32.11400
C  43.66100 15.52300 32.58700
O  43.32800 16.47300 31.94000
O  43.20300 15.23000 33.82700
C  42.62900 16.34800 34.50400
H  50.60800 17.28500 31.36200
H  50.24100 16.56300 24.83800
H  44.65600 13.53400 25.74400
H  46.32900 16.66500 33.37500
H  49.15100 16.75500 33.33500
H  47.17100 18.76800 32.73100
H  48.59600 18.91800 31.73600
H  48.71500 18.86000 33.54700
H  48.46800 14.90100 34.22800
H  47.12500 14.03400 33.54700
H  47.24600 14.20800 35.96900
H  45.82900 14.55100 35.14500
H  53.66600 17.85900 29.16100
H  52.36400 18.37300 30.44100
H  52.57900 19.26200 29.03100
H  54.47500 16.88800 27.03000
H  54.09500 18.62000 27.14700
H  54.51000 17.81200 25.56200
H  48.88700 14.68100 23.53900
H  45.92900 15.06800 23.73700
H  48.07700 17.44600 23.83700
H  46.77700 16.73100 22.91200
H  48.39200 16.67900 22.29000
H  46.12500 12.56600 24.53200
H  47.73600 12.58700 23.76300
H  45.67600 13.70500 22.03900
H  45.25300 12.05100 22.45800
H  46.71800 12.35200 21.63600
H  41.79100 12.95200 28.44900
H  42.98700 12.03700 27.45800
H  42.48600 13.63400 26.99600
H  44.83900 13.83300 33.00500
H  41.74200 16.60900 33.92700
H  43.18500 17.27300 34.65100
H  42.19600 16.06300 35.46400

