158

Mg 47.90500 14.34200 28.05700
C  45.89200 14.38400 30.78400
C  50.14900 16.42900 29.71300
C  49.75800 14.47700 25.26600
C  45.38100 12.89400 26.16100
N  47.91800 15.42800 29.94200
C  47.00800 15.21300 30.97200
C  47.43600 15.93900 32.25000
C  48.63400 16.77700 31.73200
C  48.94300 16.19900 30.33100
C  48.40400 18.35500 31.69500
C  47.69900 14.80000 33.29000
C  47.04400 15.04800 34.70900
H  47.91300 14.85100 35.99000
N  49.80200 15.21100 27.62900
C  50.59800 15.94200 28.40000
C  51.81000 16.20700 27.74100
C  51.79000 15.58100 26.53600
C  50.40600 15.06700 26.40500
C  52.96600 17.10400 28.32900
C  52.87300 15.39700 25.47300
O  52.69100 14.80500 24.42400
C  54.21200 15.87500 25.72000
N  47.60400 13.75500 26.06200
C  48.51200 13.92300 25.06900
C  48.20700 13.28400 23.72300
C  46.75400 12.70300 24.05200
C  46.55500 13.13600 25.50900
C  48.12800 14.22100 22.54300
C  46.73900 11.11100 23.80300
C  47.85600 10.13700 24.33900
N  45.98200 13.73500 28.32000
C  45.07200 13.20000 27.50000
C  43.88000 12.79800 28.27400
C  44.15000 13.29100 29.54600
C  45.42700 13.84400 29.49100
C  42.84100 11.92700 27.63100
C  43.70200 13.31100 30.90300
O  42.68900 12.85700 31.42500
C  44.77900 13.98800 31.81600
C  44.03800 15.15300 32.47200
O  43.72800 16.22500 31.92400
O  43.76400 14.85800 33.78300
C  43.31700 15.92700 34.60700
H  50.80900 17.06500 30.30600
H  50.26900 14.49900 24.30100
H  44.54200 12.43000 25.63800
H  46.60000 16.57100 32.55100
H  49.46900 16.48100 32.36600
H  47.48600 18.63200 32.21100
H  48.42400 18.73100 30.67200
H  49.22700 18.89400 32.16500
H  48.77400 14.66900 33.40900
H  47.24300 13.85500 32.99500
H  46.21500 14.34100 34.69500
H  46.62800 16.05500 34.70100
H  53.88900 16.52500 28.34000
H  52.53800 17.45200 29.26900
H  53.09300 17.92400 27.62200
H  54.12000 16.93700 25.95000
H  54.85600 15.86000 24.84100
H  54.76000 15.29000 26.45900
H  48.92700 12.51200 23.45300
H  45.90000 13.14700 23.54200
H  47.41200 15.01700 22.74600
H  47.75300 13.66600 21.68300
H  49.05700 14.69500 22.22600
H  46.73400 11.03600 22.71500
H  45.76200 10.70700 24.06800
H  48.29700 9.58000 23.51300
H  47.45200 9.39800 25.03100
H  48.56500 10.79900 24.83600
H  43.20100 10.94000 27.33900
H  42.32100 12.42000 26.81000
H  42.12700 11.63400 28.40000
H  45.15100 13.25300 32.53000
H  43.27600 15.50400 35.61000
H  42.36100 16.18600 34.15000
H  44.00300 16.77300 34.64700
Mg -1.40400 34.67000 26.76900
C  -2.91100 32.59300 29.23000
C  -0.36600 36.67900 29.32300
C  -0.58200 36.94500 24.52200
C  -2.97300 32.70300 24.36400
N  -1.66000 34.65900 29.00600
C  -2.27400 33.71200 29.82100
C  -1.98100 34.00800 31.32700
C  -1.24600 35.40200 31.29800
C  -1.16600 35.67400 29.77300
C  -1.98900 36.46600 32.16400
C  -1.25800 32.85000 32.04900
C  -2.01200 32.21200 33.22000
H  -1.16900 31.71800 34.36200
N  -0.55700 36.54600 26.91600
C  -0.09400 37.12800 28.02000
C  0.60800 38.35500 27.68000
C  0.59300 38.44400 26.28500
C  -0.21700 37.29500 25.82500
C  1.40700 39.16700 28.69600
C  1.23100 39.51500 25.37300
O  1.03000 39.53000 24.15500
C  2.14600 40.55400 25.99100
N  -2.02800 34.90300 24.79800
C  -1.47300 35.89300 24.07800
C  -1.75900 35.74000 22.57300
C  -2.25200 34.21400 22.51900
C  -2.39900 33.86600 24.00400
C  -2.77700 36.81100 21.94500
C  -1.40600 33.27900 21.70200
C  0.07100 33.15000 22.14300
N  -2.75500 33.00000 26.73800
C  -3.14900 32.29200 25.69400
C  -3.92300 31.17300 26.16800
C  -3.81100 31.17100 27.57300
C  -3.11200 32.35300 27.88600
C  -4.60900 30.18000 25.25500
C  -4.11500 30.50900 28.79500
O  -4.66800 29.45200 28.99300
C  -3.56400 31.38300 29.92200
C  -4.74100 31.63300 30.82700
O  -5.47600 32.63600 30.78300
O  -4.79600 30.64400 31.71700
C  -5.69500 30.80700 32.79900
H  0.01700 37.19400 30.20700
H  -0.24100 37.64300 23.75500
H  -3.24600 32.11200 23.48800
H  -2.98400 34.21300 31.70200
H  -0.22300 35.34000 31.66800
H  -2.79800 36.99000 31.65600
H  -1.24000 37.13900 32.58200
H  -2.42500 36.01200 33.05400
H  -0.28500 33.24300 32.34600
H  -1.00000 32.00100 31.41700
H  -2.38000 31.31400 32.72300
H  -2.86200 32.78200 33.59400
H  0.91000 40.13600 28.74800
H  2.44200 39.33400 28.39800
H  1.33700 38.68100 29.66900
H  2.38600 41.38500 25.32700
H  3.05400 40.03100 26.29200
H  1.58300 41.06500 26.77200
H  -0.84100 35.91700 22.01200
H  -3.25600 34.16400 22.09800
H  -3.52400 36.57500 21.18700
H  -2.17700 37.50500 21.35700
H  -3.20700 37.34400 22.79200
H  -1.43500 33.60500 20.66200
H  -1.73100 32.26500 21.93800
H  0.65700 33.18100 21.22400
H  0.21200 32.24100 22.72800
H  0.40000 33.86500 22.89700
H  -4.46900 30.40100 24.19700
H  -5.67900 30.32200 25.40700
H  -4.19000 29.20400 25.49900
H  -2.80900 30.77700 30.42300
H  -6.71100 31.04500 32.48200
H  -5.39300 31.51700 33.56900
H  -5.71500 29.82800 33.27700

