158

Mg -3.18000 17.09100 26.60300
C  -3.45200 14.96800 29.42200
C  -3.81800 19.75600 28.66200
C  -2.93000 18.96700 23.89900
C  -2.90900 14.22600 24.61900
N  -3.67900 17.29800 28.80000
C  -3.67900 16.30800 29.71200
C  -3.84000 16.90500 31.17200
C  -3.98400 18.44000 30.87100
C  -3.79300 18.51200 29.32600
C  -5.32900 19.06200 31.33300
C  -2.70700 16.42300 32.11300
C  -2.09700 17.42900 33.07400
H  -1.58700 16.89600 34.47000
N  -3.25700 19.08000 26.32300
C  -3.52600 20.05300 27.30800
C  -3.32000 21.35400 26.74100
C  -2.91600 21.11100 25.35500
C  -3.01100 19.65400 25.11500
C  -3.62000 22.61000 27.53000
C  -2.34500 22.02300 24.38000
O  -2.00700 21.78000 23.23900
C  -2.07100 23.44200 24.78700
N  -3.09400 16.58900 24.47100
C  -3.00300 17.61400 23.61700
C  -2.80100 17.07900 22.23500
C  -2.41700 15.54600 22.44200
C  -2.82600 15.39000 23.88500
C  -3.87300 17.47600 21.21500
C  -0.97800 15.13800 21.98500
C  0.21600 15.57900 22.85900
N  -3.32200 15.06200 26.84200
C  -3.09900 13.99200 25.97300
C  -3.31100 12.67300 26.58800
C  -3.37700 13.02200 27.96400
C  -3.40700 14.48200 28.08200
C  -3.17600 11.29100 25.96800
C  -3.49900 12.52900 29.34900
O  -3.61800 11.34600 29.73000
C  -3.53500 13.75600 30.32800
C  -2.44800 13.47200 31.38300
O  -1.20400 13.59900 31.30200
O  -2.98000 13.05200 32.54500
C  -2.14900 13.07400 33.75200
H  -3.98700 20.54400 29.39800
H  -2.59800 19.58100 23.05900
H  -2.65100 13.28800 24.12300
H  -4.74100 16.40400 31.52500
H  -3.22500 19.05600 31.35400
H  -6.05000 18.36800 31.76500
H  -5.90800 19.44400 30.49200
H  -5.09900 19.86900 32.02900
H  -1.83300 16.05900 31.57300
H  -3.13400 15.66100 32.76400
H  -2.80500 18.21400 33.33900
H  -1.17800 17.92900 32.77000
H  -4.29900 22.35100 28.34300
H  -4.22000 23.21100 26.84700
H  -2.69300 23.09400 27.83800
H  -3.05600 23.86400 24.98300
H  -1.55500 23.98100 23.99200
H  -1.33600 23.50000 25.59000
H  -1.90500 17.60200 21.90100
H  -3.08600 14.92800 21.84300
H  -4.40300 18.37100 21.53900
H  -4.56500 16.67700 20.94800
H  -3.48500 17.77900 20.24200
H  -0.72300 15.73500 21.10900
H  -0.97400 14.06800 21.77500
H  -0.22400 15.78100 23.83600
H  0.79900 16.43100 22.51100
H  0.95300 14.77900 22.92300
H  -2.95900 11.36000 24.90200
H  -4.05700 10.66900 26.12700
H  -2.39700 10.76000 26.51600
H  -4.54200 13.80700 30.74000
H  -2.14100 14.07900 34.17300
H  -1.11400 12.79800 33.55100
H  -2.68300 12.42500 34.44600
Mg 9.92400 46.89000 25.71100
C  7.18400 47.16200 28.13900
C  12.03100 48.12400 27.89400
C  12.14600 46.92700 23.17900
C  7.36700 46.42600 23.30700
N  9.64900 47.42500 27.86500
C  8.49000 47.41800 28.67200
C  8.89000 47.88800 30.10000
C  10.42600 48.29600 30.01000
C  10.71700 48.00500 28.51300
C  10.79900 49.77200 30.40500
C  8.60300 46.84900 31.33400
C  9.28400 46.88300 32.69500
H  8.38500 46.57600 33.88600
N  11.77300 47.32400 25.62700
C  12.52900 47.78600 26.64500
C  13.85300 47.83700 26.32600
C  13.97100 47.41800 24.95100
C  12.58300 47.26000 24.42700
C  15.00800 48.27200 27.20500
C  15.21000 47.13800 24.03800
O  15.07600 46.78600 22.87700
C  16.58500 47.15900 24.56400
N  9.75500 46.65500 23.52200
C  10.82200 46.69300 22.73900
C  10.48800 46.31800 21.24500
C  8.92100 46.22000 21.38800
C  8.65700 46.41200 22.84200
C  11.12400 47.26900 20.13900
C  8.38000 44.78200 20.83400
C  7.01800 44.91100 20.00000
N  7.71100 46.83100 25.72800
C  6.91800 46.58600 24.60900
C  5.54800 46.53900 25.08300
C  5.58800 46.78300 26.51400
C  6.92700 46.87000 26.79600
C  4.36700 46.44700 24.17700
C  4.77000 46.91700 27.72700
O  3.57300 46.75200 27.92100
C  5.78000 47.30300 28.75800
C  5.64600 46.34600 29.87300
O  5.88300 45.15300 29.80600
O  5.19500 47.00600 30.98900
C  4.72200 46.15800 32.07000
H  12.65200 48.47500 28.72100
H  12.90300 46.92500 22.39200
H  6.58400 46.46000 22.54700
H  8.30200 48.78900 30.27800
H  11.01200 47.56300 30.56500
H  9.90700 50.35900 30.62900
H  11.16900 50.33600 29.54800
H  11.41500 49.87300 31.29800
H  8.83000 45.85500 30.94800
H  7.52300 46.96100 31.43200
H  9.85900 47.78800 32.89400
H  9.95600 46.02600 32.73100
H  14.60500 48.77800 28.08100
H  15.53500 49.05500 26.65900
H  15.61400 47.49200 27.66800
H  16.55100 48.00200 25.25400
H  17.26300 47.41900 23.75100
H  16.87100 46.17700 24.94200
H  11.04700 45.38300 21.22100
H  8.53800 47.05500 20.80100
H  10.33000 47.94500 19.82300
H  11.38100 46.57400 19.33900
H  11.99100 47.81700 20.50900
H  8.23300 44.09200 21.66600
H  9.05400 44.31200 20.11800
H  6.94600 44.27100 19.12000
H  6.83900 45.92800 19.65200
H  6.25300 44.67900 20.74200
H  4.68600 45.89500 23.29300
H  3.88000 47.38100 23.89700
H  3.65700 45.86400 24.76400
H  5.67500 48.26600 29.25800
H  4.13800 46.78100 32.74800
H  5.43500 45.59100 32.66700
H  4.02700 45.48700 31.56500

