158

Mg 2.38400 -1.23700 44.76100
C  5.54600 0.12300 44.25700
C  1.01400 1.41400 42.89200
C  -0.41100 -2.99000 44.48500
C  4.12400 -4.27000 45.85400
N  3.09800 0.47700 43.66300
C  4.46000 0.88800 43.67300
C  4.64000 2.13600 42.79800
C  3.18400 2.67400 42.52300
C  2.35300 1.44200 43.03900
C  2.82000 4.08300 43.18800
C  5.52900 1.88500 41.49200
C  6.47700 2.96200 41.14700
H  6.19100 3.55600 39.74800
N  0.54200 -0.85500 43.89400
C  0.08700 0.33200 43.27100
C  -1.37500 0.32400 43.23600
C  -1.71200 -0.97300 43.61800
C  -0.55200 -1.66500 44.03400
C  -2.18000 1.51400 42.71500
C  -3.18100 -1.48100 43.60100
O  -4.00800 -0.70300 43.19400
C  -3.62500 -2.76400 44.12300
N  1.97000 -3.39700 44.94400
C  0.66100 -3.76000 44.93700
C  0.47700 -5.15200 45.63900
C  1.89400 -5.65700 45.60800
C  2.76400 -4.36700 45.55200
C  -0.19800 -5.01700 47.05200
C  2.33700 -6.58000 44.42600
C  2.33100 -8.06100 44.68900
N  4.40100 -1.92600 45.19300
C  4.92200 -3.16800 45.52500
C  6.32400 -3.07800 45.70100
C  6.64300 -1.77300 45.24800
C  5.45000 -1.17300 44.83300
C  7.28500 -4.10400 46.19300
C  7.74200 -0.85300 45.08400
O  8.93500 -0.95700 45.28600
C  7.04100 0.41000 44.34600
C  7.32100 1.65700 45.16700
O  6.71000 2.03600 46.15500
O  8.43600 2.31800 44.67700
C  9.04000 3.40000 45.44700
H  0.46300 2.28800 42.53700
H  -1.37400 -3.49300 44.37800
H  4.64500 -5.15500 46.22400
H  5.23000 2.80700 43.42300
H  3.09400 2.69800 41.43700
H  3.64500 4.56000 43.71700
H  1.96600 3.91300 43.84400
H  2.64000 4.79000 42.37800
H  4.81500 1.77300 40.67600
H  6.09400 0.95300 41.46600
H  7.44100 2.48000 40.98800
H  6.57900 3.69000 41.95100
H  -1.86400 1.68000 41.68600
H  -1.75100 2.33900 43.28400
H  -3.27000 1.49500 42.72000
H  -4.70800 -2.66600 44.05400
H  -3.29600 -2.91900 45.15000
H  -3.26500 -3.47400 43.37800
H  -0.12700 -5.72000 44.93200
H  2.17200 -6.23400 46.49000
H  -0.57700 -3.99900 47.14500
H  0.54400 -5.38200 47.76200
H  -1.01400 -5.74000 47.04300
H  3.34200 -6.31200 44.10000
H  1.55700 -6.41200 43.68400
H  1.97900 -8.31600 45.68900
H  3.37500 -8.36600 44.61200
H  1.74300 -8.59200 43.94100
H  8.31000 -3.73400 46.22100
H  7.16000 -4.93000 45.49300
H  7.00900 -4.43000 47.19600
H  7.49500 0.56700 43.36800
H  10.05300 3.01700 45.56700
H  8.57000 3.52500 46.42200
H  9.17900 4.35400 44.93700
Mg 48.25700 34.13600 27.01800
C  46.32000 32.53900 29.44300
C  48.54700 36.76700 29.05400
C  49.79000 35.59400 24.50600
C  47.33500 31.37700 24.78400
N  47.54400 34.51700 29.10100
C  46.89900 33.70300 29.92800
C  46.93500 34.18500 31.37300
C  47.17200 35.66000 31.09400
C  47.90700 35.64200 29.65300
C  45.94000 36.50800 31.18200
C  48.10300 33.56300 32.22000
C  48.35700 34.08800 33.64000
H  47.24800 34.85100 34.43300
N  49.16200 35.86500 26.86500
C  49.18700 36.87000 27.81400
C  50.00600 38.01600 27.24200
C  50.32200 37.70100 25.90900
C  49.73400 36.36000 25.74400
C  50.29100 39.32100 28.09100
C  51.17800 38.49500 24.85400
O  51.51300 38.05800 23.74900
C  51.52500 39.91500 25.20800
N  48.44500 33.63100 24.89800
C  49.15500 34.39600 24.15800
C  49.28200 33.84700 22.78100
C  48.68500 32.39500 22.93900
C  48.07600 32.46400 24.28200
C  48.79100 34.64200 21.58300
C  49.64400 31.19200 22.69400
C  50.49400 31.25300 21.43300
N  46.88900 32.44200 26.94500
C  46.68600 31.36800 26.01500
C  45.88100 30.39100 26.70200
C  45.68000 30.83100 27.99500
C  46.35500 32.07800 28.09700
C  45.53800 29.00800 26.12800
C  45.10300 30.42800 29.31900
O  44.52500 29.40300 29.67200
C  45.41300 31.64600 30.20300
C  45.72200 31.09400 31.55300
O  46.69400 30.39500 31.76600
O  44.77100 31.44600 32.45300
C  45.12800 31.09700 33.82300
H  48.43900 37.76300 29.48800
H  50.28800 36.02500 23.63600
H  47.08400 30.53600 24.13500
H  46.01700 34.00500 31.93300
H  47.77600 36.16900 31.84500
H  45.98200 37.28800 30.42200
H  45.86600 37.10900 32.08800
H  44.98100 36.00100 31.07700
H  49.07900 33.66400 31.74400
H  47.98900 32.48000 32.27100
H  49.24400 34.72100 33.59600
H  48.50700 33.16800 34.20400
H  51.35200 39.53800 28.21200
H  49.98100 39.17700 29.12600
H  49.69300 40.09900 27.61500
H  52.04000 40.08800 26.15300
H  50.54100 40.37300 25.10800
H  52.03100 40.40100 24.37400
H  50.36800 33.77100 22.72800
H  47.82800 32.15800 22.30800
H  48.04600 34.09200 21.00800
H  49.67200 34.85500 20.97700
H  48.27400 35.52100 21.96900
H  49.09600 30.25200 22.76000
H  50.30300 31.22600 23.56200
H  50.21200 30.39300 20.82600
H  51.53600 30.99500 21.61900
H  50.36000 32.12500 20.79200
H  45.69700 29.10100 25.05400
H  44.49300 28.79400 26.35400
H  46.30100 28.26700 26.36900
H  44.53700 32.28800 30.29600
H  45.98300 31.61800 34.25600
H  45.38400 30.03800 33.83500
H  44.29000 31.30000 34.49000

