158

Mg 34.37800 3.21600 29.10000
C  32.25800 4.33900 31.60800
C  36.82900 2.73800 31.31200
C  36.38100 2.26900 26.60700
C  31.73600 3.44600 26.83600
N  34.50700 3.54100 31.25300
C  33.49100 3.89200 32.08900
C  33.91900 3.83900 33.55500
C  35.46300 3.63900 33.37500
C  35.60500 3.27000 31.88200
C  36.34500 4.85400 33.65900
C  33.20700 2.79000 34.32300
C  32.86800 3.03100 35.79800
H  33.70400 4.07500 36.54000
N  36.38800 2.59400 29.01000
C  37.24200 2.47800 30.00300
C  38.50100 1.97000 29.50500
C  38.35100 1.76300 28.15000
C  36.95700 2.22700 27.86100
C  39.61900 1.69100 30.37400
C  39.33300 1.15300 27.14500
O  39.07700 1.02700 25.94700
C  40.68600 0.60700 27.60200
N  34.06700 2.73700 27.06300
C  35.08400 2.55000 26.22000
C  34.59600 2.35800 24.77300
C  32.99400 2.42900 24.89100
C  32.90600 2.90100 26.32000
C  35.18800 3.18300 23.71200
C  32.33100 1.01200 24.78200
C  31.01300 1.10200 23.87900
N  32.40600 3.82800 29.10900
C  31.46300 3.86000 28.13300
C  30.19400 4.36200 28.72300
C  30.46100 4.56500 30.08200
C  31.82400 4.23200 30.21400
C  28.87100 4.38100 27.99800
C  29.85200 4.87200 31.34500
O  28.70200 5.21000 31.58500
C  30.99900 4.79400 32.35800
C  31.19200 6.14900 32.88700
O  31.19800 7.20900 32.18100
O  31.10400 6.04400 34.29400
C  30.92700 7.32800 34.98100
H  37.58400 2.70200 32.10000
H  37.06800 1.97800 25.80900
H  30.94500 3.49200 26.08400
H  33.75300 4.82600 33.98700
H  35.80100 2.79700 33.97800
H  35.75900 5.52500 34.28700
H  36.67000 5.25800 32.70000
H  37.23700 4.44900 34.13700
H  33.83300 1.90200 34.40100
H  32.45700 2.37300 33.65000
H  33.07000 2.17000 36.43600
H  31.81200 3.27600 35.90700
H  39.34300 1.96300 31.39300
H  40.45100 2.29700 30.01400
H  39.80400 0.61700 30.37600
H  41.51600 0.34900 26.94400
H  40.40400 -0.20500 28.27300
H  41.24700 1.37800 28.12900
H  35.02500 1.37700 24.56600
H  32.62400 3.17000 24.18300
H  36.11900 3.61900 24.07500
H  34.45100 3.93500 23.43200
H  35.36200 2.60000 22.80700
H  32.18700 0.53500 25.75200
H  33.10800 0.37100 24.36400
H  30.55000 2.08900 23.88600
H  30.24500 0.42500 24.25100
H  31.18300 0.91000 22.81900
H  28.82700 3.59700 27.24100
H  28.82200 5.41400 27.65500
H  28.05200 4.13400 28.67400
H  30.82700 4.14200 33.21400
H  31.76300 7.94600 34.65500
H  30.96200 7.19200 36.06200
H  30.04300 7.85200 34.61700
Mg 10.11600 46.99400 26.31700
C  8.06400 47.26400 29.12700
C  12.50000 48.75300 27.88500
C  11.92000 46.86300 23.44600
C  7.34000 45.72600 24.56200
N  10.26300 47.81400 28.28800
C  9.40800 47.68400 29.36500
C  10.01000 48.34600 30.62100
C  11.25500 49.15000 30.05000
C  11.38000 48.51800 28.65700
C  11.04500 50.67300 29.81900
C  10.36700 47.21900 31.60700
C  10.11800 47.50900 33.07600
H  9.75400 46.28100 34.01200
N  11.96400 47.64000 25.80700
C  12.80400 48.33500 26.59500
C  14.09900 48.49000 25.90500
C  13.90700 47.95500 24.57600
C  12.53000 47.44700 24.55600
C  15.33900 49.01700 26.62500
C  15.00100 47.67400 23.54500
O  14.81000 46.96600 22.52800
C  16.35100 48.35000 23.65100
N  9.66600 46.45500 24.31900
C  10.61200 46.40800 23.39500
C  10.10500 45.76200 22.10700
C  8.66600 45.28700 22.53800
C  8.56600 45.84700 23.91400
C  10.15600 46.55000 20.79600
C  8.52300 43.70700 22.48700
C  9.55900 42.98400 23.41800
N  8.02200 46.57400 26.64300
C  7.02500 46.12100 25.81900
C  5.75200 46.10200 26.66600
C  6.17100 46.42700 27.92800
C  7.53300 46.75000 27.89400
C  4.35100 45.68800 26.24400
C  5.71400 46.56300 29.31100
O  4.61800 46.30900 29.78700
C  6.89300 47.10600 30.05700
C  7.15100 46.05000 31.12200
O  7.77200 45.01300 30.90400
O  6.39800 46.24500 32.26500
C  5.99000 45.13500 33.14900
H  13.24700 49.34300 28.42100
H  12.49000 46.66000 22.53700
H  6.50000 45.33800 23.98200
H  9.28000 48.95600 31.15200
H  12.16700 49.03100 30.63500
H  10.32900 50.72800 28.99900
H  11.94700 51.05800 29.34200
H  10.94300 51.20900 30.76300
H  11.45100 47.11100 31.63300
H  9.96600 46.25600 31.29300
H  9.35000 48.26400 33.24200
H  11.06100 47.82200 33.52500
H  15.00900 49.32200 27.61800
H  15.73200 49.91500 26.14800
H  16.03100 48.17500 26.63000
H  16.91000 48.03800 24.53300
H  16.06400 49.39900 23.57900
H  16.90700 48.20000 22.72500
H  10.76000 44.89900 21.98500
H  7.86900 45.70700 21.92500
H  9.25500 47.13400 20.60400
H  10.19500 45.91600 19.91000
H  10.98400 47.25400 20.71900
H  8.60700 43.42900 21.43600
H  7.56300 43.28500 22.78300
H  10.09100 43.69200 24.05300
H  10.33200 42.56600 22.77300
H  9.23600 42.09600 23.96100
H  3.97700 46.55000 25.69200
H  3.73100 45.59100 27.13500
H  4.33000 44.90300 25.48800
H  6.67300 48.05000 30.55600
H  6.17900 45.59100 34.12000
H  6.69600 44.30800 33.07000
H  4.91800 44.99300 33.01000

