158

Mg 8.27700 3.72800 27.95000
C  9.97900 2.33600 30.58000
C  6.71700 5.87300 30.07300
C  6.57000 4.87900 25.27000
C  9.97900 1.50700 25.88400
N  8.10800 3.94800 30.08100
C  9.00800 3.25900 30.96500
C  9.01300 3.86300 32.35900
C  7.86000 4.92200 32.22100
C  7.50100 4.92600 30.72000
C  6.57500 4.73300 33.16900
C  10.36200 4.50800 32.83200
C  11.14000 3.81300 33.97600
H  11.22100 4.57900 35.30100
N  6.83100 5.18300 27.69700
C  6.30000 5.99700 28.67300
C  5.27300 6.79700 28.03400
C  5.23100 6.58000 26.65200
C  6.25100 5.44600 26.47100
C  4.46500 7.81600 28.89700
C  4.36000 7.21400 25.51800
O  4.53400 6.89000 24.34200
C  3.41400 8.34400 25.81200
N  8.28500 3.23900 25.88900
C  7.50200 3.89200 24.97000
C  7.86200 3.57600 23.50900
C  9.04800 2.56700 23.76600
C  9.05200 2.37500 25.29400
C  6.66200 3.00400 22.70400
C  10.44400 2.98400 23.09500
C  11.14600 1.96200 22.08100
N  9.58900 2.13300 28.16500
C  10.15000 1.29900 27.21500
C  11.09300 0.41000 27.85400
C  11.06100 0.80900 29.20600
C  10.12500 1.85700 29.33600
C  11.91700 -0.67800 27.23400
C  11.55800 0.45800 30.48400
O  12.37800 -0.38900 30.73800
C  10.88400 1.40400 31.50100
C  10.08900 0.61800 32.54300
O  8.92500 0.21200 32.49800
O  10.97600 0.37000 33.54600
C  10.34100 -0.20500 34.69400
H  6.17200 6.51200 30.76900
H  6.07900 5.22900 24.36000
H  10.46600 0.89900 25.11800
H  8.69400 3.16600 33.13400
H  8.29000 5.90000 32.43900
H  5.69500 4.63400 32.53400
H  6.57700 5.53800 33.90300
H  6.54300 3.86900 33.83300
H  10.13400 5.52800 33.14200
H  11.02300 4.50000 31.96500
H  12.15100 3.48400 33.73600
H  10.63600 2.87800 34.21900
H  4.74300 7.68600 29.94300
H  3.44600 7.50600 28.66900
H  4.73400 8.81700 28.55900
H  2.66400 8.19300 26.58900
H  2.97300 8.80400 24.92900
H  4.07800 9.14600 26.13400
H  8.14700 4.58500 23.21200
H  8.90400 1.53600 23.44400
H  5.79700 2.96700 23.36700
H  6.80600 1.95800 22.43500
H  6.55200 3.61100 21.80500
H  11.05600 3.21500 23.96700
H  10.26900 3.94900 22.62000
H  11.08600 2.37000 21.07200
H  10.65100 0.99300 22.02400
H  12.21200 1.90800 22.30000
H  12.30400 -0.18800 26.34000
H  11.46900 -1.64000 26.98800
H  12.71000 -0.88100 27.95400
H  11.71600 1.98600 31.89700
H  9.65600 -0.99400 34.38400
H  9.79800 0.57000 35.23600
H  11.11000 -0.55500 35.38200
Mg 7.30600 54.10100 41.69300
C  6.73800 50.66800 40.99600
C  10.46900 53.81700 40.19700
C  7.52000 57.46700 41.41700
C  3.99600 54.28100 42.70800
N  8.34600 52.48400 40.47900
C  7.90100 51.18900 40.45500
C  8.96800 50.41200 39.69400
C  10.29300 51.24200 39.88400
C  9.70400 52.62500 40.18900
C  11.28900 50.72200 40.94900
C  8.51200 50.17900 38.20200
C  8.71300 48.76000 37.56600
H  7.98200 48.36500 36.28500
N  8.81800 55.48300 41.00600
C  10.12000 55.15000 40.55200
C  10.86200 56.31500 40.24700
C  10.03800 57.43400 40.67100
C  8.68900 56.85700 41.01900
C  12.27000 56.31000 39.58000
C  10.40800 58.90500 40.72000
O  11.54400 59.19800 40.38200
C  9.55300 59.99900 41.29200
N  5.94000 55.60800 41.87400
C  6.26400 56.95200 41.77700
C  5.24700 57.86000 42.49800
C  4.01100 56.84100 42.67400
C  4.65800 55.49400 42.38600
C  5.80200 58.41000 43.82000
C  2.91800 57.23300 41.66500
C  2.15100 58.50300 42.11300
N  5.74800 52.77000 41.96300
C  4.47400 53.02200 42.47500
C  3.75200 51.79500 42.71000
C  4.62000 50.83200 42.14000
C  5.70100 51.49000 41.61000
C  2.37000 51.76500 43.40600
C  4.70900 49.41300 41.88700
O  3.96300 48.43100 42.15600
C  6.06200 49.27100 40.97200
C  5.68200 48.58600 39.71600
O  5.31300 49.17700 38.70700
O  5.74800 47.22900 39.86700
C  5.37700 46.29900 38.81400
H  11.52300 53.68000 39.94400
H  7.67100 58.54800 41.38300
H  3.04500 54.56700 43.16200
H  9.08200 49.42400 40.14200
H  10.92000 51.24000 38.99300
H  10.87000 49.84300 41.43700
H  11.54000 51.52100 41.64700
H  12.23300 50.49600 40.45200
H  9.02500 50.98300 37.67300
H  7.47000 50.45900 38.05100
H  8.43300 47.96500 38.25600
H  9.73200 48.63300 37.19900
H  12.88600 57.18100 39.80200
H  12.22600 56.09000 38.51300
H  12.80100 55.54600 40.14800
H  9.24400 59.76600 42.31100
H  8.66600 60.14200 40.67500
H  10.17200 60.89300 41.36400
H  4.95700 58.72000 41.89500
H  3.57600 56.91500 43.67100
H  5.10300 58.42800 44.65600
H  5.94100 59.47500 43.63400
H  6.79300 57.97300 43.93900
H  2.35100 56.39400 41.26000
H  3.43100 57.48700 40.73800
H  2.32200 59.37500 41.48200
H  2.42600 58.75900 43.13600
H  1.06300 58.43100 42.08900
H  2.52100 52.30600 44.34000
H  2.14800 50.72500 43.64900
H  1.57300 52.15900 42.77600
H  6.77600 48.59000 41.43500
H  5.83400 45.33800 39.05300
H  5.77300 46.57200 37.83600
H  4.30300 46.11700 38.77400

