158

Mg 36.13300 1.90600 29.94300
C  33.77500 2.91400 32.39700
C  38.28200 1.25600 32.41600
C  38.14500 0.90300 27.63400
C  33.57800 2.24500 27.56000
N  36.08400 2.33800 32.18000
C  35.01900 2.69100 33.00400
C  35.37900 2.47700 34.48200
C  36.95000 2.29300 34.43500
C  37.07800 1.88400 32.90700
C  37.76600 3.58500 34.64800
C  34.59000 1.43300 35.24600
C  33.95800 1.81700 36.63800
H  34.57100 2.99500 37.42100
N  38.08300 1.30700 30.01300
C  38.78000 1.12700 31.08500
C  40.13300 0.68400 30.66400
C  40.11600 0.52700 29.26700
C  38.78500 0.93200 28.90200
C  41.30500 0.53700 31.67300
C  41.29000 0.06200 28.38000
O  41.14700 0.03800 27.15200
C  42.64000 -0.41400 28.83200
N  35.84200 1.51400 27.93100
C  36.88500 1.14400 27.16600
C  36.53100 1.31000 25.70300
C  35.04400 1.25200 25.70400
C  34.79200 1.75300 27.12300
C  37.22300 2.50000 24.95600
C  34.42500 -0.17100 25.47700
C  33.22000 -0.23200 24.54800
N  33.99000 2.55000 29.88100
C  33.13500 2.69800 28.82300
C  31.81400 3.09800 29.37200
C  32.01500 3.16600 30.73000
C  33.34200 2.84400 31.03200
C  30.57600 3.24400 28.46100
C  31.39700 3.48000 32.04400
O  30.24900 3.78200 32.30800
C  32.50200 3.32300 33.11900
C  32.57200 4.61600 33.76700
O  33.17600 5.60200 33.35600
O  31.73800 4.68500 34.83000
C  31.76600 5.84500 35.78000
H  39.04100 1.04100 33.17200
H  38.77600 0.45200 26.86500
H  32.74300 2.34200 26.86300
H  35.22100 3.43700 34.97300
H  37.14000 1.46000 35.11200
H  37.25700 4.53000 34.45900
H  38.66300 3.51900 34.03200
H  38.02900 3.50700 35.70300
H  35.24200 0.57100 35.38900
H  33.72500 1.13600 34.65200
H  33.99800 0.89200 37.21400
H  32.88500 1.89800 36.46500
H  41.00500 0.97500 32.62500
H  42.25500 1.01000 31.42400
H  41.39800 -0.54700 31.74000
H  43.41100 -0.60400 28.08600
H  42.55700 -1.32200 29.42900
H  43.02800 0.39200 29.45600
H  36.91400 0.40900 25.22300
H  34.65900 2.07300 25.10000
H  36.40800 3.13600 24.61100
H  37.97700 2.25300 24.20900
H  37.70400 3.20200 25.63700
H  34.18700 -0.65700 26.42300
H  35.20900 -0.79400 25.04700
H  33.52700 -0.85500 23.70800
H  32.85500 0.72200 24.16700
H  32.38300 -0.78000 24.98200
H  29.76000 2.69200 28.92800
H  30.77300 2.71000 27.53100
H  30.41200 4.27300 28.14100
H  32.14700 2.60800 33.86100
H  32.68700 6.40000 35.60000
H  31.84900 5.43500 36.78600
H  30.93500 6.54900 35.74200
Mg 47.03600 24.76700 27.99200
C  47.95300 26.96700 30.65700
C  46.27600 22.46400 30.46600
C  46.18200 22.80500 25.58100
C  48.25500 27.24100 25.70700
N  47.00900 24.78900 30.24200
C  47.35600 25.81200 31.13000
C  47.09800 25.44700 32.58800
C  46.80700 23.91300 32.42500
C  46.72500 23.65200 30.97400
C  47.87200 22.97400 33.15300
C  45.94300 26.18600 33.24900
C  46.36200 27.15600 34.38900
H  45.40500 27.15600 35.60000
N  46.33400 22.87500 27.97900
C  46.07500 22.06700 29.13500
C  45.62600 20.74800 28.64200
C  45.63200 20.82700 27.19700
C  46.03400 22.23300 26.86800
C  45.32700 19.57100 29.55500
C  45.35600 19.75300 26.15000
O  45.48100 19.96400 24.96000
C  44.90500 18.49100 26.64300
N  47.46100 24.79400 26.00200
C  46.78500 23.97200 25.21000
C  46.81200 24.29400 23.71200
C  47.18600 25.83000 23.81500
C  47.70200 25.99300 25.29200
C  47.75300 23.40900 22.82100
C  46.07300 26.87600 23.28400
C  46.38600 28.05300 22.37400
N  48.07800 26.60600 28.11800
C  48.51900 27.48200 27.09500
C  49.21300 28.60400 27.70000
C  48.95100 28.51500 29.10800
C  48.28600 27.23900 29.28300
C  50.00500 29.58100 26.89100
C  49.15800 29.18600 30.33100
O  49.75200 30.21200 30.67100
C  48.49700 28.24400 31.39800
C  49.49500 27.90400 32.41200
O  50.23500 26.93600 32.35300
O  49.41700 28.74800 33.46400
C  50.10400 28.39500 34.74300
H  45.93700 21.71500 31.18400
H  45.74100 22.22000 24.77100
H  48.37500 28.00300 24.93400
H  48.06500 25.64600 33.04900
H  45.88800 23.48100 32.82100
H  48.45600 23.56600 33.85700
H  48.58300 22.53500 32.45300
H  47.33700 22.17500 33.66500
H  45.11100 25.51600 33.46400
H  45.53200 26.86000 32.49700
H  46.30300 28.19900 34.07800
H  47.32300 26.85800 34.80900
H  44.29400 19.25300 29.41100
H  45.53500 19.67600 30.62000
H  45.97100 18.73700 29.27600
H  45.71700 17.99700 27.17800
H  44.72500 17.82300 25.80000
H  44.01900 18.61100 27.26600
H  45.80500 24.04700 23.37700
H  48.02500 25.92900 23.12600
H  47.78300 24.08000 21.96200
H  47.25000 22.45900 22.64400
H  48.77100 23.22200 23.16500
H  45.54800 27.24800 24.16300
H  45.35200 26.26700 22.73800
H  45.75600 27.77400 21.52900
H  47.44400 28.20100 22.16000
H  46.09400 29.04100 22.72900
H  50.09800 30.44500 27.54900
H  49.41900 29.93100 26.04200
H  50.99000 29.16500 26.68100
H  47.69300 28.72600 31.95400
H  49.36000 27.85700 35.33100
H  50.37300 29.32800 35.23900
H  51.01700 27.83300 34.54900

