158

Mg 44.09600 4.01900 47.61700
C  41.64000 6.65900 47.12800
C  41.40700 1.80900 47.37300
C  46.27800 1.47200 47.41100
C  46.56500 6.32100 46.96000
N  41.75400 4.29000 47.29000
C  41.03800 5.46400 47.09600
C  39.55300 5.13100 46.89700
C  39.54000 3.56900 47.15200
C  41.02800 3.14700 47.28300
C  38.70300 3.11900 48.34900
C  39.09700 5.57400 45.49800
C  37.82100 6.44000 45.36200
H  37.88200 7.75200 44.43900
N  43.92300 1.87500 47.50800
C  42.72600 1.26800 47.41800
C  42.99600 -0.14600 47.45900
C  44.43400 -0.35600 47.54200
C  44.95500 0.99100 47.53500
C  41.97000 -1.28700 47.41900
C  45.13200 -1.71200 47.77200
O  44.48000 -2.74700 47.89400
C  46.62300 -1.75900 47.84300
N  46.07200 3.96100 47.23100
C  46.78600 2.79600 47.30900
C  48.32500 3.09300 47.24100
C  48.38700 4.63900 46.99300
C  46.90000 4.97500 46.98400
C  49.19600 2.54100 48.49700
C  49.18400 5.11600 45.78100
C  50.35500 4.31100 45.27600
N  44.17200 6.13500 47.25200
C  45.27500 6.86800 47.07300
C  44.87000 8.32700 47.01900
C  43.44300 8.25500 47.10900
C  43.04600 6.93600 47.12300
C  45.73700 9.55800 46.87600
C  42.23500 9.02700 47.07500
O  42.12700 10.24200 46.87000
C  41.01400 8.02200 47.02100
C  40.06500 8.27300 48.13900
O  39.98000 7.58800 49.18200
O  39.21600 9.23500 47.82500
C  38.09200 9.50500 48.73400
H  40.63600 1.06100 47.18100
H  47.07200 0.72600 47.34100
H  47.37900 7.04800 46.90900
H  38.80000 5.54200 47.57000
H  39.18700 3.05700 46.25700
H  37.68700 3.48400 48.19800
H  39.09400 3.56400 49.26400
H  38.57300 2.05400 48.53900
H  38.95700 4.63900 44.95700
H  39.87200 6.08900 44.93000
H  37.52700 6.79900 46.34900
H  37.01400 5.84400 44.93700
H  40.96900 -0.85600 47.45000
H  42.00000 -1.91900 48.30600
H  42.02000 -1.89000 46.51200
H  47.03500 -1.24800 46.97300
H  46.88400 -2.81800 47.82300
H  47.05700 -1.35200 48.75600
H  48.71400 2.56500 46.37000
H  48.71500 5.08900 47.93000
H  49.83900 1.73300 48.14900
H  48.65300 1.97200 49.25100
H  49.62900 3.44700 48.92200
H  49.44500 6.12700 46.09600
H  48.55400 5.14900 44.89200
H  51.24400 4.93600 45.35900
H  50.18000 4.00900 44.24300
H  50.43000 3.35800 45.80000
H  46.19500 9.95500 47.78200
H  45.13000 10.35700 46.45000
H  46.53200 9.37600 46.15300
H  40.41400 8.22600 46.13400
H  38.37600 9.34000 49.77400
H  37.31600 8.79200 48.45900
H  37.74700 10.53500 48.64900
Mg 35.79800 49.26300 25.91500
C  35.91300 47.37300 28.68900
C  34.93100 52.15200 27.83500
C  35.40600 51.16800 23.15300
C  36.62400 46.48200 23.98300
N  35.24700 49.61700 28.01200
C  35.51700 48.74200 29.00000
C  35.32100 49.28300 30.39100
C  34.77400 50.77700 30.06100
C  34.98100 50.91000 28.51000
C  33.34200 51.05700 30.46700
C  36.65200 49.24700 31.22700
C  36.72300 48.58600 32.56400
H  36.91600 49.58500 33.77900
N  35.36000 51.38600 25.57700
C  35.08900 52.35100 26.46200
C  35.01100 53.62100 25.84500
C  35.08700 53.40500 24.44900
C  35.24300 51.96800 24.33600
C  34.68400 54.93100 26.51900
C  35.08500 54.41200 23.26400
O  35.22900 54.02600 22.14300
C  34.84500 55.90500 23.47100
N  35.94800 48.86600 23.86800
C  35.63800 49.83400 22.95100
C  35.85700 49.16500 21.49800
C  36.41500 47.77800 21.81400
C  36.34000 47.71000 23.30600
C  34.54500 49.16500 20.62100
C  37.92000 47.61700 21.39300
C  38.20200 46.20200 20.67200
N  36.04900 47.25300 26.21000
C  36.42400 46.27600 25.37800
C  36.70900 45.11800 26.16400
C  36.43000 45.48800 27.46000
C  36.09100 46.78300 27.44800
C  37.21000 43.81700 25.76100
C  36.53700 44.99900 28.77000
O  36.93100 43.96900 29.28400
C  36.19900 46.20400 29.67500
C  35.05500 45.76100 30.56400
O  33.84100 45.73400 30.18300
O  35.49300 45.52400 31.89100
C  34.53600 45.17600 32.96400
H  34.90000 53.01900 28.49700
H  35.23300 51.67400 22.20100
H  36.91400 45.66700 23.31600
H  34.59000 48.78200 31.02600
H  35.31000 51.64000 30.45500
H  33.34300 51.48900 31.46800
H  32.71600 50.17000 30.36800
H  32.94900 51.87000 29.85600
H  36.94300 50.28200 31.41000
H  37.37700 48.84900 30.51700
H  37.46200 47.79700 32.42100
H  35.86000 47.93800 32.71600
H  33.88300 55.40900 25.95500
H  35.51400 55.63700 26.52600
H  34.25900 54.85300 27.52000
H  35.62700 56.41400 24.03500
H  33.87300 55.97800 23.95800
H  34.73900 56.48100 22.55100
H  36.59600 49.83200 21.05600
H  35.80700 47.01100 21.33500
H  33.80300 49.84700 21.03500
H  34.31600 48.15100 20.29400
H  34.82200 49.77400 19.76000
H  38.62000 47.75200 22.21800
H  38.20200 48.36500 20.65200
H  39.19400 45.90500 21.01100
H  38.25000 46.25700 19.58400
H  37.51600 45.43600 21.03300
H  38.02500 44.09800 25.09400
H  36.46800 43.24900 25.20000
H  37.77800 43.31600 26.54500
H  37.07900 46.45200 30.26800
H  33.48500 45.30000 32.70600
H  34.80700 45.80100 33.81500
H  34.76200 44.12000 33.11400

