158

Mg 48.66800 35.41000 26.77000
C  46.56100 33.79300 29.23400
C  49.12100 38.01700 28.96100
C  50.08200 36.99700 24.29600
C  48.00600 32.73700 24.64400
N  48.00100 35.75400 28.85300
C  47.17000 35.00600 29.70500
C  47.46100 35.55200 31.12900
C  47.77000 37.06100 30.84000
C  48.31600 36.90800 29.39400
C  46.46900 37.97700 30.96600
C  48.67500 34.86100 31.91600
C  48.75500 34.68400 33.39600
H  48.05700 35.68100 34.40400
N  49.48600 37.25700 26.64700
C  49.64100 38.14500 27.65200
C  50.41000 39.29000 27.14500
C  50.74000 39.02100 25.82700
C  50.04500 37.73200 25.52500
C  50.71100 40.55300 27.91000
C  51.59100 39.81700 24.81800
O  51.67700 39.45100 23.63800
C  52.21000 41.08200 25.32200
N  48.91800 34.95100 24.69700
C  49.53400 35.80800 23.87300
C  49.51700 35.25500 22.45400
C  49.15300 33.80800 22.70000
C  48.65800 33.81000 24.14500
C  48.53300 36.04500 21.46900
C  50.38400 32.82700 22.53600
C  50.04400 31.39100 22.04200
N  47.60100 33.53400 26.90200
C  47.43300 32.54500 25.89900
C  46.72300 31.44100 26.44900
C  46.34000 31.87700 27.70800
C  46.90900 33.13600 27.98800
C  46.34000 30.11700 25.76500
C  45.52900 31.55700 28.85800
O  44.94000 30.49800 29.15000
C  45.51100 32.88200 29.80200
C  45.71000 32.37100 31.20900
O  46.64600 31.65900 31.59500
O  44.69800 32.88000 32.08000
C  44.89400 32.57700 33.52300
H  49.16000 38.82900 29.69000
H  50.59800 37.47100 23.45800
H  48.09900 31.83000 24.04200
H  46.56400 35.38000 31.72300
H  48.57600 37.50500 31.42500
H  46.65600 38.89100 30.40200
H  46.36600 38.19300 32.03000
H  45.52600 37.52600 30.65800
H  49.61800 35.29800 31.58800
H  48.82000 33.83900 31.56500
H  49.82200 34.71100 33.61400
H  48.42200 33.74200 33.83100
H  51.76800 40.60100 28.17100
H  50.11200 40.55600 28.82000
H  50.36400 41.38900 27.30300
H  52.86800 40.94300 26.18000
H  51.50000 41.89200 25.48200
H  52.97700 41.23800 24.56300
H  50.51500 35.28100 22.01500
H  48.34100 33.55200 22.02000
H  48.11700 36.86100 22.05900
H  47.73200 35.43200 21.05500
H  49.09900 36.49600 20.65400
H  50.84800 32.77200 23.52100
H  51.03100 33.20200 21.74200
H  49.05500 31.34000 21.58700
H  50.11400 30.69000 22.87400
H  50.83900 31.04900 21.37900
H  45.88300 30.27300 24.78700
H  45.67700 29.46800 26.33800
H  47.21800 29.49900 25.57900
H  44.54100 33.37500 29.73800
H  44.22200 31.79900 33.88600
H  44.65100 33.49600 34.05700
H  45.91300 32.29100 33.78400
Mg 17.83100 52.82200 26.48200
C  19.53900 51.03200 28.85500
C  15.36000 53.47700 28.73700
C  16.06500 54.21400 23.93300
C  20.18300 51.71600 24.03400
N  17.47800 52.28400 28.57300
C  18.36500 51.62000 29.36100
C  17.94700 51.69900 30.79400
C  16.46800 52.15000 30.68400
C  16.36000 52.69800 29.25000
C  15.39900 51.05100 31.17200
C  18.92400 52.66500 31.57700
C  18.77200 52.70800 33.09200
H  17.58400 51.97800 33.81600
N  16.06100 53.86300 26.36600
C  15.18500 54.01400 27.43400
C  14.05500 54.74400 26.96300
C  14.30300 55.05800 25.61200
C  15.50000 54.37800 25.20500
C  12.84100 55.05400 27.86600
C  13.41700 56.01000 24.69200
O  13.66300 56.26400 23.51300
C  12.24100 56.67700 25.38900
N  18.14500 53.14900 24.41200
C  17.20500 53.67300 23.53200
C  17.60100 53.41400 22.09400
C  18.95800 52.65700 22.14600
C  19.13100 52.51000 23.60500
C  16.44500 52.77100 21.23700
C  20.03000 53.54600 21.43400
C  20.33400 54.83200 22.21600
N  19.54000 51.59200 26.34300
C  20.44900 51.26700 25.37300
C  21.60400 50.59400 25.95100
C  21.23900 50.46400 27.32800
C  19.98800 51.05800 27.49900
C  22.79600 50.00900 25.29300
C  21.60200 49.81400 28.52400
O  22.51700 49.00600 28.72100
C  20.57600 50.21400 29.62100
C  19.98300 48.99200 30.31600
O  19.24600 48.12000 29.82800
O  20.43600 49.04300 31.64300
C  19.77600 48.14900 32.56300
H  14.64700 53.89500 29.45100
H  15.40600 54.67400 23.19300
H  21.04800 51.51000 23.40000
H  18.03500 50.67100 31.14700
H  16.34300 52.99500 31.36100
H  15.87100 50.13000 31.51400
H  14.69700 50.62100 30.45700
H  14.80500 51.46400 31.98600
H  18.64800 53.66200 31.23600
H  19.98900 52.48500 31.43000
H  18.87200 53.73800 33.43400
H  19.69700 52.22000 33.39900
H  12.83100 56.11200 28.12500
H  12.84000 54.63500 28.87300
H  11.90000 54.78800 27.38400
H  12.64800 57.10300 26.30600
H  11.46300 55.94400 25.60100
H  11.84200 57.52700 24.83600
H  17.68900 54.38800 21.61300
H  18.85400 51.66800 21.69800
H  15.71800 52.52900 22.01300
H  16.80800 51.81300 20.86600
H  16.08800 53.42500 20.44200
H  19.69300 53.80700 20.43100
H  20.87800 52.92700 21.14300
H  19.61100 55.59700 21.93500
H  21.36800 55.12800 22.04200
H  20.21700 54.62600 23.28000
H  23.13000 50.68700 24.50700
H  22.48100 49.12000 24.74600
H  23.59000 49.76900 25.99900
H  20.99900 50.78500 30.44600
H  20.18600 47.14000 32.60000
H  18.70800 47.99900 32.40300
H  19.88700 48.58400 33.55600

