158

Mg 40.34100 8.61000 29.29800
C  42.11100 10.04100 31.92200
C  38.11500 7.21700 31.59000
C  38.46400 7.49900 26.82100
C  42.73700 9.71800 27.15700
N  40.06600 8.80800 31.50300
C  40.92500 9.44400 32.37900
C  40.33900 9.35900 33.78900
C  39.05000 8.47400 33.66100
C  39.05000 8.16300 32.11300
C  38.89700 7.24600 34.59600
C  40.30200 10.76400 34.55600
C  39.30200 10.83500 35.71100
H  39.77300 11.77900 36.79400
N  38.58600 7.53200 29.20300
C  37.77600 7.02000 30.25500
C  36.74500 6.14400 29.72800
C  36.67100 6.47300 28.32000
C  37.99200 7.17700 28.08100
C  35.76800 5.41200 30.55800
C  35.59600 6.26700 27.26700
O  35.68100 6.57000 26.09300
C  34.20000 5.84200 27.67000
N  40.67000 8.45900 27.22200
C  39.66200 8.11100 26.42600
C  40.07900 8.11500 24.93900
C  41.30900 9.09500 25.09200
C  41.66200 9.04000 26.53800
C  40.43400 6.75900 24.39100
C  41.00600 10.53500 24.56900
C  42.00900 10.86300 23.36300
N  42.17700 9.47700 29.51400
C  43.00600 9.89700 28.50800
C  44.19400 10.47200 29.15200
C  43.83300 10.60900 30.48600
C  42.60800 9.95400 30.58900
C  45.47300 10.91700 28.46600
C  44.30400 11.05200 31.82700
O  45.38000 11.52100 32.11900
C  43.17100 10.69800 32.88200
C  43.75000 9.75900 33.89400
O  44.11000 8.60400 33.79200
O  43.89200 10.42900 35.10000
C  44.09300 9.61900 36.29500
H  37.38800 6.84100 32.31200
H  37.85500 7.20600 25.96300
H  43.35300 10.29200 26.46100
H  41.12700 8.86400 34.35600
H  38.26200 9.21700 33.78600
H  39.08700 6.37900 33.96400
H  37.89500 7.21800 35.02500
H  39.62800 7.33600 35.40000
H  40.31100 11.68200 33.96800
H  41.27000 10.87400 35.04400
H  38.87800 9.92600 36.13800
H  38.41600 11.33100 35.31600
H  34.98400 6.12100 30.82300
H  36.16300 5.05600 31.51000
H  35.26300 4.57600 30.07500
H  33.88300 6.40000 28.55100
H  34.21000 4.81800 28.04400
H  33.47800 5.71900 26.86300
H  39.26500 8.60700 24.40800
H  42.28000 8.72600 24.76100
H  40.48000 6.01000 25.18200
H  41.35000 6.76900 23.80100
H  39.60300 6.46200 23.75000
H  41.07400 11.33300 25.30800
H  40.06300 10.49300 24.02300
H  41.62300 11.66400 22.73300
H  42.30200 10.08900 22.65200
H  42.87300 11.38200 23.77600
H  45.17100 11.55200 27.63300
H  46.04100 10.02900 28.19000
H  46.09400 11.52200 29.12700
H  42.92800 11.62000 33.41000
H  43.71500 10.15400 37.16700
H  45.14300 9.54600 36.57600
H  43.61900 8.64800 36.14900
Mg 48.11400 34.60500 27.53500
C  46.33700 33.38900 30.31200
C  48.44100 37.60300 29.21100
C  49.46100 35.81300 24.79900
C  46.93100 31.77100 25.62800
N  47.60500 35.31100 29.60000
C  46.90400 34.66000 30.55300
C  46.72800 35.49500 31.78100
C  47.02600 36.91000 31.16400
C  47.76500 36.60400 29.93600
C  45.74400 37.79200 31.03700
C  47.85200 35.11300 32.88000
C  47.32500 34.64700 34.25000
H  47.68200 35.29500 35.51400
N  48.98100 36.32500 27.16600
C  49.05300 37.49000 27.94600
C  49.85400 38.53900 27.30200
C  50.37400 37.91800 26.07300
C  49.65900 36.56100 25.95800
C  50.17000 39.86200 27.94500
C  51.31200 38.39700 25.09600
O  51.70100 37.68200 24.15700
C  51.91300 39.73600 25.25100
N  48.12100 33.82300 25.41900
C  48.72400 34.61500 24.45300
C  48.76100 33.91000 23.09300
C  48.01300 32.55300 23.33900
C  47.60100 32.69300 24.85700
C  48.21100 34.76800 21.93200
C  48.81500 31.23300 23.11600
C  50.28100 31.23400 23.62800
N  46.89900 32.97300 27.81700
C  46.59600 31.83600 27.01300
C  45.69500 30.95700 27.83100
C  45.51700 31.53000 29.03400
C  46.32900 32.70600 29.03000
C  45.13100 29.65800 27.37100
C  44.90500 31.37100 30.32400
O  44.12800 30.52200 30.77200
C  45.22000 32.63900 31.12600
C  45.60000 32.20600 32.45800
O  46.60900 31.67200 32.86500
O  44.53300 32.49000 33.23500
C  44.58800 31.90400 34.57800
H  48.50100 38.58000 29.69700
H  49.81900 36.21300 23.84800
H  46.59200 30.93900 25.00700
H  45.72500 35.28100 32.15200
H  47.71500 37.40200 31.84900
H  45.68600 38.10600 29.99500
H  45.81400 38.59000 31.77600
H  44.84900 37.24000 31.32600
H  48.45000 35.97100 33.18600
H  48.46400 34.34300 32.41000
H  47.75700 33.66300 34.43700
H  46.24100 34.64300 34.13100
H  51.23300 39.89600 28.18800
H  49.42500 40.16500 28.68100
H  50.00000 40.59100 27.15200
H  51.06000 40.39600 25.09200
H  52.57900 39.91200 24.40600
H  52.33000 39.95500 26.23400
H  49.77500 33.65400 22.78700
H  47.14300 32.57200 22.68400
H  48.16700 35.84200 22.11500
H  47.20300 34.41700 21.71200
H  48.79400 34.65500 21.01800
H  48.66300 31.04200 22.05300
H  48.13700 30.49400 23.54400
H  50.64200 32.20900 23.95300
H  50.92100 30.99200 22.77900
H  50.49600 30.61200 24.49700
H  45.88500 29.00800 26.92600
H  44.39600 29.80500 26.58000
H  44.62000 29.23400 28.23500
H  44.35300 33.28900 31.23700
H  45.18900 32.55000 35.21800
H  45.04300 30.91300 34.59800
H  43.63700 31.80400 35.10000

