158

Mg 0.62600 7.21300 25.66800
C  1.64000 9.13800 28.51300
C  0.65600 4.51600 27.65500
C  0.30300 5.45600 22.85100
C  1.27700 10.21300 23.71500
N  1.19000 6.92000 27.80900
C  1.40400 7.80700 28.82100
C  1.41300 7.16200 30.19000
C  1.15500 5.63000 29.91400
C  1.03600 5.71200 28.34600
C  2.10100 4.61500 30.50700
C  0.35200 7.71000 31.23600
C  0.87600 7.91600 32.70200
H  2.03700 7.16500 33.13500
N  0.41800 5.32000 25.28400
C  0.32100 4.32300 26.30100
C  0.01700 3.08200 25.62600
C  0.03800 3.34200 24.21800
C  0.24500 4.75100 24.07400
C  -0.11800 1.78900 26.34000
C  0.04000 2.41100 23.05200
O  0.00300 2.72300 21.88400
C  0.02500 0.94500 23.30300
N  0.77500 7.75800 23.56400
C  0.53700 6.80800 22.59800
C  0.58300 7.45900 21.25500
C  0.74000 8.98800 21.53500
C  0.99200 9.00000 23.01400
C  1.71100 6.84100 20.40200
C  -0.46600 9.88400 21.18300
C  -0.13200 11.00000 20.23000
N  1.23200 9.28300 26.00200
C  1.39000 10.32200 25.17000
C  1.73800 11.51600 25.90900
C  1.96600 11.13400 27.19400
C  1.53600 9.80600 27.22300
C  2.00900 12.90300 25.29100
C  2.29200 11.54400 28.51400
O  2.71200 12.58000 28.92900
C  2.02300 10.34600 29.45100
C  3.18400 10.18000 30.48200
O  4.23000 9.55000 30.32300
O  2.75300 10.83800 31.63900
C  3.81600 11.17400 32.59500
H  0.63300 3.64500 28.31300
H  0.12900 5.01000 21.86900
H  1.49600 11.14800 23.19600
H  2.42600 7.35500 30.54300
H  0.14100 5.36500 30.21300
H  2.83600 5.13900 31.11700
H  2.52900 3.96300 29.74600
H  1.56800 3.95800 31.19500
H  -0.47300 7.01300 31.38300
H  0.00500 8.66900 30.85200
H  0.03700 7.60600 33.32600
H  1.03100 8.98500 32.84900
H  -0.86600 1.27300 25.73900
H  -0.45800 1.86700 27.37200
H  0.82000 1.23500 26.33800
H  -0.87100 0.65700 23.85200
H  0.84200 0.72300 23.99000
H  0.23900 0.32700 22.43000
H  -0.39300 7.10300 20.92600
H  1.70700 9.27600 21.12300
H  2.20500 7.64200 19.85200
H  1.24900 6.27000 19.59600
H  2.36900 6.21300 21.00200
H  -0.90500 10.41700 22.02600
H  -1.35500 9.35700 20.83800
H  -1.11700 11.37700 19.95200
H  0.50900 10.90000 19.35400
H  0.27300 11.77900 20.87600
H  2.81800 13.40700 25.81900
H  1.15300 13.57100 25.38400
H  2.16100 12.81100 24.21600
H  1.11500 10.57800 30.00700
H  3.24400 11.58900 33.42400
H  4.57000 11.88900 32.26500
H  4.43200 10.39100 33.03700
Mg 41.07200 42.13000 27.64700
C  39.97500 44.55000 30.12000
C  41.61500 39.97300 30.11300
C  42.39700 40.16900 25.26500
C  40.51700 44.64200 25.26200
N  41.01500 42.41000 29.89600
C  40.37500 43.36400 30.63600
C  40.42100 42.97900 32.14100
C  41.00300 41.44000 32.02700
C  41.22200 41.25700 30.56900
C  42.30700 41.25400 32.86900
C  39.10100 43.17400 32.95200
C  38.90600 42.13100 34.17500
H  38.24800 42.57300 35.41700
N  41.93800 40.31100 27.69800
C  42.07100 39.54600 28.81400
C  42.57700 38.23000 28.43900
C  42.89300 38.31000 27.04500
C  42.37400 39.64100 26.56400
C  42.99100 37.19800 29.44400
C  43.54200 37.30400 26.11400
O  43.73000 37.50500 24.91500
C  44.07400 36.02400 26.66500
N  41.40800 42.41000 25.50500
C  41.84700 41.38500 24.77600
C  41.96800 41.85200 23.32300
C  41.10000 43.18800 23.30900
C  40.95600 43.48500 24.75300
C  43.43400 41.96900 22.83900
C  39.76900 43.05900 22.49400
C  38.87200 41.92700 23.03200
N  40.50900 44.11400 27.61400
C  40.26400 44.97800 26.60100
C  39.85700 46.26400 27.14100
C  39.56200 46.04300 28.46800
C  40.07600 44.82300 28.73900
C  39.57200 47.63500 26.43200
C  39.03600 46.68600 29.60500
O  38.57200 47.79200 29.75300
C  39.30800 45.74400 30.75600
C  40.23300 46.46000 31.69800
O  41.38800 46.75200 31.38700
O  39.69600 46.61500 32.93700
C  40.64200 47.11100 33.90200
H  41.71800 39.24800 30.92300
H  42.96400 39.51900 24.59600
H  40.35200 45.35000 24.44700
H  41.08900 43.65600 32.67200
H  40.17500 40.82800 32.38300
H  43.18700 41.37000 32.23700
H  42.41200 40.26100 33.30700
H  42.35900 41.92300 33.72700
H  38.25400 43.21600 32.26800
H  39.04600 44.19800 33.32100
H  39.79600 41.57400 34.46800
H  38.37800 41.33300 33.65300
H  42.86000 37.63100 30.43600
H  44.01300 36.81900 29.46700
H  42.34100 36.32900 29.34300
H  44.96600 36.37700 27.18100
H  44.25200 35.42200 25.77400
H  43.43800 35.34100 27.22800
H  41.50900 41.13800 22.63900
H  41.69000 44.05200 23.00100
H  43.43900 41.49900 21.85500
H  44.13500 41.51100 23.53600
H  43.74200 42.99100 22.61700
H  40.00600 42.76600 21.47100
H  39.18700 43.97800 22.55900
H  38.19900 41.56900 22.25300
H  38.18100 42.30700 23.78400
H  39.43800 41.13800 23.52800
H  39.78300 47.57500 25.36400
H  40.23000 48.39600 26.85100
H  38.56500 48.00300 26.62500
H  38.32500 45.45000 31.12400
H  40.95200 48.14100 33.72000
H  41.54200 46.51100 33.76600
H  40.45900 46.88600 34.95200

