158

Mg -9.97300 40.25700 42.59400
C  -9.05000 37.03600 41.71600
C  -7.18200 41.53900 41.14900
C  -11.52700 43.13800 42.31800
C  -13.21400 38.78300 43.31500
N  -8.27800 39.30700 41.61600
C  -8.07600 38.02300 41.33000
C  -6.66400 37.78400 40.70200
C  -6.08700 39.25500 40.69300
C  -7.20000 40.10300 41.20400
C  -4.78600 39.41700 41.42700
C  -6.73100 37.20100 39.18900
C  -5.61800 36.24300 38.74600
H  -4.56100 36.67500 37.67400
N  -9.35600 42.08500 42.05700
C  -8.13200 42.43000 41.57100
C  -8.02900 43.86600 41.48600
C  -9.28400 44.40400 41.69500
C  -10.13100 43.19400 42.05100
C  -6.75700 44.54100 40.96700
C  -9.62100 45.88100 41.64500
O  -8.80500 46.72600 41.29600
C  -10.91700 46.51300 42.03900
N  -12.05000 40.88700 42.96500
C  -12.40800 42.13500 42.63400
C  -13.91800 42.43100 42.70300
C  -14.50900 41.03200 43.21300
C  -13.20000 40.18000 43.13300
C  -14.31600 43.53200 43.72600
C  -15.59600 40.45700 42.33700
C  -16.85000 39.90800 43.06200
N  -10.98600 38.25700 42.68500
C  -12.28200 37.83400 42.90800
C  -12.38200 36.34400 42.92600
C  -11.09800 36.03400 42.49500
C  -10.31000 37.17500 42.30800
C  -13.54100 35.48400 43.27300
C  -10.18400 34.95300 42.17800
O  -10.35900 33.74100 42.25800
C  -8.95500 35.56100 41.58100
C  -7.83300 35.01000 42.29200
O  -7.52800 35.24500 43.44700
O  -7.24500 34.18000 41.39800
C  -6.25500 33.34700 41.99700
H  -6.29400 41.84900 40.59500
H  -12.04700 44.07000 42.08700
H  -14.21200 38.49300 43.65000
H  -5.96500 37.15600 41.25500
H  -5.79800 39.60600 39.70300
H  -4.12300 38.57400 41.23100
H  -4.98100 39.46900 42.49800
H  -4.24800 40.26100 40.99500
H  -6.68300 37.99300 38.44200
H  -7.62200 36.63300 38.92000
H  -6.18000 35.38000 38.39000
H  -5.03800 36.04600 39.64700
H  -6.88200 44.72100 39.90000
H  -5.98000 43.78900 41.10300
H  -6.51300 45.46400 41.49400
H  -11.64500 46.07100 41.35900
H  -10.87900 47.58000 41.82000
H  -11.12700 46.32400 43.09200
H  -14.20900 42.64200 41.67400
H  -14.79500 41.07000 44.26400
H  -14.77900 43.02900 44.57500
H  -15.06700 44.21200 43.32200
H  -13.45600 44.10500 44.07100
H  -15.31000 39.65800 41.65400
H  -15.93500 41.33400 41.78600
H  -16.97100 38.84700 42.84200
H  -17.69000 40.49500 42.69000
H  -16.87700 40.13900 44.12700
H  -14.32200 36.04800 43.78200
H  -13.27600 34.63200 43.89900
H  -14.00600 35.11100 42.36000
H  -8.88900 35.24100 40.54200
H  -6.39800 33.00800 43.02300
H  -5.28000 33.78800 41.79400
H  -6.25200 32.45600 41.36800
Mg -10.01000 17.73000 42.25000
C  -6.54700 17.26100 42.29400
C  -9.47200 21.01800 41.72400
C  -13.21100 17.94300 41.47500
C  -10.21000 14.18900 42.28500
N  -8.12900 18.99100 42.08600
C  -6.86500 18.61400 42.10900
C  -5.90800 19.77300 41.99200
C  -6.89400 21.04200 41.94100
C  -8.23400 20.33700 41.94800
C  -6.78900 22.10800 43.14800
C  -4.92200 19.62300 40.79900
C  -5.37100 18.85500 39.53200
H  -4.73000 19.26800 38.16500
N  -11.21700 19.34200 41.80400
C  -10.76800 20.57200 41.70600
C  -11.91200 21.45200 41.38400
C  -13.03400 20.58600 41.33300
C  -12.51400 19.21700 41.47400
C  -11.87400 22.88500 40.89600
C  -14.61000 21.05300 41.10700
O  -14.83600 22.19300 40.86400
C  -15.75400 20.15200 41.30400
N  -11.53300 16.25700 41.66600
C  -12.77400 16.63000 41.67100
C  -13.76000 15.46400 41.68900
C  -12.78200 14.28400 41.94300
C  -11.40000 14.90400 42.02000
C  -15.00000 15.58900 42.64500
C  -12.82000 13.12600 40.80700
C  -13.68900 11.96100 41.13900
N  -8.73200 16.02300 42.38900
C  -8.96400 14.73700 42.56900
C  -7.79700 13.97300 42.87600
C  -6.81900 14.95200 42.77300
C  -7.40000 16.17000 42.46300
C  -7.57700 12.51900 43.10800
C  -5.37400 15.12600 42.73900
O  -4.46700 14.34000 42.91700
C  -5.18000 16.63400 42.56900
C  -4.44800 17.03300 43.76200
O  -3.23700 17.05100 43.80300
O  -5.19200 17.40300 44.82300
C  -4.45900 18.04900 45.88500
H  -9.32200 22.07300 41.48600
H  -14.29000 18.11500 41.46800
H  -10.46500 13.15600 42.52800
H  -5.37800 19.89700 42.93700
H  -6.84000 21.60600 41.01000
H  -5.76700 22.44500 43.32100
H  -7.31000 21.72600 44.02600
H  -7.35700 22.95000 42.75100
H  -4.01100 19.13100 41.14100
H  -4.58200 20.61100 40.48800
H  -6.39100 18.47900 39.45600
H  -4.78800 17.94600 39.67600
H  -12.81000 23.36600 41.18000
H  -11.86900 23.03700 39.81600
H  -10.99200 23.33300 41.35200
H  -15.86000 19.54000 40.40800
H  -16.55400 20.88400 41.41000
H  -15.51800 19.62600 42.22900
H  -14.19200 15.24300 40.71300
H  -12.95300 13.67000 42.82700
H  -15.12500 16.58800 43.06400
H  -15.06800 14.73700 43.32100
H  -15.84900 15.60900 41.96200
H  -11.84000 12.66500 40.68800
H  -13.18000 13.41300 39.81900
H  -14.54300 11.92700 40.46300
H  -14.14500 12.12600 42.11600
H  -13.10800 11.04700 41.26000
H  -8.30000 11.98000 42.49600
H  -7.78600 12.22200 44.13600
H  -6.57500 12.25000 42.77200
H  -4.46200 16.73800 41.75500
H  -5.21900 18.32900 46.61300
H  -3.97800 18.93300 45.46600
H  -3.81300 17.28800 46.32300

