158

Mg 2.65600 -1.53100 44.42400
C  6.00200 -0.83300 43.62800
C  1.64900 0.87900 42.33000
C  -0.52500 -2.55100 44.81400
C  3.76200 -4.70000 45.58700
N  3.72700 -0.09100 43.27400
C  5.09000 0.08300 43.06700
C  5.34100 1.12700 42.06400
C  3.90800 1.72700 41.78600
C  3.00900 0.76700 42.55700
C  3.67700 3.22900 42.16900
C  6.06400 0.54700 40.76000
C  6.92100 1.56800 40.10400
H  6.41900 2.07900 38.77000
N  0.83200 -0.83800 43.75200
C  0.61900 0.20400 42.93500
C  -0.73600 0.50000 42.78900
C  -1.47200 -0.59400 43.36700
C  -0.34700 -1.37500 44.06800
C  -1.15000 1.75700 41.98500
C  -2.93600 -0.75300 43.30700
O  -3.66300 0.10400 42.77200
C  -3.62500 -1.98200 43.87000
N  1.77100 -3.43000 45.04400
C  0.42100 -3.48000 45.22000
C  0.04500 -4.91000 45.79400
C  1.41800 -5.48300 46.23200
C  2.38100 -4.50000 45.61700
C  -1.03900 -5.01400 46.83800
C  1.69900 -6.93100 45.87000
C  2.46900 -7.84700 46.87700
N  4.47500 -2.58700 44.68300
C  4.74700 -3.79900 45.17500
C  6.14900 -3.99900 45.27600
C  6.72700 -2.82200 44.72800
C  5.63800 -2.04100 44.29700
C  6.84000 -5.21900 45.85600
C  7.91900 -2.12900 44.42000
O  9.07100 -2.43800 44.58000
C  7.48300 -0.83600 43.64400
C  8.10100 0.31300 44.37900
O  7.88800 0.56700 45.54500
O  8.66700 1.08000 43.40700
C  9.38300 2.34100 43.69500
H  1.43800 1.59700 41.53500
H  -1.54100 -2.94400 44.88900
H  4.09500 -5.70500 45.85600
H  5.97200 1.91300 42.47800
H  3.64200 1.79900 40.73100
H  4.68100 3.64300 42.26600
H  3.23100 3.35900 43.15500
H  3.10400 3.71800 41.38100
H  5.33300 0.12300 40.07100
H  6.65800 -0.33600 40.99000
H  7.90200 1.09800 40.03900
H  7.06100 2.48700 40.67300
H  -2.16300 2.12400 42.14700
H  -1.14600 1.57700 40.91000
H  -0.38500 2.46800 42.29600
H  -4.67800 -1.87100 43.61000
H  -3.38700 -1.85800 44.92600
H  -3.18800 -2.85900 43.39200
H  -0.16900 -5.63600 45.01000
H  1.49000 -5.25400 47.29600
H  -1.63500 -4.12000 46.65900
H  -0.83500 -5.23100 47.88600
H  -1.63800 -5.86800 46.52200
H  2.18600 -6.91100 44.89500
H  0.82000 -7.48400 45.53900
H  3.47400 -8.06300 46.51300
H  1.89800 -8.76700 46.99800
H  2.75900 -7.44600 47.84800
H  6.20200 -6.10200 45.88800
H  7.15400 -4.91700 46.85500
H  7.71000 -5.45200 45.24200
H  7.91800 -0.76900 42.64700
H  8.71800 3.16900 43.44900
H  10.20200 2.41600 42.97900
H  9.82100 2.36700 44.69300
Mg 16.46500 52.33100 25.83900
C  18.23200 50.89300 28.57600
C  13.92500 53.18700 28.12300
C  14.74100 53.63500 23.31900
C  18.87100 51.11300 23.76900
N  16.10700 52.00200 28.07900
C  17.08700 51.57400 28.96300
C  16.65400 51.91500 30.50400
C  15.12200 52.28600 30.30000
C  15.02200 52.51800 28.76200
C  14.10800 51.34000 30.83400
C  17.50700 53.04200 31.16800
C  17.99600 52.81300 32.56900
H  17.02400 51.94200 33.37400
N  14.57500 53.24600 25.70600
C  13.71000 53.61700 26.74900
C  12.65500 54.50200 26.18000
C  12.95500 54.61100 24.76100
C  14.12700 53.78200 24.57300
C  11.57800 55.07900 27.03300
C  12.21200 55.38600 23.73500
O  12.56900 55.54300 22.56000
C  10.95900 56.10900 24.13900
N  16.67600 52.25300 23.83500
C  15.84100 52.92200 22.96100
C  16.36800 52.96400 21.52800
C  17.66800 52.05000 21.66200
C  17.73800 51.78400 23.21000
C  15.39800 52.52300 20.45900
C  18.95400 52.64600 21.15100
C  19.84000 51.60600 20.44900
N  18.19900 51.28800 26.00900
C  19.04600 50.78300 25.09300
C  20.15000 50.09900 25.70100
C  19.81100 50.15600 27.09400
C  18.58300 50.81900 27.25000
C  21.29500 49.43500 25.06100
C  20.27600 49.63400 28.29200
O  21.17700 48.91800 28.64600
C  19.29500 50.17400 29.33000
C  18.67300 49.14400 30.14500
O  17.65400 48.49800 29.90700
O  19.38400 48.97700 31.28200
C  18.63500 48.18400 32.31600
H  13.05700 53.44100 28.73600
H  14.41500 54.18800 22.43500
H  19.58500 50.68600 23.06200
H  16.74800 51.02000 31.11900
H  15.00600 53.27600 30.74000
H  13.35300 52.02300 31.22200
H  14.66500 50.82800 31.61900
H  13.76500 50.62600 30.08400
H  16.96300 53.98400 31.23400
H  18.39400 53.16600 30.54700
H  18.15500 53.77100 33.06300
H  18.99600 52.38400 32.49600
H  11.70100 56.16200 27.04800
H  11.59300 54.74000 28.06900
H  10.55600 54.88600 26.70800
H  10.95100 56.79900 24.98300
H  10.35600 55.21500 24.30000
H  10.46000 56.64500 23.33200
H  16.61100 54.02500 21.47100
H  17.39500 51.05800 21.30000
H  15.09300 53.35400 19.82300
H  14.55000 52.06300 20.96700
H  15.82800 51.70500 19.88100
H  19.55600 53.03700 21.97200
H  18.62300 53.49800 20.55700
H  19.85100 51.91900 19.40500
H  19.39800 50.61100 20.49600
H  20.74700 51.60700 21.05200
H  21.77800 50.18700 24.43800
H  20.89300 48.65500 24.41400
H  21.96000 49.11900 25.86500
H  19.85000 50.91400 29.90700
H  17.60800 48.52400 32.44800
H  19.19200 48.25700 33.25000
H  18.59200 47.17400 31.90900

