158

Mg 36.50300 49.48900 25.05200
C  36.73500 47.73000 28.20000
C  35.63100 52.35600 26.83100
C  36.41000 51.16300 22.20200
C  37.24700 46.45900 23.49900
N  36.20100 49.88700 27.21400
C  36.52100 49.10900 28.31100
C  36.41100 49.90500 29.63200
C  35.85000 51.29500 29.19600
C  35.81100 51.19500 27.60900
C  34.51000 51.74000 29.89700
C  37.81400 50.05400 30.25300
C  38.04300 50.17800 31.83700
H  36.76300 50.40100 32.67100
N  36.02900 51.52500 24.58500
C  35.63700 52.50800 25.41100
C  35.49200 53.75400 24.66800
C  35.67400 53.41600 23.23800
C  35.98900 51.97800 23.31400
C  34.99200 55.01200 25.27400
C  35.56200 54.26900 22.01300
O  35.69000 53.83400 20.82800
C  35.38500 55.67900 22.27600
N  36.60800 48.87400 23.10700
C  36.65200 49.81000 22.07700
C  37.11600 49.13500 20.75200
C  37.60000 47.64700 21.24300
C  37.14300 47.62700 22.70700
C  36.04400 49.13500 19.57200
C  39.14300 47.48000 21.09000
C  39.55700 46.04100 20.69100
N  36.75600 47.50900 25.62400
C  37.06900 46.40200 24.86000
C  37.14500 45.26400 25.70600
C  37.01500 45.78600 27.01000
C  36.76900 47.13900 26.93500
C  37.60200 43.96700 25.35200
C  37.12100 45.37200 28.39200
O  37.46500 44.36300 28.94000
C  36.84700 46.65900 29.23400
C  35.63500 46.37300 30.11300
O  34.65900 45.85200 29.62500
O  35.94200 46.69300 31.40500
C  34.78000 46.39500 32.29400
H  35.48900 53.24100 27.45400
H  36.33600 51.65600 21.23000
H  37.51100 45.55200 22.95100
H  35.68300 49.47800 30.32300
H  36.50700 52.15000 29.35400
H  34.67400 52.61600 30.52500
H  34.13200 51.05600 30.65600
H  33.66500 51.94400 29.23900
H  38.34300 50.86600 29.75400
H  38.37500 49.17100 29.94600
H  38.70600 51.04200 31.88000
H  38.56000 49.31500 32.25700
H  35.67900 55.82400 25.03300
H  35.13200 55.09300 26.35300
H  33.96900 55.35800 25.13000
H  36.13300 56.06100 22.97100
H  34.35100 55.95700 22.47800
H  35.63500 56.14800 21.32500
H  37.96800 49.73600 20.43500
H  36.95100 46.95900 20.70000
H  35.07800 49.12900 20.07600
H  36.09700 48.32400 18.84600
H  36.22500 50.08800 19.07500
H  39.71300 47.44600 22.01900
H  39.63800 48.21900 20.46000
H  38.68100 45.39300 20.71800
H  40.28200 45.61200 21.38300
H  40.05500 46.09500 19.72300
H  38.42200 43.65200 25.99600
H  37.80600 43.81400 24.29300
H  36.72000 43.34700 25.51200
H  37.70900 46.90400 29.85500
H  34.55800 45.33300 32.19400
H  33.94700 47.06900 32.09400
H  34.99600 46.46800 33.36000
Mg -5.01700 25.10800 26.73200
C  -3.43900 26.58500 29.56000
C  -6.42200 22.92400 28.89900
C  -6.45700 23.70400 24.15000
C  -2.94000 27.21700 24.62200
N  -4.94100 24.81000 29.02200
C  -4.31300 25.58600 29.95500
C  -4.71300 25.19400 31.38400
C  -5.14300 23.66000 31.00600
C  -5.55100 23.77900 29.57800
C  -3.85500 22.72900 31.17800
C  -5.80800 26.16500 32.02000
C  -5.48200 26.91100 33.31300
H  -4.80600 26.05200 34.42900
N  -6.36200 23.62600 26.55600
C  -6.94100 22.84900 27.58100
C  -7.82700 21.81800 27.06100
C  -7.85400 22.10800 25.69300
C  -6.87200 23.17400 25.39500
C  -8.57800 20.75100 27.84100
C  -8.79900 21.51200 24.63300
O  -8.69800 21.81500 23.46600
C  -9.88100 20.42500 24.93100
N  -4.67300 25.38500 24.73700
C  -5.57300 24.76100 23.83900
C  -5.37800 25.30400 22.46600
C  -4.23600 26.42200 22.59900
C  -3.87400 26.36400 24.08300
C  -5.11200 24.25900 21.33300
C  -4.60000 27.89100 22.03400
C  -3.58300 28.49700 20.98100
N  -3.51700 26.65400 26.96100
C  -2.72800 27.35400 26.04600
C  -1.81500 28.16500 26.73100
C  -2.10700 27.92800 28.12200
C  -3.12900 26.96900 28.20400
C  -0.85300 29.21100 26.07000
C  -1.65300 28.23000 29.43600
O  -0.69500 28.90100 29.77400
C  -2.65500 27.44700 30.44300
C  -1.68200 26.81800 31.39200
O  -1.29900 25.65400 31.22900
O  -1.35300 27.64800 32.45900
C  -0.44200 27.01000 33.41600
H  -6.90200 22.18000 29.53800
H  -7.07000 23.51100 23.26700
H  -2.43500 27.85100 23.89000
H  -3.77700 25.24400 31.93900
H  -5.96500 23.41500 31.67900
H  -3.97500 22.28200 32.16500
H  -2.96000 23.35000 31.21900
H  -3.82000 21.88800 30.48500
H  -6.76300 25.66500 32.17900
H  -5.96200 26.80700 31.15300
H  -6.38700 27.36000 33.72100
H  -4.71700 27.64300 33.05600
H  -8.29200 20.80400 28.89200
H  -8.39100 19.71600 27.55800
H  -9.65500 20.91300 27.88300
H  -9.39900 19.46000 25.08800
H  -10.47900 20.40800 24.02000
H  -10.41000 20.68800 25.84700
H  -6.28100 25.85400 22.20100
H  -3.39300 26.05200 22.01700
H  -4.63500 24.62800 20.42500
H  -6.05900 24.04200 20.83800
H  -4.78300 23.28400 21.69300
H  -4.82000 28.64100 22.79500
H  -5.55500 27.80800 21.51500
H  -3.49300 29.58000 21.06600
H  -4.08100 28.22600 20.05000
H  -2.54200 28.17300 20.98500
H  -0.66600 28.93500 25.03200
H  0.06200 29.26800 26.66000
H  -1.20600 30.24100 26.01700
H  -3.22500 28.09200 31.11100
H  0.38400 26.60200 32.83400
H  -1.01000 26.28000 33.99300
H  -0.14800 27.78600 34.12200

