158

Mg 1.79200 -2.35400 44.95800
C  5.05200 -1.17300 43.86600
C  0.33900 -0.31300 42.58700
C  -1.14500 -4.02700 45.40700
C  3.58200 -5.19600 46.19000
N  2.66900 -1.01300 43.33300
C  3.94600 -0.52400 43.26000
C  3.97900 0.59400 42.19500
C  2.50300 0.81600 41.80300
C  1.72100 -0.21600 42.59600
C  2.01800 2.28500 41.85600
C  4.89400 0.16300 40.94100
C  6.16700 1.04400 40.73500
H  6.11200 1.91700 39.40400
N  -0.13900 -2.09800 44.22000
C  -0.51100 -1.10600 43.25000
C  -1.97200 -1.18300 43.19000
C  -2.49700 -2.17300 43.99100
C  -1.24300 -2.83900 44.60100
C  -2.69600 -0.25400 42.22700
C  -4.01300 -2.68100 44.00600
O  -4.84400 -2.01100 43.40900
C  -4.42200 -3.97800 44.59800
N  1.31600 -4.18100 45.84200
C  0.01600 -4.63900 45.88900
C  -0.11000 -5.99600 46.51900
C  1.35600 -6.41800 46.74300
C  2.17700 -5.19100 46.26900
C  -0.99900 -6.16000 47.78000
C  1.65900 -7.76300 46.05300
C  2.81300 -8.57000 46.75500
N  3.87400 -3.04000 45.14400
C  4.41800 -4.14800 45.69300
C  5.87200 -4.18400 45.57700
C  6.14500 -3.01000 44.87900
C  4.92100 -2.27400 44.72900
C  6.76000 -5.26100 45.93100
C  7.22600 -2.34100 44.23900
O  8.39100 -2.68600 44.06400
C  6.59700 -0.99200 43.76900
C  7.11800 0.10200 44.67200
O  6.58500 0.48300 45.73400
O  8.12800 0.71700 44.05300
C  8.55000 2.08400 44.58900
H  -0.20900 0.42500 41.99700
H  -1.99900 -4.70600 45.44900
H  4.09700 -6.08900 46.54800
H  4.26800 1.49100 42.74300
H  2.29800 0.64400 40.74700
H  1.47500 2.50600 40.93700
H  2.85000 2.98700 41.89700
H  1.35900 2.40700 42.71500
H  4.33100 0.14900 40.00800
H  5.16500 -0.87900 41.11300
H  7.12300 0.52900 40.83100
H  6.17300 1.71300 41.59600
H  -3.77000 -0.17800 42.39800
H  -2.72900 -0.62500 41.20300
H  -2.18800 0.71100 42.22800
H  -5.49900 -4.03600 44.43900
H  -4.13400 -3.84600 45.64000
H  -3.84700 -4.64700 43.95800
H  -0.56000 -6.55900 45.70200
H  1.51500 -6.61800 47.80300
H  -1.15300 -5.12700 48.09100
H  -0.50700 -6.73600 48.56400
H  -2.01300 -6.50200 47.57100
H  1.90800 -7.54500 45.01500
H  0.73200 -8.33300 46.10900
H  3.55000 -8.78000 45.98000
H  2.35400 -9.51500 47.04600
H  3.24700 -8.10600 47.64100
H  7.16900 -5.52400 44.95500
H  6.22000 -6.11200 46.34400
H  7.53200 -4.86200 46.58900
H  6.87800 -0.72400 42.75100
H  9.62800 2.07400 44.42500
H  8.40600 2.20200 45.66300
H  8.10500 2.90000 44.02000
Mg -11.47300 16.00900 41.95200
C  -7.90400 16.13500 41.79800
C  -11.29500 19.43800 41.30600
C  -14.60900 15.78200 41.16800
C  -11.19100 12.42500 42.14200
N  -9.73700 17.60900 41.58300
C  -8.42400 17.40800 41.61200
C  -7.65100 18.69800 41.52300
C  -8.73700 19.75400 41.74300
C  -10.01600 18.92500 41.62900
C  -8.78000 20.45300 43.19000
C  -6.98600 18.95100 40.08600
C  -5.45400 19.07200 40.04400
H  -4.76700 18.45800 38.77000
N  -12.75100 17.41400 41.26700
C  -12.53400 18.75800 41.14000
C  -13.78400 19.42600 40.71100
C  -14.75900 18.38900 40.70900
C  -14.08000 17.12500 41.06700
C  -13.88800 20.90100 40.31100
C  -16.29300 18.59200 40.58400
O  -16.72800 19.71600 40.28600
C  -17.24300 17.54500 40.88400
N  -12.64500 14.30000 41.53500
C  -13.99000 14.55900 41.38200
C  -14.72700 13.22800 41.38500
C  -13.65300 12.13800 41.46300
C  -12.39100 12.95800 41.67600
C  -15.79200 13.18600 42.51200
C  -13.47800 11.15100 40.24900
C  -13.11700 9.62000 40.41800
N  -9.94400 14.54100 42.09100
C  -10.02700 13.17600 42.25800
C  -8.67100 12.71900 42.54900
C  -7.85400 13.84800 42.38700
C  -8.64100 14.90700 42.04100
C  -8.18700 11.32700 42.88700
C  -6.52300 14.31700 42.43400
O  -5.57900 13.61400 42.66100
C  -6.43600 15.84900 42.12200
C  -5.96300 16.41400 43.46200
O  -6.70900 16.70600 44.41200
O  -4.68300 16.96300 43.34500
C  -4.38400 18.04600 44.36200
H  -11.23000 20.52400 41.21800
H  -15.66800 15.54700 41.04400
H  -11.18200 11.34100 42.26900
H  -6.87600 18.80300 42.28200
H  -8.86700 20.48200 40.94200
H  -9.74200 20.28900 43.67400
H  -8.53800 21.50200 43.01800
H  -7.94600 19.93400 43.66300
H  -7.45200 19.78400 39.56000
H  -7.15200 18.07800 39.45500
H  -4.91400 18.68600 40.90900
H  -5.25900 20.14100 40.12500
H  -14.53800 21.05300 39.44900
H  -13.01700 21.50700 40.06100
H  -14.43600 21.35100 41.13800
H  -18.26500 17.92200 40.87200
H  -16.87200 17.06300 41.78800
H  -17.30000 16.81700 40.07500
H  -15.28900 13.04000 40.47000
H  -13.73500 11.54100 42.37100
H  -15.70100 12.29800 43.13600
H  -16.82900 13.25600 42.18200
H  -15.58200 14.08000 43.09900
H  -12.70200 11.62900 39.65100
H  -14.42500 11.22500 39.71600
H  -12.56100 9.38700 41.32700
H  -12.48200 9.41500 39.55600
H  -13.94700 8.91700 40.35500
H  -8.99900 10.63000 43.09800
H  -7.49400 11.47700 43.71500
H  -7.61900 10.84800 42.09000
H  -5.77200 16.15800 41.31500
H  -3.71200 18.82200 43.99500
H  -3.86300 17.52000 45.16200
H  -5.28300 18.56900 44.68600

