158

Mg 30.75500 58.55900 40.33800
C  27.85700 56.49900 39.48100
C  32.69200 55.91300 39.49600
C  33.31100 60.63100 40.43500
C  28.55000 61.26800 40.58900
N  30.28300 56.48100 39.49500
C  29.11600 55.80600 39.29500
C  29.37100 54.40900 38.68900
C  30.83600 54.17600 39.21000
C  31.30200 55.61900 39.45000
C  30.89600 53.36000 40.53600
C  29.27500 54.41000 37.15000
C  28.02800 53.52000 36.53300
H  27.15700 54.18800 35.53600
N  32.73600 58.37000 40.01700
C  33.30100 57.15900 39.65200
C  34.69100 57.32800 39.42400
C  35.04300 58.65700 39.86500
C  33.69900 59.31200 40.24600
C  35.69800 56.28000 38.82000
C  36.40800 59.28100 39.93800
O  37.35600 58.65900 39.38400
C  36.70000 60.72000 40.45200
N  30.94800 60.64500 40.71900
C  32.11200 61.31700 40.68800
C  31.96300 62.78100 40.52500
C  30.38400 63.03200 40.71500
C  29.87800 61.57500 40.70600
C  32.74700 63.73200 41.55100
C  29.73100 63.92200 39.61100
C  30.30500 65.28700 39.19700
N  28.59400 58.81900 40.20800
C  27.93000 60.02500 40.29600
C  26.54700 59.81400 40.02600
C  26.41700 58.44600 39.74900
C  27.72700 57.84900 39.83600
C  25.48000 60.89300 40.01600
C  25.55100 57.36900 39.29000
O  24.35600 57.41600 39.05500
C  26.44200 56.14800 39.11500
C  26.06300 55.09300 40.00500
O  26.58400 54.84000 41.08700
O  25.05600 54.27800 39.50700
C  24.46500 53.18300 40.23100
H  33.31100 55.04200 39.26900
H  34.08600 61.36900 40.21700
H  27.86100 62.11600 40.60100
H  28.69800 53.78800 39.28100
H  31.58100 53.78400 38.51800
H  30.00300 52.74100 40.62500
H  30.97400 54.04600 41.38000
H  31.69500 52.62100 40.48400
H  30.13600 53.99200 36.62900
H  29.14600 55.43100 36.79200
H  27.35700 53.02800 37.23800
H  28.54400 52.69400 36.04300
H  36.15400 56.45100 37.84500
H  35.41900 55.22700 38.81500
H  36.53900 56.23700 39.51200
H  36.38600 61.49400 39.75200
H  37.78500 60.71500 40.55700
H  36.13200 60.95500 41.35200
H  32.36200 63.07400 39.55400
H  30.17000 63.46900 41.69000
H  32.11500 63.97800 42.40400
H  32.90500 64.60000 40.91100
H  33.69300 63.28700 41.85900
H  28.71600 64.10600 39.96500
H  29.57000 63.34400 38.70100
H  29.68200 66.17600 39.28800
H  30.74200 65.30000 38.19900
H  31.17400 65.42100 39.84100
H  25.61400 61.55400 39.15900
H  25.45800 61.28600 41.03200
H  24.58300 60.34200 39.73200
H  26.58300 55.79900 38.09200
H  25.16800 52.58600 40.81200
H  24.04700 52.50200 39.48900
H  23.60800 53.48000 40.83500
Mg 9.62700 48.72600 26.49900
C  7.61500 48.77800 29.35600
C  12.38100 49.50500 28.49000
C  11.48100 48.82300 23.77100
C  6.76500 48.21900 24.53500
N  9.91400 49.10700 28.66200
C  8.96600 49.09900 29.64600
C  9.61900 49.36900 31.02500
C  11.05000 49.95800 30.65600
C  11.18700 49.44100 29.20400
C  11.13900 51.43600 30.86200
C  9.65800 48.08600 32.04200
C  9.05300 48.29500 33.44400
H  9.28500 47.11600 34.44900
N  11.59400 49.13100 26.21300
C  12.59600 49.32300 27.14800
C  13.88200 49.38400 26.49400
C  13.64600 49.08000 25.15500
C  12.17200 49.01900 24.99200
C  15.16700 49.67500 27.18700
C  14.73200 48.87200 24.02100
O  14.37500 48.65000 22.89600
C  16.12600 49.02000 24.29400
N  9.13200 48.76900 24.43000
C  10.07400 48.82500 23.47100
C  9.53100 48.51400 22.04200
C  7.98100 48.35800 22.31400
C  7.93000 48.38800 23.85000
C  9.94600 49.62700 21.06300
C  7.35400 47.02400 21.64200
C  6.06700 47.23700 20.93000
N  7.53500 48.52500 26.81200
C  6.47600 48.30100 25.92800
C  5.26100 48.10700 26.67200
C  5.65500 48.21200 28.03900
C  7.05900 48.50400 28.06300
C  3.87300 47.81000 26.03800
C  5.15400 48.10400 29.36900
O  3.97500 47.94100 29.75500
C  6.40400 48.36500 30.27300
C  6.42000 47.16300 31.11200
O  7.06000 46.16400 30.99200
O  5.76800 47.50800 32.30300
C  5.93100 46.53600 33.36900
H  13.24700 49.72000 29.11900
H  12.10100 48.72600 22.87800
H  5.83600 47.95400 24.02400
H  9.04100 50.14500 31.52600
H  11.92400 49.53000 31.14700
H  10.21300 51.90000 31.20000
H  11.35300 51.87400 29.88700
H  11.99800 51.74000 31.46100
H  10.67700 47.70400 32.09100
H  9.09900 47.32100 31.50400
H  7.98200 48.46400 33.33200
H  9.46600 49.20600 33.87700
H  15.83000 48.81200 27.24500
H  15.01900 49.89800 28.24300
H  15.79200 50.44600 26.73500
H  16.41900 50.01100 24.63900
H  16.78400 48.73300 23.47300
H  16.30600 48.37000 25.15100
H  9.96800 47.59000 21.66300
H  7.39700 49.22800 22.01400
H  10.62300 50.31000 21.57600
H  9.02000 50.11300 20.75600
H  10.29000 49.13600 20.15300
H  7.25800 46.22100 22.37300
H  8.11600 46.58600 20.99800
H  6.20600 46.96100 19.88400
H  5.81100 48.29400 21.00100
H  5.28400 46.63400 21.39000
H  3.75400 46.74100 26.21600
H  3.73300 48.02600 24.97900
H  3.07700 48.36500 26.53500
H  6.10600 49.25700 30.82500
H  4.91200 46.42400 33.74000
H  6.71100 46.71300 34.11000
H  6.03700 45.55000 32.91700

