158

Mg 2.14200 -1.15200 43.69100
C  5.48800 -0.05100 43.28200
C  1.17900 1.78900 42.23400
C  -0.98200 -2.47300 43.51300
C  3.38900 -4.10300 44.92100
N  3.26000 0.55900 42.77600
C  4.59100 0.83900 42.66700
C  4.86600 2.23300 42.11500
C  3.47700 2.89700 41.97800
C  2.58600 1.65500 42.37900
C  3.19700 4.15300 42.85800
C  5.70400 2.22300 40.74600
C  5.21700 1.27600 39.61000
H  6.13600 0.15400 38.98000
N  0.39900 -0.45600 42.99500
C  0.17800 0.76000 42.42000
C  -1.13800 0.90000 41.99800
C  -1.83100 -0.25300 42.52000
C  -0.81300 -1.13600 43.04100
C  -1.67300 2.08600 41.28500
C  -3.31100 -0.41000 42.39800
O  -4.04100 0.49000 41.96600
C  -4.04900 -1.72900 42.79700
N  1.36500 -3.09700 43.88900
C  -0.00000 -3.39700 43.93000
C  -0.27200 -4.73600 44.57100
C  1.16700 -5.19100 45.00100
C  2.04600 -4.03100 44.57700
C  -1.35100 -4.93400 45.73100
C  1.61700 -6.55300 44.36300
C  2.49900 -7.43500 45.22700
N  4.05600 -1.95300 44.00800
C  4.38800 -3.14100 44.63100
C  5.84800 -3.17400 44.82800
C  6.32000 -1.97600 44.37400
C  5.19500 -1.28000 43.86500
C  6.72100 -4.34900 45.39600
C  7.47000 -1.10700 44.30100
O  8.61700 -1.35400 44.62400
C  6.96600 0.16400 43.60300
C  7.02700 1.25900 44.60100
O  7.64700 2.27900 44.38200
O  6.36200 0.96800 45.73100
C  6.25400 2.07700 46.71700
H  0.85300 2.73700 41.80000
H  -2.01400 -2.81400 43.62700
H  3.73200 -4.92500 45.55200
H  5.44400 2.92600 42.72600
H  3.09900 3.24100 41.01500
H  3.20800 3.87400 43.91200
H  2.25800 4.63000 42.57800
H  4.01600 4.85600 42.70900
H  6.67100 1.86300 41.09700
H  5.75200 3.23000 40.33100
H  4.78200 1.78300 38.74800
H  4.31300 0.81200 40.00600
H  -2.00700 1.63600 40.34900
H  -0.98400 2.88400 41.00900
H  -2.58000 2.59700 41.60600
H  -3.60700 -2.60900 42.33000
H  -5.11000 -1.67200 42.55400
H  -4.05700 -1.95900 43.86200
H  -0.49300 -5.41900 43.75100
H  1.15200 -5.27700 46.08800
H  -0.87900 -5.46000 46.56100
H  -2.21400 -5.48200 45.35500
H  -1.66600 -3.91700 45.96600
H  2.15700 -6.29300 43.45300
H  0.76500 -7.13300 44.00800
H  3.53100 -7.50400 44.88200
H  2.19600 -8.47300 45.36300
H  2.56900 -7.06300 46.24900
H  7.57100 -4.72400 44.82700
H  6.11000 -5.24800 45.48400
H  7.15700 -4.12300 46.36900
H  7.56800 0.53100 42.77100
H  6.42000 3.05100 46.25800
H  6.92500 1.93500 47.56400
H  5.26400 2.10900 47.17200
Mg -0.41400 43.23400 25.24200
C  1.95900 42.81600 27.93500
C  -2.90200 42.11900 27.31100
C  -2.29900 43.08600 22.59700
C  2.47100 43.78500 23.22500
N  -0.41900 42.69500 27.30700
C  0.60300 42.66300 28.26300
C  0.08800 42.47900 29.72000
C  -1.38200 42.09300 29.46300
C  -1.60900 42.26300 27.89600
C  -1.96800 40.66800 29.93600
C  0.46900 43.68600 30.66600
C  0.59100 43.50600 32.19600
H  0.36800 42.03800 32.77800
N  -2.44900 42.84600 24.99700
C  -3.31600 42.32300 25.94200
C  -4.57900 42.04100 25.36000
C  -4.44000 42.29300 23.92900
C  -3.02700 42.73500 23.76600
C  -5.76100 41.66300 26.17100
C  -5.44200 42.23200 22.82700
O  -5.19600 42.62500 21.67200
C  -6.85000 41.75500 23.00900
N  0.08800 43.53100 23.25000
C  -0.90000 43.31400 22.34600
C  -0.40300 43.77000 20.89600
C  1.07600 44.03900 21.14300
C  1.27100 43.72900 22.60600
C  -0.73900 42.83800 19.75100
C  1.49900 45.41600 20.68200
C  1.04300 46.58600 21.56200
N  1.78800 43.20100 25.45300
C  2.80300 43.52700 24.54700
C  4.12500 43.37000 25.09800
C  3.87100 43.12500 26.44400
C  2.43000 43.07400 26.62000
C  5.46000 43.54600 24.48800
C  4.50200 42.91600 27.74500
O  5.69400 42.85200 28.05800
C  3.24500 42.85600 28.80800
C  3.42600 41.61000 29.62600
O  2.88700 40.49100 29.53300
O  4.34000 41.85300 30.58300
C  4.47100 40.81300 31.60600
H  -3.78100 41.84900 27.90100
H  -2.83400 43.14900 21.64700
H  3.32800 43.97600 22.57600
H  0.65900 41.65900 30.15600
H  -1.96500 42.83700 30.00400
H  -1.23000 40.13000 30.53100
H  -2.24600 40.03600 29.09200
H  -2.75300 40.89600 30.65700
H  -0.16900 44.52600 30.39400
H  1.47200 43.96000 30.33700
H  -0.21800 44.14400 32.55300
H  1.57900 43.68300 32.62100
H  -6.24900 40.78400 25.75000
H  -6.40100 42.50900 26.42400
H  -5.40700 41.19700 27.09100
H  -7.17200 41.50700 21.99800
H  -7.33000 42.63400 23.44100
H  -6.90400 40.89800 23.68000
H  -0.90200 44.71500 20.68300
H  1.69200 43.32200 20.60100
H  -1.64100 43.24800 19.29500
H  -0.89700 41.85900 20.20300
H  0.06000 42.97800 19.02300
H  1.04000 45.44900 19.69400
H  2.58500 45.47800 20.62200
H  0.57500 46.27100 22.49400
H  0.32700 47.24700 21.07300
H  1.91300 47.23100 21.68600
H  5.72700 44.53400 24.11400
H  5.56300 42.94100 23.58700
H  6.20100 43.14900 25.18300
H  3.26900 43.70700 29.48800
H  4.95600 39.95100 31.14800
H  3.45900 40.50200 31.86400
H  4.97900 41.05700 32.53900

