158

Mg 47.83900 25.33400 28.00700
C  48.68600 27.58000 30.47900
C  46.52200 23.23400 30.65500
C  47.45900 22.81600 25.85000
C  49.47500 27.26400 25.71400
N  47.48400 25.53700 30.29500
C  47.89500 26.52500 31.09600
C  47.73400 26.30800 32.59100
C  47.14000 24.85200 32.57200
C  47.02500 24.51300 31.08600
C  47.80900 23.82800 33.58600
C  46.90400 27.49800 33.24800
C  46.00000 27.10200 34.42600
H  45.64800 28.17100 35.44400
N  47.11300 23.34300 28.19600
C  46.56200 22.67700 29.33700
C  46.01800 21.33400 28.97500
C  46.21700 21.27300 27.55500
C  46.94900 22.46500 27.11200
C  45.32100 20.26500 29.84400
C  45.79700 20.19300 26.62200
O  46.28400 20.17700 25.47500
C  44.95400 19.09100 26.98000
N  48.39600 25.10400 26.02600
C  48.16800 23.97200 25.37000
C  48.59000 24.22000 23.86900
C  48.84700 25.79600 23.80800
C  48.83200 26.14100 25.26100
C  49.83500 23.40300 23.36900
C  47.84600 26.63500 23.01000
C  48.49300 27.88900 22.32700
N  48.82800 27.04100 28.02900
C  49.49300 27.71900 27.02200
C  50.23600 28.84300 27.52100
C  49.89800 28.88600 28.86700
C  48.98600 27.75700 29.13400
C  51.02600 29.79800 26.73300
C  50.08800 29.65700 30.08600
O  50.65000 30.71800 30.29200
C  49.25400 28.83000 31.13500
C  50.22000 28.38700 32.18400
O  51.19700 27.70000 32.00600
O  49.94800 28.96600 33.41000
C  50.76500 28.59700 34.60100
H  46.26500 22.52600 31.44600
H  47.38900 22.06100 25.06500
H  49.96600 27.89100 24.96600
H  48.71100 26.24500 33.07000
H  46.08900 24.93800 32.85100
H  46.98800 23.61100 34.27000
H  48.57500 24.16600 34.28400
H  48.31500 22.97000 33.14200
H  46.27300 27.85600 32.43500
H  47.63200 28.29000 33.42400
H  46.48000 26.23200 34.87300
H  45.07100 26.66500 34.05900
H  45.85600 19.32100 29.94400
H  44.29200 20.16300 29.50000
H  45.18000 20.72200 30.82300
H  44.61300 18.53300 26.10900
H  44.05300 19.39400 27.51400
H  45.49200 18.32000 27.53000
H  47.78500 23.80800 23.26000
H  49.87500 25.99700 23.50700
H  50.66700 23.57500 24.05100
H  50.20400 23.76300 22.40900
H  49.64600 22.35000 23.15800
H  47.00300 26.97500 23.61000
H  47.50100 25.96700 22.22000
H  47.78000 28.70600 22.43500
H  48.77100 27.69100 21.29200
H  49.44700 28.22800 22.72900
H  50.42500 30.43300 26.08300
H  51.82400 29.21400 26.27500
H  51.46800 30.47500 27.46400
H  48.52500 29.47000 31.63100
H  50.12300 27.91200 35.15400
H  50.90900 29.44600 35.26900
H  51.70500 28.07000 34.43700
Mg -1.55800 34.42400 27.53400
C  -3.58400 32.81000 30.10000
C  -0.30500 36.47100 30.06200
C  -0.06300 36.22000 25.08400
C  -3.32500 32.53200 25.19500
N  -1.89000 34.51400 29.84200
C  -2.71000 33.74300 30.63600
C  -2.65900 34.07500 32.15700
C  -1.61600 35.36800 32.10900
C  -1.22500 35.52800 30.56400
C  -2.14100 36.63200 32.78100
C  -2.17800 32.81400 33.01900
C  -2.94200 32.51500 34.31300
H  -2.07500 32.12800 35.48400
N  -0.19900 36.06600 27.55300
C  0.22500 36.69100 28.73500
C  1.15000 37.74500 28.41400
C  1.16700 37.79900 26.97400
C  0.27700 36.65200 26.43700
C  1.93800 38.56900 29.44700
C  1.91000 38.82700 26.08600
O  1.79900 38.84300 24.87700
C  2.88800 39.85300 26.67300
N  -1.72800 34.37100 25.45800
C  -0.90600 35.13900 24.64900
C  -1.28800 34.90700 23.15600
C  -1.93700 33.45300 23.21900
C  -2.40700 33.44800 24.68100
C  -2.24800 36.03200 22.67900
C  -0.96800 32.25200 23.02000
C  -0.85000 31.56400 21.63400
N  -3.09600 32.97600 27.60300
C  -3.67100 32.26600 26.48100
C  -4.53800 31.30600 26.98700
C  -4.56300 31.49900 28.37800
C  -3.63000 32.47000 28.70500
C  -5.41200 30.46500 26.06500
C  -5.14000 31.00600 29.68700
O  -5.99000 30.20700 29.90200
C  -4.51300 31.85300 30.80200
C  -5.59000 32.51800 31.60600
O  -6.11600 33.58500 31.28300
O  -5.84000 31.69200 32.71700
C  -6.71400 32.35700 33.79800
H  0.04900 37.12800 30.85900
H  0.48800 36.69700 24.27000
H  -3.52400 31.83300 24.37900
H  -3.64800 34.42000 32.46000
H  -0.69400 35.04400 32.59000
H  -1.53300 36.74200 33.67900
H  -3.20500 36.47100 32.95100
H  -1.99200 37.50500 32.14500
H  -1.13000 33.00700 33.24800
H  -2.24100 31.92600 32.39100
H  -3.48100 31.59700 34.07800
H  -3.53800 33.40900 34.49600
H  2.96500 38.54000 29.08400
H  1.94600 38.09000 30.42600
H  1.45400 39.54400 29.49300
H  2.42400 40.63100 27.28000
H  3.34200 40.33500 25.80700
H  3.75000 39.34800 27.10800
H  -0.41500 35.08300 22.52700
H  -2.87200 33.38000 22.66500
H  -2.02900 36.43600 21.69100
H  -2.18600 36.84300 23.40500
H  -3.21800 35.53700 22.64200
H  -1.02700 31.43200 23.73500
H  -0.03200 32.78200 23.19400
H  0.03900 31.95400 21.13900
H  -1.73500 31.74600 21.02500
H  -0.88100 30.47500 21.67700
H  -5.06700 29.43200 26.04400
H  -5.34900 30.87300 25.05600
H  -6.44100 30.54200 26.41700
H  -4.04400 31.07600 31.40500
H  -5.97800 32.52900 34.58300
H  -7.32000 31.51200 34.12400
H  -7.30300 33.26400 33.65400

