158

Mg -10.00800 39.77800 40.72900
C  -8.56500 36.69200 39.50700
C  -7.14500 41.35000 39.49800
C  -11.65400 42.72300 40.74900
C  -13.00800 38.06100 40.96800
N  -8.10200 39.07100 39.68700
C  -7.71100 37.79200 39.28100
C  -6.34500 37.79400 38.59000
C  -5.77200 39.20800 39.03300
C  -7.07200 39.94400 39.43500
C  -4.68600 39.20300 40.12500
C  -6.23800 37.49200 37.08400
C  -7.52800 37.71800 36.26400
H  -7.82500 36.79700 35.05500
N  -9.41100 41.80200 40.34600
C  -8.23900 42.21200 39.87300
C  -8.14400 43.63700 39.90300
C  -9.45400 44.04700 40.25800
C  -10.26300 42.87100 40.49400
C  -6.90500 44.47700 39.43500
C  -9.87700 45.49100 40.43000
O  -9.13400 46.40200 40.02700
C  -11.13100 45.83900 41.13100
N  -11.88200 40.35600 40.97400
C  -12.42800 41.59900 41.00800
C  -13.97600 41.63200 41.06500
C  -14.37100 40.19100 41.30900
C  -12.98100 39.48200 41.06500
C  -14.49700 42.60600 42.17100
C  -15.60400 39.74400 40.44500
C  -16.77700 38.98200 41.05700
N  -10.66200 37.69300 40.64400
C  -11.94400 37.22200 40.72300
C  -11.82400 35.75300 40.54900
C  -10.55800 35.49800 40.06500
C  -9.87600 36.74700 40.10500
C  -12.92900 34.73900 40.68700
C  -9.67100 34.52200 39.55000
O  -9.79300 33.31800 39.37400
C  -8.34900 35.19400 39.19500
C  -7.30300 34.59200 40.02500
O  -7.25100 34.68700 41.24300
O  -6.45400 33.86600 39.25800
C  -5.39300 33.10300 39.92600
H  -6.21700 41.87000 39.25000
H  -12.22900 43.64900 40.68200
H  -13.97500 37.55500 41.01400
H  -5.70900 37.15800 39.20600
H  -5.28500 39.64800 38.16200
H  -5.06900 39.14200 41.14400
H  -3.96800 39.99200 39.90200
H  -4.05100 38.31700 40.11700
H  -5.88400 36.46600 36.98300
H  -5.39800 38.10900 36.76300
H  -7.46500 38.73500 35.87700
H  -8.45800 37.59200 36.81800
H  -7.16000 45.48600 39.11200
H  -6.45600 43.87400 38.64500
H  -6.12900 44.40900 40.19700
H  -11.16200 45.49500 42.16500
H  -11.97600 45.64400 40.47100
H  -11.23900 46.91500 40.99400
H  -14.25500 42.05600 40.10000
H  -14.46900 39.90900 42.35800
H  -13.58200 43.13900 42.43200
H  -14.87300 42.16300 43.09200
H  -15.30700 43.23900 41.80800
H  -15.28500 39.04500 39.67300
H  -15.97600 40.67300 40.01200
H  -17.69700 39.52800 40.85000
H  -16.58200 38.79000 42.11200
H  -16.85300 38.03100 40.53000
H  -13.71500 34.88300 39.94600
H  -13.31200 34.77000 41.70700
H  -12.52200 33.73300 40.58100
H  -8.22100 35.07600 38.11900
H  -5.37400 32.10000 39.49900
H  -5.45100 33.16200 41.01300
H  -4.41500 33.55600 39.76300
Mg -13.04900 16.00000 42.37300
C  -9.99200 14.47500 41.69500
C  -11.75400 18.82500 40.45200
C  -16.13200 17.30200 41.92500
C  -14.40300 12.90100 43.18200
N  -11.15200 16.53700 41.16700
C  -10.00700 15.73500 41.12000
C  -8.82300 16.49600 40.38100
C  -9.40900 17.94300 40.21100
C  -10.89600 17.73600 40.59200
C  -8.73600 19.06500 41.06400
C  -8.30700 15.93400 39.01100
C  -6.78400 16.26300 38.91400
H  -6.39300 16.88400 37.66300
N  -13.82800 17.85900 41.61000
C  -13.08300 18.84200 40.88000
C  -14.08800 19.88500 40.42800
C  -15.39200 19.30400 40.46100
C  -15.17100 18.09700 41.34800
C  -13.77900 21.21000 39.86700
C  -16.65000 19.95700 40.01200
O  -16.60900 20.99200 39.39200
C  -17.94900 19.33500 40.28700
N  -14.96600 15.15800 42.37800
C  -16.04800 15.97400 42.39200
C  -17.30000 15.16000 42.77300
C  -16.82600 13.64600 42.81000
C  -15.31600 13.87700 42.80200
C  -17.83900 15.65900 44.13200
C  -17.41800 12.75800 41.67100
C  -18.03700 11.41300 42.19500
N  -12.33600 14.06700 42.75700
C  -12.94800 12.98000 43.12400
C  -11.96000 11.98200 43.27500
C  -10.77300 12.48200 42.74500
C  -11.05900 13.76100 42.38700
C  -12.19700 10.56000 43.66600
C  -9.38200 12.27100 42.47200
O  -8.69500 11.26400 42.61900
C  -8.83200 13.58300 41.76500
C  -7.72500 14.05700 42.60900
O  -7.79200 14.19700 43.82200
O  -6.63400 14.23600 41.75100
C  -5.29300 14.66900 42.31300
H  -11.51100 19.76200 39.94600
H  -17.08900 17.82600 41.96500
H  -14.81900 11.95500 43.53500
H  -8.03600 16.56400 41.13200
H  -9.42000 18.20900 39.15400
H  -7.93700 18.69400 41.70500
H  -9.40400 19.51200 41.80000
H  -8.38000 19.75200 40.29600
H  -8.84700 16.37600 38.17300
H  -8.45800 14.85900 39.11300
H  -6.17600 15.38100 39.11400
H  -6.55500 17.01400 39.67000
H  -14.18400 22.04900 40.43300
H  -14.13400 21.16600 38.83700
H  -12.72400 21.45000 39.73300
H  -18.02200 18.26800 40.07600
H  -18.63700 19.87800 39.63900
H  -18.26800 19.52200 41.31300
H  -17.91000 15.45200 41.91800
H  -17.02600 13.26700 43.81100
H  -17.01600 16.16400 44.63800
H  -17.92200 14.80800 44.80700
H  -18.75200 16.23700 43.99000
H  -16.54000 12.37400 41.15200
H  -18.05800 13.24800 40.93600
H  -19.12600 11.43800 42.16200
H  -17.86600 11.23900 43.25700
H  -17.69200 10.49000 41.73000
H  -12.89600 10.19300 42.91400
H  -12.70700 10.53500 44.62800
H  -11.30800 9.93000 43.69100
H  -8.64200 13.26300 40.74000
H  -4.61200 14.78400 41.46900
H  -4.88200 13.93400 43.00500
H  -5.40300 15.63400 42.80800

