158

Mg 8.83300 4.02800 27.25700
C  10.23600 2.41800 30.03900
C  7.02300 5.97400 29.47500
C  7.63700 5.63100 24.61200
C  10.57400 1.84400 25.23700
N  8.71400 4.15500 29.52800
C  9.32800 3.38200 30.43900
C  8.86500 3.72100 31.89800
C  7.64000 4.61900 31.62400
C  7.73800 4.93300 30.09100
C  6.29600 4.04300 32.08600
C  9.94600 4.32800 32.83700
C  9.87200 3.91200 34.34400
H  10.52500 4.79500 35.37700
N  7.52300 5.63400 27.09300
C  6.96200 6.40300 28.13200
C  6.12100 7.45900 27.55800
C  6.21400 7.31000 26.13500
C  7.13800 6.14300 25.86900
C  5.33700 8.38000 28.38300
C  5.63800 8.18600 25.05900
O  5.88200 8.00600 23.84900
C  4.63100 9.18100 25.38900
N  9.11200 3.78500 25.20200
C  8.47800 4.60500 24.29100
C  8.82200 4.17500 22.85300
C  9.77700 2.99500 23.06800
C  9.81100 2.84600 24.59900
C  7.52800 3.89200 22.02800
C  11.19800 3.23800 22.43900
C  11.84000 2.11400 21.59700
N  10.09700 2.46000 27.48100
C  10.71600 1.68200 26.57000
C  11.59000 0.77700 27.15600
C  11.44500 1.00200 28.51000
C  10.50400 2.07100 28.69600
C  12.35600 -0.24800 26.41800
C  11.84100 0.60800 29.83600
O  12.67600 -0.23700 30.18700
C  11.07500 1.49200 30.84000
C  10.28100 0.62900 31.74900
O  9.51300 -0.27300 31.35900
O  10.70500 0.71600 33.01500
C  9.93500 -0.10500 34.04600
H  6.36700 6.45600 30.20300
H  7.43200 6.15600 23.67600
H  10.96500 1.11200 24.52700
H  8.52800 2.82800 32.42600
H  7.76400 5.51400 32.23400
H  5.61400 3.88300 31.25100
H  5.79600 4.79000 32.70200
H  6.47800 3.08400 32.57100
H  10.16400 5.38500 32.68300
H  10.93900 3.98800 32.54400
H  10.38800 2.95400 34.42000
H  8.79700 3.93600 34.52000
H  5.74700 8.31500 29.39100
H  4.26700 8.18200 28.31900
H  5.58100 9.36200 27.97900
H  5.03700 10.02100 25.95300
H  3.75500 8.77400 25.89400
H  4.22700 9.59800 24.46600
H  9.32100 4.93700 22.25400
H  9.35700 2.07200 22.66600
H  7.84500 4.14200 21.01500
H  6.72300 4.54600 22.36300
H  7.29800 2.83800 22.18500
H  11.85500 3.55000 23.25100
H  11.05200 4.02900 21.70200
H  12.87300 1.80100 21.74500
H  11.68500 2.35000 20.54500
H  11.27300 1.18300 21.60800
H  11.91800 -0.48300 25.44800
H  12.41200 -1.16500 27.00400
H  13.43700 -0.10800 26.40700
H  11.82100 2.01600 31.43600
H  10.59100 -0.20900 34.91000
H  9.60000 -1.11100 33.79500
H  9.13100 0.62200 34.16200
Mg 26.18500 1.48400 29.55800
C  28.33100 1.15600 32.37700
C  23.54300 1.77200 31.71500
C  24.25600 1.68600 26.88100
C  28.97500 0.63200 27.54900
N  25.96400 1.27700 31.87600
C  26.98100 1.32000 32.77500
C  26.36800 1.56000 34.19800
C  24.78600 1.47100 34.00100
C  24.74800 1.52300 32.43600
C  24.17000 0.14100 34.52500
C  26.86000 2.80100 34.89300
C  27.90100 2.68300 36.08500
H  27.66100 3.60400 37.23000
N  24.17600 1.65400 29.32400
C  23.28500 1.86000 30.36800
C  22.01200 2.11700 29.77200
C  22.09700 1.95400 28.37300
C  23.54500 1.64600 28.11700
C  20.75900 2.44000 30.48600
C  21.12400 2.05500 27.25500
O  21.33000 1.69800 26.12100
C  19.73800 2.67400 27.46200
N  26.57600 1.18200 27.44600
C  25.62400 1.38600 26.52900
C  26.26700 1.33100 25.09900
C  27.66900 0.82200 25.30400
C  27.78200 0.97600 26.89400
C  25.35200 0.59000 24.08300
C  28.82600 1.50900 24.58400
C  29.84600 0.65800 23.71000
N  28.22500 0.98700 29.88300
C  29.23200 0.79200 28.90400
C  30.51700 0.56500 29.63700
C  30.13900 0.70500 30.96400
C  28.78500 0.97900 31.03900
C  31.87900 0.45400 29.01600
C  30.77900 0.69000 32.22300
O  31.92800 0.46400 32.67400
C  29.55700 1.06700 33.25900
C  29.42900 0.01900 34.27700
O  28.96500 -1.08800 34.07000
O  30.00000 0.46300 35.45200
C  30.16400 -0.49800 36.51100
H  22.71000 2.03900 32.36900
H  23.64700 2.04300 26.04700
H  29.79100 0.37300 26.87100
H  26.60400 0.81000 34.95300
H  24.21500 2.36600 34.24900
H  23.51200 -0.34500 33.80500
H  23.54300 0.27500 35.40700
H  24.93400 -0.51400 34.94400
H  26.01000 3.36000 35.28500
H  27.31100 3.48400 34.17300
H  28.91600 2.87300 35.73500
H  27.87000 1.63400 36.37900
H  20.31900 3.36700 30.11900
H  20.86600 2.61400 31.55600
H  20.13800 1.56100 30.31300
H  19.17200 2.31400 28.32100
H  19.15800 2.47500 26.56100
H  19.91200 3.74700 27.54400
H  26.21700 2.36400 24.75600
H  27.73700 -0.25700 25.16800
H  24.47200 0.17200 24.57200
H  25.90100 -0.26300 23.68500
H  25.13800 1.39000 23.37400
H  29.34800 2.12900 25.31300
H  28.34600 2.21500 23.90700
H  30.83500 1.09300 23.85500
H  29.50600 0.44000 22.69800
H  29.83600 -0.33300 24.16400
H  32.63000 1.08100 29.49700
H  31.79400 0.76600 27.97500
H  32.12100 -0.60800 28.98500
H  29.83000 2.00700 33.73800
H  29.19800 -0.70000 36.97500
H  30.92400 -0.16600 37.21700
H  30.52100 -1.43500 36.08300

