158

Mg 30.46900 57.86500 40.56000
C  27.47100 56.30300 39.69600
C  32.18300 55.37800 38.95800
C  33.11600 59.89600 40.51900
C  28.43900 60.70000 41.47800
N  29.82300 56.08700 39.45300
C  28.57400 55.49400 39.35300
C  28.68300 54.15800 38.65400
C  30.18000 53.84200 38.68200
C  30.83000 55.18300 39.07000
C  30.54600 52.60600 39.54200
C  28.13600 53.99200 37.24600
C  28.15900 55.20100 36.34700
H  28.23600 54.88600 34.81500
N  32.43500 57.55400 39.98400
C  33.01300 56.49900 39.35000
C  34.41000 56.74900 39.17100
C  34.74500 58.05800 39.60800
C  33.41000 58.54900 40.07700
C  35.30400 55.70400 38.39600
C  36.15000 58.69100 39.54300
O  37.09000 58.01400 39.08200
C  36.41700 60.07500 40.10100
N  30.78800 59.98000 41.00600
C  32.00400 60.45200 41.03200
C  31.95500 61.96000 41.47000
C  30.46800 62.19900 41.88300
C  29.84900 60.86500 41.46100
C  33.04200 62.39100 42.56000
C  29.75500 63.41000 41.19900
C  30.50000 64.70300 40.81800
N  28.32500 58.48700 40.58000
C  27.68500 59.56000 41.06000
C  26.27400 59.34600 40.83800
C  26.19400 58.03900 40.37200
C  27.44300 57.57000 40.19700
C  25.24700 60.37300 41.03200
C  25.22500 57.10500 39.88600
O  24.02300 57.23100 39.73400
C  26.08800 55.90400 39.31100
C  25.52700 54.69300 39.97900
O  25.25400 54.55600 41.16700
O  25.28000 53.73100 39.02300
C  24.44800 52.58800 39.50500
H  32.74300 54.48500 38.67200
H  33.88000 60.66100 40.36100
H  27.84400 61.54500 41.83300
H  28.00000 53.56400 39.26100
H  30.41100 53.80800 37.61800
H  30.47800 51.80000 38.81100
H  29.68200 52.37200 40.16500
H  31.47400 52.70900 40.10400
H  27.09300 53.74000 37.43700
H  28.47200 53.06000 36.79300
H  28.86300 55.99600 36.59500
H  27.16600 55.64500 36.42100
H  36.19100 56.08600 37.89100
H  34.68500 55.09700 37.73600
H  35.76800 55.12100 39.19200
H  36.36200 59.95300 41.18200
H  35.76000 60.89000 39.79700
H  37.39500 60.48500 39.84600
H  32.08600 62.46400 40.51300
H  30.27700 62.25200 42.95500
H  32.62000 62.94800 43.39600
H  33.78400 63.08000 42.15600
H  33.53500 61.44900 42.80200
H  29.01400 63.76700 41.91500
H  29.30000 63.09500 40.26000
H  30.11800 64.83000 39.80500
H  31.57600 64.56900 40.92600
H  30.11700 65.53700 41.40600
H  24.92900 60.74400 40.05700
H  25.69700 61.14500 41.65600
H  24.42200 59.81200 41.47100
H  25.82300 55.82200 38.25700
H  24.94500 51.81500 40.09100
H  24.23600 52.02300 38.59800
H  23.55800 52.96900 40.00600
Mg -6.36800 24.99700 25.96900
C  -4.45500 26.27200 28.68600
C  -7.72500 22.65400 28.16600
C  -7.30600 23.18300 23.34300
C  -4.47100 27.02100 23.90000
N  -5.95400 24.46600 28.12300
C  -5.29600 25.20800 29.08600
C  -5.71800 24.81700 30.50100
C  -6.52000 23.46800 30.21900
C  -6.75300 23.49300 28.73100
C  -5.88100 22.14700 30.83000
C  -6.71100 25.95000 31.06700
C  -6.50700 26.24800 32.57100
H  -5.76500 25.17800 33.38300
N  -7.51500 23.33400 25.77200
C  -8.11000 22.59200 26.79700
C  -8.91700 21.53200 26.21000
C  -8.70600 21.55100 24.80600
C  -7.84800 22.68200 24.58700
C  -9.86600 20.78100 27.06400
C  -9.30100 20.72600 23.68500
O  -9.12800 21.04600 22.49400
C  -9.94000 19.47500 24.05000
N  -5.94200 25.12000 23.89100
C  -6.43700 24.17600 23.03500
C  -5.96100 24.47800 21.58800
C  -5.28000 25.88700 21.77600
C  -5.26000 26.07900 23.26500
C  -4.94800 23.36800 21.12300
C  -6.13900 27.00600 21.08600
C  -5.62000 27.55500 19.76300
N  -4.85500 26.54500 26.20600
C  -4.24900 27.24000 25.22300
C  -3.32500 28.19100 25.80300
C  -3.42500 27.87900 27.19300
C  -4.37500 26.83000 27.32600
C  -2.35700 29.20800 25.17400
C  -2.97200 28.18800 28.54700
O  -2.12800 28.99900 28.95200
C  -3.64700 27.11700 29.56500
C  -2.54200 26.37800 30.24700
O  -1.51100 26.03600 29.67800
O  -2.73000 26.43200 31.59200
C  -1.57300 26.09500 32.40800
H  -8.18800 21.94300 28.85300
H  -7.37700 22.51500 22.48200
H  -4.05200 27.73100 23.18400
H  -4.88300 24.49700 31.12400
H  -7.47300 23.56600 30.74000
H  -5.91500 21.37700 30.05900
H  -6.39400 21.87200 31.75200
H  -4.82300 22.27700 31.05600
H  -7.72500 25.62900 30.82800
H  -6.55400 26.90300 30.56200
H  -7.49500 26.57700 32.89100
H  -5.82700 27.09500 32.66900
H  -10.86300 20.67700 26.63600
H  -9.93400 21.32700 28.00500
H  -9.40300 19.83500 27.34600
H  -10.79400 19.55600 24.72300
H  -9.17700 18.83700 24.49600
H  -10.36500 18.97200 23.18200
H  -6.72500 24.45000 20.81100
H  -4.25800 25.93100 21.40000
H  -3.95400 23.76300 20.91000
H  -5.36800 22.86800 20.25000
H  -4.83800 22.54800 21.83300
H  -6.28300 27.80400 21.81400
H  -7.13500 26.57600 20.98400
H  -6.33100 27.25300 18.99400
H  -4.59600 27.26000 19.53500
H  -5.75100 28.63700 19.77400
H  -2.23600 30.07100 25.82900
H  -2.72200 29.57700 24.21600
H  -1.42900 28.71800 24.88000
H  -4.20800 27.52300 30.40700
H  -1.96500 26.23200 33.41600
H  -0.67200 26.69000 32.26400
H  -1.39100 25.02100 32.40300

