158

Mg 40.51100 10.15400 29.81900
C  42.51300 11.37900 32.29500
C  38.27100 9.02700 32.17400
C  38.61000 8.80000 27.31400
C  43.10200 10.64100 27.50900
N  40.41200 10.31000 31.94100
C  41.24900 10.97700 32.74900
C  40.69400 11.05200 34.20400
C  39.44100 10.06400 34.22000
C  39.38800 9.73800 32.65700
C  39.67700 8.73700 35.03100
C  40.57600 12.50600 34.65500
C  39.76100 12.74100 35.95200
H  40.64700 13.26000 37.10100
N  38.65800 9.16300 29.73400
C  37.85600 8.83100 30.83100
C  36.66500 8.18500 30.34300
C  36.76100 8.12200 28.92900
C  38.00500 8.75300 28.58600
C  35.62200 7.54900 31.32400
C  35.73800 7.62400 28.01800
O  35.75800 7.74400 26.78600
C  34.55700 6.92500 28.59300
N  40.88300 9.88500 27.65100
C  39.95300 9.17600 26.95000
C  40.46300 9.04300 25.47400
C  41.92800 9.65300 25.54800
C  41.97600 10.07600 26.97100
C  40.35900 7.69000 24.67200
C  42.29500 10.72900 24.55300
C  42.13400 12.17700 24.95000
N  42.43500 10.98600 29.79500
C  43.38500 11.15900 28.82600
C  44.60100 11.66800 29.42800
C  44.29400 11.91200 30.79200
C  42.97900 11.41500 30.97000
C  45.82200 12.12100 28.78200
C  44.77600 12.47000 31.99800
O  45.85800 13.05200 32.27400
C  43.59000 12.22300 33.06400
C  44.17400 11.37500 34.10500
O  44.91700 10.38900 34.00200
O  43.77100 11.79300 35.32100
C  44.21700 10.98000 36.47600
H  37.56300 8.74800 32.95700
H  38.04900 8.32600 26.50600
H  43.95300 10.87300 26.86500
H  41.47200 10.62100 34.83400
H  38.49100 10.55900 34.42200
H  39.80900 7.90000 34.34500
H  38.87700 8.44200 35.70900
H  40.54300 8.71200 35.69300
H  40.09100 13.02800 33.83000
H  41.56400 12.95900 34.74100
H  39.23900 11.87000 36.35000
H  39.02800 13.50500 35.69400
H  35.56900 6.47800 31.13000
H  34.68000 8.07800 31.18100
H  35.85800 7.68400 32.38000
H  33.91100 7.57800 29.17900
H  34.95400 6.04000 29.09000
H  33.82200 6.58500 27.86400
H  39.69900 9.55700 24.89100
H  42.68500 8.87700 25.42700
H  39.62800 7.68100 23.86300
H  40.18600 6.84900 25.34300
H  41.35800 7.58600 24.24900
H  41.66300 10.49000 23.69700
H  43.36400 10.52800 24.47800
H  43.03000 12.59700 25.40800
H  41.26200 12.13700 25.60400
H  41.78800 12.85000 24.16600
H  46.03600 11.61000 27.84400
H  46.63800 11.83300 29.44500
H  45.86500 13.20100 28.63900
H  43.30100 13.19500 33.46300
H  43.59300 11.37600 37.27700
H  45.27000 11.11800 36.72100
H  43.95500 9.93500 36.31000
Mg 49.27500 46.26100 42.55200
C  45.85600 46.89800 41.91300
C  48.88100 43.26200 40.95100
C  52.51400 46.00900 42.69700
C  49.49400 49.70300 43.66400
N  47.46900 45.27600 41.34800
C  46.19200 45.66700 41.31800
C  45.40900 44.61700 40.39400
C  46.45700 43.46900 40.15600
C  47.69400 43.96400 40.92600
C  45.99000 42.03000 40.57200
C  44.89900 45.36000 39.01800
C  43.45300 45.25900 38.57300
H  43.24500 45.07600 37.01800
N  50.54700 44.83000 41.91900
C  50.14700 43.65700 41.37200
C  51.32200 42.81000 41.16100
C  52.41400 43.54500 41.70700
C  51.86900 44.85300 42.15700
C  51.23100 41.39700 40.66900
C  53.87500 43.10200 41.80400
O  54.14300 42.01700 41.26600
C  54.97400 43.80100 42.49100
N  50.74400 47.72200 43.13700
C  52.09500 47.26600 43.13600
C  53.04200 48.36600 43.63000
C  52.04500 49.53300 43.99100
C  50.70000 49.02200 43.56800
C  53.90200 47.84400 44.79300
C  52.46600 50.89200 43.53300
C  52.51100 51.16600 42.02500
N  47.96300 47.93300 42.85300
C  48.18700 49.17900 43.42200
C  46.88500 49.82600 43.71800
C  45.98500 49.00900 43.05100
C  46.68100 47.90200 42.49100
C  46.63100 51.13700 44.45500
C  44.60300 48.86000 42.84600
O  43.69600 49.51000 43.22100
C  44.43500 47.53600 41.96900
C  43.52900 46.66400 42.71300
O  43.80800 46.28300 43.86100
O  42.49700 46.13600 41.95400
C  41.83500 45.00800 42.59300
H  48.85900 42.24800 40.54400
H  53.59000 45.84800 42.79300
H  49.62100 50.71900 44.04500
H  44.57700 44.27200 41.00800
H  46.75000 43.46300 39.10700
H  45.91100 41.25400 39.81200
H  45.14900 42.06500 41.26500
H  46.81500 41.54300 41.09100
H  45.37700 44.82100 38.19900
H  45.17500 46.41400 39.00100
H  43.04100 46.23300 38.83600
H  42.96100 44.43700 39.09200
H  51.31300 41.45100 39.58400
H  50.28300 40.89900 40.87300
H  52.09100 40.81200 40.99400
H  54.78600 43.93600 43.55600
H  55.13100 44.65800 41.83500
H  55.87800 43.19700 42.40600
H  53.73600 48.67900 42.85000
H  52.06900 49.57300 45.08000
H  53.45200 46.96700 45.25800
H  54.00600 48.57100 45.59700
H  54.91500 47.61000 44.46600
H  53.43200 51.05100 44.01100
H  51.89400 51.72200 43.94900
H  52.45300 50.22400 41.48100
H  53.51600 51.50600 41.77300
H  51.71600 51.82400 41.67400
H  47.33100 51.45100 45.22900
H  45.68900 51.02100 44.99100
H  46.42500 52.00800 43.83300
H  43.94600 47.69400 41.00700
H  41.87300 44.29400 41.77100
H  40.76500 45.07000 42.79000
H  42.37000 44.50700 43.40000

