158

Mg 34.73700 2.65900 29.37500
C  32.72400 3.71600 32.07600
C  37.47200 2.57400 31.48600
C  36.80300 2.46000 26.70700
C  32.11300 3.44400 27.17100
N  34.99900 3.27100 31.56000
C  34.05400 3.53200 32.48400
C  34.64700 3.38300 33.91000
C  36.17500 3.18100 33.68600
C  36.27100 3.03600 32.13000
C  37.06800 4.31800 34.28000
C  33.87100 2.24700 34.73800
C  33.58100 2.35800 36.27200
H  34.20300 3.53000 37.07500
N  36.81100 2.42600 29.11500
C  37.77000 2.37700 30.15100
C  39.08000 2.17000 29.54200
C  38.91700 2.02700 28.13200
C  37.47200 2.22000 27.91200
C  40.35100 2.12700 30.34900
C  39.93200 1.69800 27.06200
O  39.55700 1.60500 25.90300
C  41.38000 1.40500 27.37500
N  34.44800 2.90100 27.23400
C  35.47900 2.76800 26.32400
C  35.05300 3.03800 24.86900
C  33.48900 3.13000 25.08700
C  33.28900 3.11700 26.56500
C  35.70100 4.27500 24.25000
C  32.62200 2.04800 24.41800
C  31.16500 2.35200 24.16100
N  32.75700 3.16900 29.53600
C  31.83500 3.45400 28.54600
C  30.55200 3.91200 29.15100
C  30.92300 3.95700 30.52900
C  32.25600 3.55200 30.76500
C  29.21500 4.21700 28.44800
C  30.32100 4.31400 31.83800
O  29.18800 4.79000 32.13800
C  31.51300 4.13700 32.85400
C  31.69000 5.50000 33.58000
O  32.10200 6.58700 33.16300
O  31.23200 5.31500 34.80800
C  31.00700 6.51200 35.61600
H  38.33300 2.45800 32.14800
H  37.47300 2.47700 25.84400
H  31.27100 3.68600 26.52000
H  34.59700 4.27000 34.54300
H  36.53700 2.21500 34.03700
H  37.83100 3.88800 34.92900
H  36.66100 5.12800 34.88600
H  37.62600 4.78400 33.46800
H  34.48900 1.38200 34.49700
H  32.95300 1.96000 34.22600
H  33.82700 1.39800 36.72500
H  32.51100 2.55800 36.33400
H  40.21400 2.77100 31.21800
H  41.16900 2.56200 29.77600
H  40.58000 1.12000 30.69900
H  41.52200 0.78000 28.25700
H  41.87300 2.32100 27.69900
H  41.82800 0.97500 26.47900
H  35.11200 2.12400 24.27700
H  33.10100 4.07400 24.70400
H  36.49000 4.68000 24.88400
H  34.97900 5.05300 24.00200
H  36.32900 3.94400 23.42300
H  32.81200 1.14500 24.99800
H  32.94700 1.88800 23.39000
H  30.94300 2.12200 23.11900
H  30.82400 3.35100 24.43500
H  30.59600 1.66200 24.78300
H  28.43600 4.57900 29.11900
H  28.87700 3.22600 28.14500
H  29.30100 4.78000 27.51800
H  31.35700 3.30700 33.54300
H  29.97600 6.86300 35.56700
H  31.72200 7.33300 35.56900
H  31.11600 6.08500 36.61300
Mg 49.63500 46.89300 42.59100
C  46.37000 47.08300 41.24600
C  49.67600 43.51200 41.90600
C  53.04800 47.01100 42.88400
C  49.56900 50.41700 43.06700
N  48.20700 45.57100 41.64600
C  46.92300 45.76700 41.18600
C  46.18900 44.40500 40.81700
C  47.29400 43.36600 41.12500
C  48.51700 44.20300 41.64900
C  46.95200 42.26200 42.20900
C  45.79300 44.52700 39.27600
C  44.38600 43.97600 38.88200
H  43.97500 44.35600 37.44400
N  51.14500 45.48200 42.52900
C  50.89200 44.16600 42.30000
C  52.13600 43.43300 42.52100
C  53.14800 44.44700 42.72200
C  52.46100 45.74100 42.74200
C  52.26000 41.90700 42.62600
C  54.64200 44.08600 42.82700
O  55.02700 42.91600 42.74900
C  55.76500 45.12000 43.00400
N  51.05900 48.46900 42.91900
C  52.37300 48.22400 43.03700
C  53.18200 49.46800 43.53200
C  52.05700 50.67000 43.49900
C  50.82300 49.79900 43.21500
C  53.81800 49.27400 44.95600
C  52.35900 51.91300 42.55300
C  53.25900 53.04300 43.15900
N  48.20600 48.54300 42.29100
C  48.30600 49.89600 42.52300
C  46.98400 50.49800 42.23000
C  46.21600 49.43700 41.75900
C  46.99300 48.25400 41.77400
C  46.60700 51.85600 42.46300
C  44.92300 49.12600 41.14100
O  44.05600 49.86000 40.72900
C  44.93800 47.55800 40.89800
C  43.91300 46.90800 41.80700
O  44.06500 46.61100 42.95900
O  42.65700 46.88300 41.29100
C  41.55000 46.93200 42.15400
H  49.84300 42.45000 41.71800
H  54.12000 47.21700 42.90800
H  49.59700 51.49500 43.23900
H  45.31800 44.32500 41.46800
H  47.55200 42.83600 40.20800
H  47.19500 41.25300 41.87500
H  45.87200 42.36200 42.31700
H  47.36400 42.43800 43.20300
H  46.46200 43.80200 38.81300
H  46.01800 45.49100 38.82000
H  43.59800 44.51100 39.41200
H  44.27300 42.89900 39.00900
H  52.93800 41.69700 43.45300
H  52.66600 41.49000 41.70500
H  51.38300 41.40400 43.03400
H  55.75600 45.76600 42.12600
H  56.71500 44.60500 43.14300
H  55.60600 45.74300 43.88400
H  53.98000 49.63200 42.80800
H  51.84700 51.05900 44.49600
H  53.46900 49.98700 45.70200
H  54.88500 49.38400 44.76100
H  53.52700 48.30400 45.35900
H  51.40300 52.27400 42.17400
H  52.85200 51.57100 41.64200
H  53.87300 52.65000 43.96900
H  52.59900 53.90300 43.27300
H  54.00200 53.39000 42.44000
H  47.18500 52.61300 41.93300
H  46.66500 51.99400 43.54200
H  45.53800 51.98000 42.28900
H  44.74100 47.40700 39.83600
H  41.39400 47.98900 42.37100
H  41.43000 46.27700 43.01700
H  40.75700 46.56700 41.50100

