158

Mg 42.92900 4.16000 47.64200
C  40.89700 6.98400 47.40900
C  40.07700 2.21600 47.60800
C  44.90800 1.44200 47.06800
C  45.71900 6.24500 47.33500
N  40.72300 4.55500 47.46500
C  40.11500 5.77300 47.49100
C  38.53300 5.63300 47.77900
C  38.39800 4.11500 47.85000
C  39.80500 3.58000 47.69500
C  37.77900 3.51100 49.13500
C  37.58600 6.33300 46.69900
C  38.04400 5.95500 45.26600
H  38.41400 7.03700 44.29600
N  42.52100 2.09500 47.48500
C  41.28400 1.50500 47.40400
C  41.38800 0.09100 47.11900
C  42.79600 -0.13300 46.91200
C  43.48700 1.14800 47.20500
C  40.32300 -0.93800 47.12500
C  43.37500 -1.55700 46.54700
O  42.69700 -2.51500 46.35600
C  44.91100 -1.75700 46.32200
N  45.01100 3.89300 47.19600
C  45.63600 2.63600 47.17700
C  47.16100 2.75600 47.25400
C  47.41400 4.25800 47.38900
C  45.97400 4.87400 47.38300
C  47.83400 1.87000 48.39400
C  48.47100 4.82900 46.37600
C  49.94300 4.97800 46.88000
N  43.26500 6.21600 47.31700
C  44.41000 6.86600 47.26100
C  44.14100 8.29800 47.21100
C  42.73700 8.39000 47.22500
C  42.27600 7.09000 47.31000
C  45.15600 9.41500 47.14200
C  41.60100 9.29500 47.22800
O  41.52500 10.54500 47.20900
C  40.32100 8.42000 47.31500
C  39.47400 8.99600 48.42400
O  39.45200 8.68400 49.64600
O  38.56600 9.88600 47.85600
C  37.66800 10.49300 48.76800
H  39.12200 1.68800 47.64600
H  45.60200 0.59900 47.06500
H  46.61600 6.86600 47.29300
H  38.33700 6.24600 48.65900
H  38.01600 3.68600 46.92400
H  37.40100 4.32300 49.75600
H  38.55400 3.11600 49.79200
H  36.91700 2.86700 48.96400
H  37.68800 7.41300 46.80400
H  36.56500 6.08200 46.98700
H  37.16400 5.40300 44.93600
H  38.82000 5.18900 45.24900
H  40.59700 -1.83700 47.67800
H  40.27900 -1.17300 46.06200
H  39.35500 -0.56400 47.45700
H  45.50200 -1.90100 47.22600
H  45.26900 -0.94500 45.68900
H  44.97700 -2.78400 45.96300
H  47.60200 2.38700 46.32800
H  47.63900 4.50100 48.42800
H  48.55900 2.46100 48.95500
H  48.41900 1.06900 47.94200
H  47.19900 1.43800 49.16700
H  48.00100 5.71700 45.95400
H  48.54400 4.14600 45.52900
H  50.01400 4.57900 47.89100
H  50.25900 6.01900 46.95700
H  50.62200 4.41800 46.23700
H  44.57200 10.30900 46.92300
H  45.93400 9.26300 46.39400
H  45.56500 9.58600 48.13700
H  39.79400 8.64200 46.38700
H  37.04500 9.81900 49.35700
H  36.93800 11.12400 48.26100
H  38.19600 11.10300 49.50100
Mg 9.59300 48.60200 26.43800
C  7.58900 48.61600 29.26200
C  12.18000 49.78800 28.25600
C  11.32700 48.68200 23.60700
C  6.58000 48.15900 24.37900
N  9.77600 49.27200 28.52500
C  8.88300 49.10400 29.51100
C  9.57500 49.40700 30.91600
C  10.83100 50.27200 30.48300
C  10.99000 49.74300 29.01100
C  10.62600 51.81200 30.51500
C  9.96200 48.08200 31.60800
C  9.44800 47.85700 33.01300
H  9.80500 46.62200 33.71700
N  11.53800 48.96500 26.02300
C  12.50400 49.37900 26.94800
C  13.78300 49.38700 26.30800
C  13.60200 48.97800 24.94300
C  12.11500 48.87900 24.81400
C  15.11500 49.63000 27.07100
C  14.64400 48.82300 23.88200
O  14.28400 48.71300 22.74200
C  16.08400 48.91900 24.16600
N  8.99300 48.64300 24.28200
C  9.93700 48.61000 23.34900
C  9.31200 48.29500 21.91800
C  7.86100 47.89700 22.19900
C  7.79600 48.21100 23.71900
C  9.55200 49.49900 20.94200
C  7.59900 46.40900 21.95800
C  7.56100 46.10100 20.43600
N  7.44900 48.53900 26.68800
C  6.42800 48.20100 25.80500
C  5.26600 47.90400 26.58900
C  5.66200 48.04500 27.90300
C  7.02000 48.43000 27.95300
C  3.86400 47.59500 26.09600
C  5.18300 47.99000 29.28800
O  4.06200 47.78800 29.74600
C  6.45900 48.27400 30.22100
C  6.65000 47.03200 30.95800
O  7.31100 46.09600 30.57500
O  5.81500 46.94500 32.05300
C  5.77200 45.75800 32.89100
H  12.90800 50.37500 28.81900
H  11.94300 48.52700 22.71900
H  5.78300 47.85700 23.69600
H  8.86000 49.96700 31.51900
H  11.72800 49.98600 31.03300
H  11.52100 52.33500 30.85000
H  9.80700 52.06200 31.18900
H  10.42800 52.32200 29.57200
H  11.03800 47.92400 31.68400
H  9.63400 47.27100 30.95900
H  8.37700 47.72900 32.86000
H  9.42000 48.77900 33.59400
H  14.86900 49.70300 28.13000
H  15.55300 50.60600 26.86000
H  15.80900 48.81000 26.89000
H  16.65400 48.97000 23.23800
H  16.23200 47.96800 24.67700
H  16.36400 49.77600 24.77800
H  9.83200 47.44400 21.47900
H  7.05300 48.43800 21.70700
H  10.20500 49.16900 20.13400
H  9.99100 50.35700 21.45200
H  8.60500 49.85200 20.53300
H  6.65000 46.11700 22.40700
H  8.43500 45.84100 22.36700
H  7.34700 47.00400 19.86500
H  6.81200 45.31300 20.35200
H  8.45900 45.56900 20.12100
H  3.13200 48.09300 26.73100
H  3.52900 46.55900 26.05300
H  3.75100 47.96100 25.07500
H  6.16400 49.11700 30.84400
H  6.17500 45.94700 33.88600
H  6.35000 44.89500 32.56300
H  4.70800 45.52200 32.91700

