158

Mg 9.74700 4.21000 27.57500
C  10.88300 2.83600 30.39100
C  7.84200 6.48100 29.39300
C  8.67700 5.62300 24.68100
C  11.04300 1.51900 25.67400
N  9.34300 4.48800 29.65100
C  9.98200 3.88700 30.62600
C  9.69500 4.52900 32.07100
C  8.60700 5.54200 31.70000
C  8.52500 5.48700 30.19700
C  7.16100 5.40600 32.31500
C  10.99100 5.17800 32.63000
C  11.49100 4.59400 33.89400
H  11.83800 5.51500 35.12200
N  8.51100 5.82000 27.09900
C  7.79500 6.62400 27.98700
C  7.15700 7.72400 27.26600
C  7.47000 7.58800 25.85500
C  8.30300 6.34500 25.80300
C  6.24600 8.70300 27.98200
C  6.97900 8.31200 24.66000
O  7.35600 7.98000 23.55400
C  6.04100 9.52800 24.75700
N  9.73300 3.58000 25.42800
C  9.35200 4.42700 24.47700
C  9.83100 3.95500 23.14000
C  10.61600 2.64400 23.47900
C  10.37300 2.51100 24.92900
C  8.63000 3.72900 22.18500
C  12.13500 2.78800 23.13700
C  12.39100 2.88600 21.62900
N  10.66100 2.42100 27.93200
C  11.27700 1.52900 27.07900
C  12.07800 0.67300 27.88000
C  12.02100 1.15700 29.22200
C  11.11700 2.21700 29.14000
C  13.01300 -0.43500 27.42900
C  12.53800 0.93900 30.48000
O  13.33300 0.12000 30.90200
C  11.81100 2.04500 31.34900
C  11.16700 1.39900 32.56200
O  9.95400 1.18700 32.55600
O  12.06000 1.20400 33.56400
C  11.31500 0.77100 34.83100
H  7.44800 7.35500 29.91600
H  8.50700 5.95400 23.65400
H  11.54300 0.71400 25.13100
H  9.16200 3.80500 32.68700
H  8.98500 6.52300 31.98800
H  6.32200 5.61500 31.65100
H  7.16800 6.25400 33.00000
H  6.93800 4.46400 32.81600
H  10.76200 6.23900 32.72700
H  11.80400 5.16500 31.90400
H  12.42300 4.11600 33.59300
H  10.73400 3.89600 34.25300
H  6.32600 9.65400 27.45500
H  6.55100 8.85800 29.01700
H  5.26400 8.23500 28.04800
H  5.82600 9.90500 23.75700
H  6.51500 10.33200 25.32100
H  5.11700 9.20000 25.23200
H  10.51300 4.67100 22.68100
H  10.13600 1.77400 23.03000
H  8.41400 2.70600 21.87600
H  8.83400 4.18900 21.21800
H  7.67100 4.00800 22.62300
H  12.66300 1.86400 23.37300
H  12.50500 3.65900 23.67700
H  12.93200 2.06100 21.16600
H  12.94200 3.82200 21.53100
H  11.51600 3.05300 21.00000
H  12.65100 -0.74000 26.44700
H  12.98800 -1.23600 28.16900
H  14.06600 -0.19800 27.28400
H  12.52000 2.72500 31.82000
H  10.71000 -0.12300 34.68000
H  10.66900 1.58500 35.15700
H  11.99100 0.47500 35.63300
Mg 24.83600 -5.77500 46.75900
C  26.96400 -3.41900 45.23600
C  22.21200 -4.40700 44.81400
C  22.93600 -8.58900 47.31700
C  27.44000 -7.11600 48.36300
N  24.65500 -4.29700 44.93300
C  25.65700 -3.37200 44.65700
C  25.12300 -2.31900 43.66700
C  23.57600 -2.37500 43.98700
C  23.44200 -3.74000 44.62100
C  23.13400 -1.25400 44.99800
C  25.51900 -2.86800 42.18100
C  26.34000 -1.94300 41.27900
H  26.18300 -2.05600 39.72900
N  22.81000 -6.41800 46.17900
C  21.94000 -5.75100 45.33500
C  20.69300 -6.39300 45.28100
C  20.79300 -7.69000 45.97800
C  22.25200 -7.61500 46.52400
C  19.62200 -5.88600 44.42700
C  19.82000 -8.83000 46.11700
O  18.71800 -8.68400 45.58800
C  20.10600 -10.05700 46.96200
N  25.08100 -7.60200 47.82600
C  24.22200 -8.67100 47.92100
C  24.88900 -9.79900 48.71600
C  26.31500 -9.20800 49.26100
C  26.27400 -7.88000 48.46200
C  24.10900 -10.31500 49.94800
C  27.69100 -10.07900 49.07500
C  28.55400 -10.10900 50.35200
N  26.75500 -5.33800 46.84600
C  27.76900 -5.98100 47.58800
C  29.06700 -5.27100 47.43600
C  28.74400 -4.29100 46.48000
C  27.39000 -4.39600 46.13800
C  30.28800 -5.64700 48.06800
C  29.31200 -3.18100 45.71200
O  30.44400 -2.73000 45.64700
C  28.17400 -2.60400 44.79700
C  28.02300 -1.12100 45.14400
O  28.68200 -0.22300 44.69700
O  27.02100 -0.91000 46.08200
C  26.98000 0.45100 46.64400
H  21.47600 -3.76000 44.33400
H  22.48500 -9.54100 47.60400
H  28.34800 -7.43900 48.87600
H  25.58200 -1.36200 43.91500
H  23.03600 -2.16600 43.06300
H  23.99100 -0.69400 45.37200
H  22.49900 -1.50300 45.84800
H  22.51800 -0.62500 44.35400
H  24.61400 -3.22700 41.69200
H  26.01700 -3.83100 42.29600
H  27.42000 -1.95000 41.42900
H  25.85000 -0.98800 41.46900
H  19.77100 -6.24000 43.40700
H  19.53100 -4.80000 44.42300
H  18.65200 -6.24700 44.76700
H  20.96600 -10.57400 46.53500
H  19.30000 -10.78300 47.07600
H  20.31300 -9.76000 47.99000
H  25.01900 -10.64300 48.03900
H  26.19000 -8.77200 50.25200
H  23.69200 -11.31200 49.81000
H  23.35500 -9.60400 50.28600
H  24.76300 -10.27200 50.81900
H  28.28600 -9.63200 48.27900
H  27.48200 -11.08200 48.70500
H  29.38900 -9.47900 50.04700
H  29.00600 -11.10000 50.36900
H  28.20300 -9.83700 51.34800
H  30.74700 -4.77200 48.52900
H  30.92100 -5.93400 47.22800
H  30.12400 -6.38700 48.85100
H  28.40400 -2.65000 43.73300
H  26.57700 0.57000 47.65000
H  26.32500 0.98900 45.95800
H  27.89700 1.03700 46.70400

