158

Mg 34.59700 3.23500 29.85200
C  32.29200 3.68400 32.35900
C  37.15800 3.35500 32.06700
C  36.70100 2.49300 27.25200
C  31.90000 3.38300 27.52700
N  34.65500 3.44600 31.96900
C  33.61000 3.58200 32.83300
C  34.15200 3.43900 34.23200
C  35.68900 3.52000 34.10300
C  35.86400 3.50700 32.60400
C  36.39900 4.60500 35.04600
C  33.52400 2.27300 35.09400
C  33.19100 2.43200 36.63400
H  33.95800 3.53400 37.35900
N  36.63500 3.01100 29.69200
C  37.55700 3.08000 30.73100
C  38.96300 2.83200 30.21700
C  38.78300 2.52200 28.84600
C  37.31400 2.60600 28.52000
C  40.21400 3.05600 31.17500
C  39.85600 2.16700 27.90300
O  39.65100 1.96800 26.66400
C  41.23100 2.15900 28.34600
N  34.37700 2.80500 27.69100
C  35.35200 2.60300 26.83200
C  34.82400 2.87700 25.38800
C  33.31900 2.87800 25.53100
C  33.13600 3.06700 27.05300
C  35.38100 4.13900 24.75600
C  32.40900 1.84900 24.75700
C  32.43100 0.43300 25.28000
N  32.56100 3.49200 29.79800
C  31.59100 3.59100 28.80700
C  30.26700 3.87700 29.48000
C  30.57100 3.88500 30.80500
C  31.89900 3.61700 30.98700
C  28.93600 4.00800 28.69100
C  29.90600 4.09100 32.16200
O  28.70600 4.29200 32.43000
C  31.01000 3.87600 33.15700
C  30.96000 5.10800 34.07400
O  31.59400 6.13900 33.93800
O  30.25700 4.79800 35.19500
C  30.39300 5.79200 36.27000
H  37.91700 3.18800 32.83400
H  37.32000 2.45300 26.35400
H  31.02400 3.50800 26.88700
H  33.88500 4.34500 34.77600
H  36.01300 2.49300 34.26900
H  36.72400 5.41700 34.39600
H  37.21100 4.07200 35.54200
H  35.67100 5.00500 35.75100
H  34.17600 1.40000 35.08700
H  32.52500 2.00900 34.74700
H  33.35800 1.47800 37.13500
H  32.11500 2.61100 36.64400
H  40.57300 4.06600 30.97800
H  41.12200 2.50800 30.92200
H  40.01200 3.07800 32.24600
H  41.92000 1.98700 27.51900
H  41.25600 1.22100 28.90100
H  41.67700 2.93800 28.96300
H  35.16100 2.03700 24.78000
H  32.92800 3.82300 25.15500
H  36.01900 4.58800 25.51700
H  34.65400 4.86100 24.38300
H  35.91200 3.85300 23.84700
H  32.71000 1.92000 23.71200
H  31.39100 2.23500 24.80400
H  31.43900 -0.01100 25.19900
H  32.77600 0.37300 26.31200
H  33.15800 -0.09500 24.66300
H  28.21300 3.27800 29.05200
H  29.14600 3.73900 27.65500
H  28.68000 5.06800 28.68900
H  30.68600 2.99600 33.71200
H  29.73600 6.63800 36.06700
H  31.33800 6.23600 36.58200
H  29.88300 5.31300 37.10600
Mg 1.94700 41.69100 25.03100
C  2.93000 42.09700 28.39500
C  -1.08400 40.43200 26.18900
C  1.20800 40.97100 21.79300
C  5.18000 42.62100 24.08500
N  0.99300 41.55900 27.07000
C  1.58800 41.78500 28.29600
C  0.55100 41.48300 29.40600
C  -0.49600 40.52900 28.72600
C  -0.19400 40.84400 27.23100
C  -0.41100 39.04900 28.98100
C  0.02900 42.80600 29.98300
C  0.01600 42.89100 31.53200
H  -0.81800 41.75800 32.20300
N  0.25000 40.89700 24.13100
C  -0.88000 40.42000 24.75300
C  -1.81800 39.88600 23.77700
C  -1.17200 40.01400 22.52000
C  0.16000 40.62900 22.77100
C  -3.14000 39.30700 24.18900
C  -1.68500 39.67500 21.14200
O  -1.10900 39.94800 20.13000
C  -3.06300 39.09800 20.86200
N  2.98800 41.72800 23.18200
C  2.44500 41.54400 21.95800
C  3.48300 41.82500 20.83800
C  4.57500 42.68000 21.59000
C  4.25500 42.35100 23.06900
C  4.22800 40.50400 20.35100
C  4.40800 44.21300 21.31400
C  3.03700 44.89200 21.70900
N  3.71800 42.21600 25.95900
C  4.93600 42.56900 25.47900
C  5.90000 42.76000 26.53500
C  5.11500 42.58200 27.68900
C  3.83800 42.27500 27.28500
C  7.34300 43.22400 26.29700
C  5.17300 42.64000 29.16400
O  6.14700 42.97900 29.85800
C  3.74700 42.37000 29.64400
C  3.80900 41.17000 30.57200
O  4.17900 40.05100 30.22000
O  3.25800 41.49700 31.81400
C  2.80200 40.32200 32.61300
H  -1.98300 39.96000 26.59000
H  0.99500 40.58600 20.79400
H  6.13800 42.99500 23.72100
H  1.16800 40.93900 30.12200
H  -1.54400 40.74500 28.93600
H  0.44600 39.03200 29.65400
H  -0.39800 38.28400 28.20400
H  -1.29000 38.86500 29.59900
H  -1.02100 42.99100 29.75900
H  0.55800 43.66700 29.57400
H  -0.38400 43.85800 31.83800
H  1.06100 42.86300 31.84000
H  -3.31700 38.29400 23.82700
H  -3.85800 39.89300 23.61500
H  -3.46300 39.38200 25.22800
H  -3.08100 38.80200 19.81300
H  -3.86300 39.82500 21.00800
H  -3.19400 38.22300 21.49900
H  3.01400 42.38900 20.03100
H  5.62400 42.42100 21.44700
H  4.47500 39.90800 21.22900
H  5.19000 40.72700 19.88800
H  3.62200 39.90500 19.67200
H  4.44900 44.45700 20.25200
H  5.24500 44.74700 21.76400
H  2.27800 44.16400 21.99300
H  2.77700 45.61000 20.93200
H  3.20200 45.47500 22.61500
H  8.06900 42.92700 27.05400
H  7.31300 44.30100 26.13100
H  7.66800 42.83000 25.33400
H  3.52500 43.27500 30.21000
H  2.17800 40.65000 33.44400
H  3.67500 39.77500 32.96900
H  2.15800 39.73600 31.95700

