158

Mg 27.36900 50.20300 26.65400
C  25.43100 51.01500 29.34000
C  29.76800 48.99900 28.83600
C  29.64700 50.02100 24.10400
C  25.00900 51.44000 24.52300
N  27.60800 50.19000 28.88900
C  26.56900 50.45100 29.76300
C  27.03400 49.99700 31.17100
C  28.57000 49.55700 30.97400
C  28.66400 49.53900 29.45300
C  29.57900 50.46900 31.78900
C  26.17000 48.87900 31.77800
C  25.39600 49.21200 33.00000
H  26.14100 49.75800 34.18400
N  29.40900 49.47800 26.49600
C  30.20400 49.01200 27.49900
C  31.38100 48.44500 26.97500
C  31.46400 48.87000 25.65300
C  30.15500 49.58700 25.38100
C  32.30700 47.61300 27.84100
C  32.63100 48.85300 24.57700
O  32.57600 49.36100 23.47000
C  33.89800 48.17400 24.89400
N  27.36800 50.59800 24.56900
C  28.41000 50.38500 23.69700
C  27.98200 50.73900 22.27300
C  26.45100 51.22500 22.43800
C  26.24700 51.07300 23.92800
C  28.95900 51.87400 21.61300
C  25.47400 50.37400 21.52400
C  24.20900 51.13600 21.00100
N  25.62600 51.12700 26.85900
C  24.74900 51.55600 25.86900
C  23.56500 52.08000 26.50200
C  23.77300 51.83000 27.88200
C  25.05300 51.32100 28.05200
C  22.36500 52.76100 25.91900
C  23.10800 51.87400 29.21600
O  22.01400 52.32900 29.53500
C  24.15800 51.34800 30.23700
C  24.36700 52.20100 31.39100
O  25.26600 52.96900 31.59800
O  23.32700 51.86100 32.26000
C  23.39500 52.45200 33.53600
H  30.44800 48.58400 29.58300
H  30.44500 49.98800 23.36000
H  24.19000 51.75400 23.87200
H  26.92900 50.91400 31.75000
H  28.83300 48.54800 31.29400
H  30.61900 50.20100 31.60400
H  29.45100 50.51600 32.87000
H  29.41900 51.51900 31.54600
H  26.84700 48.03300 31.89400
H  25.48200 48.50700 31.01900
H  24.86600 48.28000 33.19400
H  24.65100 49.97000 32.75800
H  33.14100 48.28100 28.05600
H  32.65100 46.79000 27.21600
H  31.95500 47.32900 28.83300
H  34.64800 48.33700 24.11900
H  33.57400 47.13300 24.88600
H  34.18200 48.45000 25.90900
H  27.96900 49.80600 21.71100
H  26.34500 52.29700 22.26800
H  29.84400 52.02600 22.23100
H  28.32800 52.73700 21.39900
H  29.35700 51.57800 20.64200
H  25.08300 49.56400 22.14100
H  26.05600 50.05200 20.66100
H  24.05700 52.12400 21.43700
H  23.29100 50.60900 21.25700
H  24.25200 51.33300 19.92900
H  21.59200 52.07600 25.57000
H  22.68800 53.28800 25.02100
H  21.98800 53.44500 26.67900
H  23.76400 50.40000 30.60400
H  22.49000 52.03800 33.97900
H  23.45900 53.54100 33.54200
H  24.24000 52.02800 34.07900
Mg 10.11600 46.99400 26.31700
C  8.06400 47.26400 29.12700
C  12.50000 48.75300 27.88500
C  11.92000 46.86300 23.44600
C  7.34000 45.72600 24.56200
N  10.26300 47.81400 28.28800
C  9.40800 47.68400 29.36500
C  10.01000 48.34600 30.62100
C  11.25500 49.15000 30.05000
C  11.38000 48.51800 28.65700
C  11.04500 50.67300 29.81900
C  10.36700 47.21900 31.60700
C  10.11800 47.50900 33.07600
H  9.75400 46.28100 34.01200
N  11.96400 47.64000 25.80700
C  12.80400 48.33500 26.59500
C  14.09900 48.49000 25.90500
C  13.90700 47.95500 24.57600
C  12.53000 47.44700 24.55600
C  15.33900 49.01700 26.62500
C  15.00100 47.67400 23.54500
O  14.81000 46.96600 22.52800
C  16.35100 48.35000 23.65100
N  9.66600 46.45500 24.31900
C  10.61200 46.40800 23.39500
C  10.10500 45.76200 22.10700
C  8.66600 45.28700 22.53800
C  8.56600 45.84700 23.91400
C  10.15600 46.55000 20.79600
C  8.52300 43.70700 22.48700
C  9.55900 42.98400 23.41800
N  8.02200 46.57400 26.64300
C  7.02500 46.12100 25.81900
C  5.75200 46.10200 26.66600
C  6.17100 46.42700 27.92800
C  7.53300 46.75000 27.89400
C  4.35100 45.68800 26.24400
C  5.71400 46.56300 29.31100
O  4.61800 46.30900 29.78700
C  6.89300 47.10600 30.05700
C  7.15100 46.05000 31.12200
O  7.77200 45.01300 30.90400
O  6.39800 46.24500 32.26500
C  5.99000 45.13500 33.14900
H  13.24700 49.34300 28.42100
H  12.49000 46.66000 22.53700
H  6.50000 45.33800 23.98200
H  9.28000 48.95600 31.15200
H  12.16700 49.03100 30.63500
H  10.32900 50.72800 28.99900
H  11.94700 51.05800 29.34200
H  10.94300 51.20900 30.76300
H  11.45100 47.11100 31.63300
H  9.96600 46.25600 31.29300
H  9.35000 48.26400 33.24200
H  11.06100 47.82200 33.52500
H  15.00900 49.32200 27.61800
H  15.73200 49.91500 26.14800
H  16.03100 48.17500 26.63000
H  16.91000 48.03800 24.53300
H  16.06400 49.39900 23.57900
H  16.90700 48.20000 22.72500
H  10.76000 44.89900 21.98500
H  7.86900 45.70700 21.92500
H  9.25500 47.13400 20.60400
H  10.19500 45.91600 19.91000
H  10.98400 47.25400 20.71900
H  8.60700 43.42900 21.43600
H  7.56300 43.28500 22.78300
H  10.09100 43.69200 24.05300
H  10.33200 42.56600 22.77300
H  9.23600 42.09600 23.96100
H  3.97700 46.55000 25.69200
H  3.73100 45.59100 27.13500
H  4.33000 44.90300 25.48800
H  6.67300 48.05000 30.55600
H  6.17900 45.59100 34.12000
H  6.69600 44.30800 33.07000
H  4.91800 44.99300 33.01000

