158

Mg 25.64700 1.80600 29.30200
C  27.66900 1.42200 32.23500
C  22.95000 2.11300 31.41900
C  23.81900 2.02300 26.68200
C  28.40400 0.75500 27.39300
N  25.37600 2.01200 31.67600
C  26.32100 1.79200 32.57800
C  25.73600 1.93400 34.03100
C  24.19900 2.01800 33.70400
C  24.15500 1.94500 32.16600
C  23.39200 0.93800 34.40600
C  26.36100 3.20900 34.77500
C  26.77600 2.99400 36.31100
H  26.47800 4.04700 37.36200
N  23.63200 2.05900 29.03500
C  22.71700 2.26900 30.02200
C  21.39300 2.47400 29.38100
C  21.55700 2.39100 27.99900
C  23.04700 2.07800 27.87000
C  20.10500 2.76300 30.10300
C  20.53700 2.55000 26.84400
O  20.85900 2.54900 25.65200
C  19.10400 2.61000 27.12500
N  26.12600 1.51000 27.32600
C  25.16500 1.77900 26.42300
C  25.67900 1.63600 24.97800
C  27.21600 1.28500 25.16500
C  27.24700 1.20100 26.70300
C  24.86700 0.57800 24.15400
C  28.24300 2.35900 24.71300
C  29.66900 1.77700 24.27100
N  27.58200 1.13200 29.71300
C  28.60000 0.68100 28.77700
C  29.75700 0.43100 29.58700
C  29.44000 0.76100 30.93300
C  28.08500 1.08200 30.93600
C  30.98800 -0.13700 29.06600
C  29.94300 0.79200 32.31800
O  31.07800 0.56500 32.65400
C  28.80400 1.21900 33.21400
C  28.55200 0.06400 34.05700
O  28.00400 -0.97200 33.81600
O  28.99500 0.34200 35.31500
C  28.75000 -0.63700 36.40300
H  22.07900 2.33000 32.04100
H  23.21600 2.26100 25.80300
H  29.21300 0.24900 26.86300
H  26.03900 1.06100 34.61000
H  23.78300 2.96000 34.06000
H  23.95300 0.13100 34.87900
H  22.76600 0.46800 33.64800
H  22.74700 1.30100 35.20700
H  25.66900 4.03700 34.62600
H  27.25700 3.44800 34.20300
H  27.86300 2.92900 36.26500
H  26.34300 2.08200 36.72300
H  19.75000 3.69000 29.65100
H  20.18500 2.86700 31.18500
H  19.46400 1.89800 29.93000
H  18.76600 1.88900 27.86900
H  18.74100 2.34000 26.13300
H  18.80900 3.62400 27.39200
H  25.70800 2.61000 24.49000
H  27.48300 0.31400 24.74700
H  25.42500 -0.33400 23.94200
H  24.51800 1.03100 23.22600
H  24.04000 0.21900 24.76600
H  28.31700 3.16400 25.44500
H  27.89500 2.79500 23.77600
H  29.74800 2.04800 23.21800
H  29.79200 0.70700 24.43400
H  30.39600 2.28500 24.90400
H  31.39900 0.55000 28.32600
H  30.68700 -1.04500 28.54300
H  31.64500 -0.30900 29.91800
H  29.11500 2.09700 33.78100
H  29.61400 -0.69000 37.06500
H  28.54600 -1.67100 36.12500
H  27.80000 -0.40700 36.88600
Mg 27.74000 56.65800 40.61400
C  25.88000 53.77100 39.58300
C  30.50900 55.14200 38.98600
C  29.50200 59.53100 40.81200
C  24.83200 58.26500 41.33700
N  28.15800 54.68000 39.35700
C  27.22600 53.69200 39.16000
C  27.83700 52.53300 38.33400
C  29.37500 52.96000 38.30200
C  29.32300 54.33800 38.99700
C  30.40300 51.89400 38.90100
C  27.06600 52.24300 36.98700
C  27.06800 53.39800 36.05300
H  27.33700 53.12200 34.53600
N  29.77400 57.21000 40.25200
C  30.65800 56.43300 39.52800
C  31.90700 57.19800 39.55400
C  31.67900 58.42400 40.13000
C  30.27800 58.48400 40.36900
C  33.20300 56.76800 38.83600
C  32.71700 59.55900 40.26700
O  33.89300 59.37500 39.99300
C  32.39600 60.83600 40.97500
N  27.31400 58.58000 41.03700
C  28.16500 59.61100 41.05600
C  27.47800 60.88100 41.48300
C  25.95000 60.53600 41.41200
C  26.01200 59.05600 41.25800
C  28.06000 61.52300 42.81100
C  25.25800 61.16400 40.19300
C  25.63100 60.50500 38.89700
N  25.77000 56.24100 40.52400
C  24.69000 56.94200 40.85500
C  23.49100 56.08300 40.72800
C  23.99100 54.87100 40.34500
C  25.34400 54.97700 40.16500
C  21.99200 56.37900 40.95100
C  23.50700 53.51300 40.09800
O  22.35500 52.96700 40.17900
C  24.66500 52.80200 39.44200
C  24.83800 51.53000 40.26200
O  24.11800 50.49900 40.12000
O  25.73300 51.69400 41.26100
C  26.01500 50.56200 42.13700
H  31.39700 54.76800 38.47300
H  29.97900 60.50700 40.92000
H  23.96300 58.89200 41.54600
H  27.81700 51.63200 38.94600
H  29.67800 53.01900 37.25700
H  30.92100 51.35500 38.10800
H  29.80100 51.14700 39.41800
H  31.03300 52.28200 39.70100
H  26.09500 51.77400 37.14600
H  27.78300 51.57600 36.51000
H  27.83600 54.12800 36.30900
H  26.06400 53.82000 36.07500
H  33.27300 55.68000 38.81700
H  34.16600 57.02400 39.27800
H  33.23600 57.12100 37.80500
H  31.89800 60.41500 41.84900
H  31.83300 61.55300 40.37800
H  33.29400 61.30600 41.37600
H  27.72100 61.60500 40.70500
H  25.52000 60.91200 42.34100
H  28.36900 62.52500 42.51400
H  28.88400 61.03800 43.33300
H  27.35000 61.55700 43.63800
H  25.48300 62.22900 40.25000
H  24.18900 60.97300 40.28400
H  24.77000 60.09200 38.37200
H  26.38800 59.72200 38.88600
H  26.02100 61.30600 38.26900
H  21.56500 56.84400 40.06200
H  21.88900 57.12100 41.74300
H  21.37900 55.54400 41.28900
H  24.47500 52.47100 38.42100
H  25.13900 50.09100 42.58500
H  26.83700 50.93300 42.74900
H  26.56100 49.84300 41.52700

