158

Mg 26.58200 0.36000 29.15300
C  28.32100 -0.15100 32.09900
C  23.68800 0.95300 30.98000
C  24.80100 0.31100 26.19600
C  29.40200 -0.70300 27.33700
N  26.09600 0.27900 31.28200
C  27.00200 0.21000 32.30300
C  26.34300 0.34600 33.74500
C  24.79000 0.45800 33.27600
C  24.85400 0.54300 31.76100
C  23.75400 -0.56600 33.72300
C  26.90700 1.43700 34.60700
C  27.36400 1.02800 36.06300
H  27.03500 1.91400 37.17200
N  24.56000 0.78800 28.66200
C  23.52300 1.04700 29.56400
C  22.32400 1.36800 28.80800
C  22.64600 1.16300 27.42000
C  24.06200 0.70200 27.39200
C  21.07200 1.80200 29.49900
C  21.72300 1.27000 26.21800
O  22.01500 1.03400 25.05100
C  20.28600 1.50500 26.59700
N  27.04900 -0.21700 26.95300
C  26.14900 -0.05900 26.00900
C  26.74200 0.05700 24.55500
C  28.32800 -0.13800 24.97700
C  28.28300 -0.40600 26.52300
C  26.23400 -1.03000 23.50600
C  29.24600 1.00600 24.59400
C  29.57900 1.12200 23.11700
N  28.44000 -0.33700 29.52800
C  29.48500 -0.78300 28.75400
C  30.63100 -1.14700 29.55400
C  30.22400 -0.91000 30.89800
C  28.88600 -0.39900 30.83100
C  31.89600 -1.57200 28.99600
C  30.67900 -0.94300 32.30600
O  31.71500 -1.08200 32.87300
C  29.41000 -0.46800 33.10300
C  29.04100 -1.44200 34.10100
O  28.25800 -2.37600 33.89100
O  29.75200 -1.15200 35.21700
C  29.56000 -2.11500 36.36100
H  22.83700 1.24900 31.59700
H  24.19400 0.27500 25.28900
H  30.33500 -0.90100 26.80600
H  26.46300 -0.63400 34.20800
H  24.38900 1.37300 33.71200
H  24.32200 -1.30900 34.28300
H  23.21300 -1.08800 32.93400
H  23.02200 -0.10300 34.38400
H  26.11200 2.17600 34.71100
H  27.72800 1.96800 34.12600
H  28.44200 0.87000 36.09700
H  26.96100 0.05000 36.32600
H  20.79300 2.82500 29.24500
H  21.19400 1.84500 30.58100
H  20.27100 1.06800 29.41100
H  19.84800 0.71600 27.20800
H  19.73100 1.63600 25.66800
H  20.31500 2.51400 27.00900
H  26.56900 1.07200 24.19900
H  28.68800 -1.05300 24.50500
H  25.50700 -1.69900 23.96800
H  27.08900 -1.56400 23.09200
H  25.69700 -0.51400 22.71000
H  30.14500 1.05200 25.20900
H  28.68100 1.91700 24.78900
H  28.99900 1.95700 22.72400
H  29.31800 0.18500 22.62400
H  30.63500 1.37800 23.03300
H  32.12800 -1.06200 28.06100
H  31.89400 -2.61400 28.67500
H  32.73600 -1.40000 29.66900
H  29.69300 0.40400 33.69300
H  29.43200 -3.14600 36.03200
H  28.67800 -1.75100 36.88900
H  30.43800 -2.09400 37.00600
Mg 16.99200 52.31000 26.43500
C  18.86500 51.02900 29.10900
C  14.72300 53.47000 28.76800
C  15.34700 53.58400 23.86300
C  19.19300 50.69200 24.21400
N  16.70700 52.05500 28.67100
C  17.74700 51.69500 29.53900
C  17.30500 51.94400 31.00800
C  15.79100 52.34700 30.80600
C  15.70600 52.67900 29.32500
C  14.69800 51.32400 31.36700
C  18.17800 53.05900 31.66000
C  18.47300 53.00200 33.11500
H  17.51300 52.08900 33.87000
N  15.21800 53.32100 26.32900
C  14.41200 53.76100 27.38300
C  13.38900 54.63600 26.80400
C  13.53600 54.65900 25.44400
C  14.77600 53.87300 25.15500
C  12.36600 55.36500 27.63300
C  12.67300 55.31000 24.32100
O  12.95900 55.37900 23.09200
C  11.29900 55.87300 24.82600
N  17.12800 52.09100 24.37000
C  16.41800 52.82100 23.51200
C  16.77800 52.60100 22.08200
C  18.21500 51.94200 22.23800
C  18.18900 51.51600 23.72300
C  15.71000 51.69700 21.25000
C  19.41100 52.89300 21.86100
C  19.85100 52.85200 20.39700
N  18.74200 51.14500 26.55700
C  19.49400 50.45400 25.62300
C  20.62900 49.71700 26.26000
C  20.43300 49.96000 27.65900
C  19.24100 50.79100 27.75400
C  21.72300 49.00500 25.48100
C  21.00400 49.86400 28.96600
O  22.13800 49.49200 29.29100
C  19.98300 50.55500 30.02700
C  19.51700 49.45200 30.87100
O  18.58200 48.68700 30.58900
O  20.28600 49.33700 32.02900
C  20.00200 48.27400 32.91700
H  14.06400 53.98100 29.47400
H  14.92600 54.06900 22.97900
H  19.98800 50.18300 23.66600
H  17.32800 50.97200 31.50100
H  15.63000 53.24900 31.39800
H  14.10000 51.67100 32.21000
H  15.19500 50.40600 31.68000
H  14.03100 50.84300 30.65100
H  17.74200 54.04300 31.49200
H  19.13000 53.10300 31.13200
H  18.36900 54.00400 33.52900
H  19.48900 52.62300 33.22100
H  11.33700 55.13700 27.35300
H  12.56700 56.40400 27.37300
H  12.43400 55.12500 28.69400
H  10.84400 56.33200 23.94900
H  11.42900 56.71500 25.50700
H  10.63000 55.04100 25.04400
H  16.76900 53.54900 21.54400
H  18.18000 51.09800 21.54900
H  15.72100 51.71000 20.16000
H  14.66600 51.83200 21.53400
H  16.00400 50.67400 21.48500
H  20.26300 52.64600 22.49400
H  19.06900 53.88000 22.17300
H  20.89400 52.58200 20.55900
H  19.97700 53.83500 19.94200
H  19.36400 52.08100 19.79900
H  22.17800 49.79900 24.88900
H  21.29500 48.15000 24.95700
H  22.47800 48.72500 26.21600
H  20.35600 51.39900 30.60700
H  19.71800 47.32600 32.46000
H  19.14200 48.53400 33.53500
H  20.88300 48.14700 33.54600

