158

Mg 9.02500 4.82000 27.90400
C  10.21700 3.00300 30.60300
C  7.01900 6.61200 30.08000
C  7.46500 6.26500 25.17400
C  10.68200 2.64000 25.71600
N  8.55400 4.70400 30.10800
C  9.30900 4.02300 31.02500
C  8.83600 4.33300 32.50700
C  7.89200 5.44500 32.21300
C  7.85000 5.59000 30.69000
C  6.50600 5.46200 32.90600
C  10.10500 4.47500 33.44800
C  9.75500 5.37800 34.59100
H  10.61200 5.28000 35.89800
N  7.64200 6.35700 27.68000
C  6.94500 6.99600 28.66400
C  6.16300 8.06200 28.04800
C  6.26900 7.96800 26.63100
C  7.15500 6.80600 26.44200
C  5.31400 8.95300 28.82800
C  5.80600 8.83300 25.51100
O  6.05800 8.55900 24.36500
C  5.18900 10.15800 25.82900
N  9.13100 4.59500 25.75600
C  8.39600 5.22800 24.88600
C  8.57500 4.66000 23.49300
C  9.63700 3.46600 23.59800
C  9.84800 3.59600 25.12700
C  7.29700 4.30600 22.64000
C  10.95200 3.55200 22.80200
C  11.17800 2.19800 21.94400
N  10.20800 3.26200 28.02700
C  10.84700 2.45400 27.08800
C  11.57000 1.45200 27.75600
C  11.42100 1.64200 29.11900
C  10.56400 2.75100 29.23100
C  12.28800 0.33200 27.07700
C  11.74100 1.16300 30.44000
O  12.50300 0.30300 30.84000
C  11.07200 2.13700 31.45600
C  10.42100 1.31400 32.47200
O  9.35300 0.69400 32.34800
O  11.21400 1.32000 33.68900
C  10.36300 0.93900 34.81600
H  6.45800 7.23200 30.78200
H  6.93300 6.60500 24.28200
H  11.18100 1.93400 25.04800
H  8.27200 3.48600 32.89700
H  8.47900 6.29400 32.56500
H  6.42500 4.61700 33.59000
H  5.69500 5.33900 32.18900
H  6.27900 6.36600 33.47100
H  10.92500 4.97700 32.93500
H  10.45000 3.49900 33.78800
H  8.68500 5.37100 34.80000
H  9.90500 6.39900 34.24000
H  5.23300 8.76400 29.89800
H  4.34900 8.79800 28.34600
H  5.72200 9.94400 28.63200
H  5.92300 10.92500 26.07400
H  4.50400 10.03700 26.66900
H  4.57900 10.48100 24.98500
H  9.03400 5.44000 22.88500
H  9.02900 2.58200 23.40300
H  6.35400 4.76400 22.93700
H  6.99400 3.27200 22.80900
H  7.44100 4.57700 21.59400
H  11.81400 3.74100 23.44100
H  10.85700 4.41800 22.14700
H  10.23600 1.65700 21.85400
H  11.98600 1.53900 22.26200
H  11.53300 2.52500 20.96700
H  13.05100 0.79700 26.45200
H  11.71700 -0.29800 26.39600
H  12.83200 -0.29600 27.78200
H  11.84800 2.77200 31.88300
H  10.52600 -0.13600 34.89200
H  9.30700 1.20700 34.79400
H  10.73800 1.55000 35.63800
Mg 48.44400 15.35200 27.89600
C  46.42700 15.45800 31.02000
C  50.95600 16.67900 29.69000
C  50.11100 15.43700 24.97400
C  45.52500 14.14900 26.35300
N  48.50900 16.34800 30.10100
C  47.73000 16.08100 31.13800
C  48.46900 16.43100 32.48500
C  49.84300 16.99500 31.95400
C  49.84300 16.58400 30.49300
C  50.14000 18.55100 32.18600
C  48.59500 15.26200 33.49900
C  47.83300 15.42500 34.85600
H  47.68600 16.84500 35.42500
N  50.28200 16.10600 27.40800
C  51.19500 16.52200 28.27800
C  52.37600 16.86900 27.50900
C  52.19900 16.40500 26.17400
C  50.77100 15.95900 26.11600
C  53.53000 17.63200 28.13900
C  53.17500 16.43700 25.02700
O  52.86100 15.91600 23.92000
C  54.59100 17.02600 25.18700
N  47.87100 14.89500 25.98700
C  48.68100 15.13500 24.90700
C  48.02700 14.80400 23.54000
C  46.74800 14.18100 23.97200
C  46.66800 14.45200 25.53800
C  48.01100 15.91100 22.42000
C  46.61000 12.69900 23.56800
C  47.45200 11.62200 24.33700
N  46.39000 14.85900 28.53800
C  45.38000 14.33700 27.73600
C  44.16900 14.08600 28.57200
C  44.61700 14.39000 29.88500
C  45.94200 14.95000 29.80000
C  42.92400 13.53300 28.10800
C  44.21200 14.34100 31.31800
O  43.12100 14.13100 31.77600
C  45.45300 14.99100 32.08100
C  44.87000 16.19500 32.81200
O  44.78600 17.36800 32.42300
O  44.34900 15.86100 34.04000
C  43.63400 16.79000 34.92100
H  51.79000 16.99700 30.31900
H  50.62200 15.60500 24.02400
H  44.65800 13.67600 25.88800
H  47.86200 17.22100 32.92600
H  50.73700 16.55100 32.39300
H  49.23000 18.95500 32.63100
H  50.24500 19.02300 31.21000
H  50.91700 18.75400 32.92300
H  49.64600 15.09900 33.73700
H  48.19600 14.38000 32.99800
H  48.43100 14.92600 35.61900
H  46.86000 14.93600 34.91000
H  53.39500 18.67000 27.83700
H  54.43400 17.10400 27.83600
H  53.46700 17.66200 29.22700
H  55.18900 16.41300 25.86100
H  54.58000 18.03900 25.58900
H  55.11400 17.07400 24.23100
H  48.60700 13.95700 23.17400
H  45.98600 14.79000 23.48600
H  48.68100 16.71600 22.72200
H  47.05300 16.43000 22.41200
H  48.47900 15.58100 21.49300
H  46.71200 12.63600 22.48500
H  45.58700 12.50700 23.89200
H  47.90600 10.97400 23.58700
H  46.74500 11.10800 24.98800
H  48.18000 12.20700 24.89800
H  42.04500 13.93900 28.60800
H  42.83300 12.51100 28.47600
H  42.89400 13.70000 27.03100
H  45.90100 14.28200 32.77600
H  44.35600 17.52800 35.27200
H  43.09100 16.29600 35.72600
H  42.86700 17.31400 34.35100

