158

Mg -12.22400 36.72000 42.31100
C  -9.61500 34.42700 42.00000
C  -10.21300 39.10700 40.76300
C  -14.84600 38.85500 42.13200
C  -14.27400 34.06600 43.05600
N  -10.12500 36.69700 41.39400
C  -9.28000 35.63400 41.35800
C  -7.98600 36.03500 40.71800
C  -8.00700 37.61000 40.78600
C  -9.54000 37.84900 41.00500
C  -7.11100 38.22000 41.84100
C  -7.91700 35.43800 39.31500
C  -6.52600 34.77000 39.01000
H  -5.60900 35.50000 38.05700
N  -12.48400 38.66600 41.65400
C  -11.48500 39.44800 41.13500
C  -12.02300 40.76000 40.94600
C  -13.36500 40.83700 41.37900
C  -13.63800 39.43000 41.71100
C  -11.13600 41.96200 40.38500
C  -14.34700 42.08800 41.50500
O  -13.86700 43.15100 41.11400
C  -15.71100 42.04600 41.94200
N  -14.23100 36.53100 42.63200
C  -15.19800 37.54800 42.48300
C  -16.63400 37.05100 42.83700
C  -16.35800 35.50900 43.07000
C  -14.86600 35.33900 42.90800
C  -17.32100 37.69500 44.09600
C  -17.33600 34.53500 42.15700
C  -17.90100 33.33200 42.92100
N  -11.99200 34.74500 42.60200
C  -12.92200 33.79400 42.91600
C  -12.24300 32.53500 43.20000
C  -10.96800 32.75300 42.83500
C  -10.84700 34.12000 42.42400
C  -12.71400 31.29100 43.76300
C  -9.73800 32.09000 42.69000
O  -9.37300 30.93100 42.83700
C  -8.79200 33.18700 42.12100
C  -7.66600 33.36400 43.03100
O  -6.51700 32.98700 42.92000
O  -8.05200 33.95600 44.20700
C  -7.09100 33.86600 45.34800
H  -9.44200 39.85200 40.55600
H  -15.74000 39.47900 42.06000
H  -15.02000 33.29900 43.27500
H  -7.21600 35.56600 41.33000
H  -7.60700 38.01800 39.85800
H  -6.24500 37.59200 42.05100
H  -7.65000 38.39600 42.77100
H  -6.78100 39.21400 41.53900
H  -7.95900 36.23200 38.56900
H  -8.72900 34.74300 39.09900
H  -6.68100 33.74000 38.68700
H  -5.96000 34.68100 39.93700
H  -10.74000 42.46000 41.27000
H  -11.68700 42.70800 39.81300
H  -10.30600 41.58600 39.78700
H  -15.97000 43.09900 42.05900
H  -15.68300 41.65800 42.96000
H  -16.36700 41.46400 41.29600
H  -17.13300 37.20600 41.88000
H  -16.60200 35.18800 44.08300
H  -17.78200 38.66900 43.93500
H  -16.61500 37.84300 44.91300
H  -18.07000 37.00800 44.49100
H  -16.67200 34.05600 41.43800
H  -18.11700 35.16800 41.73600
H  -18.97200 33.51200 42.82400
H  -17.62300 33.27800 43.97300
H  -17.54100 32.39400 42.49800
H  -12.04300 31.03100 44.58200
H  -12.67300 30.51400 42.99900
H  -13.72300 31.44100 44.14700
H  -8.39100 32.91500 41.14500
H  -6.66500 32.86500 45.41600
H  -7.51500 34.03100 46.33800
H  -6.35600 34.64400 45.14100
Mg 0.72900 42.68900 25.92700
C  2.13700 42.63800 28.97100
C  -1.99100 41.02800 27.12700
C  -0.40800 42.14900 22.71900
C  3.80000 43.72700 24.57200
N  0.14100 42.00500 27.80800
C  0.86500 42.21200 28.91200
C  0.05200 41.80700 30.14500
C  -1.33200 41.26300 29.55800
C  -1.01500 41.38900 28.03100
C  -1.75700 39.80900 30.10300
C  -0.08700 42.88200 31.20100
C  0.41500 42.45400 32.62100
H  -0.41900 42.66600 33.87600
N  -1.00400 41.84000 25.09500
C  -1.97500 41.21900 25.75800
C  -2.99700 40.81300 24.85900
C  -2.60300 41.27700 23.54500
C  -1.28100 41.72800 23.69600
C  -4.27000 40.25800 25.37300
C  -3.36500 41.06700 22.22500
O  -2.83600 41.33300 21.11400
C  -4.72100 40.38400 22.15600
N  1.57700 42.92100 23.99300
C  0.85200 42.70700 22.85900
C  1.60900 43.15100 21.58300
C  2.83900 43.88700 22.22300
C  2.78100 43.54900 23.68800
C  1.96100 42.04600 20.58100
C  2.86800 45.45500 21.92800
C  4.09500 45.85000 21.12800
N  2.66300 43.05400 26.61200
C  3.82200 43.48300 25.95700
C  4.92500 43.62800 26.92400
C  4.27400 43.30100 28.10100
C  2.92400 42.98800 27.84600
C  6.36200 43.93400 26.59400
C  4.48300 43.16500 29.55900
O  5.49800 43.38300 30.24500
C  3.10400 42.73000 30.11100
C  3.32200 41.44200 30.83700
O  3.00000 40.32800 30.44600
O  3.93900 41.68400 32.05700
C  4.20900 40.52100 32.90000
H  -2.88800 40.66700 27.63500
H  -0.68500 41.93600 21.68500
H  4.69500 44.06100 24.04400
H  0.64900 40.94300 30.43500
H  -2.23600 41.84200 29.74200
H  -1.64600 39.13100 29.25700
H  -2.79900 39.68500 30.40000
H  -1.03500 39.55100 30.87800
H  -1.07900 43.33200 31.24500
H  0.54100 43.71300 30.87800
H  1.28300 43.11300 32.64100
H  0.89500 41.47500 32.63600
H  -5.04000 41.01800 25.23800
H  -4.26500 39.92800 26.41200
H  -4.68300 39.44800 24.77200
H  -4.53600 39.37800 22.53400
H  -4.98600 40.32200 21.10000
H  -5.42700 41.05200 22.65000
H  0.89800 43.83700 21.12300
H  3.73000 43.40700 21.82100
H  1.61400 41.06300 20.89900
H  3.00900 41.95400 20.29300
H  1.26600 42.18800 19.75300
H  2.92000 46.05800 22.83500
H  2.04700 45.77600 21.28600
H  4.75000 46.39700 21.80600
H  3.89200 46.56100 20.32700
H  4.65300 45.01800 20.69800
H  6.48300 44.61500 25.75200
H  6.96800 43.04800 26.40400
H  6.89700 44.38100 27.43200
H  2.80000 43.50100 30.81800
H  5.09600 40.20200 32.35400
H  3.42700 39.76200 32.90200
H  4.46000 40.79500 33.92500

