158

Mg -1.09800 17.38600 26.95700
C  -1.92000 14.98500 29.46800
C  -1.93000 19.83100 29.14300
C  -0.76500 19.35600 24.41500
C  -0.69300 14.60900 24.82200
N  -2.05600 17.34500 29.03000
C  -2.02500 16.30900 29.89500
C  -2.23600 16.78300 31.30500
C  -2.48600 18.33000 31.11700
C  -2.08700 18.54500 29.72800
C  -3.87400 18.78000 31.34100
C  -1.19400 16.23600 32.31200
C  -1.23300 16.91400 33.63200
H  -0.67800 16.13600 34.81500
N  -1.31400 19.29400 26.80700
C  -1.58700 20.19400 27.82900
C  -1.51200 21.49300 27.37700
C  -1.10800 21.37000 25.95200
C  -1.07100 19.97800 25.61600
C  -1.71700 22.71300 28.14000
C  -0.83800 22.47500 24.90900
O  -0.55500 22.24600 23.68500
C  -0.85400 23.87800 25.43600
N  -0.96700 16.98100 24.86900
C  -0.62400 18.03600 24.11300
C  -0.40100 17.64600 22.63800
C  -0.16200 16.08400 22.74700
C  -0.53400 15.81300 24.20000
C  -1.60700 17.94800 21.77400
C  1.29700 15.60000 22.44100
C  2.43400 16.18700 23.36500
N  -1.35700 15.18100 27.05100
C  -1.07900 14.22300 26.15600
C  -1.55800 12.91200 26.59200
C  -1.79500 13.12400 27.96600
C  -1.72600 14.54500 28.13700
C  -1.50500 11.63600 25.83500
C  -2.26700 12.57400 29.21500
O  -2.72800 11.46200 29.49300
C  -2.20900 13.69100 30.24500
C  -0.95900 13.28800 31.09200
O  0.19600 13.59400 30.90400
O  -1.40900 12.50300 32.21900
C  -0.40800 11.95100 33.14700
H  -1.99400 20.62800 29.88700
H  -0.54400 19.98400 23.55000
H  -0.43800 13.71600 24.24700
H  -3.07900 16.19700 31.67200
H  -1.84300 18.83800 31.83500
H  -4.06300 19.56800 30.61200
H  -3.84300 19.11800 32.37600
H  -4.52300 17.90600 31.28100
H  -0.22200 16.37200 31.83700
H  -1.40300 15.20200 32.58400
H  -2.22700 17.29200 33.86900
H  -0.53000 17.71700 33.41600
H  -2.25300 22.59700 29.08200
H  -2.15100 23.54200 27.58300
H  -0.68200 22.97700 28.35700
H  -0.24100 24.08700 26.31300
H  -1.87400 24.20000 25.64500
H  -0.42300 24.49300 24.64600
H  0.46700 18.15100 22.21400
H  -0.82300 15.34900 22.28700
H  -2.33700 18.01300 22.58000
H  -1.71900 17.25000 20.94400
H  -1.54100 18.90700 21.26000
H  1.60100 15.86800 21.42900
H  1.41800 14.51800 22.49100
H  2.08500 17.01000 23.98900
H  3.27200 16.52100 22.75500
H  2.92000 15.49000 24.04700
H  -0.98000 11.87500 24.91000
H  -2.51900 11.37700 25.53100
H  -0.99200 10.85300 26.39400
H  -3.03700 13.70800 30.95400
H  -0.90300 11.77600 34.10200
H  0.39700 12.67600 33.27200
H  -0.10400 10.97700 32.76500
Mg -11.06200 38.76200 41.36100
C  -9.19800 36.10000 40.07800
C  -8.93800 40.87400 39.65900
C  -13.28600 41.32000 41.72700
C  -13.46300 36.50700 42.36300
N  -9.23300 38.49900 39.98300
C  -8.66000 37.33700 39.64500
C  -7.40700 37.52600 38.84700
C  -7.20500 39.12100 38.91700
C  -8.50700 39.53300 39.58500
C  -5.92300 39.62700 39.52100
C  -7.42700 36.88400 37.37800
C  -6.19400 35.98600 37.05200
H  -5.42100 36.21600 35.69700
N  -11.16900 40.74200 40.75300
C  -10.12000 41.45000 40.15800
C  -10.44600 42.81100 40.09300
C  -11.75100 42.96400 40.58500
C  -12.10700 41.66200 41.05300
C  -9.54100 43.95100 39.56500
C  -12.50900 44.30100 40.53500
O  -12.03300 45.33700 40.07500
C  -13.95700 44.32500 40.88100
N  -13.22500 38.86600 41.84900
C  -13.71200 40.09200 42.16800
C  -15.03000 39.93100 42.87900
C  -15.03400 38.41300 43.28500
C  -13.83100 37.87100 42.46900
C  -15.11700 41.07800 43.98100
C  -16.38800 37.68000 42.92900
C  -17.49300 37.63200 43.95900
N  -11.30400 36.62700 41.34600
C  -12.35800 35.88800 41.83900
C  -11.96500 34.55600 41.71300
C  -10.74700 34.58400 40.99600
C  -10.41500 35.88000 40.79100
C  -12.68100 33.35400 42.33300
C  -9.69200 33.68900 40.43600
O  -9.58100 32.48900 40.49300
C  -8.61800 34.65200 39.70900
C  -7.28700 34.46800 40.36800
O  -6.37700 33.87400 39.83700
O  -7.15900 35.02500 41.59800
C  -5.90700 34.80400 42.27400
H  -8.13600 41.46700 39.21600
H  -13.97400 42.10100 42.05800
H  -14.28200 35.92900 42.79700
H  -6.63200 37.09300 39.47900
H  -7.13500 39.35600 37.85500
H  -6.26100 39.85300 40.53200
H  -5.55400 40.53300 39.04000
H  -5.11800 38.90200 39.63800
H  -7.37700 37.58100 36.54100
H  -8.28000 36.21200 37.28900
H  -6.47300 34.93400 36.99500
H  -5.47200 36.03000 37.86800
H  -9.82900 44.30700 38.57500
H  -8.50400 43.62100 39.51200
H  -9.61800 44.77300 40.27600
H  -13.98000 44.31000 41.97100
H  -14.54800 43.54500 40.40300
H  -14.38500 45.27000 40.54500
H  -15.70400 40.17400 42.05800
H  -14.88100 38.36300 44.36300
H  -14.08100 41.19700 44.29900
H  -15.69900 40.81500 44.86400
H  -15.47100 42.03500 43.59900
H  -16.27100 36.64800 42.59900
H  -16.78300 38.14400 42.02500
H  -17.62400 36.58500 44.23000
H  -18.35500 38.07500 43.46000
H  -17.25900 38.14900 44.89000
H  -12.47800 32.50700 41.67700
H  -13.75700 33.50700 42.41800
H  -12.37700 33.11100 43.35200
H  -8.58700 34.54500 38.62500
H  -5.00400 34.69300 41.67400
H  -6.08900 33.88300 42.82900
H  -5.78900 35.55400 43.05600

