158

Mg 49.52900 45.95300 43.20300
C  46.22500 46.82000 42.34400
C  49.04700 43.00000 41.35300
C  52.79000 45.47000 43.41200
C  50.01700 49.35200 44.08700
N  47.78500 45.06900 41.86600
C  46.57900 45.57700 41.77700
C  45.73500 44.71600 40.87300
C  46.63800 43.40400 40.65100
C  47.87300 43.80900 41.33100
C  46.07300 42.10300 41.20100
C  45.17700 45.34700 39.60700
C  43.70200 45.17000 39.24100
H  43.31800 44.90400 37.76800
N  50.73100 44.36800 42.56900
C  50.34300 43.19600 41.93000
C  51.55100 42.34500 41.69900
C  52.60300 42.99600 42.38300
C  52.10000 44.36100 42.79200
C  51.47500 41.05100 40.90600
C  53.99000 42.41800 42.74700
O  54.15700 41.22100 42.49800
C  55.01300 43.19000 43.27700
N  51.18900 47.30700 43.65200
C  52.41000 46.76800 43.85500
C  53.33400 47.92600 44.41200
C  52.33200 49.12300 44.56300
C  51.10900 48.56700 43.96400
C  54.08300 47.61600 45.73000
C  52.81300 50.51200 43.96200
C  53.36100 51.63200 44.92200
N  48.34800 47.70900 43.29500
C  48.65200 48.96500 43.75100
C  47.45900 49.75600 43.84000
C  46.47400 48.96300 43.25800
C  47.07300 47.75400 42.89700
C  47.38300 51.02600 44.50700
C  45.02600 48.86800 42.92100
O  44.11600 49.69200 43.02500
C  44.82800 47.47600 42.20800
C  43.83100 46.71900 42.96700
O  43.82200 46.56600 44.17900
O  42.93300 46.09600 42.14800
C  42.07400 45.11800 42.80200
H  48.88800 41.96500 41.04400
H  53.87600 45.35800 43.38200
H  50.17900 50.36500 44.46000
H  44.91300 44.33700 41.48000
H  46.84300 43.30600 39.58500
H  44.98500 42.10000 41.26000
H  46.43000 41.92900 42.21600
H  46.35500 41.29500 40.52600
H  45.82600 45.13900 38.75600
H  45.34000 46.42000 39.70100
H  43.07400 46.00900 39.54000
H  43.37600 44.26100 39.74800
H  52.16000 40.28100 41.26000
H  51.55800 41.33100 39.85600
H  50.47600 40.64300 41.05600
H  54.86200 43.65400 44.25100
H  55.32400 43.97700 42.59100
H  55.89300 42.55100 43.35200
H  54.08600 48.26500 43.70000
H  52.13400 49.32700 45.61500
H  53.88900 46.54600 45.81100
H  53.60100 48.13800 46.55600
H  55.14700 47.84800 45.68300
H  52.04800 50.97600 43.33900
H  53.57900 50.28800 43.22000
H  53.19400 51.22100 45.91700
H  52.74500 52.51800 44.76500
H  54.38900 51.90800 44.68600
H  48.06400 51.78400 44.11800
H  47.62200 50.96300 45.56900
H  46.37100 51.42400 44.42700
H  44.53000 47.67300 41.17800
H  41.24700 45.66400 43.25700
H  42.61900 44.45500 43.47300
H  41.50500 44.60800 42.02400
Mg 30.45600 57.54200 40.28600
C  27.82200 55.44700 39.04100
C  32.57900 55.16600 39.54600
C  32.89900 59.73600 40.76300
C  28.13200 60.11400 40.63500
N  30.21800 55.58500 39.26000
C  29.13100 54.89400 38.96200
C  29.43100 53.48100 38.46300
C  30.92700 53.29100 38.96300
C  31.29500 54.75400 39.30100
C  31.06700 52.26100 40.18000
C  29.23800 53.18300 36.86400
C  29.63200 54.19900 35.78600
H  28.48300 54.58000 34.79400
N  32.49900 57.48300 40.13500
C  33.13200 56.37500 39.81500
C  34.57700 56.71100 39.81500
C  34.68800 57.99500 40.14400
C  33.29300 58.51200 40.32500
C  35.63400 55.63800 39.34500
C  36.02000 58.74800 40.19100
O  37.08200 58.12200 40.03300
C  36.18900 60.13400 40.27800
N  30.47600 59.62800 40.64100
C  31.64100 60.23300 41.04400
C  31.52800 61.70600 41.41200
C  29.94400 61.77000 41.48500
C  29.40700 60.45500 40.92800
C  32.27800 62.21800 42.63000
C  29.29100 63.03300 40.86900
C  28.04000 63.56900 41.55500
N  28.35400 57.78100 39.93200
C  27.60800 58.89300 40.06300
C  26.21500 58.55100 39.85600
C  26.29800 57.21800 39.37300
C  27.61300 56.79600 39.44100
C  24.96800 59.39200 39.82100
C  25.53900 56.13900 38.78000
O  24.37900 56.16600 38.43900
C  26.52000 54.86300 38.58000
C  25.93300 53.79400 39.36800
O  26.15000 53.62000 40.54700
O  24.99400 53.13900 38.70600
C  24.44600 52.01900 39.45400
H  33.35200 54.39500 39.56700
H  33.69200 60.48000 40.86100
H  27.37500 60.84100 40.93600
H  28.70500 52.85500 38.98100
H  31.54800 53.01900 38.11000
H  30.07700 51.91000 40.47100
H  31.59500 52.75900 40.99400
H  31.71300 51.45300 39.83400
H  28.18200 52.99100 36.67500
H  29.75400 52.25800 36.60600
H  30.41600 53.71500 35.20300
H  29.99000 55.09400 36.29500
H  36.36400 56.10500 38.68400
H  35.21900 54.76400 38.84300
H  36.15800 55.23200 40.21000
H  37.21000 60.43100 40.03900
H  35.92500 60.48500 41.27600
H  35.51200 60.65000 39.59800
H  31.88100 62.19300 40.50300
H  29.61300 61.74000 42.52300
H  32.71600 61.34100 43.10700
H  31.54700 62.75500 43.23500
H  33.11600 62.86700 42.37400
H  29.08900 62.89400 39.80700
H  29.95800 63.89500 40.83900
H  27.20700 63.41200 40.86900
H  28.20800 64.58800 41.90400
H  27.67100 62.98200 42.39600
H  24.17900 58.72500 40.16900
H  24.75600 59.70000 38.79800
H  25.03800 60.23600 40.50700
H  26.59600 54.44600 37.57600
H  24.17200 51.30800 38.67500
H  23.61500 52.39100 40.05300
H  25.13300 51.41300 40.04500

