158

Mg 35.60400 1.84300 30.12300
C  33.03600 3.07700 32.41500
C  37.72400 1.87400 32.70800
C  37.85500 1.31500 27.92400
C  33.29500 2.59400 27.41500
N  35.32600 2.47700 32.31000
C  34.23200 2.85900 33.01900
C  34.51200 2.96100 34.47000
C  36.07900 2.88200 34.51000
C  36.44000 2.34000 33.10900
C  36.72300 4.26200 34.76500
C  33.78600 1.86300 35.27600
C  33.25700 2.20700 36.71700
H  34.07200 3.32500 37.49900
N  37.55500 1.37600 30.33700
C  38.22100 1.41600 31.47100
C  39.56700 0.93200 31.15300
C  39.66500 0.97500 29.73100
C  38.37000 1.27500 29.28100
C  40.49600 0.51400 32.26500
C  40.95800 0.81100 28.86400
O  40.95900 0.86900 27.63900
C  42.24400 0.60600 29.52000
N  35.47300 1.75300 27.95000
C  36.59000 1.50800 27.30200
C  36.46600 1.84100 25.78800
C  34.89000 1.88900 25.62500
C  34.53100 2.08400 27.07000
C  37.29200 3.05700 25.26200
C  34.10700 0.79300 24.94400
C  33.70000 -0.44500 25.65500
N  33.66500 2.63700 29.86100
C  32.89400 2.86200 28.76400
C  31.52900 3.28900 29.24600
C  31.58500 3.37300 30.61000
C  32.85300 3.00300 30.99400
C  30.30300 3.56800 28.47400
C  30.79300 3.70600 31.76600
O  29.66200 4.16600 31.85800
C  31.74500 3.47900 33.01500
C  31.91200 4.78700 33.67600
O  32.60300 5.74500 33.27100
O  31.00900 4.91000 34.72100
C  30.91300 6.22300 35.37800
H  38.42600 1.79400 33.54100
H  38.56600 1.00100 27.15700
H  32.47300 2.90400 26.76600
H  34.15700 3.95000 34.76000
H  36.50900 2.22700 35.26800
H  35.97500 5.05300 34.70900
H  37.51600 4.51600 34.06200
H  37.31600 4.28600 35.68000
H  34.52200 1.06100 35.21900
H  32.87700 1.47100 34.81900
H  33.21000 1.32300 37.35300
H  32.19700 2.43900 36.61400
H  41.14100 -0.29800 31.92900
H  39.91500 0.19700 33.13100
H  41.09500 1.31600 32.69600
H  42.58100 1.43800 30.13700
H  42.89600 0.49400 28.65400
H  42.27700 -0.29900 30.12700
H  36.77400 0.92800 25.27800
H  34.77600 2.84100 25.10500
H  37.69800 2.76200 24.29400
H  38.11800 3.31500 25.92400
H  36.68800 3.92800 25.00900
H  34.76400 0.50600 24.12200
H  33.21000 1.07500 24.39300
H  33.96300 -1.34200 25.09500
H  32.62700 -0.46300 25.84700
H  34.28200 -0.53400 26.57200
H  30.22800 2.75000 27.75600
H  30.49500 4.47600 27.90300
H  29.34700 3.62800 28.99400
H  31.15200 2.76100 33.58200
H  31.78000 6.43300 36.00500
H  30.09800 6.07100 36.08500
H  30.67000 7.08800 34.76100
Mg 7.66100 53.42900 41.10100
C  7.07700 49.97400 40.66100
C  10.75600 52.94700 40.00400
C  7.83600 56.75800 40.52000
C  4.20400 53.83600 41.86100
N  8.72100 51.62500 40.31300
C  8.40700 50.29600 40.27900
C  9.61500 49.39000 40.07000
C  10.76400 50.43800 40.16300
C  10.07300 51.80800 40.11300
C  11.78500 50.33100 41.33300
C  9.68400 48.30200 38.96100
C  9.77700 48.84200 37.55000
H  8.48300 48.62400 36.77100
N  9.17500 54.73400 40.43200
C  10.36200 54.27400 40.11000
C  11.27400 55.39900 39.93600
C  10.46100 56.60300 40.07400
C  9.10000 56.08100 40.41800
C  12.72800 55.26200 39.68400
C  10.99000 57.97600 39.84700
O  12.13600 58.23400 39.47200
C  10.04300 59.13000 39.86400
N  6.13100 55.04400 41.00500
C  6.52200 56.33700 40.89400
C  5.36100 57.27600 41.14200
C  4.21200 56.35300 41.71800
C  4.85700 54.99100 41.43900
C  5.76500 58.56500 42.02900
C  2.84900 56.59300 41.00800
C  1.74500 56.88300 42.06000
N  5.95200 52.17900 41.22400
C  4.64000 52.47700 41.64700
C  3.90100 51.24400 41.79700
C  4.83600 50.24400 41.43500
C  6.04200 50.84700 41.07600
C  2.51000 51.04000 42.26200
C  4.98800 48.74700 41.26300
O  4.21400 47.77200 41.42000
C  6.38600 48.58500 40.76200
C  6.23800 47.85100 39.54300
O  5.76600 48.42300 38.54800
O  6.68100 46.54500 39.57300
C  6.53100 45.79300 38.30600
H  11.76800 52.80700 39.61800
H  7.88500 57.82500 40.29300
H  3.12600 53.90500 42.01800
H  9.49400 48.75800 40.94900
H  11.36700 50.35200 39.25900
H  12.54400 49.85900 40.70900
H  11.48400 49.55200 42.03300
H  12.23200 51.22300 41.77100
H  8.80300 47.67200 39.07900
H  10.53500 47.63300 39.09300
H  10.69600 48.45600 37.10700
H  9.93500 49.91900 37.49300
H  12.98000 54.94000 38.67400
H  13.01300 54.45900 40.36500
H  13.31500 56.13700 39.96500
H  10.53500 60.06900 39.60900
H  9.64500 59.13400 40.87900
H  9.18500 58.80900 39.27400
H  5.04500 57.59700 40.15000
H  4.16500 56.40500 42.80600
H  6.60100 58.32800 42.68700
H  4.98000 58.74900 42.76200
H  5.97900 59.45500 41.43800
H  2.55800 55.64100 40.56400
H  2.91100 57.33100 40.20800
H  1.63000 57.93000 42.34300
H  1.89700 56.46200 43.05400
H  0.81200 56.45900 41.68700
H  2.38500 50.01500 42.61100
H  1.88900 51.27200 41.39700
H  2.12700 51.56000 43.14000
H  6.91800 47.94000 41.46100
H  5.95200 46.30900 37.54000
H  6.04800 44.86300 38.60500
H  7.49900 45.38500 38.01400

