158

Mg -0.12700 7.52500 26.59600
C  0.56200 9.54300 29.43800
C  -0.32100 4.80200 28.72900
C  -0.58600 5.55100 23.94600
C  0.53400 10.21900 24.55100
N  -0.09400 7.29400 28.82500
C  0.14700 8.21200 29.81000
C  0.06900 7.70600 31.16900
C  -0.10300 6.11200 30.92100
C  -0.28200 6.07600 29.35600
C  0.95900 5.13000 31.48700
C  -1.00000 8.41200 32.02700
C  -0.76900 8.57000 33.53300
H  0.43000 8.07100 34.26000
N  -0.39000 5.45000 26.33200
C  -0.37300 4.49500 27.30100
C  -0.49700 3.20000 26.65500
C  -0.66900 3.40800 25.27400
C  -0.59900 4.89700 25.13300
C  -0.41100 1.97800 27.43900
C  -1.04000 2.35500 24.18600
O  -1.23500 2.79400 23.05700
C  -1.28200 0.87600 24.51000
N  -0.06400 7.87600 24.55400
C  -0.35900 6.88900 23.58400
C  -0.28500 7.40900 22.10600
C  -0.19900 8.94000 22.42200
C  0.14700 9.03700 23.94600
C  0.80200 6.66100 21.30600
C  -1.46300 9.77300 22.08300
C  -1.29400 10.76500 20.87600
N  0.49200 9.47000 26.89400
C  0.69000 10.42200 25.90600
C  1.23300 11.57200 26.58100
C  1.29700 11.27200 27.95000
C  0.74200 9.98700 28.10100
C  1.70500 12.75300 25.93700
C  1.63700 11.78100 29.23000
O  2.20200 12.85000 29.57500
C  1.16200 10.67000 30.27700
C  2.31400 10.21900 31.15600
O  3.07700 9.36900 30.82900
O  2.53300 11.00300 32.20500
C  3.63600 10.80000 33.14800
H  -0.47500 3.88200 29.29700
H  -0.83200 4.98100 23.04800
H  0.77200 11.09200 23.94100
H  1.02000 7.83900 31.68500
H  -1.09800 5.84800 31.28100
H  0.42200 4.31800 31.97800
H  1.54700 5.69600 32.20900
H  1.60800 4.87200 30.65000
H  -1.95600 7.94900 31.78200
H  -1.04600 9.39800 31.56400
H  -1.67700 8.19400 34.00300
H  -0.74600 9.64100 33.73300
H  -0.15700 1.08900 26.86200
H  -1.36100 1.78700 27.93700
H  0.41200 2.17400 28.12700
H  -1.68400 0.39100 23.62100
H  -1.98400 0.76300 25.33600
H  -0.39100 0.32800 24.81900
H  -1.19900 7.19400 21.55200
H  0.63000 9.37900 21.86700
H  1.11500 5.74600 21.81000
H  1.71900 7.24800 21.24900
H  0.58200 6.31700 20.29600
H  -1.53200 10.47200 22.91700
H  -2.42800 9.27600 21.98700
H  -0.79300 10.23300 20.06700
H  -0.75400 11.69700 21.04400
H  -2.29800 11.03900 20.55400
H  1.02300 13.05600 25.14300
H  2.72700 12.62200 25.58100
H  1.70300 13.62700 26.58900
H  0.31800 11.04400 30.85600
H  4.10000 11.78700 33.14700
H  4.34600 10.11100 32.69200
H  3.32300 10.51700 34.15300
Mg 26.86900 50.76800 26.75600
C  24.89400 51.77400 29.57300
C  29.15100 49.69400 28.81000
C  28.94400 50.60400 24.03600
C  24.66800 52.64600 24.79900
N  26.97700 50.83400 28.97800
C  26.09500 51.15400 29.93800
C  26.56400 50.70800 31.33300
C  27.91900 50.00900 30.98100
C  28.01500 50.07700 29.42800
C  29.09700 50.67500 31.68400
C  25.58200 49.67900 32.02500
C  24.83100 50.18200 33.31000
H  24.82200 49.38200 34.58800
N  28.72500 50.10400 26.45700
C  29.51500 49.63900 27.43900
C  30.73400 49.07400 26.85600
C  30.73400 49.41000 25.44800
C  29.45700 50.11000 25.23400
C  31.80300 48.30200 27.60700
C  31.75000 48.98800 24.33400
O  31.60700 49.37200 23.14200
C  32.89500 48.02100 24.69100
N  26.66900 51.29500 24.62500
C  27.66900 51.09200 23.72900
C  27.19000 51.47900 22.28400
C  25.71400 52.09700 22.50200
C  25.68000 52.10300 24.08000
C  28.23900 52.39700 21.55900
C  24.57000 51.22200 22.00600
C  23.33500 51.93400 21.19000
N  25.12700 51.76700 27.04500
C  24.41100 52.49800 26.15900
C  23.26900 53.10700 26.75100
C  23.38200 52.85200 28.11600
C  24.55700 52.05100 28.24900
C  22.27500 54.05100 26.08000
C  22.94900 53.18100 29.46600
O  22.10900 53.95100 29.91200
C  23.80500 52.31200 30.44600
C  24.19900 53.36700 31.46400
O  25.22000 53.94700 31.45300
O  23.22200 53.45700 32.49100
C  23.42100 54.50500 33.57500
H  29.85200 49.14300 29.44000
H  29.56700 50.44700 23.15300
H  23.90900 53.10800 24.16500
H  26.65000 51.67400 31.83200
H  27.92100 48.93000 31.13600
H  29.64200 49.91900 32.24900
H  28.61700 51.30700 32.43100
H  29.76800 51.25000 31.04600
H  26.11700 48.77000 32.30200
H  24.81500 49.49700 31.27300
H  23.80200 50.37400 33.00500
H  25.24800 51.08000 33.76800
H  31.66800 48.16300 28.67900
H  32.73300 48.87100 27.60200
H  31.91000 47.30500 27.18000
H  33.47500 48.47900 25.49200
H  33.48900 47.79700 23.80500
H  32.61700 47.00500 24.97100
H  27.19400 50.54500 21.72300
H  25.54200 53.13100 22.20400
H  29.00900 52.70000 22.26800
H  27.69100 53.24900 21.15600
H  28.68800 51.91800 20.68900
H  24.17500 50.55700 22.77300
H  24.94400 50.55900 21.22500
H  22.44700 51.30300 21.21000
H  23.69800 51.93500 20.16200
H  23.09700 52.95100 21.50200
H  22.66900 55.06100 25.96500
H  21.38200 54.14100 26.69900
H  22.14900 53.58900 25.10100
H  23.19000 51.54900 30.92300
H  24.04400 54.00400 34.31600
H  22.45500 54.84400 33.94900
H  24.00100 55.32800 33.15700

