158

Mg 47.21500 35.30700 27.59200
C  45.69000 33.45800 30.41400
C  47.62500 37.92800 29.88300
C  48.64600 36.95100 25.12800
C  46.77600 32.49700 25.59700
N  46.91300 35.54100 30.01800
C  46.25600 34.65900 30.83500
C  46.37400 35.17000 32.29400
C  46.66700 36.72500 32.03300
C  47.10300 36.75100 30.54900
C  45.49500 37.72700 32.23600
C  47.54800 34.40700 32.92800
C  47.65700 34.50400 34.47000
H  46.72700 35.35600 35.30400
N  47.98000 37.22700 27.51100
C  48.06400 38.12800 28.51800
C  48.65700 39.28100 27.92300
C  49.11700 39.02600 26.61300
C  48.59300 37.67400 26.36400
C  48.85300 40.55800 28.68600
C  49.92000 39.87000 25.69200
O  50.09800 39.55800 24.52500
C  50.38700 41.16100 26.06900
N  47.51800 34.82100 25.65900
C  48.09800 35.72900 24.80500
C  48.29100 35.10800 23.42400
C  48.08100 33.62400 23.68900
C  47.36600 33.63500 25.03200
C  47.36900 35.74800 22.29900
C  49.34700 32.64700 23.60100
C  49.36900 31.69700 22.36900
N  46.43900 33.43500 27.94900
C  46.39600 32.35800 27.00900
C  45.71700 31.20800 27.63900
C  45.35000 31.66800 28.86000
C  45.79500 32.99600 29.06300
C  45.31900 29.86100 27.02800
C  44.73300 31.21600 30.19600
O  44.16600 30.15100 30.51300
C  44.85300 32.46900 31.11400
C  45.36300 32.01800 32.43000
O  46.35300 31.28200 32.62100
O  44.53200 32.47500 33.40200
C  44.89800 32.00700 34.76000
H  47.77900 38.68300 30.65600
H  49.07700 37.49200 24.28300
H  46.81600 31.59100 24.98900
H  45.43400 35.03300 32.82800
H  47.55700 37.09100 32.54500
H  45.65100 38.42800 33.05600
H  44.55100 37.22700 32.45300
H  45.25700 38.29400 31.33600
H  48.45800 34.97300 32.73000
H  47.59300 33.36300 32.61500
H  48.65600 34.80600 34.78500
H  47.49400 33.48400 34.82000
H  48.88600 40.48800 29.77300
H  48.00800 41.17500 28.38100
H  49.75900 41.05100 28.33400
H  51.08300 41.06400 26.90200
H  49.65200 41.91100 26.36300
H  50.82400 41.58500 25.16500
H  49.27100 35.31100 22.99400
H  47.29400 33.35300 22.98600
H  46.40100 35.95100 22.75600
H  47.18600 35.06600 21.46900
H  47.78600 36.67300 21.90000
H  49.32600 31.97500 24.45900
H  50.30100 33.17000 23.66100
H  48.50200 31.97200 21.76900
H  49.33300 30.67300 22.74100
H  50.19900 31.98300 21.72400
H  45.81800 29.78900 26.06200
H  44.23900 29.92700 26.89800
H  45.61900 29.02400 27.66000
H  43.82700 32.77400 31.32000
H  44.46100 31.04400 35.02300
H  44.43000 32.76800 35.38500
H  45.97400 32.05100 34.92700
Mg 34.73300 48.63300 26.06400
C  35.52000 46.72400 28.80500
C  33.52700 51.13500 28.26500
C  33.84500 50.43300 23.47400
C  35.84100 46.07800 24.00500
N  34.52500 48.89500 28.26300
C  35.08000 48.01500 29.18000
C  34.92100 48.53100 30.62800
C  34.08100 49.85300 30.44200
C  34.09600 49.96600 28.87500
C  32.62200 49.83700 31.05400
C  36.35100 48.75200 31.33500
C  36.58400 48.45300 32.81500
H  36.18200 49.62700 33.74100
N  33.86000 50.46600 25.90500
C  33.43300 51.34400 26.89300
C  32.96400 52.54100 26.28300
C  33.03400 52.33600 24.86900
C  33.72400 51.07500 24.73500
C  32.44200 53.73100 27.11100
C  32.51200 53.30800 23.74200
O  32.56500 53.01000 22.55600
C  31.88000 54.60300 24.18800
N  34.78300 48.28400 23.99600
C  34.34200 49.20200 23.06600
C  34.47800 48.72900 21.63500
C  35.29400 47.36100 21.88500
C  35.40000 47.24400 23.39000
C  33.08100 48.44000 20.98900
C  36.67300 47.22800 21.14700
C  36.90700 45.84200 20.56400
N  35.42000 46.73900 26.25000
C  35.81400 45.83800 25.37500
C  36.26300 44.62100 26.07100
C  36.26000 45.01600 27.42300
C  35.74100 46.29300 27.52200
C  36.82200 43.35400 25.54200
C  36.59100 44.54800 28.77900
O  37.01000 43.45500 29.15300
C  36.11500 45.61500 29.70900
C  35.18600 45.13900 30.74500
O  33.95900 45.10100 30.66900
O  35.86200 44.86300 31.86200
C  35.09800 44.81800 33.06600
H  33.28700 51.74700 29.13600
H  33.62300 50.98300 22.55700
H  36.29100 45.27300 23.42200
H  34.28700 47.86200 31.20900
H  34.58700 50.70600 30.89300
H  31.84300 50.41900 30.56200
H  32.80200 50.24100 32.05000
H  32.28000 48.80400 31.12000
H  36.60000 49.78900 31.11000
H  37.15900 48.15200 30.91500
H  37.64700 48.42900 33.05500
H  35.99800 47.58700 33.12100
H  32.89200 54.65100 26.74000
H  32.80200 53.80800 28.13700
H  31.35400 53.78700 27.13100
H  32.71200 55.19600 24.56800
H  31.20000 54.42300 25.02000
H  31.34200 55.13200 23.40100
H  35.08300 49.54400 21.23600
H  34.71500 46.44200 21.80600
H  32.83200 47.38900 20.84000
H  33.10500 48.87200 19.98900
H  32.30000 48.91800 21.58100
H  37.43400 47.39000 21.91000
H  36.68600 47.94200 20.32400
H  37.94200 45.66100 20.27500
H  36.19100 45.79100 19.74400
H  36.69600 45.04600 21.27800
H  36.22200 42.52300 25.91200
H  37.89700 43.29400 25.71400
H  36.76800 43.36200 24.45300
H  36.97800 46.01900 30.23800
H  34.53100 45.74900 33.05300
H  35.75000 44.66500 33.92600
H  34.46900 43.92800 33.08200

