158

Mg 0.86900 7.96300 26.13700
C  1.56400 9.84300 29.06900
C  0.86300 5.17800 27.96600
C  0.42000 6.34500 23.31000
C  1.02400 11.02000 24.38000
N  1.20500 7.62500 28.33100
C  1.36700 8.47300 29.35500
C  1.31700 7.80100 30.76700
C  1.21700 6.29000 30.34800
C  1.10900 6.38200 28.76400
C  2.29700 5.41800 30.94700
C  0.25900 8.44000 31.84600
C  0.79100 8.44500 33.28300
H  1.73600 7.38600 33.75000
N  0.56200 6.04400 25.70800
C  0.68600 4.95800 26.55800
C  0.42900 3.71200 25.93300
C  0.26500 4.08200 24.53600
C  0.43800 5.54300 24.49600
C  0.66000 2.37400 26.65200
C  -0.10800 3.16100 23.40500
O  -0.22700 3.59500 22.28600
C  -0.51000 1.76400 23.58200
N  0.85800 8.60600 24.12900
C  0.75500 7.67500 23.16800
C  1.17500 8.35500 21.81300
C  0.93200 9.87800 22.12000
C  0.90800 9.87300 23.62300
C  2.73600 8.16500 21.56900
C  -0.39900 10.35800 21.50100
C  -1.78800 9.77400 22.08500
N  1.19700 10.03700 26.58100
C  1.26500 11.14100 25.75300
C  1.66000 12.25800 26.44400
C  1.71800 11.87300 27.79100
C  1.51700 10.47800 27.82000
C  2.10000 13.61800 25.91700
C  1.91300 12.31700 29.13100
O  2.30300 13.46800 29.43100
C  1.66300 11.08300 30.04800
C  2.73800 10.94600 31.00200
O  3.76600 10.28600 30.82500
O  2.49000 11.77400 32.04800
C  3.46800 11.99700 33.04800
H  0.85300 4.25300 28.54700
H  0.27200 5.78600 22.38400
H  0.97100 11.99100 23.88400
H  2.36100 7.81500 31.07900
H  0.23300 5.93300 30.65200
H  1.85200 4.42800 31.04900
H  2.64600 5.71200 31.93700
H  3.16100 5.41700 30.28200
H  -0.59000 7.75600 31.87400
H  -0.03500 9.41100 31.44800
H  -0.01100 8.18300 33.97200
H  1.05400 9.47700 33.51500
H  0.80500 1.64800 25.85200
H  -0.16100 2.01200 27.27000
H  1.49600 2.42400 27.35000
H  -1.22900 1.77000 24.40100
H  0.36500 1.13200 23.73600
H  -1.04700 1.37900 22.71500
H  0.59700 8.03100 20.94700
H  1.74400 10.57000 21.89700
H  3.16400 7.32100 22.11000
H  3.37900 9.02800 21.74000
H  2.79400 7.95200 20.50200
H  -0.47700 10.25200 20.41900
H  -0.42000 11.42800 21.70400
H  -2.63000 9.60600 21.41300
H  -2.14400 10.47200 22.84300
H  -1.61200 8.90500 22.71900
H  1.24000 14.28400 25.98500
H  2.34400 13.64400 24.85500
H  2.87400 14.02200 26.57000
H  0.71200 11.29800 30.53500
H  4.39500 12.45900 32.70700
H  3.74700 11.01500 33.43100
H  3.05200 12.52600 33.90500
Mg 23.78300 -5.87400 46.14600
C  25.99800 -3.51900 44.77400
C  21.33500 -4.74500 44.21900
C  21.92200 -8.46400 47.25700
C  26.70400 -7.44400 47.64000
N  23.70300 -4.30100 44.75000
C  24.71600 -3.50300 44.25400
C  24.07600 -2.43900 43.32700
C  22.54600 -2.68500 43.37200
C  22.55000 -4.02000 44.11700
C  21.69100 -1.48100 43.85500
C  24.79900 -2.46100 41.88600
C  25.28200 -1.04000 41.42900
H  25.22100 -0.73400 39.92700
N  21.85100 -6.43500 45.89500
C  21.01100 -5.86300 44.99000
C  19.73200 -6.47100 45.05600
C  19.87700 -7.60500 45.92200
C  21.28000 -7.52800 46.42100
C  18.61500 -6.02000 44.09200
C  18.68700 -8.50700 46.31000
O  17.58400 -8.33900 45.82200
C  18.82500 -9.60200 47.34700
N  24.15700 -7.64200 47.39800
C  23.21900 -8.56900 47.71600
C  23.72600 -9.63900 48.68300
C  25.28500 -9.40400 48.60800
C  25.45500 -8.06300 47.84900
C  23.12300 -9.56000 50.06600
C  26.12100 -10.50000 47.82700
C  27.38000 -11.04300 48.55100
N  25.95000 -5.50800 46.31200
C  26.90500 -6.20800 46.99200
C  28.17400 -5.48700 46.81900
C  27.84500 -4.30600 46.01400
C  26.44300 -4.43800 45.71800
C  29.45600 -5.83600 47.47200
C  28.38500 -3.17000 45.28800
O  29.46300 -2.50500 45.31200
C  27.17100 -2.58600 44.46100
C  27.00100 -1.24900 45.04300
O  26.81800 -0.93700 46.22000
O  27.21100 -0.24200 44.01700
C  27.12100 1.17000 44.37600
H  20.57900 -4.22200 43.63000
H  21.34800 -9.35500 47.52200
H  27.57900 -7.92400 48.08400
H  24.35000 -1.51800 43.84100
H  22.24400 -3.02600 42.38200
H  21.43000 -0.99700 42.91400
H  22.39400 -0.84300 44.39000
H  20.72900 -1.71400 44.31100
H  24.19400 -2.78800 41.04100
H  25.63600 -3.15800 41.86900
H  26.31000 -1.00100 41.78800
H  24.80700 -0.22200 41.97000
H  17.84100 -6.76900 43.92400
H  19.00200 -5.61900 43.15500
H  18.13700 -5.27500 44.72800
H  17.87900 -10.14500 47.34700
H  19.09900 -9.12300 48.28700
H  19.52800 -10.38800 47.07200
H  23.38200 -10.58700 48.27000
H  25.76500 -9.16600 49.55600
H  22.10800 -9.94400 49.96600
H  23.13500 -8.58100 50.54500
H  23.52600 -10.34000 50.71100
H  26.51300 -10.07300 46.90400
H  25.43700 -11.32000 47.60900
H  27.49700 -12.11500 48.39400
H  27.40400 -10.75100 49.60000
H  28.25200 -10.51500 48.16300
H  29.39300 -6.55300 48.29000
H  30.00000 -4.95200 47.80400
H  30.06600 -6.15000 46.62400
H  27.54400 -2.53500 43.43800
H  27.43500 1.40900 45.39200
H  26.17200 1.56300 44.01100
H  27.86200 1.54300 43.67000

