158

Mg 41.36700 9.45700 29.76700
C  43.18100 10.61900 32.43500
C  39.17800 7.81400 32.08300
C  39.56500 8.27500 27.30900
C  43.86300 10.32000 27.62500
N  41.27600 9.15900 32.04500
C  42.03100 9.89000 32.88000
C  41.50000 9.90900 34.29500
C  40.56000 8.64000 34.14500
C  40.30100 8.50300 32.63500
C  40.85300 7.23800 34.78000
C  40.82600 11.32000 34.70400
C  40.37300 11.41600 36.20800
H  41.10900 12.41200 37.18700
N  39.57100 8.33400 29.65400
C  38.81800 7.80600 30.69100
C  37.59300 7.24800 30.10600
C  37.58700 7.52200 28.72000
C  38.95700 8.03600 28.51600
C  36.52900 6.59300 30.89100
C  36.52400 7.28000 27.68100
O  36.79700 7.29200 26.47600
C  35.04400 7.10600 28.01900
N  41.72100 9.38000 27.71800
C  40.73200 8.91400 26.89900
C  41.15500 9.00000 25.44200
C  42.58400 9.70500 25.59300
C  42.75900 9.79900 27.03800
C  41.30500 7.50900 24.83800
C  42.62400 10.97900 24.70800
C  43.07400 10.73000 23.29600
N  43.22400 10.28400 29.96000
C  44.13400 10.61700 29.01600
C  45.30400 11.30200 29.65700
C  45.01200 11.35200 31.03500
C  43.72000 10.78700 31.13000
C  46.46600 11.86300 28.90200
C  45.40200 11.77600 32.30000
O  46.42900 12.37000 32.60000
C  44.23600 11.29600 33.31900
C  44.79300 10.34900 34.39900
O  44.97000 9.17000 34.23700
O  45.01600 10.96700 35.60500
C  45.22700 10.08400 36.76600
H  38.31300 7.55400 32.69600
H  38.98900 7.91300 26.45500
H  44.68700 10.64300 26.98500
H  42.27200 9.72400 35.04200
H  39.67000 8.96900 34.68200
H  41.82900 7.27700 35.26300
H  40.94200 6.46600 34.01600
H  40.03500 7.04600 35.47600
H  39.94000 11.32500 34.07000
H  41.52400 12.10600 34.41300
H  40.37200 10.44200 36.69700
H  39.34100 11.76800 36.20300
H  36.80200 6.35800 31.91900
H  36.26000 5.62300 30.47200
H  35.58500 7.13300 30.96300
H  34.91500 6.44500 28.87600
H  34.57000 6.62300 27.16500
H  34.56400 8.07100 28.17900
H  40.46000 9.58200 24.83700
H  43.39500 9.07000 25.23800
H  40.53200 7.21300 24.13000
H  41.25500 6.70400 25.57100
H  42.25200 7.39900 24.30900
H  43.29900 11.78000 25.00800
H  41.61700 11.34200 24.50400
H  42.38700 9.98800 22.88800
H  44.07700 10.30300 23.28100
H  43.03500 11.60500 22.64800
H  46.23600 11.75000 27.84300
H  47.37000 11.35700 29.24200
H  46.57500 12.93900 29.04000
H  43.65800 12.07100 33.82200
H  45.63000 9.09600 36.54600
H  44.24500 9.93800 37.21700
H  46.00200 10.60000 37.33300
Mg -10.52600 16.90300 41.18400
C  -7.07200 16.71300 41.09700
C  -10.29700 20.31400 40.64200
C  -13.92900 16.96900 40.78500
C  -10.55400 13.31600 41.21100
N  -8.85100 18.27800 40.87100
C  -7.50900 17.97800 40.94800
C  -6.69700 19.33000 40.70400
C  -7.77600 20.46600 41.02400
C  -9.06700 19.67500 40.77700
C  -7.56900 21.21900 42.38800
C  -6.15500 19.38300 39.22700
C  -4.66200 19.20000 39.05900
H  -4.14600 18.49700 37.78500
N  -11.96300 18.51400 40.74600
C  -11.68900 19.82600 40.61000
C  -12.90300 20.56000 40.40000
C  -13.97000 19.64500 40.41500
C  -13.31900 18.27100 40.59300
C  -12.93700 22.05900 40.16900
C  -15.40400 19.98600 40.29300
O  -15.89000 21.11900 40.11100
C  -16.45100 18.88900 40.33200
N  -12.07400 15.34100 40.79900
C  -13.41900 15.68200 40.89400
C  -14.26200 14.40900 41.13900
C  -13.15500 13.27000 41.24600
C  -11.83500 14.00300 41.17700
C  -15.31200 14.34600 42.27800
C  -13.29100 12.04500 40.36700
C  -12.57200 12.04700 39.02500
N  -9.09400 15.20900 41.07600
C  -9.24700 13.81800 41.22300
C  -7.90100 13.22800 41.51000
C  -7.03700 14.30200 41.35100
C  -7.80100 15.49800 41.13300
C  -7.48100 11.86600 41.87100
C  -5.64600 14.68700 41.49400
O  -4.67100 14.00100 41.81100
C  -5.64300 16.27400 41.23500
C  -4.99600 17.09300 42.39500
O  -3.87500 17.56600 42.22800
O  -5.71800 17.01700 43.63600
C  -5.17200 17.83500 44.67800
H  -10.13000 21.38800 40.53800
H  -15.02000 16.98200 40.81700
H  -10.50000 12.25500 41.46300
H  -5.90400 19.43400 41.44500
H  -7.68200 21.26300 40.28700
H  -7.07400 22.18700 42.30800
H  -7.09300 20.52400 43.07900
H  -8.55200 21.39400 42.82600
H  -6.39500 20.38500 38.87200
H  -6.59100 18.58800 38.62200
H  -4.30100 18.58900 39.88700
H  -4.12800 20.13000 39.25700
H  -13.10400 22.28200 39.11500
H  -11.96500 22.44000 40.48200
H  -13.70000 22.49900 40.81100
H  -16.27000 18.28200 39.44500
H  -17.41700 19.37500 40.19700
H  -16.54400 18.37200 41.28700
H  -14.86500 14.39800 40.23200
H  -13.16100 12.85300 42.25300
H  -16.23100 13.85600 41.95800
H  -15.65600 15.33400 42.58200
H  -14.92500 13.87100 43.18000
H  -14.37000 12.05000 40.20800
H  -13.00700 11.13700 40.89900
H  -13.17500 11.42300 38.36400
H  -11.59000 11.57700 39.06500
H  -12.46500 13.02100 38.54800
H  -6.40100 11.83500 41.72600
H  -7.94800 11.26000 41.09500
H  -7.88100 11.72100 42.87400
H  -5.20200 16.44400 40.25300
H  -5.82400 18.70500 44.74800
H  -4.14100 18.16400 44.54100
H  -5.35800 17.29100 45.60300

