158

Mg 43.06000 41.38300 26.01600
C  41.87600 43.53800 28.43500
C  43.97200 39.21600 28.47800
C  44.34100 39.40000 23.71400
C  42.40900 43.83200 23.52000
N  42.96300 41.41200 28.24300
C  42.33500 42.37000 29.01600
C  42.52700 42.14200 30.58900
C  43.33400 40.77500 30.51600
C  43.47100 40.47600 29.03100
C  44.67200 40.80500 31.26500
C  41.15100 42.11700 31.32100
C  41.02900 42.83600 32.67800
H  40.55900 42.09700 33.94200
N  43.95800 39.49600 26.08600
C  44.19700 38.78500 27.20000
C  44.74200 37.51700 26.75600
C  44.83200 37.45400 25.36300
C  44.35900 38.81200 24.99000
C  45.06500 36.41000 27.75100
C  45.29200 36.34600 24.43900
O  45.31300 36.44200 23.20100
C  45.85600 35.09400 24.98600
N  43.62500 41.76100 23.96000
C  44.00700 40.65500 23.25900
C  43.82600 40.84300 21.79100
C  43.16000 42.28900 21.67100
C  43.04200 42.64000 23.07300
C  44.95900 40.57200 20.83100
C  41.84500 42.34100 20.86600
C  41.60300 43.69800 20.13300
N  42.32900 43.32500 25.94900
C  42.12400 44.18700 24.87500
C  41.62700 45.36500 25.33900
C  41.53300 45.23800 26.72100
C  41.90200 43.95400 27.05100
C  41.04700 46.48800 24.49700
C  41.21600 45.85900 27.98200
O  40.77800 46.99300 28.21000
C  41.48600 44.81800 29.17200
C  42.59400 45.34200 30.02300
O  43.80800 45.32100 29.64200
O  42.13000 45.85300 31.26000
C  43.21600 46.24300 32.21300
H  44.14600 38.48800 29.27300
H  44.75700 38.61100 23.08400
H  42.15800 44.54500 22.73200
H  43.03000 43.02700 30.98000
H  42.71700 39.97300 30.92200
H  45.48500 40.71500 30.54500
H  44.66900 39.98200 31.97900
H  44.65800 41.78300 31.74500
H  40.90000 41.10500 31.64000
H  40.41300 42.44400 30.58900
H  40.20800 43.55200 32.66000
H  41.89300 43.39900 33.03000
H  44.80900 36.57600 28.79800
H  46.13900 36.24500 27.66600
H  44.48600 35.53600 27.45100
H  46.62200 35.35100 25.71800
H  46.16200 34.29500 24.31200
H  44.94500 34.74200 25.47000
H  43.04000 40.13600 21.52400
H  43.89100 42.99300 21.27100
H  44.54500 39.77900 20.20800
H  45.97900 40.46300 21.19900
H  45.12600 41.46900 20.23500
H  40.99300 42.14000 21.51600
H  41.93600 41.54500 20.12600
H  41.17600 44.47800 20.76300
H  40.90700 43.39800 19.34900
H  42.51100 44.05200 19.64600
H  40.14000 46.91000 24.92800
H  40.78300 45.97400 23.57300
H  41.76600 47.27400 24.26400
H  40.59900 44.69200 29.79300
H  44.24400 46.31200 31.85800
H  43.15700 45.61600 33.10200
H  43.01300 47.26600 32.53100
Mg 30.49800 57.60400 39.68600
C  27.68600 55.51100 38.59800
C  32.54100 54.82600 38.52000
C  32.92300 59.54800 39.55100
C  28.25200 60.23500 39.98500
N  30.09200 55.39200 38.46500
C  28.88200 54.83100 38.35500
C  29.00300 53.33100 38.04500
C  30.58900 53.12900 38.01800
C  31.13700 54.52700 38.35900
C  31.11900 52.01000 39.00600
C  28.33100 52.98600 36.57900
C  28.66500 53.71300 35.24300
H  27.63800 54.59400 34.46900
N  32.53300 57.21100 39.28300
C  33.14800 56.11400 38.74800
C  34.58100 56.43200 38.66300
C  34.71700 57.78600 38.91100
C  33.37300 58.23300 39.30700
C  35.55500 55.41000 38.41400
C  35.95600 58.59500 38.70400
O  36.96700 58.09900 38.16100
C  36.09000 60.06600 39.09000
N  30.55400 59.59200 39.64100
C  31.77300 60.22900 39.73900
C  31.67400 61.76100 39.78400
C  30.12700 61.99800 39.95300
C  29.57500 60.55000 39.85000
C  32.50500 62.54000 40.80600
C  29.45800 62.81100 38.73800
C  29.11800 64.24200 38.97900
N  28.36600 57.84200 39.45000
C  27.65500 59.02900 39.72800
C  26.31200 58.70700 39.58700
C  26.22200 57.40200 39.16800
C  27.52700 56.86300 39.08400
C  25.16200 59.71700 39.87500
C  25.36200 56.31600 38.85500
O  24.14500 56.31100 38.87100
C  26.21900 55.07200 38.45300
C  25.89600 53.99400 39.36100
O  26.27800 53.97300 40.50500
O  24.93700 53.17200 38.89900
C  24.11400 52.22300 39.76400
H  33.16200 53.94300 38.35500
H  33.64500 60.35600 39.41500
H  27.58000 61.07700 40.16500
H  28.37100 52.68600 38.65500
H  30.94100 52.87700 37.01800
H  31.41000 52.50500 39.93300
H  31.90300 51.39800 38.56000
H  30.27200 51.33800 39.14900
H  27.26200 53.17900 36.67300
H  28.47900 51.94800 36.28300
H  28.97000 53.00900 34.46900
H  29.54400 54.30400 35.50200
H  36.04100 55.52400 37.44500
H  35.20400 54.37800 38.41700
H  36.22800 55.42700 39.27100
H  37.07300 60.53000 39.01300
H  35.62900 60.32600 40.04300
H  35.50200 60.67900 38.40700
H  31.89300 62.14500 38.78700
H  29.81600 62.40900 40.91400
H  31.93600 63.17500 41.48600
H  33.25400 63.09500 40.24100
H  33.01100 61.83600 41.46600
H  28.50200 62.37500 38.44800
H  30.14900 62.81000 37.89600
H  29.08800 64.70200 37.99100
H  29.99900 64.66500 39.46100
H  28.13400 64.39600 39.42200
H  25.32300 60.53600 39.17500
H  25.23400 60.07100 40.90400
H  24.22400 59.16300 39.91700
H  25.78100 54.98700 37.45900
H  23.29500 51.78700 39.19200
H  23.71700 52.82500 40.58100
H  24.68300 51.42100 40.23400

