158

Mg 47.46300 24.32100 28.09600
C  48.54000 26.68500 30.44000
C  47.12400 21.99200 30.45300
C  46.86500 22.24700 25.64800
C  48.49000 26.70300 25.50800
N  47.71500 24.36500 30.27800
C  48.01500 25.48300 31.08700
C  47.95400 25.03300 32.55800
C  47.52000 23.54000 32.51700
C  47.52100 23.24800 30.98600
C  48.30500 22.55700 33.44300
C  47.11800 26.00000 33.29800
C  46.50600 25.52700 34.58000
H  46.33600 26.58800 35.66400
N  46.93900 22.39700 28.08400
C  46.84600 21.54800 29.14800
C  46.53000 20.19300 28.68400
C  46.43900 20.28600 27.34500
C  46.75600 21.73100 26.98300
C  46.49600 19.03600 29.63000
C  46.29300 19.07800 26.35300
O  46.38900 19.19200 25.13100
C  45.87900 17.63200 26.86400
N  47.78000 24.48900 25.90200
C  47.28300 23.49800 25.16600
C  47.42300 23.68800 23.57800
C  47.85900 25.18900 23.56500
C  48.07800 25.41400 25.03700
C  48.55500 22.68100 22.94400
C  46.87500 26.15400 22.87500
C  47.54300 27.32900 22.12600
N  48.38500 26.29400 27.95200
C  48.58300 27.10100 26.85800
C  49.06200 28.33700 27.42600
C  49.15200 28.25300 28.82500
C  48.68400 26.95400 29.09300
C  49.57200 29.51400 26.56200
C  49.44600 28.95700 30.10400
O  49.91500 30.11600 30.33200
C  48.97200 27.92300 31.14200
C  49.94800 27.77600 32.37100
O  50.87900 27.03000 32.52400
O  49.71700 28.80700 33.30000
C  49.98000 28.51300 34.69500
H  46.95700 21.21800 31.20500
H  46.66800 21.59200 24.79700
H  48.61700 27.56000 24.84300
H  48.96400 25.08100 32.96300
H  46.52300 23.40800 32.93700
H  47.69900 21.72900 33.81100
H  48.73100 23.08400 34.29700
H  49.15300 22.17700 32.87400
H  46.29900 26.31100 32.64800
H  47.77500 26.85500 33.45700
H  47.18800 24.80500 35.03000
H  45.53900 25.13600 34.26500
H  47.44100 18.49300 29.65100
H  45.61100 18.41500 29.49000
H  46.49700 19.47300 30.62900
H  45.97500 16.90300 26.05900
H  44.85800 17.61700 27.24600
H  46.58300 17.29400 27.62400
H  46.41600 23.49500 23.20500
H  48.84600 25.38900 23.14700
H  48.84500 21.97600 23.72300
H  49.40300 23.19500 22.49100
H  48.00500 22.29800 22.08400
H  46.09400 26.50300 23.55100
H  46.43200 25.54900 22.08400
H  47.46500 27.10800 21.06200
H  48.58400 27.61700 22.27500
H  46.94800 28.20100 22.40000
H  49.02800 29.57500 25.62000
H  50.63100 29.34300 26.36600
H  49.55600 30.47800 27.07100
H  48.06400 28.35700 31.56100
H  49.10100 28.71800 35.30400
H  50.70300 29.27500 34.98600
H  50.36400 27.51800 34.91800
Mg -9.39000 39.16400 40.39300
C  -8.00900 36.09400 39.08500
C  -6.32100 40.54300 39.72600
C  -10.96000 42.20400 40.29400
C  -12.60600 37.71900 40.03700
N  -7.34900 38.27900 39.65500
C  -7.01800 37.09000 39.22000
C  -5.56800 36.92800 38.85700
C  -5.02200 38.36800 39.39400
C  -6.29200 39.11800 39.68200
C  -4.05400 38.46600 40.56900
C  -5.22900 36.60600 37.38900
C  -5.75700 37.30100 36.10200
H  -6.58300 36.43200 35.10200
N  -8.66900 41.13200 40.23200
C  -7.39300 41.47700 39.97800
C  -7.31700 42.89900 39.80500
C  -8.58800 43.37400 40.21400
C  -9.47600 42.22400 40.29900
C  -6.15300 43.58800 39.41400
C  -8.92200 44.80500 40.49200
O  -8.12100 45.62900 40.12500
C  -10.16300 45.29800 41.24100
N  -11.57500 39.85000 40.29600
C  -11.92700 41.14600 40.32000
C  -13.38500 41.35400 40.50300
C  -13.96800 39.91400 40.31900
C  -12.65500 39.11000 40.27900
C  -13.74300 42.18000 41.74200
C  -14.77500 39.77500 39.00900
C  -14.14800 39.14400 37.77600
N  -10.14500 37.21200 39.98600
C  -11.45700 36.84400 39.85500
C  -11.55300 35.46500 39.58700
C  -10.19800 35.14900 39.28100
C  -9.41400 36.26800 39.46200
C  -12.84700 34.62800 39.55000
C  -9.31000 34.04100 38.95500
O  -9.56400 32.87000 38.76000
C  -7.81800 34.60700 38.78000
C  -6.95800 33.87000 39.67400
O  -7.18800 33.83800 40.88800
O  -5.79800 33.50300 38.98800
C  -4.76600 32.68200 39.62300
H  -5.34100 41.01400 39.62800
H  -11.53900 43.12900 40.32700
H  -13.61400 37.30000 40.05200
H  -5.11100 36.23500 39.56300
H  -4.52800 38.93700 38.60700
H  -3.30900 37.69400 40.37600
H  -4.41200 38.21100 41.56600
H  -3.61700 39.45000 40.74100
H  -5.24900 35.51600 37.39900
H  -4.14800 36.73600 37.33100
H  -4.98500 37.86400 35.57800
H  -6.52600 37.97000 36.48800
H  -6.39400 44.19400 38.54100
H  -5.37700 42.89200 39.09400
H  -5.82500 44.20700 40.24900
H  -10.72300 44.62400 41.88800
H  -10.84500 45.76900 40.53300
H  -9.80900 46.02400 41.97200
H  -13.69500 42.03000 39.70600
H  -14.61800 39.62000 41.14300
H  -14.47700 41.76200 42.43200
H  -14.11300 43.19100 41.56800
H  -12.86600 42.38400 42.35600
H  -15.06300 40.78200 38.70600
H  -15.58000 39.10800 39.31700
H  -13.09000 39.40500 37.79600
H  -14.60700 39.61600 36.90700
H  -14.16600 38.07600 37.55900
H  -12.61800 33.59800 39.27800
H  -13.50800 34.99200 38.76400
H  -13.28000 34.70600 40.54800
H  -7.40000 34.45200 37.78500
H  -5.29500 32.09300 40.37100
H  -3.95300 33.20300 40.12800
H  -4.42100 31.96500 38.87800

