158

Mg 1.77800 -2.20400 43.12600
C  5.15100 -1.50000 42.35000
C  0.98000 0.69200 41.45000
C  -1.40100 -3.11600 43.23200
C  2.77500 -5.48900 43.90700
N  3.00700 -0.66800 41.95100
C  4.31300 -0.53700 41.88800
C  4.71900 0.84000 41.20500
C  3.35200 1.57100 41.11300
C  2.38000 0.46400 41.50800
C  3.19100 2.88900 42.00500
C  5.48700 0.68500 39.86300
C  6.49100 1.76400 39.59900
H  6.62300 2.41900 38.18400
N  -0.00200 -1.23900 42.53300
C  -0.11500 -0.01700 41.93800
C  -1.51100 0.33800 41.86700
C  -2.21400 -0.81800 42.31900
C  -1.23100 -1.79700 42.77200
C  -1.92100 1.63800 41.20800
C  -3.75800 -0.96000 42.36200
O  -4.55500 -0.08300 42.00800
C  -4.42800 -2.12200 43.08000
N  0.81000 -4.06200 43.45300
C  -0.49800 -4.15400 43.53100
C  -0.94600 -5.49700 44.17600
C  0.41100 -6.32300 44.18600
C  1.37100 -5.28200 43.69600
C  -1.73400 -5.48300 45.44400
C  0.33200 -7.63300 43.35900
C  1.28700 -8.78200 43.73200
N  3.56300 -3.29400 43.24600
C  3.84100 -4.57100 43.63700
C  5.28400 -4.75600 43.81200
C  5.79900 -3.62800 43.27700
C  4.72200 -2.76100 42.87800
C  5.90200 -6.04200 44.40700
C  7.04400 -2.89200 42.97800
O  8.21900 -3.11900 43.13000
C  6.59500 -1.49300 42.39600
C  7.02400 -0.39200 43.30500
O  6.67800 -0.16800 44.43800
O  7.97600 0.35000 42.71800
C  8.60100 1.40500 43.56700
H  0.73800 1.65700 40.99900
H  -2.41600 -3.50300 43.34600
H  3.11700 -6.46200 44.26600
H  5.39600 1.38900 41.86000
H  3.00700 1.87500 40.12500
H  3.86800 2.85000 42.85800
H  2.19900 2.99600 42.44300
H  3.44800 3.75300 41.39200
H  4.80300 0.74900 39.01600
H  5.99100 -0.28000 39.82100
H  7.44900 1.28400 39.79800
H  6.34100 2.67500 40.18000
H  -1.77100 1.53700 40.13300
H  -1.24900 2.44500 41.49900
H  -2.94600 1.95600 41.39900
H  -5.47900 -1.86900 43.21400
H  -3.91200 -2.24800 44.03200
H  -4.35400 -3.04900 42.51100
H  -1.55000 -6.00800 43.42600
H  0.60400 -6.49100 45.24500
H  -1.60800 -4.52600 45.95100
H  -1.47800 -6.26400 46.15900
H  -2.80000 -5.59200 45.24200
H  0.57700 -7.51400 42.30400
H  -0.67400 -8.05200 43.33600
H  1.83600 -8.65500 44.66500
H  1.96400 -9.05400 42.92200
H  0.59300 -9.62100 43.78800
H  6.95300 -5.96600 44.68600
H  5.78900 -6.93900 43.79800
H  5.36600 -6.18100 45.34600
H  7.05500 -1.41400 41.41100
H  9.59100 1.49100 43.12100
H  8.55000 1.43700 44.65500
H  8.06800 2.32300 43.31800
Mg -1.21600 35.36800 26.80000
C  -2.98300 33.79200 29.39000
C  -0.09600 37.68800 29.12400
C  0.45500 36.86100 24.45800
C  -2.49500 32.96100 24.58500
N  -1.55900 35.68200 28.95900
C  -2.19000 34.88200 29.83400
C  -2.00900 35.26200 31.29700
C  -1.36200 36.68400 31.15800
C  -0.95100 36.67300 29.62700
C  -2.24100 37.83500 31.59500
C  -1.10100 34.19500 31.99200
C  -0.67100 34.58800 33.41300
H  -0.57800 33.64100 34.63300
N  -0.03800 37.13000 26.78900
C  0.26000 37.94100 27.81600
C  1.10700 38.99200 27.30100
C  1.07900 38.91700 25.88900
C  0.47200 37.62700 25.64600
C  1.71600 39.93300 28.23600
C  1.78600 39.85900 24.90300
O  1.98800 39.44800 23.78700
C  2.39300 41.10100 25.35900
N  -1.16600 35.01000 24.81700
C  -0.15700 35.67900 24.07700
C  -0.18600 35.23600 22.62300
C  -1.01300 33.91800 22.73300
C  -1.64800 33.94400 24.11500
C  -0.81700 36.20400 21.65000
C  -0.07000 32.61900 22.54700
C  0.91200 32.23900 23.68300
N  -2.60200 33.66100 26.87200
C  -3.00600 32.84500 25.88200
C  -4.04500 31.98400 26.44000
C  -3.96500 32.26800 27.84400
C  -3.14300 33.33400 28.04800
C  -4.99800 31.05400 25.75400
C  -4.45300 31.85200 29.13600
O  -5.19500 30.92000 29.43500
C  -3.87200 32.85100 30.21300
C  -5.01600 33.61800 30.78400
O  -5.76100 34.40700 30.19500
O  -5.25000 33.17800 32.10600
C  -6.46300 33.66000 32.77700
H  0.30300 38.20600 29.99900
H  1.11300 37.15100 23.63500
H  -2.84100 32.23200 23.84900
H  -2.98500 35.32300 31.77800
H  -0.42200 36.86500 31.67800
H  -1.87200 38.28700 32.51600
H  -3.26000 37.51500 31.81400
H  -2.43800 38.53900 30.78700
H  -0.32000 33.88700 31.29700
H  -1.74300 33.33100 32.16600
H  -1.22100 35.43100 33.83200
H  0.29600 35.05600 33.22300
H  1.54400 39.78500 29.30300
H  1.69800 40.97200 27.90700
H  2.75400 39.76400 27.94900
H  3.12900 41.50300 24.66200
H  3.07800 40.99500 26.20100
H  1.63600 41.87300 25.49600
H  0.86700 35.07000 22.39300
H  -1.75300 33.86300 21.93400
H  -1.81100 35.93300 21.29500
H  -0.10300 36.44600 20.86300
H  -0.96600 37.12700 22.21100
H  0.60100 32.84500 21.71800
H  -0.80600 31.83800 22.36000
H  0.80600 31.15500 23.73400
H  0.66400 32.67100 24.65300
H  1.93000 32.44100 23.35200
H  -4.71400 30.07800 26.14800
H  -4.85100 30.96900 24.67700
H  -5.98200 31.43200 26.03100
H  -3.34300 32.30500 30.99500
H  -6.83700 32.76800 33.28000
H  -7.31600 33.87500 32.13300
H  -6.31900 34.33800 33.61800

