158

Mg 46.55800 23.98300 28.22800
C  47.28200 26.24600 30.93400
C  45.90200 21.63600 30.72200
C  46.20000 21.82900 25.90700
C  48.16900 26.18200 26.17700
N  46.52800 23.92100 30.59700
C  46.83200 25.00800 31.39900
C  46.56100 24.65600 32.85900
C  46.49700 23.11300 32.85800
C  46.30200 22.81700 31.34000
C  47.70600 22.33400 33.40600
C  45.34000 25.45000 33.34900
C  45.37100 26.06900 34.74500
H  46.11900 25.28500 35.88700
N  46.04000 22.06800 28.28800
C  45.77200 21.28000 29.37100
C  45.25100 20.04600 28.90500
C  45.26900 20.11000 27.44300
C  45.91600 21.28200 27.14700
C  44.96500 18.90700 29.83000
C  44.66200 19.10800 26.42600
O  44.55000 19.37500 25.23800
C  43.86500 17.93000 26.90400
N  47.19300 24.01400 26.32500
C  46.78800 23.06500 25.50600
C  47.18600 23.25900 24.00400
C  47.78400 24.73400 24.15000
C  47.80000 24.96000 25.67900
C  48.23300 22.20500 23.51000
C  47.09500 25.91000 23.35900
C  45.89800 26.54500 24.04600
N  47.47800 25.92400 28.47200
C  48.03800 26.69100 27.49600
C  48.33700 27.92200 28.07400
C  48.04600 27.88200 29.44100
C  47.52800 26.57300 29.65900
C  48.99900 29.09200 27.31500
C  48.10500 28.59100 30.70900
O  48.52800 29.66000 30.99200
C  47.49100 27.61200 31.69600
C  48.30300 27.53400 32.98000
O  49.22800 26.74500 33.23300
O  47.80200 28.49200 33.82600
C  48.15500 28.29200 35.27400
H  45.63500 20.87700 31.46000
H  45.96400 21.31100 24.97400
H  48.70300 26.79300 25.44500
H  47.37500 24.99900 33.49700
H  45.62100 22.82500 33.43900
H  48.42200 23.05400 33.80300
H  48.18300 21.73000 32.63300
H  47.39600 21.69200 34.23000
H  44.41000 24.88400 33.30000
H  45.16000 26.23200 32.61200
H  44.31500 26.10700 35.01200
H  45.68000 27.10700 34.61500
H  45.12100 17.94300 29.34400
H  43.90400 18.96300 30.07600
H  45.58400 18.90000 30.72800
H  44.53800 17.20300 27.36000
H  43.31700 17.53000 26.05200
H  43.11600 18.32100 27.59200
H  46.29100 23.33900 23.38700
H  48.84100 24.76100 23.88700
H  48.96300 21.91600 24.26600
H  48.78300 22.57600 22.64500
H  47.55000 21.39500 23.25500
H  46.80100 25.58500 22.36100
H  47.88600 26.65500 23.27400
H  45.40200 25.92700 24.79500
H  45.11000 26.86300 23.36300
H  46.22900 27.49800 24.45900
H  48.36200 29.40600 26.48800
H  50.00300 28.86400 26.95700
H  48.97500 29.94300 27.99500
H  46.47400 27.97400 31.85300
H  48.42900 27.25900 35.49000
H  47.29300 28.62000 35.85400
H  48.92700 29.03400 35.47800
Mg -10.42000 16.68000 42.95200
C  -7.06200 17.41700 43.39700
C  -11.00400 20.24300 42.45000
C  -13.75100 16.13300 42.39300
C  -9.79400 13.40000 42.84600
N  -9.23000 18.55200 42.84400
C  -7.86200 18.55800 43.11800
C  -7.28500 19.98300 42.82800
C  -8.57700 20.83700 42.90500
C  -9.69800 19.83000 42.72700
C  -8.75900 21.53500 44.26700
C  -6.56800 19.93900 41.44400
C  -5.20500 20.70400 41.50300
H  -4.09700 20.05700 40.70400
N  -12.17000 18.02600 42.46800
C  -12.19800 19.41100 42.42300
C  -13.55700 19.77200 42.19300
C  -14.35700 18.63600 42.03100
C  -13.43100 17.51900 42.26300
C  -13.87300 21.24700 42.06000
C  -15.82500 18.54600 41.65800
O  -16.49000 19.56200 41.69500
C  -16.60700 17.20400 41.33200
N  -11.61400 15.05900 42.64400
C  -12.98200 15.03900 42.62600
C  -13.54500 13.65600 42.66300
C  -12.22900 12.77000 42.47100
C  -11.13800 13.78400 42.64400
C  -14.38000 13.28100 44.02900
C  -12.10300 12.16300 41.02700
C  -11.36300 10.83100 40.99700
N  -8.77600 15.51300 43.07800
C  -8.64400 14.16900 43.12800
C  -7.22600 13.85100 43.38100
C  -6.58900 15.11800 43.50400
C  -7.58000 16.09900 43.25700
C  -6.61500 12.45100 43.49200
C  -5.30400 15.77200 43.66000
O  -4.23400 15.25100 43.78800
C  -5.57000 17.28300 43.58000
C  -5.02600 17.86500 44.83500
O  -5.44400 17.58000 45.93600
O  -4.05600 18.77100 44.58900
C  -3.77200 19.68900 45.68300
H  -11.15200 21.32200 42.37800
H  -14.80400 15.85400 42.31800
H  -9.43200 12.37000 42.82100
H  -6.67000 20.10100 43.72000
H  -8.67000 21.51700 42.05800
H  -9.16600 20.79600 44.95700
H  -9.49600 22.32900 44.14600
H  -7.85200 21.93000 44.72400
H  -7.18200 20.53700 40.77000
H  -6.51600 18.91400 41.07700
H  -4.83200 20.91400 42.50500
H  -5.56200 21.66800 41.14200
H  -14.59700 21.53200 41.29700
H  -13.09700 21.92300 41.70100
H  -14.33800 21.61000 42.97600
H  -17.45400 17.55500 40.74300
H  -16.96300 16.82600 42.29000
H  -16.07500 16.44600 40.75700
H  -14.20800 13.36800 41.84600
H  -12.08300 11.98700 43.21500
H  -14.22000 12.37100 44.60700
H  -15.40600 13.28700 43.66000
H  -14.33200 14.09000 44.75800
H  -11.62100 12.90700 40.39200
H  -13.10400 11.88600 40.69700
H  -12.13400 10.06200 40.96800
H  -10.60500 10.70800 41.77000
H  -10.82100 10.71700 40.05800
H  -7.24500 11.76100 42.93100
H  -6.50300 12.06700 44.50600
H  -5.62200 12.39800 43.04500
H  -5.19500 17.80800 42.70100
H  -4.22100 20.60900 45.30800
H  -2.70500 19.87800 45.80000
H  -4.17600 19.50300 46.67800

