158

Mg 17.52500 -2.98500 28.75600
C  16.38400 -0.59100 30.94600
C  19.24900 -4.52700 31.28900
C  18.98500 -5.14100 26.50800
C  16.15900 -1.17800 26.05700
N  17.78300 -2.48300 30.84800
C  17.23400 -1.48300 31.62800
C  17.49000 -1.62100 33.13300
C  18.61800 -2.74300 33.07800
C  18.53600 -3.34600 31.63000
C  20.00300 -2.07800 33.44900
C  16.25400 -1.99200 34.02400
C  16.33900 -1.30700 35.39200
H  17.71300 -0.60600 35.74600
N  18.86200 -4.71600 28.88600
C  19.46400 -5.10600 30.03600
C  20.26600 -6.34800 29.77700
C  20.19100 -6.50400 28.32900
C  19.32800 -5.41700 27.84700
C  20.81600 -7.22900 30.84300
C  20.75700 -7.57600 27.45200
O  20.48400 -7.77200 26.23400
C  21.74400 -8.57300 28.06700
N  17.66600 -3.07100 26.64400
C  18.31900 -4.04500 25.91100
C  18.02500 -3.92100 24.46800
C  17.25500 -2.58500 24.29200
C  16.89200 -2.33600 25.71500
C  19.29600 -4.05300 23.40800
C  16.05700 -2.58900 23.28700
C  16.26900 -1.60000 22.02100
N  16.41200 -1.29600 28.46600
C  15.91800 -0.67100 27.37200
C  15.08700 0.45400 27.77800
C  15.21400 0.54800 29.14700
C  16.04900 -0.53300 29.52400
C  14.17800 1.31500 26.92600
C  14.83400 1.28500 30.35100
O  14.09000 2.25900 30.50600
C  15.66300 0.60600 31.59600
C  16.64000 1.56200 32.05100
O  17.75100 1.71800 31.59600
O  15.95400 2.35100 32.92900
C  16.74800 3.58100 33.29700
H  19.83200 -4.98000 32.09300
H  19.28500 -5.81000 25.69800
H  15.79200 -0.57000 25.22700
H  17.92700 -0.65900 33.40100
H  18.43400 -3.57500 33.75700
H  19.99100 -1.20100 34.09700
H  20.34700 -1.61800 32.52200
H  20.68700 -2.80100 33.89400
H  16.11900 -3.06500 34.15700
H  15.44900 -1.57400 33.42000
H  15.97800 -1.86300 36.25700
H  15.60600 -0.51800 35.22100
H  20.60500 -8.25100 30.52700
H  20.44500 -7.03200 31.84900
H  21.87500 -7.05100 31.03000
H  21.23800 -9.40200 28.56200
H  22.37500 -7.94800 28.69800
H  22.27600 -8.91300 27.17800
H  17.30700 -4.72300 24.29500
H  18.07900 -1.91100 24.05400
H  19.56000 -3.11600 22.91800
H  19.22100 -4.80300 22.62000
H  20.20200 -4.42000 23.89000
H  15.09900 -2.42300 23.78100
H  15.94700 -3.57800 22.84300
H  15.86300 -2.07100 21.12600
H  17.32000 -1.32400 21.94200
H  15.64900 -0.70400 22.05900
H  14.42600 2.37600 26.94500
H  13.11700 1.22700 27.16100
H  14.25400 0.99700 25.88600
H  14.95800 0.18200 32.31100
H  17.00600 4.16300 32.41300
H  17.59600 3.32800 33.93500
H  16.26300 4.26400 33.99400
Mg 47.35900 25.34000 28.67900
C  48.36700 27.58200 31.18500
C  46.45200 23.10000 31.04300
C  46.41600 23.29900 26.17000
C  48.58400 27.67100 26.27000
N  47.31700 25.47900 30.88600
C  47.79300 26.46800 31.73800
C  47.59000 26.09900 33.21100
C  47.16300 24.55600 33.09200
C  46.94100 24.32600 31.55000
C  48.18800 23.52300 33.80300
C  46.50100 27.03600 33.89100
C  47.02300 27.72700 35.20600
H  45.94200 27.86800 36.38900
N  46.58300 23.39600 28.62300
C  46.29000 22.64600 29.68200
C  45.81400 21.38600 29.25900
C  45.69700 21.42700 27.83700
C  46.25200 22.75400 27.47800
C  45.34000 20.30400 30.21100
C  45.19900 20.32600 26.85600
O  45.15500 20.49800 25.63800
C  44.62100 19.02200 27.30400
N  47.58000 25.43900 26.50800
C  47.02500 24.49400 25.67200
C  47.19900 24.84700 24.17500
C  47.68600 26.32000 24.27600
C  47.94300 26.50200 25.77700
C  48.06500 23.80300 23.46000
C  46.77500 27.37200 23.73800
C  45.34800 27.38300 24.37000
N  48.33700 27.18500 28.63000
C  48.73600 28.01000 27.60500
C  49.46900 29.14800 28.21800
C  49.21200 29.01200 29.60000
C  48.52400 27.81700 29.80400
C  50.18200 30.21900 27.52600
C  49.52900 29.61000 30.89700
O  50.19900 30.60600 31.11100
C  49.00200 28.66100 31.94600
C  50.18200 28.24800 32.84400
O  50.87000 27.23200 32.79900
O  50.40700 29.22100 33.80000
C  51.54200 28.91800 34.73100
H  46.18400 22.39000 31.82800
H  46.07600 22.55000 25.45200
H  48.93800 28.44700 25.58800
H  48.54200 26.12800 33.74100
H  46.13600 24.41200 33.42700
H  48.84800 23.05800 33.07200
H  47.62900 22.71500 34.27500
H  48.67300 24.09200 34.59700
H  45.55300 26.51700 34.03200
H  46.13400 27.75400 33.15800
H  47.49700 28.67100 34.93900
H  47.80000 27.09900 35.64300
H  44.41100 19.80900 29.92700
H  45.12700 20.72800 31.19300
H  46.08000 19.50900 30.29700
H  45.17500 18.59800 28.14200
H  44.68200 18.36700 26.43500
H  43.55200 19.04400 27.51800
H  46.18400 24.83500 23.77700
H  48.64300 26.46100 23.77300
H  48.37500 22.99100 24.11700
H  48.98300 24.28100 23.11900
H  47.54900 23.28100 22.65400
H  46.72900 27.31200 22.65100
H  47.19800 28.32900 24.04500
H  45.34900 28.23900 25.04600
H  45.15800 26.40500 24.81200
H  44.57000 27.52900 23.62200
H  51.23800 29.96400 27.42600
H  49.98300 31.17200 28.01400
H  49.77400 30.39400 26.53000
H  48.32700 29.19600 32.61500
H  51.20100 28.09900 35.36400
H  51.81900 29.76300 35.36000
H  52.49000 28.73200 34.22700

