158

Mg 47.13200 35.10600 26.46900
C  45.36800 33.44300 28.91400
C  47.65700 37.77800 28.71000
C  48.74500 36.82000 24.02400
C  45.97500 32.83600 24.00000
N  46.67900 35.49700 28.56500
C  46.15900 34.51300 29.40600
C  46.12700 35.02300 30.78300
C  46.34200 36.59600 30.64300
C  46.97600 36.64500 29.24200
C  44.99000 37.36900 30.87300
C  47.19400 34.25900 31.65100
C  46.92000 34.45700 33.19100
H  45.79400 35.35100 33.80700
N  48.13700 36.94700 26.37600
C  48.21500 37.89900 27.43300
C  49.04300 38.98400 26.99200
C  49.35600 38.78500 25.64000
C  48.84700 37.41900 25.30400
C  49.42100 40.18600 27.83000
C  50.11300 39.69500 24.56000
O  50.38200 39.27300 23.49800
C  50.66700 41.07700 24.98800
N  47.18300 34.91100 24.31100
C  48.08100 35.64300 23.56400
C  48.30600 34.99000 22.14300
C  47.36800 33.80700 22.11600
C  46.84000 33.84700 23.52100
C  48.14200 35.97400 20.92900
C  47.90400 32.48200 21.65800
C  46.99800 31.81300 20.63600
N  45.93300 33.49600 26.44500
C  45.54600 32.65400 25.34300
C  44.76500 31.60800 25.88100
C  44.61500 31.90900 27.30400
C  45.32900 33.03800 27.54200
C  44.28100 30.36600 25.17600
C  44.02000 31.43300 28.58700
O  43.37400 30.43700 28.77100
C  44.36900 32.60200 29.63200
C  44.96300 31.84600 30.79600
O  45.92500 31.07600 30.72100
O  44.25400 32.09800 31.93800
C  44.75400 31.29300 33.10900
H  47.81300 38.54800 29.46800
H  49.33400 37.17700 23.17600
H  45.62700 32.02600 23.35500
H  45.11600 34.79800 31.12300
H  47.07400 37.05700 31.30600
H  44.13800 36.71700 31.06300
H  44.79800 37.85800 29.91700
H  45.14400 38.11500 31.65200
H  48.17600 34.69800 31.47400
H  47.23800 33.18500 31.47000
H  47.87700 34.84700 33.53700
H  46.83400 33.44400 33.58300
H  50.49800 40.07700 27.95400
H  48.98200 40.13200 28.82700
H  49.08400 41.09400 27.33000
H  51.12400 40.99700 25.97400
H  50.02300 41.95400 24.92400
H  51.36800 41.35300 24.20100
H  49.32600 34.60500 22.13900
H  46.52000 34.13300 21.51300
H  47.53400 35.45400 20.18800
H  49.09700 36.27600 20.49900
H  47.61200 36.88900 21.19400
H  48.15500 31.79200 22.46400
H  48.82000 32.83000 21.18100
H  47.50800 32.04900 19.70200
H  45.97600 32.18500 20.56500
H  47.03500 30.74400 20.84500
H  43.22400 30.47100 24.93200
H  44.39100 29.63400 25.97700
H  44.91000 30.20500 24.30100
H  43.52900 33.19700 29.99000
H  44.10900 31.45900 33.97200
H  45.75800 31.66700 33.30800
H  44.61600 30.22000 32.97600
Mg -10.86900 17.59300 41.33000
C  -7.25600 17.43100 41.87100
C  -10.48700 20.92700 40.59200
C  -14.12500 17.51800 40.36200
C  -10.72100 14.06200 41.28100
N  -9.04700 18.93800 41.30700
C  -7.74000 18.70400 41.50000
C  -6.86500 19.92000 41.31700
C  -7.98200 21.03000 41.42400
C  -9.26700 20.26600 41.06200
C  -8.10000 21.77800 42.71400
C  -6.35400 19.97100 39.78600
C  -4.90400 19.55700 39.47900
H  -4.72200 18.59900 38.30500
N  -12.11300 19.05800 40.65700
C  -11.77700 20.34800 40.49400
C  -12.92900 21.10700 40.07900
C  -14.05400 20.18300 40.03700
C  -13.52800 18.83400 40.33200
C  -12.84300 22.62300 39.69300
C  -15.42600 20.61200 39.45800
O  -15.72700 21.78700 39.31700
C  -16.46000 19.54200 39.16300
N  -12.26100 15.96000 40.86600
C  -13.60600 16.20500 40.55300
C  -14.39300 14.90500 40.41000
C  -13.23000 13.85600 40.43000
C  -11.96800 14.63700 40.94400
C  -15.37200 14.56500 41.59400
C  -12.94400 13.06200 39.16800
C  -13.88500 12.01400 38.82000
N  -9.30700 16.01500 41.61900
C  -9.46800 14.65400 41.61500
C  -8.23300 14.03200 42.07000
C  -7.37200 15.08600 42.10500
C  -8.06100 16.24500 41.85700
C  -7.82700 12.62400 42.39900
C  -5.99900 15.39200 42.36500
O  -5.00100 14.66900 42.49400
C  -5.86200 16.99300 42.31600
C  -5.48700 17.57200 43.64200
O  -4.51500 18.34900 43.71000
O  -6.24100 17.11500 44.66800
C  -6.03800 17.81100 45.89900
H  -10.24800 21.97500 40.39900
H  -15.19200 17.49900 40.13100
H  -10.77200 12.98900 41.47700
H  -6.15500 20.09600 42.12500
H  -7.91800 21.72400 40.58600
H  -8.87500 21.31600 43.32600
H  -8.49300 22.77000 42.49000
H  -7.11400 21.75400 43.17700
H  -6.32300 21.02200 39.49800
H  -6.99000 19.35100 39.15300
H  -4.49700 19.12200 40.39100
H  -4.34500 20.48600 39.36700
H  -13.10500 22.48300 38.64400
H  -11.84900 22.97500 39.97200
H  -13.57700 23.15300 40.30000
H  -15.96300 18.79500 38.54400
H  -17.24100 19.93100 38.51000
H  -16.74800 19.06700 40.10100
H  -14.92400 14.85200 39.46000
H  -13.21500 13.07000 41.18600
H  -15.09900 15.31700 42.33500
H  -15.18700 13.53300 41.89000
H  -16.38000 14.64000 41.18700
H  -11.98700 12.59800 39.40700
H  -12.75100 13.66900 38.28400
H  -14.41500 11.54900 39.65100
H  -13.27600 11.24600 38.34300
H  -14.65200 12.33000 38.11200
H  -7.44900 12.00100 41.58900
H  -8.58700 12.09100 42.97000
H  -6.95400 12.73400 43.04300
H  -5.08500 17.20700 41.58200
H  -5.80900 17.02600 46.62000
H  -6.95900 18.30000 46.21400
H  -5.17500 18.46800 46.00700

