158

Mg 36.35600 49.71400 24.65600
C  36.24400 47.88300 27.76900
C  35.12300 52.44400 26.26300
C  35.87900 51.11700 21.56200
C  37.28600 46.68100 23.14800
N  35.85100 50.11700 26.74400
C  35.86400 49.22000 27.84900
C  35.52600 50.03000 29.17000
C  34.90300 51.36400 28.64600
C  35.32100 51.33500 27.09300
C  33.37100 51.49400 28.82500
C  36.70200 50.11600 30.16600
C  36.31000 50.15500 31.66100
H  34.86900 49.81600 32.01000
N  35.68500 51.59000 24.05000
C  35.29900 52.58100 24.83500
C  34.97100 53.74900 23.97100
C  35.14700 53.41700 22.64500
C  35.69000 52.01100 22.68900
C  34.33900 55.10400 24.60800
C  34.85800 54.30100 21.41100
O  34.93700 53.85300 20.28400
C  34.54000 55.77400 21.50400
N  36.54500 49.03100 22.62600
C  36.25300 49.75500 21.53300
C  36.39900 48.88900 20.26900
C  37.21600 47.62500 20.83700
C  36.97500 47.73400 22.29100
C  35.06800 48.66200 19.50200
C  38.67300 47.62200 20.37700
C  39.04900 46.29200 19.63000
N  36.74500 47.65800 25.25100
C  37.13200 46.58500 24.49400
C  37.47800 45.45200 25.32500
C  37.13400 45.94400 26.65500
C  36.63000 47.27700 26.52900
C  38.17100 44.09200 25.06800
C  37.16900 45.60100 28.07100
O  37.54800 44.56400 28.52600
C  36.61300 46.79100 28.79700
C  35.50300 46.43800 29.61800
O  34.32600 46.51600 29.35600
O  36.01200 45.70200 30.68100
C  34.97200 45.18000 31.58000
H  34.73000 53.35700 26.71600
H  35.69600 51.57300 20.58700
H  37.51500 45.69900 22.72900
H  34.77500 49.36100 29.59000
H  35.33500 52.21500 29.17300
H  33.01300 50.63400 29.39000
H  32.93500 51.38900 27.83100
H  33.03500 52.44500 29.23800
H  37.28300 51.00700 29.92500
H  37.40600 49.28600 30.10300
H  36.66100 51.10800 32.05700
H  36.92300 49.41100 32.17000
H  33.95100 54.87700 25.60100
H  33.50500 55.46400 24.00600
H  35.19600 55.77600 24.64600
H  35.28500 56.15800 22.20000
H  33.46200 55.86800 21.63500
H  34.79900 56.07700 20.49000
H  37.04100 49.47800 19.61400
H  36.69600 46.72300 20.51300
H  34.25600 49.17700 20.01500
H  34.87900 47.59800 19.36300
H  35.18300 49.12100 18.52000
H  39.43500 47.69400 21.15400
H  38.82600 48.46800 19.70700
H  38.21600 45.61700 19.43700
H  39.88300 45.74300 20.06800
H  39.39000 46.61200 18.64500
H  38.65300 43.80000 26.00100
H  38.87400 44.28100 24.25700
H  37.37400 43.40000 24.79700
H  37.36700 47.32400 29.37600
H  34.43200 44.35100 31.12300
H  34.14200 45.81700 31.88500
H  35.58400 44.75000 32.37400
Mg 9.70200 47.77700 28.14700
C  7.91000 47.37800 31.20400
C  12.46700 48.42500 29.99400
C  11.21800 48.96900 25.34500
C  6.55900 48.02900 26.45100
N  10.14800 47.70600 30.38200
C  9.28600 47.55500 31.44100
C  10.04500 47.60400 32.76900
C  11.46500 48.06200 32.39800
C  11.38400 48.03000 30.81700
C  11.94400 49.42200 32.97900
C  9.86800 46.28100 33.59900
C  11.01600 45.92000 34.57200
H  10.69900 45.16900 35.91400
N  11.63000 48.24600 27.66000
C  12.61200 48.46000 28.57200
C  13.82400 48.68400 27.81100
C  13.52400 48.82000 26.45400
C  12.03200 48.70400 26.43100
C  15.16400 49.01100 28.51900
C  14.43700 49.21000 25.20200
O  14.08200 49.50700 24.05400
C  15.89000 49.21000 25.48000
N  8.99300 48.39200 26.08400
C  9.80400 48.75300 25.07400
C  9.03800 49.10200 23.75800
C  7.64000 48.75000 24.22600
C  7.66700 48.30900 25.66300
C  9.09300 50.52800 23.31800
C  6.87600 47.73700 23.32800
C  6.33200 48.32500 21.99100
N  7.63700 47.55100 28.62400
C  6.45800 47.68400 27.84700
C  5.30300 47.59100 28.68600
C  5.86000 47.35300 29.94900
C  7.23800 47.48500 29.93600
C  3.91600 47.78400 28.31300
C  5.51900 47.20500 31.37200
O  4.43900 47.13100 31.85200
C  6.80600 47.07100 32.16900
C  6.81900 45.65400 32.54200
O  7.18300 44.73200 31.88100
O  6.31700 45.58000 33.79800
C  6.23600 44.27700 34.40700
H  13.33700 48.51300 30.64800
H  11.62300 49.35000 24.40500
H  5.54900 48.16700 26.05900
H  9.49900 48.32600 33.37600
H  12.20700 47.30400 32.65200
H  11.23100 49.87500 33.66800
H  12.01800 50.23400 32.25600
H  12.86800 49.23100 33.52400
H  9.72700 45.51900 32.83300
H  8.95600 46.27900 34.19600
H  11.40500 46.89500 34.86500
H  11.70300 45.31200 33.98400
H  15.45500 50.01700 28.21700
H  15.96100 48.27900 28.39000
H  14.92800 49.06400 29.58200
H  16.26400 49.10500 24.46200
H  16.20600 48.33000 26.04100
H  15.95100 50.14300 26.04000
H  9.50100 48.44600 23.02100
H  7.00300 49.63500 24.23500
H  8.18600 50.89900 22.84000
H  9.87200 50.35800 22.57400
H  9.49400 51.18700 24.08800
H  5.98900 47.37000 23.84300
H  7.55800 46.93900 23.03200
H  6.83300 47.65200 21.29600
H  6.67900 49.35700 21.94500
H  5.25600 48.16300 21.91800
H  3.23600 47.50600 29.11800
H  3.77100 47.29600 27.34900
H  3.71100 48.83600 28.11400
H  6.78500 47.70900 33.05200
H  5.51000 43.75100 33.78700
H  5.79900 44.33100 35.40400
H  7.20300 43.77900 34.47000

