158

Mg 5.05800 54.17700 41.50400
C  3.26000 51.01400 40.97500
C  7.67900 52.59900 39.96000
C  6.45400 57.10000 41.31900
C  2.12700 55.51100 42.59400
N  5.33300 52.09900 40.28500
C  4.52800 50.99500 40.35700
C  5.20600 49.87000 39.58200
C  6.67100 50.28000 39.59600
C  6.56900 51.75800 39.89400
C  7.47600 49.51700 40.63300
C  4.62800 49.83000 38.18400
C  4.39400 48.47800 37.68600
H  5.09700 48.15600 36.32500
N  6.86300 54.80400 40.69600
C  7.81300 53.99700 40.19100
C  8.97200 54.79800 39.95900
C  8.68400 56.17600 40.22500
C  7.31000 56.11600 40.79700
C  10.23900 54.15400 39.36600
C  9.60100 57.42000 39.95600
O  10.61400 57.24800 39.23600
C  9.26200 58.73100 40.39600
N  4.45700 55.97800 42.06400
C  5.18300 57.09400 41.83400
C  4.47900 58.39500 42.26500
C  3.25000 57.83200 42.97500
C  3.27400 56.36300 42.49100
C  5.27000 59.42900 43.04700
C  1.88500 58.63700 42.66300
C  1.71600 59.95100 43.45000
N  3.13400 53.40100 41.90900
C  2.02400 54.13800 42.29900
C  0.90100 53.19600 42.48000
C  1.37100 51.93600 42.06800
C  2.72100 52.13200 41.63600
C  -0.40400 53.65200 43.07100
C  1.05100 50.60700 41.84000
O  -0.00800 50.05400 42.10500
C  2.35900 49.85800 41.29900
C  1.96700 48.84600 40.33900
O  1.27100 49.00100 39.38400
O  2.63700 47.68500 40.70200
C  2.18700 46.43500 40.00600
H  8.60100 52.09900 39.65500
H  6.96600 58.06200 41.23500
H  1.18200 55.99700 42.84600
H  4.93700 48.95000 40.10200
H  7.20100 50.25100 38.64300
H  8.28700 49.07300 40.05600
H  7.04100 48.62900 41.09300
H  7.71300 50.19900 41.44900
H  5.26400 50.31500 37.44300
H  3.79500 50.51800 38.32600
H  3.32600 48.42700 37.47500
H  4.67700 47.71300 38.40900
H  11.13200 54.77900 39.39000
H  10.08300 53.72600 38.37500
H  10.48600 53.31900 40.02100
H  8.32100 59.09300 39.98100
H  10.10400 59.30600 40.01200
H  9.37100 58.74700 41.48100
H  4.09500 58.83900 41.34600
H  3.42100 57.72300 44.04600
H  5.20300 60.41200 42.58100
H  6.32800 59.24300 43.22700
H  4.76600 59.51600 44.01000
H  1.02400 58.01200 42.89800
H  1.87600 58.83600 41.59100
H  1.67700 59.87600 44.53700
H  0.70000 60.14600 43.10700
H  2.23900 60.77200 42.95800
H  -0.93300 54.13500 42.24900
H  -0.32500 54.39100 43.86800
H  -0.99300 52.79700 43.40100
H  2.69300 49.44100 42.24900
H  1.16700 46.40400 39.62400
H  2.25000 45.65500 40.76500
H  2.95700 46.21900 39.26500
Mg -11.91400 16.14200 42.66600
C  -8.88000 14.79200 42.16400
C  -10.88300 19.15900 41.19600
C  -15.08500 17.31000 42.69600
C  -13.04300 13.10200 43.84800
N  -10.10000 16.91800 41.72800
C  -8.94400 16.16100 41.70600
C  -7.79800 17.05500 41.15400
C  -8.40600 18.46300 40.97600
C  -9.89800 18.23400 41.45700
C  -7.63500 19.62500 41.68900
C  -7.13000 16.52900 39.87900
C  -5.60200 16.38600 39.99500
H  -5.07100 15.24300 39.09300
N  -12.86100 17.96700 42.14200
C  -12.27600 19.08900 41.53500
C  -13.29900 20.02300 41.09100
C  -14.53500 19.47200 41.52400
C  -14.18300 18.23000 42.17700
C  -13.02900 21.29400 40.31400
C  -15.91700 20.13900 41.18600
O  -15.92000 21.20500 40.63000
C  -17.21800 19.56900 41.62100
N  -13.77300 15.34000 43.33200
C  -14.98900 15.95800 43.16200
C  -16.21700 14.99600 43.59500
C  -15.46600 13.82100 44.15400
C  -14.00500 14.06100 43.71700
C  -17.35100 15.62600 44.46600
C  -16.00800 12.49400 43.57200
C  -15.99000 11.24100 44.51300
N  -11.14600 14.29900 42.95300
C  -11.68000 13.16200 43.46900
C  -10.69200 12.13300 43.56500
C  -9.51900 12.75900 43.14000
C  -9.92000 14.01400 42.71900
C  -10.92900 10.77500 44.13900
C  -8.11000 12.55600 42.91700
O  -7.35200 11.54100 43.08900
C  -7.61800 13.86800 42.40700
C  -6.79500 14.43300 43.44400
O  -7.19800 15.21500 44.29600
O  -5.47400 14.11000 43.23400
C  -4.55000 14.63300 44.27900
H  -10.65800 20.19800 40.94600
H  -16.12900 17.63100 42.66000
H  -13.54100 12.23400 44.28700
H  -7.04800 17.02600 41.94400
H  -8.37300 18.76500 39.92900
H  -7.04400 19.12600 42.45600
H  -8.39400 20.18300 42.23700
H  -7.05700 20.28000 41.03700
H  -7.19100 17.25400 39.06700
H  -7.49400 15.55600 39.54800
H  -5.34100 16.14900 41.02600
H  -5.13600 17.34200 39.75500
H  -13.24100 22.19100 40.89600
H  -13.71800 21.22000 39.47200
H  -12.00200 21.42500 39.97300
H  -17.35900 18.63400 41.07900
H  -17.95500 20.35400 41.45500
H  -17.13500 19.36000 42.68800
H  -16.71700 14.86800 42.63500
H  -15.48000 13.74700 45.24100
H  -18.18100 16.01700 43.87800
H  -17.08400 16.45200 45.12500
H  -17.79000 14.89300 45.14200
H  -15.56100 12.37800 42.58500
H  -17.07100 12.51000 43.33100
H  -15.71500 10.36600 43.92300
H  -16.86500 10.99300 45.11300
H  -15.16400 11.44500 45.19400
H  -10.12400 10.58200 44.84800
H  -10.93200 10.16600 43.23500
H  -11.89500 10.64200 44.62400
H  -6.99800 13.72500 41.52100
H  -4.36700 15.70700 44.31600
H  -3.59100 14.11600 44.23500
H  -4.98500 14.32000 45.22900

