158

Mg 26.46900 49.95600 26.01900
C  24.72800 51.54600 28.53900
C  28.61400 48.69800 28.44800
C  28.32900 48.61000 23.54200
C  24.19500 51.17400 23.64000
N  26.68500 50.14100 28.25700
C  25.81000 50.83900 29.07700
C  26.19100 50.69200 30.52800
C  27.60600 50.04700 30.44300
C  27.63800 49.55100 28.97900
C  28.77700 51.00500 30.66100
C  25.19700 49.85300 31.35300
C  24.78000 50.40200 32.80100
H  25.88300 50.52000 33.83700
N  28.24700 48.87600 25.99900
C  28.92500 48.50400 27.08000
C  30.06700 47.68500 26.65500
C  30.02000 47.64100 25.25300
C  28.85400 48.42300 24.81100
C  31.07900 47.04200 27.61000
C  31.00100 46.92900 24.31000
O  30.95900 47.12600 23.09200
C  32.13900 46.01500 24.79100
N  26.31500 49.96700 23.85600
C  27.18100 49.34300 23.09300
C  26.79200 49.31100 21.60600
C  25.28300 49.91200 21.61500
C  25.23100 50.40500 23.08400
C  27.79800 49.90100 20.59500
C  24.18500 48.81000 21.30900
C  24.33300 47.43000 21.99300
N  24.82900 51.13700 25.98500
C  24.03300 51.54600 24.98400
C  22.97500 52.41000 25.52300
C  23.26000 52.46600 26.90600
C  24.33600 51.61400 27.15900
C  21.94100 53.15500 24.77500
C  22.74100 52.95800 28.17700
O  21.74900 53.69400 28.40900
C  23.65900 52.27600 29.29500
C  24.21100 53.46800 30.08200
O  25.13800 54.27200 29.79800
O  23.47700 53.50300 31.21200
C  23.80300 54.41200 32.30100
H  29.27700 48.31400 29.22600
H  28.84100 48.06700 22.74400
H  23.34800 51.33700 22.97000
H  26.26200 51.62200 31.09200
H  27.78900 49.11500 30.97600
H  28.65000 52.05000 30.94200
H  29.31600 51.08000 29.71700
H  29.48800 50.59200 31.37700
H  25.61000 48.85100 31.46500
H  24.25400 49.74300 30.81800
H  24.05500 49.65500 33.12400
H  24.17700 51.31000 32.81200
H  30.88200 45.97200 27.67100
H  30.94700 47.28300 28.66400
H  32.09300 47.26700 27.28000
H  32.46300 45.35400 23.98700
H  31.69500 45.39000 25.56600
H  32.96900 46.41700 25.37200
H  26.77400 48.30100 21.19600
H  25.25600 50.73300 20.89900
H  27.30700 50.58700 19.90300
H  28.22100 49.09600 19.99300
H  28.55300 50.51100 21.09100
H  24.14700 48.61200 20.23800
H  23.20100 49.23200 21.51400
H  23.86200 47.52100 22.97200
H  25.38800 47.16000 22.02100
H  23.78000 46.67000 21.44200
H  21.38700 53.83200 25.42500
H  21.34000 52.42600 24.23100
H  22.48300 53.66700 23.98000
H  23.14300 51.63100 30.00600
H  24.49500 54.05900 33.06600
H  22.85500 54.69600 32.75700
H  24.15800 55.36000 31.89700
Mg -9.78000 17.10500 41.57800
C  -6.28700 17.02900 41.27900
C  -9.65400 20.50600 40.79800
C  -13.07600 16.91600 40.95700
C  -9.70900 13.60500 41.84700
N  -8.04900 18.56400 41.08300
C  -6.67600 18.32500 41.05700
C  -5.93900 19.61600 40.55800
C  -7.05200 20.68300 40.90600
C  -8.37000 19.90900 40.88300
C  -6.77200 21.42600 42.22400
C  -5.72600 19.44800 38.95900
C  -4.30600 19.44800 38.50600
H  -3.78800 18.10000 37.97600
N  -11.21800 18.57800 40.99000
C  -11.00700 19.91300 40.72900
C  -12.30400 20.49600 40.45800
C  -13.27700 19.47400 40.25300
C  -12.55700 18.21500 40.72200
C  -12.42600 21.93000 40.33100
C  -14.79200 19.69000 39.88300
O  -15.14500 20.83500 39.61100
C  -15.87500 18.56400 39.87600
N  -11.23700 15.52100 41.34500
C  -12.54700 15.68100 41.22800
C  -13.27500 14.43100 41.53600
C  -12.20200 13.30600 41.27400
C  -10.96700 14.16600 41.56300
C  -13.84600 14.43200 42.95500
C  -12.21800 12.60200 39.86400
C  -12.76900 13.42700 38.64800
N  -8.30300 15.56000 41.59800
C  -8.40500 14.16000 41.79300
C  -7.12000 13.62700 42.00400
C  -6.21600 14.71400 41.77000
C  -7.03000 15.86000 41.55000
C  -6.84500 12.11600 42.15400
C  -4.83100 15.03200 41.61000
O  -3.78500 14.35900 41.63300
C  -4.91900 16.54300 41.45800
C  -4.16000 17.23800 42.50400
O  -4.65100 18.06600 43.28100
O  -2.81400 16.88100 42.43900
C  -2.09500 17.61800 43.49400
H  -9.53100 21.58000 40.64100
H  -14.16300 16.81900 40.92700
H  -9.64800 12.52000 41.95700
H  -5.03500 19.77000 41.14800
H  -7.10400 21.37200 40.06400
H  -7.15600 21.01500 43.15800
H  -7.16200 22.43700 42.11000
H  -5.69100 21.45100 42.36100
H  -6.26200 20.17900 38.35500
H  -6.27200 18.53200 38.73000
H  -3.71800 19.85900 39.32600
H  -4.22000 20.20700 37.72900
H  -13.28100 22.23900 39.73100
H  -11.52900 22.40500 39.93400
H  -12.70100 22.39300 41.27900
H  -16.78100 19.09700 39.58800
H  -15.97500 18.12200 40.86700
H  -15.66400 17.80900 39.11800
H  -14.12900 14.33800 40.86600
H  -12.24300 12.57300 42.07900
H  -13.55400 15.34900 43.46700
H  -13.62100 13.53200 43.52700
H  -14.92900 14.38300 42.84300
H  -12.74600 11.65300 39.95900
H  -11.15500 12.44600 39.67900
H  -13.50300 14.21200 38.82600
H  -13.31800 12.72600 38.01900
H  -11.92600 13.86800 38.11600
H  -7.75300 11.55200 41.94200
H  -6.56800 11.85500 43.17600
H  -6.06200 11.77200 41.47800
H  -4.29400 16.75100 40.59000
H  -1.88200 18.64600 43.20200
H  -1.12500 17.12300 43.53900
H  -2.56800 17.61900 44.47500

