158

Mg 46.94900 25.24200 28.19500
C  48.25500 27.40300 30.73300
C  46.13600 23.13100 30.72500
C  45.89500 23.17800 25.89700
C  48.32200 27.41800 25.84600
N  47.05400 25.32200 30.43600
C  47.48800 26.35900 31.22300
C  47.29700 26.04900 32.71100
C  46.73100 24.62500 32.69000
C  46.58000 24.33100 31.20900
C  47.57900 23.58000 33.47000
C  46.50000 27.12300 33.54900
C  47.15900 27.87600 34.70400
H  46.32200 28.42400 35.95800
N  46.04800 23.36300 28.32000
C  45.88400 22.58200 29.41500
C  45.22600 21.28000 29.05300
C  44.97400 21.42400 27.64000
C  45.66400 22.67900 27.21600
C  45.05900 20.19600 30.02900
C  44.21300 20.51500 26.61600
O  44.06500 20.70000 25.42900
C  43.71200 19.24100 27.20500
N  47.18400 25.25800 26.13900
C  46.52400 24.27700 25.41500
C  46.69200 24.58900 23.93400
C  47.20000 26.02100 23.90300
C  47.60000 26.25200 25.34700
C  47.51500 23.59300 23.16300
C  46.16500 27.21700 23.46000
C  46.72100 28.21900 22.47500
N  48.05500 27.07500 28.19300
C  48.44500 27.87700 27.17500
C  49.07200 29.05200 27.73200
C  49.06700 28.87200 29.12900
C  48.40800 27.69000 29.35200
C  49.62600 30.14600 26.93600
C  49.51200 29.44200 30.38400
O  50.09300 30.45700 30.60500
C  49.09000 28.47500 31.50100
C  50.32700 27.96000 32.17300
O  51.02900 27.10400 31.72100
O  50.63600 28.68700 33.35900
C  51.89200 28.46600 33.95300
H  45.76500 22.45200 31.49500
H  45.51300 22.50000 25.13000
H  48.66800 28.09800 25.06400
H  48.28700 25.98000 33.16100
H  45.79000 24.52100 33.22900
H  46.98500 22.85700 34.03000
H  48.25200 24.10400 34.14800
H  48.10500 22.96800 32.73700
H  45.59200 26.66100 33.93800
H  46.20300 27.96100 32.91900
H  47.66800 28.75000 34.29800
H  47.84900 27.12700 35.09200
H  45.67600 20.34400 30.91600
H  45.50700 19.30800 29.58400
H  44.02600 19.98700 30.30700
H  43.25700 19.43800 28.17500
H  44.57700 18.58500 27.30100
H  42.78200 18.87700 26.76700
H  45.64200 24.64200 23.64700
H  48.15700 26.18200 23.40500
H  47.04300 23.18700 22.26800
H  47.79600 22.71900 23.75000
H  48.43800 24.02800 22.78100
H  45.84100 27.77700 24.33700
H  45.28600 26.77100 22.99600
H  46.91100 29.17800 22.95700
H  46.27700 28.33300 21.48600
H  47.73500 28.06200 22.10700
H  50.57800 29.88100 26.47700
H  49.80000 31.03700 27.54000
H  48.87400 30.31600 26.16500
H  48.44100 29.03100 32.17800
H  52.75600 28.68400 33.32500
H  51.87100 27.41500 34.24100
H  51.92700 29.07600 34.85600
Mg 30.33700 59.27700 40.17400
C  27.81000 57.35900 38.85100
C  32.63900 56.89300 38.91200
C  32.98300 61.30700 40.70100
C  28.09400 61.90100 40.72000
N  30.18200 57.25700 39.04500
C  29.05300 56.68800 38.64400
C  29.24500 55.40900 37.85100
C  30.80000 55.07200 38.22300
C  31.28200 56.46100 38.68300
C  31.04500 53.97700 39.21900
C  29.18100 55.69200 36.30400
C  28.07200 54.90800 35.54900
H  27.21300 55.71500 34.56400
N  32.53200 59.12300 39.92100
C  33.27500 58.04600 39.51400
C  34.71000 58.30800 39.58600
C  34.83100 59.60400 40.13200
C  33.43700 60.06300 40.29300
C  35.84900 57.23800 39.26300
C  36.13100 60.26400 40.48000
O  37.16200 59.66700 40.27900
C  36.20600 61.57900 41.18400
N  30.51700 61.32500 40.59600
C  31.69500 61.86400 40.99100
C  31.55300 63.34200 41.34800
C  29.99400 63.60400 41.23900
C  29.43600 62.19100 40.81600
C  32.19400 63.75200 42.71000
C  29.53400 64.66300 40.25200
C  30.37600 65.92300 40.30600
N  28.31600 59.55700 40.00200
C  27.52300 60.70600 40.18000
C  26.09700 60.27300 40.03200
C  26.15600 58.98300 39.47900
C  27.54300 58.64900 39.41600
C  24.97300 61.13300 40.49800
C  25.38300 57.85900 39.04000
O  24.15600 57.81000 38.99200
C  26.37000 56.78900 38.49900
C  25.97500 55.55300 39.18900
O  26.58600 55.11900 40.16000
O  24.79300 55.11400 38.66700
C  24.19100 53.90900 39.30000
H  33.37000 56.19700 38.49400
H  33.71700 62.09400 40.88800
H  27.45500 62.74200 40.99400
H  28.59200 54.57500 38.10800
H  31.44900 54.76700 37.40200
H  30.07300 53.65100 39.58900
H  31.62800 54.63300 39.86600
H  31.66300 53.17000 38.82600
H  30.13700 55.32200 35.93400
H  29.05800 56.75800 36.11100
H  27.38100 54.53300 36.30400
H  28.55100 54.13200 34.95200
H  36.40700 57.50100 38.36400
H  35.49300 56.20800 39.29100
H  36.54000 57.30500 40.10300
H  37.15600 61.73300 41.69400
H  35.52800 61.57700 42.03800
H  36.05900 62.38300 40.46200
H  32.10900 63.93400 40.62100
H  29.47200 63.76900 42.18200
H  33.13300 64.28100 42.54700
H  32.62900 62.96200 43.32100
H  31.48600 64.39100 43.24000
H  28.49800 64.93800 40.44700
H  29.75800 64.28300 39.25500
H  30.87700 66.14200 39.36300
H  31.10300 65.85500 41.11500
H  29.83300 66.82900 40.57700
H  24.91100 62.07700 39.95600
H  25.24900 61.27600 41.54300
H  24.08200 60.50600 40.45600
H  26.27800 56.64900 37.42200
H  23.10800 53.98900 39.20600
H  24.55300 53.94900 40.32700
H  24.48300 52.97600 38.81700

