158

Mg 36.19600 2.32500 29.93100
C  33.83500 3.76500 32.05800
C  38.24700 2.09600 32.65800
C  38.54600 1.34000 27.82700
C  33.95400 2.87600 27.30800
N  36.09300 3.17500 31.99800
C  35.01100 3.51200 32.68900
C  35.25400 3.56300 34.18000
C  36.78300 3.29800 34.30400
C  37.07400 2.84700 32.88300
C  37.43300 4.49700 34.87900
C  34.52000 2.47700 34.99200
C  33.80800 3.08100 36.31100
H  34.55200 4.10300 37.11000
N  38.15200 1.70600 30.23400
C  38.80400 1.62700 31.42700
C  40.07800 0.92300 31.25400
C  40.17600 0.84800 29.83200
C  38.93100 1.31800 29.20800
C  41.07400 0.74700 32.41200
C  41.32500 0.38700 28.95300
O  41.38400 0.33800 27.73900
C  42.62100 -0.11800 29.61200
N  36.23900 2.18900 27.92600
C  37.38400 1.89800 27.27600
C  37.22600 2.05300 25.67000
C  35.72100 2.25500 25.49400
C  35.25700 2.41000 27.04600
C  38.12400 3.18900 25.17400
C  35.08200 1.02200 24.89000
C  33.76900 1.22700 24.08600
N  34.18500 3.02000 29.63300
C  33.44500 3.19900 28.57600
C  32.14400 3.70600 28.94600
C  32.24800 3.92300 30.30200
C  33.55800 3.56600 30.67900
C  31.05800 4.04100 27.97800
C  31.53700 4.51800 31.42100
O  30.43900 5.04000 31.49500
C  32.52400 4.21600 32.65200
C  32.63700 5.52300 33.35000
O  33.27500 6.49900 33.00100
O  31.84400 5.45600 34.51400
C  31.88700 6.64400 35.40000
H  38.92200 2.10800 33.51600
H  39.29700 0.96400 27.13000
H  33.27600 3.17000 26.50400
H  34.93600 4.56500 34.46800
H  36.95700 2.38300 34.87000
H  37.61300 4.24700 35.92400
H  36.86000 5.42100 34.80100
H  38.43800 4.66600 34.49200
H  35.10000 1.63600 35.37000
H  33.72900 2.04800 34.37600
H  33.56500 2.25700 36.98200
H  32.89900 3.46400 35.84800
H  41.70300 -0.12300 32.21900
H  40.43200 0.62600 33.28400
H  41.61900 1.67000 32.61400
H  43.08100 0.72500 30.12700
H  43.36300 -0.42200 28.87300
H  42.44200 -0.93700 30.30900
H  37.51600 1.10000 25.22600
H  35.38800 3.17600 25.01600
H  38.94100 2.82000 24.55400
H  38.53100 3.68500 26.05600
H  37.50300 3.92000 24.65800
H  34.82500 0.38300 25.73500
H  35.79700 0.66900 24.14700
H  33.68100 0.34100 23.45700
H  33.87700 2.06500 23.39700
H  32.92300 1.40700 24.74800
H  31.03800 5.08300 27.65900
H  30.09500 3.72700 28.38300
H  31.12600 3.37500 27.11700
H  32.10400 3.49300 33.35100
H  31.27300 7.27500 34.75800
H  32.88000 7.05600 35.57900
H  31.34700 6.40100 36.31500
Mg 55.83600 24.40400 45.05200
C  53.12800 26.15700 43.49000
C  54.40300 21.38400 43.96400
C  58.70700 22.85900 45.69500
C  57.29700 27.56400 45.59400
N  54.11200 23.88900 43.64800
C  53.06900 24.72600 43.28500
C  51.85300 23.86600 42.82000
C  52.22400 22.44800 43.23800
C  53.69800 22.53900 43.56400
C  51.29300 21.87700 44.31900
C  51.43600 23.99000 41.29800
C  49.87100 24.06000 41.10400
H  49.48300 23.28600 39.90200
N  56.42800 22.41400 44.91200
C  55.71500 21.34200 44.44300
C  56.47900 20.09400 44.55900
C  57.70700 20.50400 45.03000
C  57.66200 21.98000 45.27900
C  56.01700 18.75100 43.98300
C  58.95500 19.60500 45.19000
O  58.91000 18.42200 44.94000
C  60.29300 20.07600 45.73200
N  57.64300 25.12900 45.86900
C  58.74100 24.25000 46.01000
C  60.01900 25.03700 46.30100
C  59.58400 26.57700 46.14000
C  58.07900 26.45500 45.89600
C  60.79400 24.75900 47.57900
C  60.32400 27.39100 44.94600
C  59.79300 27.18400 43.54900
N  55.31500 26.47300 44.67000
C  55.98900 27.61400 45.05400
C  55.06200 28.79200 44.96900
C  53.96700 28.25400 44.31400
C  54.15100 26.87600 44.11800
C  55.30500 30.20700 45.25800
C  52.63400 28.56000 43.76000
O  51.97300 29.59900 43.73200
C  52.14600 27.17200 43.25600
C  51.82400 27.49700 41.79500
O  52.56600 27.47300 40.86900
O  50.48300 27.68100 41.70000
C  49.83600 27.91100 40.37900
H  53.87700 20.44200 43.79600
H  59.73000 22.48500 45.77000
H  57.86000 28.49400 45.70000
H  51.06800 24.27400 43.45700
H  52.30000 21.76400 42.39300
H  50.39100 22.46800 44.47900
H  51.87200 21.81700 45.24000
H  50.78200 20.96600 44.00500
H  51.94300 23.18500 40.76600
H  51.89900 24.94700 41.05900
H  49.38700 25.03100 41.00100
H  49.54100 23.61700 42.04400
H  56.75600 18.34100 43.29400
H  55.00400 18.80900 43.58400
H  55.93800 18.01300 44.78100
H  60.76000 20.91200 45.21100
H  61.06000 19.31200 45.60800
H  60.05300 20.31800 46.76700
H  60.70300 24.77800 45.49300
H  59.71200 27.14000 47.06400
H  60.77400 23.69300 47.80300
H  60.32400 25.30200 48.39800
H  61.85100 24.99400 47.44700
H  61.40000 27.21700 44.95200
H  60.16300 28.40100 45.32200
H  60.61700 26.90800 42.89000
H  59.34500 28.10600 43.17700
H  59.07100 26.38200 43.39300
H  55.20700 30.62300 44.25500
H  56.36400 30.44700 45.35100
H  54.69100 30.72700 45.99400
H  51.23500 26.81200 43.73400
H  50.54800 28.45500 39.75900
H  48.97300 28.56200 40.51700
H  49.40300 27.09900 39.79400

