158

Mg -1.46400 17.68000 27.66100
C  -2.06600 15.36300 30.30900
C  -2.31900 20.15000 29.82500
C  -1.23300 19.75400 25.14200
C  -1.26300 14.90800 25.36900
N  -1.96300 17.75400 29.82800
C  -2.08200 16.74300 30.73900
C  -2.23900 17.24800 32.11600
C  -2.40700 18.79500 31.88500
C  -2.25200 18.95500 30.44500
C  -3.60400 19.43000 32.50100
C  -0.99900 16.71600 32.92200
C  -0.40900 17.70800 33.93800
H  -0.15600 17.02700 35.31800
N  -1.70000 19.71800 27.53000
C  -2.10100 20.60400 28.48300
C  -2.22800 21.93000 27.92300
C  -1.77800 21.87600 26.52000
C  -1.57400 20.41900 26.31800
C  -2.74100 23.09400 28.72000
C  -1.55700 22.96700 25.45400
O  -1.09000 22.69900 24.33800
C  -1.65100 24.32300 25.94000
N  -1.39800 17.34100 25.51100
C  -1.17800 18.43800 24.74800
C  -0.97000 17.95400 23.27900
C  -0.77900 16.41200 23.39900
C  -1.18200 16.17100 24.81500
C  -2.15600 18.33800 22.30200
C  0.71200 15.86900 23.23800
C  1.78800 16.50200 24.11000
N  -1.69800 15.61400 27.72100
C  -1.63400 14.66000 26.73900
C  -1.97200 13.37100 27.28300
C  -2.11200 13.59900 28.66700
C  -1.85900 14.98800 28.87400
C  -1.98300 12.01800 26.59600
C  -2.36900 13.01100 29.94800
O  -2.60600 11.89700 30.16200
C  -2.25200 14.10700 31.09200
C  -1.17000 13.73100 31.95300
O  0.00100 14.06800 31.77400
O  -1.69200 13.04800 33.06400
C  -0.67300 12.81500 34.12500
H  -2.47200 20.98900 30.50700
H  -1.17400 20.41700 24.27600
H  -1.14100 13.94800 24.86400
H  -3.14900 16.85900 32.57400
H  -1.58600 19.33400 32.35800
H  -4.34400 18.68200 32.78400
H  -4.08500 20.06200 31.75400
H  -3.34800 19.99500 33.39800
H  -0.23000 16.58700 32.16100
H  -1.27900 15.79600 33.43600
H  -1.14500 18.48100 34.15800
H  0.58400 17.99800 33.59500
H  -3.32400 23.79100 28.11800
H  -1.84900 23.59300 29.09900
H  -3.33600 22.74900 29.56600
H  -1.38700 25.04900 25.17100
H  -0.93400 24.33800 26.76100
H  -2.67500 24.55800 26.23100
H  -0.10500 18.54900 22.98600
H  -1.42300 15.92300 22.66900
H  -2.53900 19.18100 22.87700
H  -2.96100 17.65400 22.03400
H  -1.71000 18.77300 21.40800
H  0.98800 15.84400 22.18400
H  0.69300 14.79500 23.42400
H  2.54300 16.89700 23.43000
H  2.12600 15.69700 24.76200
H  1.51200 17.35600 24.72800
H  -1.00900 11.53000 26.61500
H  -2.31200 12.17700 25.56900
H  -2.63000 11.28000 27.06900
H  -3.16200 14.08400 31.69300
H  -1.08400 13.52700 34.84000
H  0.36000 13.07700 33.89500
H  -0.74400 11.82600 34.57600
Mg 47.71600 24.88400 28.60100
C  48.43200 27.11400 31.22900
C  47.27100 22.41800 31.09900
C  47.21200 22.59100 26.17500
C  49.04800 27.08200 26.33300
N  47.91200 24.70400 30.85400
C  48.01500 25.86100 31.70100
C  47.87800 25.46600 33.17700
C  47.58200 23.93500 33.12200
C  47.72000 23.60200 31.60000
C  48.59000 23.07700 33.97800
C  46.76600 26.31600 33.91500
C  47.23100 26.87800 35.26200
H  46.16300 26.89600 36.31800
N  47.12300 22.80000 28.64800
C  46.99100 21.96200 29.73200
C  46.55500 20.57800 29.24100
C  46.44200 20.65800 27.86000
C  46.97600 22.00700 27.49300
C  46.26200 19.47100 30.13100
C  45.92100 19.55400 26.93200
O  45.88800 19.72800 25.73100
C  45.31700 18.25000 27.41600
N  47.95200 24.90200 26.54500
C  47.74800 23.82400 25.78300
C  48.26600 24.04200 24.36500
C  48.53300 25.55100 24.33600
C  48.66800 25.83500 25.82500
C  49.55300 23.26400 23.90700
C  47.53600 26.48200 23.54800
C  47.39700 26.21100 22.09900
N  48.67600 26.70300 28.71900
C  49.16800 27.48500 27.72000
C  49.79700 28.68400 28.27500
C  49.58300 28.57800 29.66200
C  48.77900 27.41200 29.86400
C  50.69700 29.64200 27.60900
C  49.80000 29.14800 30.94700
O  50.53600 30.08500 31.23000
C  49.02500 28.33500 32.02400
C  50.08100 27.90300 33.02900
O  51.01800 27.20900 32.87000
O  49.85100 28.67400 34.15500
C  50.80600 28.48400 35.22500
H  47.13700 21.56300 31.76500
H  47.19300 21.90300 25.32700
H  49.36100 27.86600 25.64000
H  48.83700 25.56100 33.68600
H  46.56000 23.65700 33.37700
H  49.37200 22.60700 33.38200
H  48.07400 22.27100 34.49800
H  49.01800 23.74200 34.72900
H  45.77900 25.89200 34.10400
H  46.48300 27.19500 33.33700
H  47.63300 27.89100 35.28100
H  48.06300 26.28200 35.63700
H  46.37700 19.66800 31.19600
H  46.99400 18.70500 29.87100
H  45.25900 19.05800 30.02300
H  46.06300 17.69500 27.98500
H  45.11300 17.70600 26.49400
H  44.45400 18.23000 28.08300
H  47.38200 23.82900 23.76400
H  49.52500 25.68300 23.90300
H  49.69800 22.42400 24.58600
H  50.46000 23.86000 23.81200
H  49.37200 22.64800 23.02600
H  47.76600 27.53600 23.70400
H  46.50800 26.37400 23.89300
H  46.54100 25.58900 21.83800
H  48.33600 25.76000 21.77800
H  47.32500 27.23500 21.73400
H  50.68900 29.60700 26.51900
H  51.71300 29.37400 27.90100
H  50.42000 30.65900 27.88300
H  48.25900 28.96100 32.48100
H  50.66100 29.08100 36.12500
H  51.84000 28.72000 34.97500
H  50.72700 27.42400 35.46700

