158

Mg 6.52900 54.56800 40.96100
C  6.21300 51.01600 40.79100
C  9.74900 54.30400 40.10100
C  6.54000 57.97900 40.64800
C  2.95200 54.58400 41.29200
N  7.77500 52.87200 40.43600
C  7.50000 51.52400 40.50900
C  8.72200 50.72800 40.21700
C  9.84600 51.79500 40.23400
C  9.05900 53.10400 40.29000
C  10.79400 51.62100 41.49600
C  8.68700 49.95000 38.88200
C  8.50200 50.72800 37.51100
H  7.17400 50.65700 36.79500
N  7.89200 55.94200 40.41200
C  9.21400 55.64100 40.12000
C  9.93800 56.88900 39.94100
C  9.02400 57.89100 39.98600
C  7.72400 57.32200 40.35600
C  11.41800 56.82700 39.61700
C  9.26100 59.36000 39.64400
O  10.44200 59.76300 39.58400
C  8.19400 60.31500 39.31900
N  4.99100 56.07700 40.93200
C  5.25700 57.45100 40.98100
C  3.90100 58.20200 41.22200
C  2.80100 57.13500 41.16400
C  3.57600 55.79300 41.09300
C  4.08100 59.03000 42.46700
C  1.78200 57.26400 39.99400
C  0.32500 57.56400 40.38100
N  4.89500 53.13800 41.16300
C  3.52700 53.28000 41.37300
C  2.91400 51.98400 41.60300
C  3.97600 51.12400 41.47100
C  5.14000 51.81800 41.11600
C  1.45700 51.56300 41.90300
C  4.30400 49.74800 41.42700
O  3.57600 48.82900 41.72500
C  5.73800 49.55700 40.93600
C  5.65400 48.91200 39.57600
O  5.13100 49.42900 38.62000
O  6.28000 47.73800 39.67500
C  6.00900 47.02200 38.45600
H  10.83900 54.27400 40.03700
H  6.48500 59.07000 40.64100
H  1.91400 54.60900 41.62800
H  8.72700 50.09200 41.10300
H  10.41300 51.82800 39.30300
H  11.63300 51.03400 41.12300
H  10.26400 51.14200 42.32000
H  11.04900 52.57600 41.95600
H  8.08500 49.04900 38.99700
H  9.69900 49.59400 38.68500
H  9.13500 50.37200 36.69800
H  8.69700 51.79900 37.57000
H  12.10000 57.53200 40.09200
H  11.46700 57.08100 38.55800
H  11.80700 55.80900 39.65400
H  7.45300 59.68800 38.82200
H  8.50200 61.17000 38.71800
H  7.77000 60.76500 40.21600
H  3.83000 58.84700 40.34600
H  2.22400 56.99100 42.07700
H  4.21000 60.05600 42.12300
H  5.01700 58.77600 42.96400
H  3.18800 58.99200 43.09000
H  1.67900 56.26500 39.57000
H  2.12200 57.87500 39.15800
H  -0.10900 58.43600 39.89100
H  0.15300 57.61400 41.45700
H  -0.23700 56.66800 40.11900
H  1.32100 50.51700 42.17700
H  0.76800 51.65900 41.06400
H  1.21400 52.08800 42.82700
H  6.35200 48.86200 41.50900
H  5.04500 47.19300 37.97700
H  6.12600 46.01400 38.85300
H  6.86400 47.30200 37.84100
Mg 8.72700 48.40700 28.02000
C  7.17600 47.58000 30.97900
C  11.61200 48.84700 29.64400
C  10.17900 49.44600 25.17500
C  5.58900 48.60900 26.46800
N  9.25600 48.28500 30.10700
C  8.44000 47.96700 31.19600
C  9.21100 48.30900 32.50000
C  10.43100 49.13700 31.90700
C  10.46600 48.76000 30.42000
C  10.37900 50.67100 32.09800
C  9.51000 47.08100 33.44000
C  9.07500 47.27900 34.91400
H  9.50800 46.29000 35.99800
N  10.67400 48.70000 27.39600
C  11.74300 48.82500 28.23900
C  12.94500 48.79100 27.40200
C  12.56500 48.92000 26.06600
C  11.06100 48.97600 26.14400
C  14.27600 48.68700 28.08300
C  13.36800 49.02000 24.79200
O  12.80300 49.03500 23.74900
C  14.91300 48.97400 24.90900
N  7.99200 48.92000 26.13200
C  8.81200 49.50700 25.15700
C  8.05700 50.08900 24.00400
C  6.60900 49.58500 24.28200
C  6.68900 48.96000 25.72200
C  8.09200 51.66200 24.08600
C  6.13800 48.55300 23.19800
C  5.00200 49.07500 22.29300
N  6.74300 48.18100 28.56300
C  5.60100 48.15200 27.78600
C  4.53000 47.78600 28.64100
C  5.10900 47.48700 29.91100
C  6.45000 47.75200 29.79200
C  3.00200 47.66300 28.27400
C  4.78400 47.10300 31.28600
O  3.64800 46.83800 31.71400
C  6.15100 47.06000 31.97800
C  6.30600 45.74700 32.52600
O  6.93200 44.84100 31.94300
O  5.92100 45.75500 33.84000
C  6.43500 44.59800 34.63300
H  12.46300 49.06400 30.29200
H  10.64500 49.96300 24.33300
H  4.62600 48.59800 25.95200
H  8.56300 48.96200 33.08400
H  11.28300 48.81500 32.50600
H  9.56900 50.95400 32.77000
H  10.18600 51.24200 31.18900
H  11.32800 51.02400 32.50300
H  10.54700 46.76100 33.34200
H  8.88700 46.28300 33.03600
H  7.98600 47.25500 34.96400
H  9.27000 48.28500 35.28500
H  14.17500 48.41400 29.13400
H  14.75100 49.66700 28.11900
H  14.83000 47.85100 27.65800
H  15.23400 49.88000 25.42400
H  15.31100 48.83100 23.90500
H  15.33000 48.12800 25.45500
H  8.53700 49.82700 23.06200
H  5.91700 50.41600 24.41900
H  7.20900 52.18600 23.72100
H  8.87500 52.08200 23.45500
H  8.29800 51.88600 25.13300
H  6.00200 47.57100 23.65300
H  6.95300 48.33200 22.50800
H  5.07800 49.11000 21.20600
H  4.69900 50.07400 22.60800
H  4.17200 48.36900 22.30500
H  2.33700 47.64800 29.13800
H  2.89800 46.67900 27.81600
H  2.74900 48.39000 27.50200
H  6.02800 47.81100 32.75800
H  7.25300 44.85100 35.30700
H  6.64500 43.65600 34.12700
H  5.56100 44.40500 35.25600

