158

Mg 47.39400 24.55800 28.41100
C  48.49900 26.98200 30.89400
C  46.40300 22.47600 31.03800
C  47.02400 22.10400 26.13800
C  49.03100 26.53700 25.97600
N  47.38400 24.76400 30.83400
C  47.81600 25.87200 31.55300
C  47.51700 25.59100 33.01300
C  46.85700 24.11700 33.04600
C  46.82100 23.72700 31.58600
C  47.48200 23.08300 33.99500
C  46.94900 26.72800 33.76700
C  45.90100 26.57300 34.88900
H  46.15700 27.24500 36.24000
N  46.55800 22.63200 28.54400
C  46.26100 22.01000 29.70200
C  45.62700 20.72200 29.29600
C  45.80600 20.60400 27.84100
C  46.52100 21.85400 27.46100
C  44.97400 19.77400 30.28800
C  45.30200 19.50400 26.87400
O  45.51100 19.46300 25.66100
C  44.41600 18.41000 27.48800
N  47.64800 24.46400 26.38900
C  47.58500 23.23500 25.69600
C  48.04600 23.32300 24.24400
C  48.34900 24.91700 24.10800
C  48.39100 25.34700 25.59400
C  49.30000 22.46500 23.86700
C  47.50200 25.80300 23.11500
C  46.34000 26.67400 23.65200
N  48.47900 26.42300 28.32100
C  49.12500 27.05000 27.25500
C  49.70800 28.28900 27.72100
C  49.48300 28.29500 29.13000
C  48.74600 27.13800 29.42800
C  50.58300 29.17600 26.93200
C  49.76900 29.09200 30.23700
O  50.41600 30.12700 30.34600
C  49.01700 28.26500 31.44000
C  50.02000 28.17700 32.55200
O  50.58100 27.14300 32.86200
O  49.99500 29.33400 33.29700
C  50.67800 29.35800 34.60200
H  46.01500 21.80900 31.81000
H  47.00400 21.33900 25.35800
H  49.30800 27.21800 25.16900
H  48.45100 25.43500 33.55300
H  45.83800 24.20200 33.42400
H  48.06700 23.62500 34.73800
H  48.14100 22.40800 33.44700
H  46.62000 22.64500 34.49800
H  46.59700 27.43300 33.01300
H  47.76800 27.24900 34.26300
H  45.78100 25.50300 35.06100
H  44.89200 26.75400 34.51900
H  45.50600 18.82300 30.26500
H  43.96500 19.56500 29.93300
H  44.66700 20.18200 31.25100
H  44.85000 17.95500 28.37800
H  44.37700 17.63000 26.72900
H  43.47900 18.92400 27.70100
H  47.29700 23.02100 23.51200
H  49.33800 25.07800 23.67900
H  48.97800 21.54300 23.38300
H  49.96700 22.09200 24.64500
H  49.90000 22.99500 23.12800
H  47.02200 25.05500 22.48500
H  48.18500 26.44200 22.55600
H  46.18300 26.64500 24.73000
H  45.41400 26.24300 23.27100
H  46.39700 27.70600 23.30800
H  50.19600 29.45400 25.95200
H  51.54700 28.73500 26.68100
H  50.78700 30.07300 27.51800
H  48.18800 28.87800 31.79300
H  51.65300 28.87300 34.64800
H  50.04800 28.90800 35.36900
H  50.95300 30.36500 34.91600
Mg 9.36700 47.99800 26.17600
C  7.11400 48.69100 28.69000
C  11.86600 49.49400 28.07300
C  11.53700 47.89500 23.49800
C  6.79900 47.21000 24.09500
N  9.43400 48.92500 28.19800
C  8.40100 49.06000 29.06200
C  8.97600 49.50800 30.43200
C  10.36600 50.13600 30.10500
C  10.55600 49.49300 28.71800
C  10.50500 51.73300 30.05200
C  8.93500 48.38300 31.45200
C  8.23500 48.93300 32.75700
H  8.16000 47.95500 34.04600
N  11.40000 48.50300 25.91000
C  12.23900 49.01700 26.79300
C  13.62100 48.82900 26.25700
C  13.53100 48.47200 24.91400
C  12.09700 48.22900 24.72600
C  14.87400 49.09400 27.10200
C  14.66500 48.33500 23.87700
O  14.49500 47.98900 22.71500
C  16.10300 48.47300 24.23300
N  9.18700 47.70000 24.06600
C  10.19400 47.67800 23.18100
C  9.79400 47.17600 21.76700
C  8.25200 46.85500 21.99700
C  8.06100 47.25800 23.47200
C  9.98400 48.15700 20.67300
C  7.89600 45.28700 21.68500
C  6.62400 45.01300 20.91100
N  7.37200 47.90100 26.38000
C  6.43100 47.50300 25.43400
C  5.15100 47.63000 26.04500
C  5.39900 48.06300 27.34800
C  6.73900 48.32700 27.44700
C  3.86900 47.46600 25.40000
C  4.75000 48.43300 28.59300
O  3.54300 48.34900 28.84800
C  5.85300 48.78000 29.58000
C  5.87000 47.66000 30.50700
O  6.42100 46.57200 30.40200
O  5.05100 47.94400 31.59700
C  4.64500 46.86700 32.53400
H  12.70600 49.89200 28.64500
H  12.17000 47.60400 22.65700
H  5.93600 46.89600 23.50500
H  8.34500 50.31400 30.80700
H  11.08400 49.67100 30.78000
H  10.89200 52.02600 29.07600
H  11.40600 51.94500 30.62700
H  9.55200 52.21200 30.27800
H  9.91300 48.07500 31.82300
H  8.48600 47.49900 30.99900
H  7.16000 49.04200 32.61700
H  8.66400 49.88600 33.06700
H  14.61900 49.09200 28.16200
H  15.07700 50.13400 26.84400
H  15.64100 48.36900 26.83400
H  16.44500 47.58600 24.76600
H  16.21600 49.35800 24.85900
H  16.59600 48.64000 23.27500
H  10.32900 46.23000 21.68100
H  7.56800 47.45500 21.39700
H  9.32200 48.04200 19.81500
H  10.86700 47.89600 20.08900
H  10.18200 49.17200 21.02000
H  7.82400 44.75300 22.63200
H  8.72800 44.90600 21.09400
H  6.91300 44.73900 19.89600
H  5.95900 45.87600 20.87300
H  6.07000 44.24500 21.45300
H  3.99800 46.77100 24.57100
H  3.42600 48.40800 25.07700
H  3.25200 46.99500 26.16600
H  5.78000 49.72200 30.12500
H  4.82300 47.26700 33.53300
H  5.31300 46.01200 32.43300
H  3.58500 46.66100 32.38600

