158

Mg 30.45200 57.92100 39.69200
C  27.95500 55.82800 38.62100
C  32.70500 55.31900 38.76600
C  32.88200 60.09800 40.09600
C  27.99600 60.39600 40.10700
N  30.38900 55.91500 38.42700
C  29.17600 55.30900 38.26600
C  29.33900 53.80700 37.89100
C  30.90300 53.59500 38.02400
C  31.36500 54.95700 38.44700
C  31.53900 52.44100 38.89100
C  28.78500 53.36700 36.47300
C  29.11800 54.24900 35.25000
H  27.83900 54.76900 34.53100
N  32.48900 57.73100 39.51200
C  33.21100 56.61100 39.11700
C  34.63200 56.94500 39.31200
C  34.69700 58.30900 39.65200
C  33.31900 58.73900 39.81800
C  35.73700 55.96100 39.10600
C  35.97300 59.02700 39.99900
O  37.05300 58.54000 39.65200
C  36.12000 60.32200 40.86400
N  30.46000 60.02000 39.87200
C  31.59500 60.69500 40.09200
C  31.34700 62.20100 40.31600
C  29.78400 62.25900 40.46500
C  29.36700 60.78000 40.25600
C  32.12700 62.87100 41.49800
C  29.21700 63.12100 39.38900
C  28.19700 64.27700 39.81500
N  28.39300 58.09500 39.48700
C  27.55400 59.19400 39.70400
C  26.19500 58.74600 39.48700
C  26.31700 57.43000 39.04800
C  27.65200 57.10100 39.12500
C  24.91500 59.47000 39.65100
C  25.54600 56.31500 38.71000
O  24.35800 56.13000 38.70900
C  26.61500 55.23400 38.33700
C  26.29900 54.02600 39.20100
O  26.74500 53.72400 40.32900
O  25.36400 53.29000 38.55400
C  24.62100 52.26100 39.38000
H  33.47500 54.55200 38.65800
H  33.59000 60.82400 40.49900
H  27.20500 61.10300 40.36600
H  29.02500 53.14100 38.69500
H  31.33500 53.54800 37.02500
H  30.77500 51.67500 39.02000
H  31.88300 52.82500 39.85200
H  32.34500 52.00200 38.30200
H  27.70100 53.25600 36.51400
H  29.06000 52.32200 36.33200
H  29.64200 53.63200 34.52100
H  29.70700 55.11500 35.55200
H  36.24200 56.08400 38.14800
H  35.43300 54.92000 39.21800
H  36.48500 56.14000 39.87900
H  35.49000 60.11400 41.72900
H  35.79400 61.09200 40.16500
H  37.13300 60.50300 41.22200
H  31.77300 62.66700 39.42700
H  29.47000 62.54300 41.46900
H  32.67500 62.16700 42.12400
H  31.34700 63.48500 41.94800
H  32.83900 63.61200 41.13600
H  28.63800 62.50800 38.69700
H  29.96600 63.59700 38.75600
H  27.13900 64.21200 39.56000
H  28.49300 65.14600 39.22700
H  28.19400 64.44600 40.89100
H  24.84100 60.55000 39.52300
H  24.51700 59.32200 40.65500
H  24.16200 59.07100 38.97000
H  26.48900 54.92700 37.29900
H  25.34000 51.44300 39.32300
H  23.84100 51.91400 38.70200
H  24.30200 52.61300 40.36100
Mg -1.94800 34.70900 26.49600
C  -3.93100 33.30200 29.08300
C  -0.69700 36.92600 28.78200
C  -0.60400 36.32000 23.89400
C  -3.70600 32.82000 24.23200
N  -2.37500 35.14200 28.71300
C  -3.06700 34.34900 29.53200
C  -2.81500 34.71900 31.00700
C  -1.85800 36.02300 30.90600
C  -1.59300 36.06900 29.41000
C  -2.29800 37.34900 31.46400
C  -2.17000 33.54300 31.81000
C  -1.57000 33.90000 33.20200
H  -2.49200 33.70700 34.41700
N  -0.83100 36.38400 26.36100
C  -0.39000 37.15900 27.41300
C  0.54500 38.08800 26.88200
C  0.62500 37.89100 25.47900
C  -0.28100 36.78400 25.16800
C  1.21700 39.16100 27.67800
C  1.57200 38.58800 24.51200
O  1.35800 38.57100 23.26900
C  2.81600 39.27500 25.07900
N  -2.15100 34.58600 24.31200
C  -1.51400 35.36700 23.51000
C  -1.74500 35.01500 22.01200
C  -2.81600 33.90000 22.12100
C  -2.91300 33.73900 23.64500
C  -2.10900 36.28100 21.12200
C  -2.48200 32.53700 21.45300
C  -1.16500 31.90000 22.02700
N  -3.51400 33.37300 26.56200
C  -4.15700 32.70300 25.54200
C  -5.14700 31.75500 26.03000
C  -5.08000 31.98800 27.39200
C  -4.16000 32.96000 27.70600
C  -6.05100 30.97000 25.26700
C  -5.53600 31.48200 28.71700
O  -6.22900 30.58800 28.94900
C  -4.85400 32.35200 29.82700
C  -5.75800 33.17000 30.69900
O  -6.68600 33.79600 30.28300
O  -5.46800 32.96600 32.01300
C  -6.44800 33.55900 32.99800
H  -0.04400 37.49200 29.45000
H  -0.36800 36.94000 23.02700
H  -4.15100 32.11100 23.53100
H  -3.75500 34.98700 31.49000
H  -0.82700 35.93300 31.24800
H  -1.48200 37.81700 32.01500
H  -3.13500 37.25200 32.15500
H  -2.53500 37.91200 30.56200
H  -1.37500 33.22400 31.13600
H  -2.95000 32.83800 32.09700
H  -1.46800 34.98600 33.19800
H  -0.62200 33.37100 33.30100
H  0.72700 39.33400 28.63600
H  1.24600 40.12300 27.16600
H  2.20900 38.78300 27.92700
H  2.73000 40.36100 25.11900
H  3.49900 39.04400 24.26100
H  3.28600 38.73800 25.90200
H  -0.86800 34.57500 21.53800
H  -3.79200 34.22400 21.75900
H  -2.12500 37.19800 21.71100
H  -3.08100 36.20400 20.63400
H  -1.45100 36.47400 20.27500
H  -2.25700 32.84600 20.43200
H  -3.29200 31.80900 21.49700
H  -0.40200 31.96900 21.25200
H  -1.43900 30.87700 22.28500
H  -0.77300 32.28400 22.96800
H  -5.54600 30.00600 25.20900
H  -6.13200 31.36400 24.25400
H  -7.06900 30.84800 25.63700
H  -4.23300 31.73100 30.47300
H  -7.32600 32.92200 33.09900
H  -6.85700 34.48800 32.59900
H  -6.12000 33.68400 34.03000

