158

Mg 7.75600 2.17600 28.13800
C  9.42600 0.97700 30.99400
C  5.89100 4.13300 30.12500
C  5.98600 2.97300 25.45100
C  9.66500 0.03900 26.21000
N  7.62500 2.37700 30.37600
C  8.50600 1.97800 31.30600
C  8.25500 2.78100 32.66400
C  7.03700 3.66500 32.29000
C  6.79000 3.35900 30.84400
C  5.76400 3.29700 33.17300
C  9.53100 3.62500 33.12500
C  10.14400 3.41800 34.52400
H  9.80900 4.50600 35.58200
N  6.26600 3.53300 27.86400
C  5.62100 4.26800 28.76300
C  4.51000 5.08000 28.12900
C  4.52900 4.64400 26.75100
C  5.61700 3.67900 26.65600
C  3.65100 6.03500 28.96000
C  3.66200 5.17000 25.59100
O  3.69800 4.79700 24.41500
C  2.75200 6.27700 26.00800
N  7.79100 1.59000 26.09000
C  7.00200 2.08800 25.13600
C  7.14800 1.43900 23.78300
C  8.45900 0.61200 24.00900
C  8.69100 0.73900 25.57700
C  6.00600 0.57000 23.34400
C  9.69200 1.26500 23.24300
C  9.99700 0.80900 21.81700
N  9.18800 0.72600 28.46800
C  9.89900 -0.02500 27.60000
C  10.75800 -0.96400 28.24200
C  10.62200 -0.48900 29.57900
C  9.65200 0.47400 29.66100
C  11.48400 -2.02400 27.54900
C  11.09200 -0.80200 30.86900
O  11.85300 -1.70100 31.25300
C  10.47300 0.23100 31.81400
C  10.01800 -0.41800 33.09900
O  8.88900 -0.82000 33.33200
O  10.98700 -0.15200 34.11100
C  10.49000 -0.42800 35.47800
H  5.37700 4.79400 30.82600
H  5.25600 3.03700 24.64100
H  10.11300 -0.61900 25.46300
H  8.03400 1.95800 33.34400
H  7.27800 4.70500 32.51200
H  6.10300 2.63400 33.96800
H  4.89600 2.88600 32.65600
H  5.39600 4.21900 33.62200
H  9.40900 4.68400 32.90100
H  10.21500 3.29800 32.34200
H  11.23200 3.35200 34.52400
H  9.82800 2.45600 34.92700
H  3.80300 5.91700 30.03300
H  2.60800 5.80400 28.73900
H  3.84500 7.08000 28.72000
H  3.22300 7.04100 26.62600
H  1.88900 5.85700 26.52400
H  2.34300 6.67400 25.07900
H  7.28200 2.31500 23.14700
H  8.27000 -0.42900 23.74700
H  5.73100 0.98100 22.37200
H  5.17700 0.62600 24.04900
H  6.16600 -0.50200 23.22900
H  10.55900 1.13400 23.88900
H  9.56000 2.34300 23.16100
H  9.34700 0.06600 21.35500
H  11.04100 0.49600 21.81200
H  9.82500 1.67700 21.18100
H  10.77400 -2.84700 27.45900
H  12.46100 -2.24400 27.97800
H  11.61400 -1.76400 26.49800
H  11.25300 0.92600 32.12500
H  9.83500 0.38700 35.78500
H  11.36400 -0.51000 36.12400
H  9.92500 -1.36100 35.47700
Mg -12.69500 17.12700 41.39300
C  -9.87600 15.04900 40.96300
C  -10.93800 19.65100 39.85800
C  -15.68500 18.92500 40.97200
C  -14.58300 14.41100 42.40700
N  -10.63900 17.26100 40.51400
C  -9.65400 16.36000 40.57900
C  -8.28200 16.89000 40.07400
C  -8.58600 18.40900 39.74600
C  -10.17900 18.46100 40.05500
C  -7.72500 19.45500 40.54600
C  -7.76900 16.15000 38.77600
C  -6.17900 16.25700 38.66500
H  -5.54100 16.10400 37.28400
N  -13.19900 19.05100 40.52900
C  -12.31000 19.93600 39.97800
C  -13.07700 21.16800 39.65700
C  -14.44000 21.00700 40.00000
C  -14.48900 19.57700 40.43400
C  -12.42000 22.36100 39.14000
C  -15.51300 22.03600 39.78000
O  -15.25300 23.13000 39.27000
C  -16.88000 21.81700 40.20100
N  -14.84400 16.73600 41.68200
C  -15.84500 17.63000 41.51300
C  -17.20300 17.07300 41.91900
C  -16.89100 15.58700 42.29200
C  -15.35400 15.51100 42.10600
C  -18.08500 17.92700 42.91500
C  -17.66600 14.42300 41.60200
C  -18.14000 13.26600 42.47900
N  -12.37700 15.15800 41.74400
C  -13.21700 14.17300 42.19100
C  -12.43900 12.84200 42.35600
C  -11.14000 13.21600 41.92000
C  -11.17200 14.57300 41.52500
C  -12.96100 11.54700 42.83900
C  -9.80500 12.76000 41.74200
O  -9.43000 11.60900 41.97200
C  -8.87600 13.93100 41.18500
C  -7.92100 14.39300 42.21200
O  -8.18400 14.89300 43.29000
O  -6.62200 14.01000 41.78400
C  -5.48600 14.55100 42.56200
H  -10.32700 20.48400 39.50500
H  -16.64900 19.40200 40.78300
H  -15.17400 13.55600 42.74300
H  -7.55600 16.75900 40.87600
H  -8.43700 18.69100 38.70400
H  -8.38300 19.93600 41.27000
H  -7.29300 20.19600 39.87400
H  -6.96500 18.88100 41.07600
H  -8.20200 16.56500 37.86600
H  -8.00900 15.09000 38.85300
H  -5.67500 15.53500 39.30700
H  -6.04700 17.30500 38.93300
H  -12.56600 23.24500 39.76100
H  -12.84000 22.61000 38.16500
H  -11.36800 22.26400 38.87300
H  -16.92000 21.57300 41.26200
H  -17.31900 21.01900 39.60100
H  -17.45000 22.73400 40.05000
H  -17.71400 16.96000 40.96300
H  -17.13100 15.40600 43.34000
H  -18.09000 17.26300 43.77900
H  -19.11300 18.09300 42.59100
H  -17.57900 18.82000 43.28200
H  -17.11200 13.93200 40.80200
H  -18.47700 14.97900 41.13200
H  -17.81400 13.43500 43.50500
H  -17.86000 12.28300 42.10200
H  -19.22600 13.28500 42.57300
H  -13.86200 11.57800 43.45200
H  -12.15200 11.20200 43.48300
H  -13.08000 11.03200 41.88500
H  -8.25800 13.57700 40.36000
H  -5.32500 15.62500 42.46600
H  -4.70900 14.01700 42.01600
H  -5.41400 14.24200 43.60500

