158

Mg 41.61900 40.64100 26.23000
C  40.77100 43.20400 28.71200
C  42.83800 38.82900 28.76600
C  42.57900 38.54500 23.97700
C  40.59100 43.03700 23.93200
N  41.83200 40.99800 28.42800
C  41.29900 41.97400 29.21800
C  41.45900 41.60800 30.72300
C  42.35300 40.32600 30.71500
C  42.27300 40.00800 29.21300
C  43.82700 40.66200 31.28100
C  40.04800 41.52500 31.41400
C  39.80400 42.28600 32.63000
H  39.85700 41.43000 33.89400
N  42.64900 38.91700 26.39300
C  43.05100 38.32500 27.51500
C  43.76100 37.06300 27.18500
C  43.68800 36.89200 25.73400
C  42.98700 38.16800 25.28000
C  44.38600 36.18300 28.27900
C  44.13300 35.79000 24.82400
O  44.03100 35.92200 23.60800
C  44.68300 34.50600 25.45700
N  41.83800 40.89100 24.24800
C  42.10700 39.77500 23.51200
C  41.68000 39.95500 22.02000
C  41.10000 41.47000 22.03900
C  41.14800 41.85300 23.53000
C  42.77700 39.66100 20.92000
C  39.60800 41.63600 21.45700
C  39.35300 42.36700 20.12100
N  40.96000 42.74500 26.26400
C  40.57200 43.53300 25.24200
C  39.96000 44.77300 25.69900
C  40.01800 44.68800 27.09900
C  40.68500 43.47500 27.33300
C  39.25200 45.89400 24.86800
C  39.72400 45.39600 28.35000
O  39.13100 46.49500 28.51200
C  40.18400 44.38200 29.50400
C  41.14100 45.07200 30.52800
O  42.28500 44.83400 30.52400
O  40.45300 46.00300 31.32600
C  41.42000 46.65600 32.28100
H  43.02700 38.11000 29.56500
H  42.69600 37.86100 23.13400
H  40.02900 43.64800 23.22300
H  42.11600 42.34800 31.18100
H  41.77700 39.61400 31.30700
H  44.56800 40.20200 30.62800
H  43.87200 40.13000 32.23100
H  44.02800 41.72900 31.37400
H  40.02500 40.45200 31.60600
H  39.19700 41.64600 30.74400
H  38.76900 42.60800 32.51700
H  40.53600 43.09200 32.68400
H  45.42700 35.87800 28.17300
H  43.87800 35.22500 28.39100
H  44.27200 36.63900 29.26200
H  45.06800 33.86200 24.66600
H  43.84200 34.07400 25.99900
H  45.53600 34.72800 26.09800
H  40.92700 39.22400 21.72400
H  41.78600 42.09800 21.47100
H  43.66000 39.32600 21.46400
H  42.95600 40.46100 20.20100
H  42.48000 38.83500 20.27400
H  39.02000 42.14600 22.22000
H  39.16900 40.65100 21.30000
H  38.99000 41.61700 19.41800
H  40.28200 42.77600 19.72300
H  38.61000 43.16200 20.05900
H  38.87000 46.70100 25.49300
H  38.50600 45.35300 24.28500
H  39.97100 46.33200 24.17600
H  39.29000 44.07000 30.04300
H  40.86500 47.36900 32.89000
H  42.14600 47.33700 31.83800
H  41.95100 46.01900 32.98800
Mg -0.30000 44.18500 26.31800
C  1.47900 43.88200 29.38800
C  -3.17500 43.61000 28.00800
C  -1.68000 43.77100 23.32600
C  2.93100 44.57900 24.77700
N  -0.78600 43.75700 28.39600
C  0.10500 43.71900 29.45800
C  -0.71500 43.44700 30.74800
C  -2.19900 43.37000 30.32900
C  -2.03000 43.54000 28.83800
C  -2.94000 42.01100 30.72400
C  -0.50700 44.47800 31.98100
C  -0.01900 44.01800 33.39900
H  -0.57400 42.68100 33.95500
N  -2.20000 43.83100 25.70700
C  -3.30900 43.65400 26.58600
C  -4.46600 43.53100 25.73400
C  -4.04800 43.47100 24.32400
C  -2.62900 43.71000 24.39000
C  -5.83600 43.31700 26.37200
C  -4.92600 43.17400 23.08700
O  -4.37200 43.04900 22.00400
C  -6.36300 42.81600 23.19300
N  0.49900 44.18000 24.39100
C  -0.28500 44.07200 23.30300
C  0.56400 43.96800 22.05600
C  1.93900 44.56700 22.45400
C  1.82600 44.43000 23.96500
C  0.75600 42.48400 21.62700
C  2.28200 45.99500 21.94500
C  1.14100 47.01600 21.89400
N  1.78800 44.27000 26.90700
C  2.94900 44.54400 26.22500
C  4.02200 44.51900 27.08300
C  3.51800 44.23200 28.34600
C  2.16900 44.13900 28.19600
C  5.55700 44.54000 26.77300
C  3.79400 43.98400 29.74100
O  4.87800 43.92800 30.28200
C  2.51200 43.74600 30.45500
C  2.53200 42.48500 31.21400
O  2.04400 41.42300 30.84400
O  3.05400 42.67000 32.46600
C  3.03900 41.45300 33.33300
H  -4.06900 43.80400 28.60400
H  -2.04600 43.51700 22.32900
H  3.87600 44.62500 24.23200
H  -0.38300 42.43000 30.95700
H  -2.80500 44.23800 30.58700
H  -3.88600 42.23100 31.21900
H  -2.33000 41.36200 31.35200
H  -3.21800 41.46400 29.82300
H  -1.46500 44.97800 32.12000
H  0.04800 45.37600 31.71100
H  -0.33600 44.72600 34.16400
H  1.06600 44.12100 33.41700
H  -6.19400 42.29000 26.29400
H  -6.61700 43.95400 25.95600
H  -5.84300 43.66000 27.40600
H  -6.39700 41.84900 23.69500
H  -6.84500 42.63300 22.23300
H  -6.95200 43.52300 23.77700
H  0.11500 44.52200 21.23200
H  2.80700 43.97400 22.16400
H  1.79200 42.15900 21.71800
H  0.34600 42.40700 20.62000
H  0.10100 41.89000 22.26500
H  2.79700 45.91300 20.98800
H  2.99100 46.33800 22.69800
H  0.25200 46.53800 22.30700
H  0.95800 47.51400 20.94200
H  1.31700 47.76600 22.66500
H  6.15900 44.55800 27.68200
H  5.69100 45.50800 26.29000
H  5.77600 43.70100 26.11400
H  2.42200 44.61400 31.10800
H  2.28600 41.40900 34.11900
H  3.99600 41.34100 33.84500
H  2.88800 40.49000 32.84500

