158

Mg 8.38600 3.10300 27.58700
C  10.19100 1.78300 30.45500
C  6.53200 5.07700 29.90500
C  6.52100 3.96000 25.08700
C  10.14600 0.68300 25.72000
N  8.42600 3.32800 29.93100
C  9.32900 2.82500 30.85300
C  9.27400 3.60300 32.12000
C  8.03900 4.59200 31.95200
C  7.60700 4.34500 30.50700
C  6.90900 4.45500 32.99700
C  10.61700 4.39900 32.36000
C  11.21200 4.12400 33.73100
H  10.85000 5.02600 34.92900
N  6.82200 4.37400 27.47000
C  6.14800 5.01700 28.47200
C  5.03900 5.72000 27.92600
C  5.06500 5.57900 26.53000
C  6.21000 4.66100 26.25700
C  4.02900 6.37200 28.79500
C  4.10100 6.25100 25.53300
O  4.10100 5.92200 24.36000
C  3.22700 7.33700 25.86200
N  8.48900 2.56200 25.69200
C  7.51800 2.95300 24.86700
C  7.83100 2.39000 23.40000
C  9.01300 1.48400 23.54000
C  9.27500 1.56100 25.07300
C  6.51500 1.73100 22.83600
C  10.30200 1.87200 22.80600
C  10.71400 1.09200 21.54000
N  9.84600 1.49800 27.93000
C  10.43000 0.63800 27.03500
C  11.33800 -0.23100 27.70000
C  11.32500 0.23000 29.06900
C  10.32000 1.24800 29.14600
C  12.10800 -1.25900 27.04500
C  11.97400 0.11000 30.31500
O  12.86800 -0.65000 30.67300
C  11.22800 1.06600 31.32000
C  10.52800 0.21800 32.29400
O  9.78100 -0.71600 32.11900
O  10.93000 0.59400 33.49800
C  10.32800 -0.06000 34.69700
H  6.09900 5.79000 30.61000
H  5.97000 4.23700 24.18600
H  10.64500 -0.00700 25.03800
H  9.03500 3.03300 33.01800
H  8.36300 5.63300 31.92300
H  6.00700 4.17200 32.45500
H  6.78100 5.42300 33.48100
H  7.15000 3.67200 33.71500
H  10.46100 5.47400 32.26600
H  11.36600 4.22300 31.58700
H  12.29000 3.97000 33.68200
H  10.80600 3.18600 34.10900
H  4.10400 7.44500 28.61800
H  4.08900 6.05300 29.83600
H  3.01100 6.11900 28.49900
H  3.80100 8.12600 26.34700
H  2.35900 6.89200 26.34800
H  2.99900 7.80000 24.90200
H  7.95800 3.24500 22.73700
H  8.68000 0.46800 23.32500
H  5.80900 1.71200 23.66600
H  6.69300 0.74600 22.40400
H  5.98800 2.34900 22.10900
H  11.10700 1.84100 23.54100
H  10.23500 2.92600 22.53700
H  10.90700 1.83200 20.76300
H  9.95400 0.37600 21.22600
H  11.61100 0.48100 21.63400
H  11.44000 -2.06500 26.73900
H  12.93300 -1.70400 27.60100
H  12.51300 -0.91700 26.09200
H  11.81800 1.88300 31.73400
H  9.30400 -0.41500 34.57400
H  10.22500 0.76800 35.39800
H  11.03000 -0.68100 35.25300
Mg 46.28200 16.09400 28.95800
C  44.40100 15.57200 31.87300
C  48.22400 18.14800 30.78500
C  47.75200 16.97300 26.10300
C  43.66700 14.59500 27.15000
N  46.15400 16.87900 31.10900
C  45.51700 16.34400 32.16400
C  46.06600 16.79500 33.50800
C  47.10500 17.84400 33.08500
C  47.15400 17.66300 31.52300
C  46.93700 19.34900 33.54400
C  46.43800 15.64600 34.45300
C  46.37700 15.89600 35.99000
H  46.44000 17.29900 36.54500
N  47.86100 17.27000 28.53900
C  48.53300 17.99400 29.40900
C  49.69700 18.55800 28.72900
C  49.60100 18.22900 27.41400
C  48.40300 17.43900 27.29800
C  50.73600 19.19700 29.59900
C  50.65400 18.53800 26.29600
O  50.47700 18.13900 25.15400
C  51.90000 19.33000 26.62400
N  45.81600 15.74800 26.94500
C  46.59600 16.21300 25.95600
C  46.01300 15.78800 24.60100
C  44.88300 14.81200 24.97200
C  44.71600 15.14300 26.42200
C  45.61400 17.07900 23.82200
C  45.13300 13.37800 24.57400
C  46.01800 12.55300 25.48300
N  44.44200 15.17200 29.40300
C  43.45700 14.58200 28.50000
C  42.37600 14.11500 29.30800
C  42.71600 14.40800 30.65700
C  43.91300 15.13300 30.61800
C  41.03200 13.56400 28.77400
C  42.23900 14.37900 32.02600
O  41.23500 13.97600 32.59100
C  43.29400 15.22800 32.81300
C  42.72900 16.43300 33.48200
O  42.30000 17.37100 32.84200
O  42.74000 16.27900 34.84500
C  42.07500 17.37400 35.49900
H  49.03600 18.56100 31.38800
H  48.25100 17.12400 25.14400
H  42.86400 14.05600 26.64200
H  45.23600 17.30100 34.00200
H  48.07200 17.56700 33.50700
H  47.88100 19.70600 33.95600
H  46.11000 19.48000 34.24100
H  46.68300 19.98400 32.69500
H  47.47700 15.32500 34.38100
H  45.84200 14.82400 34.05500
H  47.02400 15.24800 36.58200
H  45.38500 15.51800 36.23700
H  50.28900 19.67900 30.46900
H  51.37300 19.95300 29.13800
H  51.38600 18.37500 29.89900
H  52.67300 19.20100 25.86600
H  52.45200 18.72500 27.34300
H  51.65200 20.29500 27.06600
H  46.86900 15.41300 24.04000
H  43.94000 15.12600 24.52400
H  44.66300 17.41900 24.23200
H  45.47600 16.97500 22.74600
H  46.34200 17.86900 24.00600
H  45.49800 13.24500 23.55500
H  44.10200 13.02600 24.53400
H  46.60600 13.18900 26.14400
H  46.66200 11.77900 25.06700
H  45.28300 12.08300 26.13700
H  40.32900 13.98500 29.49200
H  41.04500 12.47500 28.72700
H  40.74700 13.97200 27.80500
H  43.62900 14.60500 33.64200
H  41.88700 17.30700 36.57000
H  41.07100 17.45400 35.08100
H  42.67100 18.27300 35.34300

