158

Mg 35.65500 3.00300 30.41400
C  33.08700 3.92700 32.76700
C  37.77400 2.81700 33.20000
C  38.09000 2.45900 28.29800
C  33.31400 3.21700 27.74700
N  35.41000 3.42900 32.80300
C  34.28700 3.58800 33.46700
C  34.46900 3.65400 34.99200
C  36.02000 3.47700 35.11800
C  36.44200 3.19500 33.65900
C  36.75600 4.75100 35.79000
C  33.58500 2.61900 35.76100
C  33.97900 2.26500 37.16800
H  34.55700 3.40600 38.04400
N  37.68900 2.77900 30.67200
C  38.33200 2.55200 31.86800
C  39.68500 2.17400 31.56100
C  39.81400 2.06100 30.14800
C  38.56200 2.44200 29.64400
C  40.85300 1.84600 32.52700
C  41.00600 1.65300 29.26100
O  41.03000 1.84000 28.02000
C  42.18900 1.00800 29.97700
N  35.66000 2.98100 28.26400
C  36.86700 2.74600 27.70600
C  36.74400 2.82100 26.15000
C  35.13100 2.81700 26.01500
C  34.67100 2.98900 27.44300
C  37.43200 4.04900 25.51200
C  34.66900 1.51400 25.29400
C  33.75400 1.76100 24.06800
N  33.67200 3.50600 30.26300
C  32.89500 3.51000 29.06600
C  31.53400 3.84100 29.51800
C  31.58100 4.04100 30.89500
C  32.91200 3.87300 31.34500
C  30.37400 3.80500 28.55300
C  30.79100 4.38500 32.03100
O  29.58900 4.69800 32.13500
C  31.71900 4.24100 33.24900
C  31.69400 5.44600 34.07800
O  32.35900 6.46300 33.78900
O  30.99600 5.35700 35.23500
C  31.19000 6.45000 36.25700
H  38.46400 2.69300 34.03800
H  38.84300 2.26100 27.53200
H  32.54700 3.16800 26.97100
H  34.15600 4.66800 35.23800
H  36.42600 2.67500 35.73500
H  37.46900 4.47100 36.56600
H  36.01900 5.47600 36.13500
H  37.39600 5.21400 35.03900
H  33.83900 1.72600 35.19000
H  32.51400 2.80600 35.68600
H  34.66500 1.42100 37.24700
H  33.01300 1.98700 37.58700
H  41.77300 2.41500 32.39100
H  40.91400 0.76800 32.67400
H  40.50300 2.26200 33.47200
H  41.97600 0.30100 30.77900
H  42.77300 1.84100 30.37000
H  42.87100 0.55000 29.26100
H  37.25600 1.96300 25.71500
H  34.66600 3.64900 25.48700
H  36.68000 4.73900 25.13000
H  38.05500 3.77700 24.66000
H  37.99900 4.68500 26.19200
H  34.03100 0.99400 26.00900
H  35.47100 0.82200 25.03600
H  34.33100 1.39700 23.21800
H  33.42700 2.79500 23.96300
H  32.84100 1.17900 24.19700
H  30.63000 4.52200 27.77300
H  29.38300 3.86700 29.00300
H  30.44100 2.88700 27.97000
H  31.28300 3.45100 33.85900
H  31.56600 7.39000 35.85500
H  31.79700 6.19400 37.12500
H  30.19300 6.61400 36.66700
Mg 41.09700 8.94500 29.39800
C  43.32800 10.17200 31.82300
C  38.98400 7.90800 32.08500
C  39.12100 7.51100 27.23900
C  43.64000 9.43800 26.98200
N  41.22900 8.97900 31.69000
C  42.18600 9.57900 32.44800
C  41.77000 9.64300 33.98500
C  40.55500 8.68400 34.02700
C  40.20900 8.51600 32.49900
C  40.79000 7.29500 34.77800
C  41.69200 11.06600 34.60500
C  40.96300 11.10200 35.93600
H  41.56100 11.83600 37.17400
N  39.32000 7.89400 29.60900
C  38.57000 7.61300 30.73200
C  37.35400 6.85500 30.30700
C  37.26200 6.96000 28.89100
C  38.62900 7.49200 28.53300
C  36.33900 6.27100 31.37300
C  36.12300 6.77700 28.00700
O  36.11700 6.78200 26.77500
C  34.69200 6.51500 28.63500
N  41.31700 8.48600 27.42600
C  40.30200 7.96700 26.62000
C  40.64700 7.91000 25.12700
C  41.97700 8.73100 25.15100
C  42.36300 8.85400 26.58500
C  40.76500 6.45300 24.69500
C  41.92400 10.07300 24.56000
C  42.96700 10.63400 23.73400
N  43.10000 9.72300 29.33700
C  44.02700 9.84600 28.31400
C  45.19900 10.46400 28.80000
C  44.99800 10.67200 30.15600
C  43.69400 10.10400 30.45300
C  46.48500 10.97100 28.06200
C  45.44800 11.24700 31.32700
O  46.45200 11.96300 31.51600
C  44.43100 10.90300 32.51900
C  45.10200 10.17100 33.52800
O  45.24900 8.97100 33.52500
O  45.36500 10.96600 34.58300
C  45.84000 10.30800 35.74600
H  38.25000 7.65400 32.85200
H  38.48300 7.18000 26.41700
H  44.20400 9.49100 26.04900
H  42.62400 9.08300 34.36600
H  39.72100 9.16100 34.54100
H  41.75600 7.23400 35.28000
H  40.77400 6.45200 34.08700
H  39.96500 7.07300 35.45400
H  40.97500 11.63600 34.01600
H  42.67100 11.54500 34.62400
H  40.75000 10.08900 36.27600
H  39.98900 11.58700 35.86800
H  36.64200 6.26100 32.42000
H  36.11600 5.23200 31.13000
H  35.33800 6.66700 31.20200
H  34.32200 7.45800 29.03700
H  34.57400 5.75300 29.40500
H  34.02900 6.20000 27.82800
H  39.94200 8.53000 24.57300
H  42.62400 8.08400 24.55700
H  39.75100 6.14500 24.43800
H  41.15300 5.89800 25.55000
H  41.34000 6.22700 23.79800
H  41.52100 10.79800 25.26800
H  41.10200 9.91300 23.86300
H  42.61600 10.70300 22.70400
H  43.90000 10.07100 23.77400
H  43.03400 11.67600 24.04400
H  46.72300 12.01000 28.28800
H  46.40300 10.95500 26.97600
H  47.27300 10.29600 28.39700
H  44.20900 11.90300 32.89100
H  45.01800 9.76100 36.20900
H  46.14100 10.92300 36.59400
H  46.67700 9.64400 35.53000

