158

Mg 29.84000 59.06300 39.85100
C  27.19200 57.42600 38.45200
C  31.92400 56.45700 38.95200
C  32.60100 61.06800 40.12200
C  27.82000 62.05700 39.94400
N  29.55000 57.14100 38.75900
C  28.38800 56.62800 38.34600
C  28.48700 55.17900 37.85100
C  29.96300 54.86800 38.41600
C  30.55200 56.22500 38.67300
C  29.90300 54.03900 39.71200
C  28.30800 55.18200 36.27300
C  27.23000 54.31100 35.72000
H  26.32500 54.96200 34.66600
N  31.96200 58.71000 39.74200
C  32.63300 57.62600 39.34400
C  34.02900 57.73800 39.57800
C  34.31100 59.03200 40.00900
C  32.91100 59.65400 39.99500
C  35.01700 56.66400 39.21000
C  35.73000 59.60200 40.32800
O  36.70900 58.88100 40.13500
C  35.91500 60.94800 40.88700
N  30.06000 61.22600 40.14000
C  31.37600 61.71300 40.16900
C  31.29100 63.25900 40.21900
C  29.78300 63.55600 40.38200
C  29.16500 62.21100 40.05800
C  32.09200 63.89600 41.41900
C  29.18500 64.79000 39.57600
C  28.95800 66.07300 40.37600
N  27.85100 59.55600 39.54800
C  27.11400 60.80000 39.67700
C  25.71300 60.49400 39.35300
C  25.70400 59.16900 38.94400
C  27.06200 58.68500 38.97900
C  24.59900 61.58700 39.21900
C  24.81700 58.13000 38.37700
O  23.57300 58.10900 38.18300
C  25.71200 56.89600 38.14000
C  25.43500 55.72200 39.10700
O  25.91700 55.59500 40.25300
O  24.62300 54.82900 38.46500
C  24.36600 53.62600 39.32400
H  32.45900 55.50900 38.86600
H  33.47600 61.72100 40.14300
H  27.22200 62.95800 40.09200
H  27.68400 54.60500 38.31500
H  30.53700 54.27100 37.70600
H  29.19700 54.48900 40.41000
H  30.90500 54.09500 40.13800
H  29.66500 52.97900 39.62400
H  29.27100 55.02800 35.78700
H  28.06400 56.19300 35.94700
H  26.59700 53.94100 36.52700
H  27.75700 53.51100 35.19900
H  35.74800 56.64500 40.01900
H  35.45600 56.67600 38.21300
H  34.47600 55.71800 39.22700
H  36.93800 61.05000 41.25000
H  35.26600 61.21200 41.72200
H  35.76700 61.62000 40.04100
H  31.59800 63.65200 39.25000
H  29.53700 63.74900 41.42600
H  31.55200 64.53800 42.11500
H  33.00000 64.35300 41.02300
H  32.45500 63.06600 42.02500
H  28.30000 64.48600 39.01700
H  29.88200 65.10100 38.79800
H  29.60300 66.86700 39.99800
H  29.26600 65.98500 41.41800
H  27.88000 66.20700 40.46200
H  25.07400 62.56400 39.12900
H  24.00800 61.52500 40.13300
H  23.91900 61.47200 38.37500
H  25.46400 56.58000 37.12700
H  23.82600 52.89100 38.72700
H  23.75800 53.98600 40.15400
H  25.26600 53.17700 39.74300
Mg -10.88000 17.11900 43.31000
C  -7.40900 17.75300 43.23500
C  -11.45300 20.42800 42.52400
C  -14.03400 16.24700 42.60900
C  -9.98300 13.66700 43.50300
N  -9.55300 18.80700 43.00600
C  -8.19600 18.89000 43.07900
C  -7.67900 20.32200 42.70600
C  -8.93400 21.12700 42.99800
C  -10.10700 20.07900 42.83500
C  -9.01500 21.87100 44.37600
C  -7.17500 20.41400 41.18900
C  -5.99500 21.35900 40.82600
H  -4.89000 20.55500 40.28500
N  -12.57100 18.20900 42.61500
C  -12.57000 19.57700 42.31900
C  -13.90500 19.99400 41.97800
C  -14.69300 18.75700 41.93900
C  -13.74000 17.63800 42.38000
C  -14.31200 21.35300 41.59700
C  -16.17900 18.73600 41.47900
O  -16.73900 19.77800 41.21100
C  -17.00000 17.42500 41.27700
N  -11.84000 15.20600 42.97900
C  -13.16600 15.17500 42.87200
C  -13.66800 13.71600 43.06600
C  -12.34600 12.88700 42.94900
C  -11.35300 13.95400 43.21700
C  -14.46700 13.51000 44.38800
C  -12.17800 12.02100 41.67300
C  -12.15000 12.84600 40.30300
N  -9.08700 15.92400 43.54700
C  -8.89700 14.47700 43.57500
C  -7.49600 14.17200 43.71800
C  -6.87500 15.47900 43.67400
C  -7.88400 16.45400 43.44700
C  -6.89300 12.84200 44.07100
C  -5.61800 16.19400 43.79900
O  -4.54400 15.74200 44.06800
C  -5.84000 17.71900 43.44600
C  -5.56400 18.52700 44.69800
O  -5.95200 18.33200 45.83700
O  -4.69800 19.53800 44.33500
C  -4.35600 20.34900 45.46700
H  -11.62300 21.49700 42.67100
H  -15.08000 15.99700 42.42200
H  -9.63000 12.63400 43.56000
H  -6.93600 20.67300 43.42200
H  -9.21700 21.85300 42.23700
H  -9.71900 21.40600 45.06600
H  -9.20700 22.93400 44.23200
H  -8.05400 21.77700 44.88100
H  -7.90600 20.76700 40.46100
H  -6.95000 19.38400 40.91400
H  -5.67300 21.89100 41.72100
H  -6.34700 22.12200 40.13200
H  -14.52700 21.48100 40.53600
H  -13.53100 22.04200 41.91900
H  -15.18800 21.57900 42.20500
H  -17.97800 17.54400 40.80900
H  -17.22900 17.12200 42.29900
H  -16.45300 16.64900 40.74100
H  -14.18100 13.31400 42.19300
H  -12.28800 12.24700 43.83000
H  -14.95700 14.42100 44.73100
H  -13.86000 13.07300 45.18200
H  -15.12100 12.69200 44.08700
H  -12.98900 11.29300 41.71300
H  -11.28100 11.40100 41.66100
H  -12.76800 12.41600 39.51500
H  -11.09600 12.76100 40.03800
H  -12.52200 13.86500 40.41300
H  -5.86400 12.80500 44.42800
H  -6.95200 12.24900 43.15800
H  -7.46400 12.36600 44.86800
H  -5.32000 18.11100 42.57200
H  -5.20000 20.85000 45.94200
H  -3.60200 21.09800 45.22500
H  -4.02500 19.67400 46.25700

