158

Mg 23.33400 -6.29400 44.81600
C  25.58500 -3.69000 43.92900
C  20.85700 -4.57200 43.12100
C  21.52400 -9.12700 44.67200
C  25.98800 -7.92400 46.29600
N  23.27100 -4.39200 43.54500
C  24.30200 -3.51000 43.41300
C  23.71700 -2.25800 42.58100
C  22.16700 -2.38800 42.64100
C  22.05300 -3.86000 43.13000
C  21.36700 -1.28800 43.39200
C  24.24700 -2.23000 41.11400
C  24.66300 -0.93000 40.52300
H  24.83900 -0.87000 39.01000
N  21.36300 -6.78100 44.09500
C  20.51700 -5.90500 43.45300
C  19.20100 -6.62100 43.28600
C  19.43900 -8.00600 43.58200
C  20.76100 -8.00900 44.21300
C  17.99600 -5.98500 42.62500
C  18.46400 -9.14300 43.41400
O  17.35900 -8.91400 42.95400
C  18.85500 -10.63000 43.71900
N  23.78000 -8.22200 45.40000
C  22.84400 -9.22400 45.23800
C  23.35700 -10.55900 45.85100
C  24.69200 -10.18100 46.45800
C  24.82900 -8.67500 46.07600
C  22.38900 -11.31400 46.86500
C  25.94600 -11.14400 46.32300
C  26.68200 -11.67200 47.59900
N  25.40200 -5.87400 45.22400
C  26.32100 -6.63900 45.77800
C  27.59400 -5.93000 45.75200
C  27.36100 -4.79300 44.98600
C  25.99500 -4.78900 44.70500
C  28.84300 -6.34100 46.45200
C  28.02800 -3.60800 44.38500
O  29.18700 -3.22400 44.36800
C  26.85100 -2.80100 43.57300
C  26.65700 -1.48500 44.18500
O  26.34400 -1.24000 45.35400
O  27.07700 -0.48500 43.33800
C  27.39800 0.82300 43.97800
H  19.97700 -3.97900 42.86000
H  21.06700 -10.10300 44.84700
H  26.82900 -8.48700 46.70400
H  24.11400 -1.35600 43.04700
H  21.65600 -2.40900 41.67800
H  20.78100 -0.89300 42.56100
H  22.01200 -0.60300 43.94200
H  20.62400 -1.66000 44.09800
H  23.50400 -2.75300 40.51100
H  25.10100 -2.90600 41.17000
H  25.63800 -0.79600 40.99300
H  23.96400 -0.13600 40.78400
H  17.28600 -6.61100 42.08400
H  18.46300 -5.21700 42.00900
H  17.34100 -5.53100 43.36800
H  18.11400 -11.37300 43.42200
H  18.96400 -10.80500 44.79000
H  19.82900 -10.66300 43.23200
H  23.49000 -11.14600 44.94200
H  24.43200 -10.20100 47.51600
H  22.92200 -11.69600 47.73600
H  21.97700 -12.14400 46.29100
H  21.57000 -10.65800 47.16000
H  26.72500 -10.80700 45.63900
H  25.54800 -12.03800 45.84300
H  27.74600 -11.66100 47.36100
H  26.46900 -12.69400 47.91000
H  26.56800 -10.94700 48.40500
H  29.27700 -7.18500 45.91600
H  28.67100 -6.68600 47.47200
H  29.57200 -5.53400 46.52400
H  27.10300 -2.64200 42.52500
H  26.61000 1.53300 43.72700
H  28.26100 1.25500 43.47100
H  27.63900 0.76900 45.04000
Mg -11.41500 37.47700 43.09000
C  -9.09400 35.04100 42.20300
C  -9.58800 39.78700 41.41100
C  -14.15800 39.52600 43.11800
C  -13.60900 34.77600 44.10400
N  -9.57800 37.37100 41.85000
C  -8.84100 36.26700 41.52800
C  -7.60700 36.51500 40.78500
C  -7.62700 38.10200 40.69400
C  -9.02100 38.48000 41.41200
C  -6.39400 38.78400 41.30400
C  -7.55400 35.83400 39.34300
C  -6.65200 34.70000 39.08400
H  -5.49000 34.94400 38.12600
N  -11.79200 39.40000 42.38900
C  -10.85000 40.24400 41.73800
C  -11.39000 41.59000 41.60300
C  -12.75700 41.49400 42.05800
C  -12.99000 40.13100 42.54900
C  -10.60900 42.76900 40.99900
C  -13.74100 42.63100 42.06300
O  -13.33300 43.69600 41.74100
C  -15.25100 42.47500 42.31900
N  -13.57100 37.11200 43.51500
C  -14.37800 38.22000 43.64800
C  -15.80700 37.86000 44.11100
C  -15.71800 36.29500 44.24200
C  -14.23400 35.98100 43.92300
C  -16.28800 38.61100 45.37400
C  -16.66000 35.43700 43.34900
C  -17.48700 34.38200 44.07900
N  -11.36000 35.41200 43.37800
C  -12.26500 34.42800 43.83900
C  -11.57100 33.13600 43.95900
C  -10.36700 33.34100 43.21600
C  -10.29400 34.69500 42.88800
C  -12.11200 31.80200 44.53100
C  -9.17000 32.69400 42.86800
O  -8.63800 31.62100 43.04700
C  -8.27700 33.76600 42.28900
C  -7.19100 33.97700 43.32600
O  -7.32900 34.38300 44.47100
O  -5.91600 33.84300 42.76900
C  -4.76100 34.33800 43.57200
H  -8.98000 40.59100 40.99000
H  -14.93300 40.22800 43.43500
H  -14.29600 33.95500 44.32400
H  -6.84400 36.29800 41.53300
H  -7.67200 38.46300 39.66700
H  -5.89300 39.30400 40.48800
H  -5.64200 38.09300 41.68400
H  -6.72100 39.59100 41.96000
H  -7.36100 36.66000 38.65900
H  -8.58300 35.58500 39.08700
H  -7.16400 33.77500 38.81800
H  -6.20900 34.46200 40.05100
H  -11.15200 43.20000 40.15800
H  -9.65300 42.47300 40.56800
H  -10.34000 43.46900 41.79000
H  -15.74000 43.41000 42.04400
H  -15.48200 42.18800 43.34500
H  -15.61000 41.74300 41.59600
H  -16.40400 38.21300 43.27000
H  -15.84000 36.02500 45.29100
H  -15.57600 39.34300 45.75600
H  -16.60900 38.18700 46.32500
H  -17.16400 39.22500 45.16500
H  -16.08700 34.79000 42.68500
H  -17.32200 36.05400 42.74200
H  -17.44300 33.40700 43.59400
H  -18.54300 34.64900 44.03800
H  -17.19500 34.34000 45.12800
H  -12.54000 31.13600 43.78100
H  -12.93100 32.01400 45.21900
H  -11.32000 31.21700 44.99900
H  -7.84800 33.40600 41.35300
H  -3.82500 34.46600 43.02900
H  -4.53600 33.53300 44.27200
H  -4.95300 35.28000 44.08500

