158

Mg 35.96900 2.60400 30.20300
C  33.42900 3.62400 32.46900
C  37.94400 2.05100 32.92300
C  37.85100 1.01200 28.16200
C  33.45100 2.85600 27.59200
N  35.79300 2.91800 32.40000
C  34.65400 3.28100 33.08500
C  34.93500 3.29300 34.66200
C  36.46200 3.19900 34.70800
C  36.77700 2.75300 33.22400
C  37.24000 4.44200 35.24000
C  34.03800 2.22100 35.39500
C  33.70100 2.56500 36.86100
H  34.72400 3.47900 37.67300
N  37.73600 1.79200 30.50400
C  38.43100 1.62500 31.66100
C  39.58500 0.84100 31.36900
C  39.62700 0.61700 29.97700
C  38.38700 1.19600 29.48700
C  40.59100 0.28600 32.48000
C  40.62600 -0.18100 29.16700
O  40.63000 -0.33100 27.97800
C  41.70500 -0.81100 29.91000
N  35.73700 2.25000 28.09100
C  36.69300 1.37800 27.58600
C  36.35300 0.89300 26.16400
C  34.87600 1.37800 26.00800
C  34.64600 2.22700 27.28700
C  37.37800 1.45600 25.14800
C  33.94100 0.12600 25.78000
C  33.06200 0.08600 24.49800
N  33.88100 3.23900 29.94500
C  33.06000 3.26600 28.87400
C  31.70900 3.50200 29.31100
C  31.78200 3.70100 30.67000
C  33.18300 3.55800 31.02100
C  30.49500 3.48500 28.40900
C  31.05000 3.98400 31.88500
O  29.89200 4.29000 32.04100
C  32.06600 3.94400 33.06500
C  32.04800 5.23900 33.81400
O  32.06300 6.32000 33.32400
O  32.00400 4.99300 35.15000
C  31.69700 6.14200 36.00300
H  38.49800 1.89100 33.85100
H  38.55200 0.44200 27.54800
H  32.66700 2.78300 26.83500
H  34.68300 4.25600 35.10700
H  36.66800 2.31000 35.30500
H  36.54100 5.18600 35.62100
H  37.83900 4.81000 34.40700
H  37.83400 4.18900 36.11800
H  34.74000 1.38800 35.35700
H  33.15000 1.93800 34.83100
H  33.63300 1.59700 37.35600
H  32.69300 2.98100 36.86200
H  40.84100 -0.77000 32.38000
H  40.18500 0.50500 33.46800
H  41.50500 0.86000 32.32900
H  42.49900 -1.00200 29.18700
H  41.39200 -1.72800 30.40900
H  42.09900 -0.09600 30.63200
H  36.40200 -0.19200 26.07900
H  34.71300 1.97800 25.11300
H  37.84700 0.59400 24.67400
H  38.15900 1.95800 25.71800
H  36.76300 2.01900 24.44500
H  33.27400 0.13000 26.64200
H  34.40600 -0.85800 25.82400
H  33.22900 1.00000 23.92800
H  32.00200 0.08800 24.75200
H  33.28500 -0.80200 23.90700
H  30.53900 2.52200 27.90100
H  30.35400 4.32300 27.72600
H  29.58700 3.47300 29.01200
H  31.76900 3.18500 33.79000
H  31.69100 7.10500 35.49200
H  32.47700 6.19500 36.76200
H  30.77200 6.09200 36.57700
Mg -13.04900 16.00000 42.37300
C  -9.99200 14.47500 41.69500
C  -11.75400 18.82500 40.45200
C  -16.13200 17.30200 41.92500
C  -14.40300 12.90100 43.18200
N  -11.15200 16.53700 41.16700
C  -10.00700 15.73500 41.12000
C  -8.82300 16.49600 40.38100
C  -9.40900 17.94300 40.21100
C  -10.89600 17.73600 40.59200
C  -8.73600 19.06500 41.06400
C  -8.30700 15.93400 39.01100
C  -6.78400 16.26300 38.91400
H  -6.39300 16.88400 37.66300
N  -13.82800 17.85900 41.61000
C  -13.08300 18.84200 40.88000
C  -14.08800 19.88500 40.42800
C  -15.39200 19.30400 40.46100
C  -15.17100 18.09700 41.34800
C  -13.77900 21.21000 39.86700
C  -16.65000 19.95700 40.01200
O  -16.60900 20.99200 39.39200
C  -17.94900 19.33500 40.28700
N  -14.96600 15.15800 42.37800
C  -16.04800 15.97400 42.39200
C  -17.30000 15.16000 42.77300
C  -16.82600 13.64600 42.81000
C  -15.31600 13.87700 42.80200
C  -17.83900 15.65900 44.13200
C  -17.41800 12.75800 41.67100
C  -18.03700 11.41300 42.19500
N  -12.33600 14.06700 42.75700
C  -12.94800 12.98000 43.12400
C  -11.96000 11.98200 43.27500
C  -10.77300 12.48200 42.74500
C  -11.05900 13.76100 42.38700
C  -12.19700 10.56000 43.66600
C  -9.38200 12.27100 42.47200
O  -8.69500 11.26400 42.61900
C  -8.83200 13.58300 41.76500
C  -7.72500 14.05700 42.60900
O  -7.79200 14.19700 43.82200
O  -6.63400 14.23600 41.75100
C  -5.29300 14.66900 42.31300
H  -11.51100 19.76200 39.94600
H  -17.08900 17.82600 41.96500
H  -14.81900 11.95500 43.53500
H  -8.03600 16.56400 41.13200
H  -9.42000 18.20900 39.15400
H  -7.93700 18.69400 41.70500
H  -9.40400 19.51200 41.80000
H  -8.38000 19.75200 40.29600
H  -8.84700 16.37600 38.17300
H  -8.45800 14.85900 39.11300
H  -6.17600 15.38100 39.11400
H  -6.55500 17.01400 39.67000
H  -14.18400 22.04900 40.43300
H  -14.13400 21.16600 38.83700
H  -12.72400 21.45000 39.73300
H  -18.02200 18.26800 40.07600
H  -18.63700 19.87800 39.63900
H  -18.26800 19.52200 41.31300
H  -17.91000 15.45200 41.91800
H  -17.02600 13.26700 43.81100
H  -17.01600 16.16400 44.63800
H  -17.92200 14.80800 44.80700
H  -18.75200 16.23700 43.99000
H  -16.54000 12.37400 41.15200
H  -18.05800 13.24800 40.93600
H  -19.12600 11.43800 42.16200
H  -17.86600 11.23900 43.25700
H  -17.69200 10.49000 41.73000
H  -12.89600 10.19300 42.91400
H  -12.70700 10.53500 44.62800
H  -11.30800 9.93000 43.69100
H  -8.64200 13.26300 40.74000
H  -4.61200 14.78400 41.46900
H  -4.88200 13.93400 43.00500
H  -5.40300 15.63400 42.80800

