158

Mg 24.91500 -4.88600 45.11700
C  26.96200 -2.36500 43.85600
C  22.30800 -3.63300 43.13200
C  23.21100 -7.65900 45.63400
C  27.64000 -6.15700 46.96400
N  24.69500 -3.30300 43.62000
C  25.71300 -2.38000 43.31100
C  25.20200 -1.40600 42.21300
C  23.68300 -1.62200 42.28700
C  23.51800 -2.91900 43.04500
C  22.91900 -0.30900 42.76800
C  25.60700 -1.83800 40.72300
C  25.78000 -0.71100 39.77500
H  25.18900 -0.81000 38.34800
N  22.99000 -5.50200 44.55900
C  22.11000 -4.85600 43.79400
C  20.93200 -5.65600 43.59500
C  21.06900 -6.80700 44.35000
C  22.46100 -6.69700 44.90500
C  19.75400 -5.11100 42.87900
C  19.94800 -7.78300 44.65100
O  18.84000 -7.71100 44.16400
C  20.20700 -8.83500 45.60200
N  25.43100 -6.69700 46.11500
C  24.47100 -7.71400 46.26000
C  24.95100 -8.82600 47.25100
C  26.42100 -8.29600 47.65500
C  26.53900 -7.01300 46.85500
C  24.12500 -9.15800 48.50400
C  27.51700 -9.23900 47.06100
C  28.22300 -10.26200 47.97400
N  26.88000 -4.37200 45.46400
C  27.88600 -4.97400 46.23900
C  29.08400 -4.12300 46.15300
C  28.74500 -3.13500 45.24000
C  27.41900 -3.34200 44.83700
C  30.40300 -4.27600 46.84200
C  29.24100 -1.95300 44.64600
O  30.34800 -1.43100 44.80500
C  28.15900 -1.49100 43.61900
C  27.96200 -0.05200 43.65500
O  27.18100 0.58300 44.34900
O  28.78300 0.53400 42.75000
C  29.03700 1.88400 42.93000
H  21.43300 -3.16600 42.67500
H  22.70700 -8.61900 45.76900
H  28.53800 -6.50700 47.47600
H  25.44800 -0.36500 42.42100
H  23.21000 -1.74300 41.31300
H  22.42300 0.23800 41.96600
H  23.61400 0.43400 43.15900
H  22.24000 -0.50800 43.59600
H  24.91100 -2.56600 40.30600
H  26.50100 -2.45200 40.83900
H  26.80800 -0.35000 39.74100
H  25.25700 0.09300 40.29300
H  20.13600 -4.97300 41.86700
H  19.44000 -4.13600 43.25000
H  18.98600 -5.88100 42.81400
H  20.47600 -8.36600 46.54900
H  20.93500 -9.48200 45.11400
H  19.28500 -9.39400 45.75900
H  24.98600 -9.70200 46.60300
H  26.58300 -8.05200 48.70500
H  23.70500 -10.15800 48.60500
H  23.29900 -8.47700 48.29900
H  24.51800 -8.79700 49.45500
H  28.33900 -8.68900 46.60300
H  27.12200 -9.80000 46.21500
H  27.87400 -10.20700 49.00500
H  29.28000 -10.00300 47.91900
H  27.99100 -11.29200 47.69900
H  30.73000 -5.27200 46.54300
H  30.29200 -4.24500 47.92600
H  31.11000 -3.56900 46.40900
H  28.48800 -1.81600 42.63200
H  30.08700 2.02300 43.18600
H  28.40500 2.43100 43.63000
H  28.90100 2.25100 41.91300
Mg -10.34200 39.88500 39.53600
C  -9.53900 36.53200 38.69800
C  -7.29000 40.80100 38.52900
C  -11.44500 43.07400 39.50400
C  -13.60000 38.84600 40.31800
N  -8.57800 38.68900 38.82100
C  -8.45200 37.34200 38.53300
C  -7.02000 37.04800 37.96100
C  -6.26600 38.41500 38.31100
C  -7.42600 39.37200 38.57300
C  -5.27300 38.37700 39.55500
C  -7.08500 36.60300 36.43900
C  -7.52800 37.66700 35.45800
H  -8.80000 37.52500 34.67500
N  -9.47700 41.71200 39.05400
C  -8.20900 41.90300 38.63200
C  -7.93700 43.28200 38.45400
C  -9.18800 43.98800 38.69900
C  -10.13300 42.90200 39.16400
C  -6.67400 43.83800 37.90900
C  -9.46200 45.48100 38.38100
O  -8.57700 46.15500 37.80000
C  -10.69700 46.30800 38.67400
N  -12.36200 40.83700 39.76600
C  -12.49000 42.17900 39.77400
C  -13.85800 42.50900 40.24700
C  -14.34400 41.20100 40.96000
C  -13.43500 40.26300 40.25200
C  -14.13300 43.87000 41.12100
C  -15.88900 40.99000 40.89000
C  -16.45200 40.42900 39.67800
N  -11.40400 38.10700 39.53100
C  -12.72800 37.83100 39.79400
C  -13.04900 36.40600 39.62700
C  -11.84400 35.90500 39.19700
C  -10.88500 36.93100 39.14300
C  -14.33100 35.75200 39.93500
C  -11.18400 34.61700 38.78200
O  -11.65600 33.49100 38.59700
C  -9.66300 35.03100 38.57000
C  -8.87000 34.34300 39.59300
O  -9.04600 34.31700 40.79500
O  -7.96100 33.50100 38.92400
C  -6.89100 32.81700 39.70600
H  -6.32300 41.21400 38.23300
H  -11.72700 44.12800 39.55400
H  -14.61000 38.47300 40.50500
H  -6.68100 36.23500 38.60300
H  -5.64900 38.63300 37.44000
H  -5.58200 38.96700 40.41800
H  -4.32300 38.64800 39.09400
H  -5.31600 37.38200 39.99700
H  -7.68000 35.69100 36.49900
H  -6.04800 36.29700 36.30600
H  -6.82900 37.66100 34.62200
H  -7.47500 38.70300 35.79100
H  -6.77200 44.30000 36.92600
H  -5.92900 43.07000 37.70200
H  -6.34300 44.63200 38.57800
H  -10.77900 46.36600 39.76000
H  -11.59900 45.83300 38.28600
H  -10.57200 47.32100 38.29300
H  -14.38200 42.55100 39.29200
H  -14.09600 41.15100 42.02000
H  -13.18800 44.37300 41.32200
H  -14.70200 43.55000 41.99400
H  -14.87000 44.52400 40.65500
H  -16.17700 42.03800 40.96600
H  -16.18500 40.45300 41.79200
H  -17.13500 41.15400 39.23400
H  -17.03300 39.58800 40.05800
H  -15.69600 40.14800 38.94500
H  -14.82500 36.41900 40.64100
H  -14.21500 34.75800 40.36500
H  -14.84500 35.64300 38.98000
H  -9.50800 34.67200 37.55200
H  -7.32500 32.11200 40.41500
H  -6.30100 33.57600 40.22100
H  -6.36100 32.23400 38.95300

