158

Mg 0.98500 7.13700 25.99600
C  1.86900 8.94700 28.90000
C  0.96500 4.30100 27.92100
C  0.62700 5.35200 23.13500
C  1.44500 10.06800 24.19000
N  1.27000 6.69300 28.18400
C  1.51400 7.55400 29.18400
C  1.68600 6.89600 30.53100
C  1.58600 5.37300 30.23900
C  1.29000 5.43500 28.69400
C  2.91300 4.54500 30.55100
C  0.71400 7.45500 31.57100
C  1.20800 7.85800 32.99100
H  2.18300 6.93300 33.70100
N  0.75400 5.04900 25.59200
C  0.77800 4.03300 26.52800
C  0.60400 2.81200 25.78900
C  0.32300 3.10800 24.42700
C  0.64200 4.55200 24.33200
C  0.66500 1.43000 26.50200
C  -0.19500 2.26000 23.34200
O  -0.60000 2.70800 22.25500
C  -0.23900 0.83500 23.56800
N  1.14500 7.56400 23.97300
C  0.83900 6.71100 22.94700
C  0.80700 7.40400 21.60600
C  0.91300 8.87500 22.05900
C  1.35600 8.85100 23.45800
C  1.92200 6.99200 20.69600
C  -0.42200 9.65600 21.85100
C  -0.28400 11.06600 21.44500
N  1.47100 9.10500 26.40700
C  1.56500 10.19600 25.56600
C  1.78900 11.43300 26.29200
C  2.00000 10.94500 27.62700
C  1.85400 9.53700 27.64000
C  1.84500 12.90100 25.89800
C  2.23500 11.36200 28.98000
O  2.42800 12.49700 29.42200
C  2.03700 10.10400 29.87100
C  3.14000 10.03700 30.90000
O  4.19800 9.44400 30.67900
O  2.84100 10.72900 32.03700
C  3.75400 10.76200 33.18000
H  0.89500 3.47800 28.63500
H  0.36100 4.81300 22.22300
H  1.49700 10.98900 23.60600
H  2.68300 7.10000 30.92200
H  0.74800 4.93800 30.78400
H  3.79300 5.02400 30.98000
H  3.30500 3.95400 29.72300
H  2.57900 3.83300 31.30600
H  -0.05800 6.70300 31.72900
H  0.09800 8.27600 31.20300
H  0.41200 7.84300 33.73500
H  1.66500 8.83600 32.84100
H  1.16000 0.66400 25.90500
H  -0.31500 1.03800 26.77200
H  1.18100 1.64500 27.43700
H  -0.81700 0.28600 22.82400
H  -0.78600 0.57100 24.47300
H  0.72200 0.38700 23.82100
H  -0.14200 7.15800 21.12900
H  1.77800 9.27400 21.52900
H  2.63600 7.77500 20.44300
H  1.38300 6.79600 19.76800
H  2.45500 6.09700 21.01500
H  -1.08900 9.52700 22.70300
H  -0.94700 9.09800 21.07600
H  0.74900 11.27800 21.16900
H  -0.53200 11.66500 22.32100
H  -1.01400 11.32400 20.67700
H  2.27100 12.96600 24.89700
H  2.38900 13.42200 26.68600
H  0.83600 13.31100 25.84600
H  1.07800 10.26200 30.36500
H  4.78100 11.03600 32.93800
H  3.80000 9.86000 33.79100
H  3.40000 11.50400 33.89500
Mg -0.23800 44.63400 25.58200
C  1.59600 43.92100 28.34700
C  -2.87000 42.87800 26.94400
C  -1.66300 44.60700 22.56400
C  2.65300 45.97300 24.13500
N  -0.49000 43.18000 27.36900
C  0.24900 43.43000 28.44500
C  -0.47900 42.98200 29.77300
C  -1.83800 42.45000 29.15400
C  -1.78600 42.84300 27.69300
C  -2.07000 40.84900 29.33100
C  -0.73400 44.22800 30.76400
C  -0.88000 43.82300 32.27500
H  -1.46900 42.42900 32.67400
N  -2.07300 43.87400 24.86600
C  -3.00400 43.22200 25.60400
C  -4.21200 43.17700 24.76300
C  -3.89600 43.74000 23.49100
C  -2.47500 44.12200 23.57500
C  -5.54900 42.49200 25.21500
C  -4.77100 43.97600 22.23800
O  -4.32900 44.31800 21.15800
C  -6.26600 43.71600 22.26900
N  0.28800 45.38600 23.73800
C  -0.40700 45.26900 22.60300
C  0.14500 46.06200 21.45500
C  1.34900 46.69200 22.09500
C  1.47300 45.95000 23.41300
C  0.43200 45.17400 20.18500
C  1.24900 48.17500 22.48200
C  0.26500 49.07300 21.74200
N  1.75400 44.86000 26.03200
C  2.82900 45.36000 25.36300
C  3.98300 45.34900 26.17000
C  3.61200 44.77000 27.37900
C  2.19700 44.48600 27.22000
C  5.40200 45.87500 25.75200
C  4.03400 44.30600 28.64100
O  5.10000 44.26600 29.24500
C  2.71000 43.89200 29.33500
C  2.86100 42.50300 29.94000
O  3.33900 41.48700 29.40500
O  2.40700 42.57800 31.24100
C  2.51400 41.26000 31.96600
H  -3.72300 42.49600 27.50900
H  -2.06700 44.60200 21.54900
H  3.40100 46.60700 23.65400
H  0.09300 42.24700 30.33800
H  -2.78700 42.84500 29.51700
H  -3.01800 40.58300 29.79900
H  -1.46300 40.33500 30.07600
H  -1.78300 40.32900 28.41700
H  -1.72000 44.53600 30.41500
H  0.04300 44.98400 30.65400
H  -1.51300 44.52700 32.81600
H  0.12500 43.91100 32.68700
H  -6.33600 43.24100 25.12800
H  -5.46700 42.15000 26.24700
H  -5.62100 41.58800 24.61000
H  -6.79800 44.04900 21.37800
H  -6.64300 44.28500 23.12000
H  -6.47000 42.66500 22.47100
H  -0.67500 46.77800 21.39000
H  2.29500 46.57200 21.56800
H  0.20900 44.13800 20.44000
H  1.50400 45.22100 19.98900
H  -0.13600 45.48100 19.30700
H  2.19900 48.68000 22.30800
H  1.06600 48.22000 23.55600
H  0.14400 48.69900 20.72500
H  0.75600 50.04500 21.71000
H  -0.68900 49.09700 22.27000
H  5.81100 45.43500 24.84300
H  6.08500 45.73800 26.59100
H  5.28200 46.94100 25.55900
H  2.54100 44.67000 30.08000
H  2.15700 40.42500 31.36300
H  2.11300 41.22600 32.97900
H  3.59000 41.11900 32.07000

