158

Mg 24.13300 -5.01400 45.33800
C  26.17300 -2.64600 43.71300
C  21.70700 -4.22600 43.19000
C  22.38800 -7.73500 46.53300
C  26.96000 -6.19000 47.12100
N  24.07100 -3.58900 43.62000
C  24.97400 -2.73500 43.16300
C  24.49900 -1.99800 41.90300
C  23.00100 -2.26200 42.04800
C  22.85100 -3.42000 42.96000
C  22.18100 -1.06200 42.62600
C  25.14200 -2.65600 40.59500
C  25.88600 -1.70800 39.68500
H  25.81400 -1.93000 38.19800
N  22.15900 -5.87700 45.02900
C  21.35000 -5.35100 44.04600
C  20.17800 -6.15000 44.10700
C  20.32700 -7.22900 45.00800
C  21.65900 -7.02300 45.59700
C  19.05700 -5.82900 43.16600
C  19.29700 -8.25600 45.42900
O  18.15600 -8.18100 44.91600
C  19.60700 -9.34200 46.46600
N  24.67400 -6.75600 46.54800
C  23.71500 -7.63800 46.99300
C  24.23400 -8.74100 47.92800
C  25.57900 -8.12400 48.26500
C  25.77600 -6.92900 47.28300
C  23.36600 -9.05200 49.17800
C  26.78100 -9.01900 48.42200
C  27.54300 -8.88800 49.82300
N  26.15400 -4.56200 45.49200
C  27.16300 -5.07500 46.25300
C  28.34100 -4.18900 46.19900
C  27.97000 -3.27200 45.13900
C  26.66000 -3.46700 44.76400
C  29.56200 -4.30700 47.06100
C  28.44900 -2.09600 44.41300
O  29.47400 -1.47700 44.64000
C  27.37100 -1.84300 43.32900
C  27.13500 -0.40400 43.44300
O  26.35300 0.09100 44.18700
O  27.92900 0.36200 42.66600
C  27.84700 1.90400 42.74400
H  20.90700 -3.96000 42.49600
H  21.84800 -8.53500 47.04400
H  27.81600 -6.51100 47.71900
H  24.81300 -0.95900 42.00100
H  22.62000 -2.64700 41.10200
H  22.81700 -0.18500 42.50300
H  21.91600 -1.07600 43.68300
H  21.21700 -0.83600 42.16900
H  24.35200 -3.09000 39.98200
H  25.93200 -3.40300 40.66700
H  26.91300 -1.69500 40.05000
H  25.63700 -0.65400 39.80700
H  18.68700 -6.76600 42.74800
H  19.19900 -5.09700 42.37100
H  18.21700 -5.41100 43.72000
H  18.85900 -10.13000 46.37800
H  19.51100 -9.05900 47.51400
H  20.57500 -9.82000 46.31700
H  24.27600 -9.71200 47.43500
H  25.37500 -7.63900 49.21900
H  23.85600 -9.56100 50.00800
H  22.56700 -9.69700 48.81200
H  22.92400 -8.08900 49.43400
H  27.45500 -8.85800 47.58100
H  26.45200 -10.05800 48.38500
H  28.56900 -8.77900 49.47100
H  27.46500 -9.73900 50.49900
H  27.36800 -7.89000 50.22400
H  29.91800 -5.33600 47.02200
H  29.42000 -3.87000 48.04900
H  30.35000 -3.69400 46.62200
H  27.78900 -2.15300 42.37200
H  28.77600 2.34000 43.11000
H  27.10700 2.28300 43.44800
H  27.66100 2.33200 41.75900
Mg 9.91700 47.71700 25.65200
C  7.90500 48.04400 28.44800
C  12.58200 48.84400 27.49900
C  11.60100 47.62400 22.90800
C  6.88100 47.08900 23.64300
N  10.12200 48.47700 27.64200
C  9.19600 48.40700 28.68700
C  9.81400 48.72000 30.10600
C  11.22400 49.31500 29.67000
C  11.32900 48.89400 28.15400
C  11.28000 50.84500 29.89000
C  9.86200 47.50600 31.04200
C  9.36000 47.88200 32.46100
H  9.34600 46.77100 33.47000
N  11.85600 48.08700 25.22200
C  12.83700 48.50300 26.13800
C  14.07000 48.50600 25.42900
C  13.81500 48.28000 24.03000
C  12.39900 47.99600 23.98300
C  15.38900 48.79000 25.99500
C  14.74000 48.32500 22.82200
O  14.30200 48.24700 21.70000
C  16.21200 48.56600 23.06600
N  9.25000 47.39200 23.62400
C  10.22300 47.38700 22.74100
C  9.69300 46.97000 21.38400
C  8.24800 46.45200 21.59500
C  8.08400 47.02700 23.01600
C  9.67900 48.15700 20.40500
C  8.12600 44.90100 21.57700
C  8.28200 44.14000 22.80900
N  7.83700 47.47900 25.95800
C  6.73800 47.29200 25.09300
C  5.50900 47.36800 25.81300
C  5.94400 47.52500 27.16300
C  7.33900 47.59900 27.20200
C  4.09200 47.31700 25.19100
C  5.49600 47.68500 28.53400
O  4.32400 47.68200 29.01300
C  6.77000 47.79500 29.46200
C  6.88800 46.54700 30.27700
O  7.39500 45.52600 29.80200
O  6.28000 46.57600 31.53700
C  6.25000 45.38400 32.36600
H  13.47300 49.15600 28.04800
H  12.07600 47.59200 21.92500
H  6.00200 46.93000 23.01600
H  9.24200 49.50200 30.60500
H  11.98500 48.70400 30.15600
H  10.27000 51.20900 30.07700
H  11.71000 51.35300 29.02700
H  11.92100 51.10200 30.73400
H  10.90100 47.21100 31.19500
H  9.38900 46.55800 30.78400
H  8.36900 48.32500 32.36000
H  10.02600 48.69200 32.75900
H  15.32500 48.70600 27.08000
H  15.77000 49.77600 25.73000
H  16.09000 48.04900 25.61000
H  16.70000 47.67100 23.45200
H  16.45200 49.47500 23.61800
H  16.77100 48.71400 22.14200
H  10.37900 46.22700 20.97900
H  7.53200 46.90100 20.90700
H  10.16600 49.01300 20.87200
H  8.68100 48.53300 20.17900
H  10.28000 47.94700 19.52000
H  8.92600 44.50700 20.95100
H  7.19400 44.60500 21.09500
H  9.13900 44.43000 23.41700
H  8.48000 43.10100 22.54500
H  7.36800 44.09800 23.40100
H  3.62000 46.33500 25.16000
H  4.22600 47.76200 24.20500
H  3.51700 48.00200 25.81400
H  6.73100 48.69600 30.07500
H  5.19300 45.11800 32.39800
H  6.56900 45.65900 33.37200
H  7.01900 44.62500 32.23100

