158

Mg 54.89100 24.15900 44.42900
C  52.03400 26.15400 43.41500
C  53.09000 21.51900 43.49300
C  57.77000 22.43300 44.85100
C  56.46000 27.12000 45.36000
N  52.86000 23.95700 43.40400
C  51.80800 24.86900 43.09800
C  50.60000 24.16600 42.55900
C  50.87200 22.68800 43.06200
C  52.36800 22.68700 43.35500
C  50.20100 22.41700 44.40600
C  50.45000 24.24700 41.07000
C  49.00600 24.41600 40.52000
H  48.81100 24.04400 39.09300
N  55.38900 22.20800 44.07300
C  54.47400 21.26000 43.78800
C  55.05400 19.94800 43.84100
C  56.39100 20.19700 44.33300
C  56.61400 21.65000 44.42100
C  54.36400 18.74200 43.39200
C  57.40700 19.05600 44.60400
O  57.07100 17.87600 44.44700
C  58.73700 19.25600 45.10500
N  56.91100 24.68600 44.92200
C  57.93900 23.84300 45.03900
C  59.28100 24.52500 45.37400
C  58.79500 26.00500 45.69500
C  57.32600 25.94000 45.24900
C  60.22100 23.89100 46.48000
C  59.63600 27.05100 44.96600
C  60.92300 27.45700 45.75800
N  54.38200 26.19800 44.44800
C  55.09800 27.27900 44.92900
C  54.29000 28.50100 44.99600
C  53.07300 28.08200 44.36600
C  53.19400 26.70300 44.06700
C  54.71300 29.79400 45.74200
C  51.80400 28.57200 43.90700
O  51.33800 29.65900 43.89100
C  51.07000 27.35200 43.29200
C  50.53500 27.64200 41.93500
O  51.25200 27.81600 40.95900
O  49.18800 27.70300 41.90500
C  48.47700 28.00200 40.60300
H  52.48600 20.60900 43.52300
H  58.68000 21.85600 45.02900
H  56.92100 28.01900 45.77400
H  49.74400 24.57000 43.09800
H  50.61500 21.84900 42.41400
H  49.26800 21.88100 44.23000
H  49.95400 23.36400 44.88500
H  50.78500 21.82500 45.11100
H  50.78500 23.35400 40.54200
H  50.94700 25.12200 40.65000
H  48.61800 25.41700 40.71300
H  48.41300 23.65900 41.03300
H  55.02600 18.33500 42.62800
H  53.44400 19.05800 42.90000
H  54.19800 17.92600 44.09500
H  59.37900 19.80300 44.41600
H  59.21300 18.29700 45.31100
H  58.73300 19.79100 46.05500
H  59.83500 24.45900 44.43700
H  58.76300 26.01600 46.78500
H  61.03000 24.61000 46.61200
H  60.66500 22.94100 46.18400
H  59.72600 23.85800 47.45000
H  59.00700 27.92100 44.77600
H  59.98100 26.74800 43.97700
H  61.16800 28.48200 45.48000
H  61.78200 26.84900 45.47200
H  60.79600 27.39500 46.83900
H  54.03800 30.64900 45.77900
H  55.68000 30.14500 45.38100
H  54.73300 29.55200 46.80500
H  50.23100 27.25200 43.98000
H  48.39700 29.08700 40.52800
H  47.52400 27.47200 40.59900
H  48.98600 27.61500 39.72000
Mg 47.17800 24.67600 28.21000
C  48.39500 26.86700 30.60000
C  46.66100 22.38000 30.83100
C  46.04900 22.40400 25.91600
C  48.11800 26.76200 25.77600
N  47.48900 24.60000 30.48500
C  47.89200 25.69500 31.18900
C  47.64900 25.44700 32.66100
C  47.39400 23.92900 32.80900
C  47.23400 23.56600 31.28700
C  48.54200 23.14700 33.46800
C  46.57100 26.43900 33.13600
C  46.90500 27.19800 34.51300
H  45.87900 27.14900 35.59200
N  46.31100 22.75900 28.37800
C  46.30600 21.97100 29.54300
C  45.88300 20.69000 29.19300
C  45.58900 20.67000 27.75800
C  45.95200 22.00100 27.28100
C  45.65400 19.56300 30.19400
C  45.08800 19.56400 26.95300
O  44.79300 19.68100 25.80900
C  44.78100 18.18800 27.59700
N  47.31500 24.44900 26.10700
C  46.75800 23.48000 25.35000
C  46.98400 23.83900 23.84000
C  47.41100 25.32700 23.89300
C  47.63400 25.52400 25.37000
C  47.91500 22.93300 22.90000
C  46.45000 26.33700 23.17900
C  46.81100 26.90300 21.69800
N  48.01700 26.44000 28.20000
C  48.33800 27.22600 27.08900
C  48.95700 28.45200 27.51300
C  48.99600 28.31900 28.89900
C  48.42200 27.11700 29.22500
C  49.45500 29.56300 26.65200
C  49.39400 29.02100 30.12300
O  49.97600 30.03400 30.30300
C  48.77800 28.16000 31.26900
C  49.73900 28.07500 32.37900
O  50.77200 27.44000 32.36400
O  49.22400 28.80700 33.45800
C  49.97800 28.82500 34.70600
H  46.42800 21.66300 31.62200
H  45.53400 21.81800 25.15200
H  48.35800 27.45700 24.96800
H  48.65200 25.67200 33.02200
H  46.50000 23.68500 33.38400
H  49.47200 23.71100 33.54100
H  48.86800 22.36500 32.78300
H  48.20500 22.58700 34.34100
H  45.59600 26.00500 33.35900
H  46.27200 27.14200 32.35900
H  46.96800 28.24800 34.22900
H  47.87700 26.77600 34.77000
H  44.59700 19.29700 30.19100
H  46.02400 19.70700 31.20900
H  46.08900 18.69200 29.70400
H  45.76400 17.86900 27.94400
H  44.54400 17.51200 26.77600
H  43.92300 18.18700 28.26900
H  45.98200 23.80500 23.41100
H  48.35000 25.67900 23.46600
H  48.79400 23.45100 22.51700
H  47.32900 22.63700 22.02900
H  48.27800 22.14700 23.56100
H  46.31500 27.21900 23.80500
H  45.44200 25.92500 23.13100
H  47.67900 26.38900 21.28500
H  47.02400 27.96400 21.82700
H  45.99100 27.00600 20.98700
H  49.63900 29.18400 25.64600
H  50.30600 30.05400 27.12300
H  48.62700 30.26800 26.58500
H  47.84600 28.61700 31.60100
H  51.04900 28.66100 34.59000
H  49.62200 28.06000 35.39600
H  49.93900 29.86700 35.02400

