158

Mg 42.93400 4.49600 47.89900
C  40.99300 7.42300 48.01100
C  40.08000 2.56700 47.73100
C  44.80800 1.86200 47.07600
C  45.79200 6.56500 47.63000
N  40.83300 5.03300 47.64900
C  40.25300 6.29500 47.81000
C  38.75000 6.22200 47.91700
C  38.57300 4.70700 48.16400
C  39.89700 4.02600 47.71500
C  38.36100 4.37800 49.63400
C  37.99300 6.72000 46.66100
C  38.73500 6.62400 45.26900
H  38.98900 7.67500 44.28300
N  42.47500 2.51600 47.49000
C  41.32000 1.89800 47.60600
C  41.42600 0.45100 47.43200
C  42.82200 0.19900 47.23500
C  43.44100 1.57900 47.25000
C  40.22900 -0.42000 47.46400
C  43.41700 -1.14800 47.10000
O  42.69600 -2.14100 47.16700
C  44.92700 -1.39400 46.85100
N  45.01600 4.29000 47.42100
C  45.49900 3.07100 47.04500
C  46.99600 3.11000 46.93200
C  47.37000 4.59500 47.23400
C  45.99500 5.21300 47.43100
C  47.70100 2.07900 47.85300
C  48.28500 5.25700 46.13700
C  49.60700 5.81400 46.60000
N  43.38500 6.54600 47.92100
C  44.62100 7.24900 47.86000
C  44.30800 8.69100 47.95600
C  42.94500 8.76000 47.97100
C  42.42900 7.49000 47.98200
C  45.41700 9.78200 47.99900
C  41.89500 9.74000 48.17300
O  41.92200 10.97300 48.32900
C  40.58500 8.86900 48.11100
C  39.78100 9.10500 49.28900
O  40.09900 8.71700 50.40600
O  38.75600 9.94400 48.98100
C  37.94900 10.32700 50.15100
H  39.19800 1.93400 47.85100
H  45.47100 1.02200 46.85700
H  46.69200 7.18200 47.58000
H  38.54400 6.94400 48.70600
H  37.75200 4.17300 47.68400
H  37.76200 5.14000 50.13300
H  39.31100 4.27300 50.15800
H  37.70600 3.50800 49.68700
H  37.85300 7.79700 46.75600
H  37.00200 6.27300 46.73200
H  38.18400 5.82000 44.78200
H  39.77400 6.30100 45.33200
H  39.48300 -0.15600 46.71400
H  39.65100 -0.32100 48.38300
H  40.38100 -1.48600 47.29700
H  45.59300 -1.05500 47.64400
H  45.21700 -0.83500 45.96100
H  44.93300 -2.46000 46.62000
H  47.25900 2.78400 45.92500
H  47.81100 4.72500 48.22200
H  47.03000 1.45900 48.44700
H  48.37600 2.70500 48.43700
H  48.29700 1.38200 47.26300
H  47.70200 6.09100 45.74600
H  48.41500 4.51600 45.34800
H  49.61700 6.81000 46.15700
H  50.49600 5.38900 46.13400
H  49.66800 5.88200 47.68700
H  46.42500 9.38200 47.88500
H  45.34000 10.35900 48.92000
H  45.33000 10.40500 47.10900
H  39.99200 9.08800 47.22400
H  36.89600 10.04900 50.12200
H  37.82100 11.40700 50.22200
H  38.30800 10.01800 51.13300
Mg 36.15600 50.21500 25.11400
C  36.53300 48.46200 28.08700
C  34.55800 52.74700 26.79200
C  35.82100 51.87100 22.14300
C  37.65000 47.58500 23.46200
N  35.65200 50.57900 27.17900
C  35.96600 49.73100 28.24100
C  35.62900 50.35400 29.60000
C  34.81100 51.65400 29.14900
C  35.01400 51.72400 27.61400
C  33.28200 51.67600 29.52400
C  36.92300 50.58900 30.50900
C  36.81700 50.24900 31.96700
H  35.42200 50.00200 32.53800
N  35.46800 52.16700 24.56000
C  34.70800 52.95900 25.35600
C  34.18900 54.07900 24.51300
C  34.66900 53.93800 23.21800
C  35.42900 52.62400 23.24000
C  33.31400 55.12600 25.21300
C  34.40900 54.81200 21.95600
O  34.83400 54.57700 20.80100
C  33.65700 56.07700 22.20300
N  36.73200 49.77400 23.06500
C  36.47800 50.65200 22.03400
C  36.74000 49.88800 20.67000
C  37.52200 48.63300 21.14500
C  37.28800 48.60800 22.63700
C  35.34300 49.50600 20.06400
C  38.95400 48.49400 20.57500
C  40.11000 48.38200 21.63800
N  36.85900 48.32800 25.58400
C  37.44900 47.33300 24.82700
C  37.69500 46.12400 25.59900
C  37.43100 46.55500 26.91700
C  36.98400 47.86600 26.88000
C  38.31600 44.84600 25.17800
C  37.46600 46.18100 28.29900
O  37.76500 45.06700 28.75300
C  37.00200 47.45400 29.13700
C  35.96600 46.90700 30.06000
O  34.78600 46.87800 29.82100
O  36.52100 46.33900 31.19700
C  35.55300 45.62700 32.04000
H  34.05200 53.55200 27.33100
H  35.67600 52.39000 21.19400
H  38.20200 46.86600 22.85200
H  35.03100 49.64100 30.16700
H  35.26200 52.52600 29.62200
H  32.84600 50.68100 29.61500
H  32.70200 52.17200 28.74600
H  33.06600 52.22000 30.44300
H  37.13900 51.65200 30.40100
H  37.77000 50.14800 29.98400
H  37.22900 51.00700 32.63300
H  37.40400 49.36700 32.22500
H  33.95500 55.95000 25.52300
H  32.76600 54.63600 26.01800
H  32.55400 55.64700 24.63000
H  32.58000 55.96500 22.33200
H  33.78000 56.74000 21.34600
H  34.09100 56.61500 23.04600
H  37.34900 50.40600 19.93000
H  36.90300 47.83500 20.73500
H  34.50500 50.12000 20.39400
H  35.14900 48.46900 20.33900
H  35.44800 49.65400 18.99000
H  39.18200 49.40400 20.02000
H  39.05500 47.64900 19.89400
H  39.86400 48.80400 22.61200
H  40.89800 49.07800 21.35000
H  40.46600 47.35600 21.72900
H  38.24000 44.77100 24.09300
H  37.93500 43.90800 25.58200
H  39.36700 44.87800 25.46500
H  37.77600 47.78000 29.83200
H  35.28900 44.68900 31.55200
H  34.66300 46.17900 32.34300
H  36.05300 45.31600 32.95700

