158

Mg 35.47600 2.45000 29.19700
C  33.55800 3.80800 31.94700
C  38.20500 2.48200 31.15800
C  37.21500 1.77500 26.44700
C  32.56300 2.99900 27.22500
N  35.80600 3.10600 31.32900
C  34.85400 3.38900 32.27900
C  35.56700 3.41500 33.67200
C  37.09500 3.15200 33.38500
C  37.05400 2.91400 31.82000
C  38.14200 4.19700 33.77000
C  34.88800 2.59700 34.87200
C  35.66500 1.63400 35.78500
H  36.65300 2.19300 36.76300
N  37.48400 1.97500 28.91100
C  38.45300 2.03100 29.81300
C  39.67100 1.52100 29.24600
C  39.46000 1.32500 27.83600
C  38.00600 1.71300 27.65900
C  40.85500 1.25500 30.06200
C  40.27000 1.01000 26.66300
O  39.95100 0.99700 25.50100
C  41.66500 0.67900 26.96400
N  34.95900 2.43000 27.16000
C  35.81000 1.99700 26.24500
C  35.19100 1.90300 24.89100
C  33.68600 2.00000 25.16400
C  33.72300 2.48400 26.61700
C  35.76300 2.87900 23.86700
C  32.93900 0.62100 25.12700
C  32.99100 -0.36700 23.90800
N  33.41100 3.16000 29.50700
C  32.44800 3.42300 28.57600
C  31.25100 3.97700 29.27900
C  31.71000 4.13800 30.67000
C  32.99600 3.61900 30.73100
C  29.83700 4.33600 28.74100
C  31.26500 4.43100 31.96000
O  30.17000 4.77700 32.28800
C  32.42800 4.17300 32.88900
C  32.66000 5.39300 33.73000
O  33.44900 6.26200 33.53600
O  31.71500 5.39900 34.75100
C  31.58400 6.70400 35.40200
H  39.09000 2.32100 31.77800
H  37.66000 1.49000 25.49200
H  31.71700 3.04900 26.53600
H  35.57800 4.44700 34.02500
H  37.52900 2.28700 33.88500
H  38.51900 4.80400 32.94700
H  39.04200 3.66000 34.07100
H  37.76900 4.79400 34.60200
H  34.17800 1.97400 34.32700
H  34.21300 3.16700 35.51000
H  36.09300 0.84000 35.17300
H  34.94400 1.06400 36.37200
H  41.00600 0.17800 30.13200
H  40.76900 1.58200 31.09800
H  41.74800 1.71400 29.63600
H  41.79800 -0.10200 27.71300
H  42.21100 1.59600 27.18500
H  42.05200 0.24100 26.04400
H  35.40400 0.90700 24.50300
H  33.18200 2.81300 24.64000
H  36.74800 3.25200 24.14800
H  35.22600 3.82300 23.76500
H  35.99100 2.40900 22.91000
H  31.96000 1.06700 24.95300
H  33.10100 0.09900 26.07000
H  31.98900 -0.76500 23.74400
H  33.66700 -1.18600 24.15400
H  33.45400 0.15400 23.07100
H  29.28400 3.44500 28.44400
H  30.02200 4.94500 27.85700
H  29.21900 4.79000 29.51600
H  32.23400 3.27300 33.47300
H  31.12400 7.30100 34.61500
H  32.45500 7.10200 35.92300
H  30.86800 6.67500 36.22300
Mg 1.45000 42.13700 26.18000
C  3.52400 42.19000 28.90900
C  -1.13400 41.48700 28.37100
C  -0.56100 41.31800 23.48500
C  4.08400 42.66600 24.12600
N  1.25700 41.85300 28.36100
C  2.22200 42.10100 29.29100
C  1.63300 42.18000 30.67100
C  0.17100 41.57600 30.54400
C  0.05400 41.67800 29.00200
C  -0.02100 40.17900 31.16400
C  1.63800 43.60500 31.22300
C  1.26400 43.73500 32.69400
H  1.19000 42.52900 33.66500
N  -0.45500 41.54200 25.95800
C  -1.36200 41.34500 27.00100
C  -2.64200 40.82400 26.55700
C  -2.40300 40.53300 25.16400
C  -1.08700 41.14100 24.78500
C  -3.71800 40.48400 27.51600
C  -3.19400 39.65300 24.20500
O  -2.76500 39.43700 23.06400
C  -4.41900 38.91100 24.69500
N  1.73100 41.96100 24.05000
C  0.77400 41.66200 23.19100
C  1.41600 41.67800 21.66600
C  2.74400 42.44200 21.97900
C  2.87200 42.40700 23.47300
C  1.28800 40.38200 20.95600
C  2.81200 43.93500 21.57300
C  4.12800 44.37500 20.88700
N  3.44000 42.23800 26.34500
C  4.43800 42.46000 25.40900
C  5.67700 42.52500 26.03500
C  5.35300 42.38800 27.44200
C  4.00600 42.23600 27.56800
C  6.95900 42.85000 25.46600
C  5.92000 42.39100 28.81500
O  7.07900 42.35000 29.17700
C  4.75000 42.35300 29.73100
C  4.88500 41.10300 30.51400
O  4.99700 39.96100 30.10700
O  4.93700 41.42400 31.90100
C  4.98700 40.29700 32.76500
H  -1.94700 41.24000 29.05600
H  -1.18400 40.97600 22.65600
H  4.89600 42.99200 23.47200
H  2.35900 41.60300 31.24400
H  -0.61000 42.18000 31.00500
H  -0.46600 40.46400 32.11800
H  0.96000 39.72900 31.31600
H  -0.50200 39.48200 30.47800
H  0.86700 44.16400 30.69300
H  2.55000 44.15000 30.98000
H  0.28700 44.21500 32.65700
H  2.06800 44.29900 33.16800
H  -4.70400 40.47500 27.05200
H  -3.79100 41.24100 28.29800
H  -3.52900 39.51500 27.97900
H  -4.11100 38.30600 25.54800
H  -4.80700 38.25600 23.91500
H  -5.12800 39.66000 25.04600
H  0.80500 42.34900 21.06300
H  3.65600 41.96000 21.62600
H  0.82500 39.69200 21.66200
H  2.21400 39.98800 20.53800
H  0.85400 40.57200 19.97400
H  2.81100 44.60500 22.43400
H  2.01000 44.13300 20.86200
H  4.69100 43.60100 20.36500
H  4.87100 44.80200 21.56100
H  3.87000 45.11600 20.13200
H  7.18000 42.03600 24.77700
H  7.72000 42.86500 26.24600
H  6.94600 43.82000 24.96800
H  4.81000 43.18000 30.43800
H  5.73900 39.56900 32.46100
H  4.04000 39.79100 32.57700
H  4.96300 40.52100 33.83200

