158

Mg 41.25700 41.38400 27.00000
C  40.18900 43.66700 29.56900
C  42.18800 39.24800 29.52000
C  42.61500 39.61600 24.65300
C  40.70100 43.99800 24.70200
N  41.42500 41.58400 29.29800
C  40.74200 42.51800 30.11300
C  40.84300 42.08200 31.64300
C  41.60300 40.65500 31.56600
C  41.77900 40.49000 30.03700
C  42.94000 40.33800 32.26200
C  39.45700 41.99800 32.41900
C  39.43800 41.68300 33.87300
H  38.84900 42.75700 34.83000
N  42.17000 39.70200 27.06200
C  42.37500 38.85600 28.10200
C  42.98300 37.64300 27.61800
C  43.02100 37.69700 26.26700
C  42.65300 39.06500 25.92700
C  43.30900 36.46700 28.59900
C  43.32100 36.59500 25.25600
O  43.40900 36.78300 24.04900
C  43.62700 35.21200 25.70700
N  41.55500 41.69300 24.90200
C  42.22700 40.83200 24.10800
C  42.27900 41.27500 22.62000
C  41.55400 42.67300 22.76800
C  41.22900 42.78100 24.18000
C  43.71900 41.28500 22.11000
C  40.45100 43.00100 21.73000
C  38.91300 42.66300 22.02100
N  40.42200 43.34400 27.02300
C  40.32500 44.31000 26.03100
C  39.75900 45.55500 26.56100
C  39.74500 45.32200 27.94300
C  40.23600 43.99000 28.16900
C  39.37500 46.76600 25.88000
C  39.39200 45.97400 29.15800
O  38.97000 47.10700 29.37900
C  39.67300 44.96100 30.21200
C  40.50400 45.50200 31.32500
O  41.68700 45.84600 31.28200
O  39.63200 45.65600 32.46200
C  40.13400 46.44900 33.59200
H  42.53200 38.57100 30.30400
H  43.07500 39.00000 23.87800
H  40.55700 44.69200 23.87100
H  41.38200 42.71900 32.34400
H  40.84100 39.92900 31.85000
H  42.62400 39.49000 32.87000
H  43.16100 41.17700 32.92200
H  43.72100 39.98600 31.58800
H  38.92100 41.13300 32.02700
H  39.08200 42.99700 32.19900
H  40.47000 41.43400 34.12100
H  38.75500 40.84700 34.02000
H  42.98900 36.59500 29.63400
H  44.39100 36.33600 28.60600
H  42.84900 35.52600 28.29900
H  43.75900 34.55400 24.84800
H  42.82900 34.84500 26.35300
H  44.52100 35.25200 26.32900
H  41.62600 40.65100 22.00900
H  42.28600 43.47600 22.68500
H  43.81500 40.57600 21.28700
H  44.48500 41.01800 22.83700
H  44.12100 42.27500 21.89700
H  40.65400 42.41500 20.83300
H  40.63500 44.04700 21.48300
H  38.58500 42.05900 21.17500
H  38.29200 43.54900 21.88600
H  38.88400 42.15200 22.98300
H  38.46000 47.05400 26.39700
H  38.96000 46.47500 24.91500
H  40.08900 47.58300 25.77500
H  38.70700 44.77700 30.68200
H  40.57400 45.80900 34.35700
H  39.32300 47.09700 33.92200
H  40.96600 47.11700 33.36900
Mg -3.27600 34.10200 26.55000
C  -4.33600 32.29800 29.38000
C  -1.97600 36.40400 28.67700
C  -3.00700 36.29100 23.89600
C  -5.07200 31.94000 24.44400
N  -3.20200 34.25300 28.77500
C  -3.46300 33.32600 29.75600
C  -3.01000 33.76400 31.13300
C  -2.26900 35.14500 30.84200
C  -2.48800 35.29500 29.32900
C  -2.50600 36.24500 31.86400
C  -2.19800 32.64600 31.86100
C  -2.72900 32.13600 33.22200
H  -1.80000 32.23500 34.40400
N  -2.40900 35.94800 26.34700
C  -1.81000 36.70700 27.32500
C  -1.11100 37.85200 26.72500
C  -1.43300 37.78200 25.32600
C  -2.35700 36.65200 25.11600
C  -0.26700 38.85200 27.54900
C  -0.86200 38.60800 24.20900
O  -1.05200 38.23700 23.05000
C  -0.09100 39.86700 24.48900
N  -4.00200 34.18100 24.43500
C  -3.77200 35.19800 23.62800
C  -4.11000 34.81100 22.16400
C  -4.63700 33.33100 22.32700
C  -4.52600 33.08000 23.80400
C  -5.21500 35.75900 21.74500
C  -3.74500 32.33500 21.53400
C  -2.35700 32.01500 22.09600
N  -4.40500 32.44100 26.79700
C  -5.06300 31.66900 25.84100
C  -5.92300 30.73500 26.54100
C  -5.58700 30.93300 27.89800
C  -4.68600 31.96700 27.99900
C  -6.97000 29.76000 25.97800
C  -5.95500 30.45500 29.23300
O  -6.67600 29.56800 29.62000
C  -4.98300 31.31000 30.22600
C  -5.93900 31.94900 31.10300
O  -6.53500 33.02100 30.89000
O  -5.99200 31.29100 32.27600
C  -6.52000 32.02900 33.43800
H  -1.46700 37.07500 29.37200
H  -2.88900 36.95600 23.03800
H  -5.77300 31.40300 23.80100
H  -3.90900 33.96300 31.71700
H  -1.21800 34.87000 30.94000
H  -1.53300 36.47700 32.29900
H  -3.24000 35.98400 32.62600
H  -2.88900 37.20200 31.50700
H  -1.16900 32.98900 31.96900
H  -2.13000 31.70700 31.31100
H  -2.81300 31.08700 32.93700
H  -3.65200 32.63800 33.51200
H  -0.30200 38.52900 28.58900
H  -0.81000 39.79600 27.52300
H  0.77000 38.87900 27.21200
H  -0.69200 40.49800 25.14300
H  0.10100 40.34000 23.52600
H  0.88500 39.61400 24.90500
H  -3.14200 34.91900 21.67300
H  -5.67400 33.20600 22.01500
H  -4.89700 36.28200 20.84300
H  -5.46400 36.42800 22.56800
H  -6.09400 35.12500 21.62300
H  -3.63100 32.84200 20.57600
H  -4.24100 31.40400 21.25900
H  -2.03500 32.67400 22.90300
H  -1.65900 32.05100 21.26000
H  -2.32700 30.96700 22.39500
H  -7.65700 29.26400 26.66400
H  -6.38300 29.08600 25.35400
H  -7.55000 30.27300 25.21100
H  -4.25900 30.78800 30.85200
H  -6.00800 32.97700 33.59800
H  -6.45400 31.39300 34.32100
H  -7.58000 32.16600 33.22300

