158

Mg 2.40300 -2.12100 44.73700
C  5.83100 -1.57500 44.28900
C  1.77500 0.43700 42.52800
C  -0.80300 -3.00100 44.80300
C  3.21600 -5.02000 46.51300
N  3.67000 -0.77400 43.50400
C  5.09200 -0.68300 43.48200
C  5.52700 0.30600 42.39300
C  4.24000 1.15600 42.07800
C  3.14900 0.16800 42.74100
C  4.03000 2.56300 42.72200
C  6.22800 -0.25700 41.09300
C  7.68000 0.18600 40.86800
H  8.06200 0.70400 39.42800
N  0.68100 -1.19900 43.98800
C  0.64000 -0.19900 43.10100
C  -0.71600 0.20400 42.94100
C  -1.54400 -0.75200 43.63900
C  -0.56200 -1.70800 44.22300
C  -1.13900 1.39000 42.05300
C  -3.05900 -0.84900 43.63900
O  -3.73900 -0.13400 42.97000
C  -3.82800 -1.84300 44.54700
N  1.41700 -3.92800 45.35800
C  0.05200 -3.96400 45.39900
C  -0.39200 -5.36200 45.75100
C  0.78300 -5.89500 46.53000
C  1.92300 -4.83000 46.10300
C  -1.78700 -5.37100 46.52800
C  1.13600 -7.37900 46.08000
C  1.49400 -8.31900 47.24300
N  4.07100 -2.97000 45.44300
C  4.28500 -4.13400 46.16800
C  5.69400 -4.39500 46.41700
C  6.32600 -3.35100 45.72300
C  5.31600 -2.61100 45.10600
C  6.31400 -5.54400 47.28000
C  7.62800 -2.79500 45.38600
O  8.77000 -3.27300 45.50400
C  7.36200 -1.65500 44.31500
C  8.05100 -0.37400 44.76700
O  9.13000 -0.02900 44.37600
O  7.18700 0.29300 45.58900
C  7.52900 1.69300 45.87900
H  1.63500 1.27600 41.84400
H  -1.84900 -3.26200 44.63000
H  3.60400 -5.84900 47.10900
H  6.26700 0.96100 42.85400
H  3.97400 1.28800 41.02900
H  5.03300 2.97100 42.84900
H  3.47600 2.60000 43.66000
H  3.63900 3.27700 41.99700
H  5.73900 0.06100 40.17300
H  6.21800 -1.34500 41.02500
H  8.30800 -0.70100 40.95100
H  8.01500 0.79900 41.70500
H  -0.38700 1.57500 41.28600
H  -1.12700 2.30200 42.65000
H  -2.06600 1.20700 41.50800
H  -4.88300 -1.57100 44.50100
H  -3.53900 -1.66000 45.58200
H  -3.73900 -2.92000 44.40100
H  -0.53900 -5.94800 44.84400
H  0.62300 -5.81600 47.60600
H  -1.65400 -5.84100 47.50200
H  -2.58100 -5.84000 45.94600
H  -2.09500 -4.37100 46.83200
H  2.00400 -7.38200 45.42000
H  0.27500 -7.69400 45.49000
H  0.76300 -9.10600 47.05800
H  1.31600 -7.79400 48.18200
H  2.52400 -8.67300 47.24000
H  5.81900 -6.46800 46.98300
H  6.18200 -5.28700 48.33100
H  7.38900 -5.54400 47.09800
H  7.88800 -1.94300 43.40500
H  7.40000 1.72000 46.96100
H  6.73900 2.38200 45.58300
H  8.49800 2.06000 45.53800
Mg -4.34900 25.87200 26.16100
C  -3.36600 27.33900 28.98600
C  -6.23000 23.74200 28.04100
C  -5.33500 24.18300 23.38300
C  -2.38000 27.94800 24.20700
N  -4.86000 25.61400 28.25000
C  -4.38200 26.41400 29.20800
C  -4.91500 26.07100 30.55500
C  -5.72700 24.74300 30.32500
C  -5.62600 24.69200 28.78100
C  -5.29100 23.46500 31.05800
C  -5.76900 27.24200 31.19400
C  -5.83500 27.20300 32.75300
H  -5.40000 25.98100 33.56300
N  -5.74000 24.32900 25.78400
C  -6.41600 23.57800 26.68400
C  -7.47300 22.79800 26.12100
C  -7.17000 22.82700 24.68300
C  -6.02400 23.78500 24.50700
C  -8.50300 22.00800 26.89400
C  -7.84900 22.06900 23.50700
O  -7.59600 22.23700 22.31900
C  -8.96600 21.09800 23.68200
N  -3.74200 25.95900 24.09000
C  -4.34700 25.15500 23.13500
C  -3.68100 25.36800 21.78000
C  -3.00400 26.80600 21.95800
C  -3.09000 26.94600 23.50500
C  -2.79500 24.15600 21.28700
C  -3.67300 28.06500 21.28500
C  -2.89600 28.66700 20.13600
N  -3.06900 27.28400 26.49400
C  -2.25700 28.05900 25.58600
C  -1.34000 28.82800 26.41900
C  -1.77800 28.71700 27.76400
C  -2.83800 27.73900 27.69500
C  -0.18400 29.70600 25.99000
C  -1.56400 29.11600 29.09100
O  -0.76700 29.94900 29.58900
C  -2.50100 28.20700 29.94400
C  -1.60200 27.41500 30.76300
O  -0.65800 26.76800 30.39700
O  -1.81800 27.73500 32.02600
C  -1.23700 27.04700 33.17300
H  -6.90800 23.15200 28.66100
H  -5.74200 23.65700 22.51700
H  -1.73000 28.64900 23.67900
H  -4.03000 25.73700 31.09700
H  -6.78300 24.72100 30.59700
H  -6.11600 23.00900 31.60600
H  -4.55900 23.83400 31.77600
H  -4.87900 22.68200 30.42200
H  -6.73300 27.04300 30.72400
H  -5.31200 28.18100 30.88100
H  -6.84600 27.55200 32.96200
H  -5.34400 28.12600 33.06300
H  -8.16900 21.67800 27.87800
H  -8.66000 21.10400 26.30600
H  -9.44400 22.55700 26.93600
H  -9.61300 20.93700 22.82000
H  -9.66800 21.46000 24.43300
H  -8.48100 20.14900 23.91500
H  -4.51900 25.50600 21.09700
H  -1.93700 26.71500 21.75500
H  -1.90800 24.60000 20.83600
H  -3.41600 23.60200 20.58400
H  -2.51000 23.55000 22.14600
H  -3.91000 28.88000 21.96900
H  -4.62300 27.85200 20.79300
H  -2.05800 28.00800 19.90600
H  -2.53100 29.68100 20.29700
H  -3.59000 28.62800 19.29700
H  -0.44900 30.76200 25.94800
H  0.21600 29.22100 25.10000
H  0.59300 29.60300 26.74700
H  -3.14900 28.85800 30.53100
H  -0.26200 27.47200 33.40900
H  -1.03900 25.98500 33.03200
H  -1.82900 27.25700 34.06400

