158

Mg 25.29900 1.60600 29.89700
C  27.34600 1.54800 32.81200
C  22.64200 1.77600 32.02500
C  23.36900 1.55000 27.17100
C  28.16100 1.37300 28.00700
N  25.02300 1.77800 32.19700
C  26.00800 1.80700 33.14900
C  25.45300 2.08800 34.54300
C  23.89700 2.20500 34.26500
C  23.84700 1.94700 32.74000
C  22.99000 1.22700 35.02200
C  26.06700 3.35900 35.31300
C  25.46600 3.86300 36.69100
H  26.22300 3.70300 37.95900
N  23.27100 1.60300 29.66600
C  22.30800 1.56600 30.65600
C  20.99800 1.38800 30.06000
C  21.14000 1.46500 28.63200
C  22.64000 1.47400 28.44100
C  19.73400 1.37800 30.82600
C  20.14000 1.60000 27.47100
O  20.45000 1.68900 26.29400
C  18.62000 1.37300 27.81000
N  25.70800 1.22200 27.84500
C  24.78200 1.50700 26.92000
C  25.37800 1.88000 25.58500
C  26.86700 1.79800 25.90600
C  26.91600 1.48000 27.38700
C  24.81200 0.99900 24.39200
C  27.82400 2.86900 25.32200
C  27.62600 4.36500 25.71000
N  27.29200 1.20400 30.26600
C  28.35400 1.15000 29.37100
C  29.57000 1.07400 30.13700
C  29.17800 1.19000 31.49000
C  27.82500 1.29700 31.54700
C  30.91100 0.87600 29.55200
C  29.75100 1.25800 32.74900
O  30.91000 1.14100 33.13000
C  28.53600 1.55500 33.69800
C  28.42400 0.47500 34.74900
O  28.31500 -0.80100 34.59400
O  28.73600 1.07700 35.94600
C  28.88500 0.18100 37.12900
H  21.79700 1.89300 32.70700
H  22.80700 1.72900 26.25200
H  29.08700 1.50500 27.44300
H  25.81800 1.21600 35.08500
H  23.61700 3.24900 34.41100
H  22.58300 0.43300 34.39600
H  22.17700 1.84700 35.40100
H  23.59000 0.80100 35.82600
H  26.14900 4.20600 34.63300
H  27.10800 3.07400 35.46700
H  24.54700 3.34000 36.95700
H  25.30000 4.94000 36.65600
H  19.93900 1.33200 31.89500
H  19.28800 0.43800 30.50200
H  19.08000 2.18600 30.49700
H  18.36700 0.63200 28.56900
H  17.99900 1.16200 26.94000
H  18.23200 2.34500 28.11600
H  24.94500 2.87300 25.46900
H  27.13700 0.82700 25.49100
H  25.64200 0.60900 23.80400
H  24.05900 1.61400 23.89900
H  24.27000 0.14500 24.79900
H  27.77800 2.76500 24.23800
H  28.84700 2.65700 25.63400
H  28.52600 4.95300 25.88700
H  26.91400 4.50700 26.52400
H  27.10200 4.70900 24.81800
H  31.00200 1.56300 28.71100
H  31.15000 -0.17300 29.37800
H  31.60300 1.24600 30.30800
H  28.74700 2.51900 34.16300
H  29.96200 0.09000 37.26400
H  28.45700 -0.81700 37.02500
H  28.52500 0.69700 38.01900
Mg -2.10000 33.87400 27.48800
C  -3.98000 32.11300 30.05700
C  -0.82300 35.86700 29.72100
C  -0.63300 35.46700 24.92100
C  -3.66700 31.73800 25.08800
N  -2.21800 33.72400 29.65400
C  -2.98000 32.98900 30.53000
C  -2.84800 33.51400 31.96000
C  -2.20300 34.90300 31.71300
C  -1.64900 34.84300 30.23600
C  -3.09900 36.15900 32.02000
C  -2.05400 32.48000 32.86500
C  -2.64800 32.19900 34.24300
H  -1.81900 32.45900 35.59400
N  -0.81600 35.39400 27.34800
C  -0.39500 36.05200 28.40400
C  0.56300 37.01800 28.00700
C  0.73100 36.95500 26.60900
C  -0.29800 35.91800 26.23000
C  1.24600 37.94600 28.93500
C  1.54700 37.69600 25.69000
O  1.49000 37.60300 24.44900
C  2.70900 38.63500 26.22200
N  -2.24100 33.66400 25.27100
C  -1.50900 34.44900 24.50400
C  -1.52300 33.94100 22.98700
C  -2.25400 32.57900 23.09800
C  -2.76100 32.68500 24.52600
C  -2.17900 34.93000 21.95300
C  -1.33800 31.32700 22.87600
C  -2.09000 30.14700 22.18700
N  -3.58300 32.35200 27.48800
C  -4.15400 31.59900 26.44100
C  -5.01900 30.62300 26.95900
C  -5.07000 30.85700 28.37200
C  -4.16700 31.85400 28.66900
C  -5.78200 29.51500 26.25800
C  -5.65400 30.36700 29.61600
O  -6.41200 29.44300 29.83300
C  -4.91200 31.14300 30.73400
C  -5.84900 31.79600 31.66500
O  -6.51100 32.75900 31.41700
O  -5.84800 31.14800 32.86000
C  -6.73100 31.73500 33.89700
H  -0.38900 36.44400 30.54100
H  -0.09100 35.99400 24.13200
H  -4.01100 30.90400 24.47300
H  -3.83200 33.73800 32.37100
H  -1.28600 35.13700 32.25500
H  -3.04100 36.83600 31.16700
H  -2.61200 36.67000 32.85000
H  -4.12200 35.87500 32.26600
H  -1.02100 32.83000 32.84700
H  -2.10100 31.51900 32.35200
H  -2.90200 31.13900 34.24100
H  -3.52500 32.84100 34.32500
H  1.23800 37.61400 29.97300
H  0.62500 38.82500 28.76200
H  2.24500 38.21100 28.58900
H  3.42500 39.00800 25.48800
H  3.20500 38.14100 27.05700
H  2.29300 39.57900 26.57500
H  -0.49800 33.87900 22.62100
H  -3.06700 32.51000 22.37500
H  -3.05300 34.54000 21.43100
H  -1.41800 35.31100 21.27200
H  -2.47800 35.74700 22.61000
H  -1.06400 30.99300 23.87700
H  -0.40900 31.44100 22.31700
H  -1.70100 29.86000 21.20900
H  -3.17500 30.24300 22.20800
H  -2.02500 29.27500 22.83800
H  -5.81400 29.65300 25.17700
H  -6.82700 29.54700 26.56700
H  -5.35600 28.56600 26.58300
H  -4.35700 30.42900 31.34200
H  -7.37200 32.56700 33.60600
H  -6.02800 32.21900 34.57500
H  -7.27400 30.90100 34.34100

