158

Mg 42.80900 3.99800 46.49600
C  41.11200 7.10200 46.66000
C  39.89000 2.35400 46.42300
C  44.64400 1.23000 45.76000
C  45.81400 5.96600 45.99700
N  40.74800 4.69500 46.61200
C  40.22400 5.97400 46.72200
C  38.70900 5.89300 46.97400
C  38.45800 4.41900 47.11000
C  39.77800 3.69900 46.68400
C  37.89600 3.94200 48.53400
C  37.80300 6.61900 45.91200
C  37.96600 6.11500 44.42200
H  37.99400 7.18900 43.32700
N  42.33300 2.10000 46.16000
C  41.04000 1.59900 46.17000
C  41.11500 0.08700 45.93800
C  42.48100 -0.18300 45.77000
C  43.20500 1.03500 45.96900
C  39.88500 -0.73500 45.82100
C  43.01700 -1.55500 45.45400
O  42.23500 -2.50500 45.57000
C  44.48300 -1.90700 44.94600
N  44.93500 3.68600 45.79400
C  45.41800 2.39400 45.67900
C  46.97900 2.37000 45.56500
C  47.33000 3.89100 45.34500
C  45.95600 4.57600 45.80300
C  47.60100 1.72500 46.86200
C  47.84400 4.29900 43.98800
C  49.40500 4.48000 43.84100
N  43.40500 6.09300 46.26300
C  44.64200 6.72100 46.10800
C  44.50500 8.08600 46.22600
C  43.11300 8.30000 46.50500
C  42.47800 7.05600 46.46300
C  45.56900 9.14600 46.22800
C  42.09200 9.30600 46.67700
O  42.23300 10.52100 46.78500
C  40.73100 8.53800 46.79500
C  39.98900 8.81000 48.01300
O  40.08100 8.19800 49.10800
O  39.03100 9.75100 47.64900
C  37.93700 9.95800 48.65400
H  38.89500 1.90400 46.41300
H  45.23400 0.31300 45.72200
H  46.79300 6.44200 46.08000
H  38.46800 6.30000 47.95600
H  37.65200 4.12800 46.43700
H  36.90600 3.53500 48.33000
H  37.73500 4.83000 49.14500
H  38.53400 3.21500 49.03600
H  38.06700 7.67500 45.85900
H  36.76800 6.50200 46.23200
H  37.26400 5.34200 44.11000
H  38.96900 5.71000 44.28600
H  38.98200 -0.13600 45.70600
H  39.88100 -1.34100 46.72700
H  39.98900 -1.43000 44.98800
H  45.19800 -1.98700 45.76400
H  44.84100 -1.11800 44.28500
H  44.61800 -2.81300 44.35400
H  47.34400 1.80600 44.70600
H  48.18000 4.02300 46.01400
H  48.33700 2.37000 47.34100
H  48.06200 0.80300 46.50700
H  46.79600 1.44900 47.54300
H  47.32200 5.18600 43.62900
H  47.56600 3.62000 43.18200
H  49.91900 4.53000 44.80100
H  49.52100 5.48000 43.42200
H  49.77000 3.70400 43.16900
H  46.20400 8.94100 45.36600
H  46.23900 8.96300 47.06800
H  45.22600 10.18000 46.25100
H  40.15900 8.87100 45.92900
H  38.53500 10.46200 49.41300
H  37.59900 9.00900 49.06900
H  37.21100 10.53100 48.07700
Mg 53.90500 23.60200 43.71300
C  51.31700 25.95600 43.28800
C  51.73400 21.08200 42.57700
C  56.46400 21.41800 43.76300
C  55.81300 26.16600 44.87400
N  51.82900 23.59700 42.77200
C  50.97800 24.64900 42.79500
C  49.60400 24.24300 42.10800
C  49.74400 22.68400 42.08400
C  51.21000 22.42100 42.41300
C  48.88700 22.00200 43.11700
C  49.40500 24.75900 40.61800
C  50.76900 24.98300 39.84200
H  50.50100 25.68200 38.50600
N  54.09200 21.49400 43.21200
C  53.04400 20.65900 42.85300
C  53.57100 19.31500 42.79400
C  54.96900 19.38200 43.11700
C  55.23900 20.75300 43.34500
C  52.65400 18.13800 42.43800
C  55.92800 18.14400 43.26300
O  55.48600 17.02800 43.02600
C  57.32200 18.30600 43.56800
N  55.89000 23.77900 44.18200
C  56.81700 22.79300 44.04600
C  58.21700 23.18300 44.58800
C  57.96900 24.70600 44.97900
C  56.47400 24.96800 44.62100
C  58.75200 22.33300 45.73100
C  58.89200 25.69500 44.22300
C  58.71900 26.02400 42.74500
N  53.70800 25.74100 43.96200
C  54.49100 26.63000 44.59900
C  53.86000 27.84300 45.04700
C  52.49900 27.55600 44.55900
C  52.54900 26.29700 43.87000
C  54.40600 28.93900 45.99700
C  51.16700 28.11500 44.46300
O  50.73900 29.20000 44.86700
C  50.37900 27.05400 43.53200
C  49.80300 27.62900 42.33800
O  50.42400 28.15400 41.42100
O  48.44500 27.66000 42.49300
C  47.69400 28.73700 41.82100
H  50.98600 20.32500 42.33100
H  57.30200 20.79500 44.08400
H  56.42400 26.96200 45.30400
H  48.75200 24.44900 42.75500
H  49.51300 22.26100 41.10700
H  47.82900 22.23600 42.99800
H  49.06900 22.30200 44.15000
H  48.81600 20.91600 43.05500
H  48.69700 25.56800 40.43800
H  48.99500 23.95600 40.00600
H  51.36500 24.09600 39.62300
H  51.43800 25.70400 40.31200
H  53.09500 17.19600 42.76400
H  52.41800 18.09100 41.37500
H  51.72600 18.25800 42.99800
H  57.76300 17.31000 43.59900
H  57.45600 18.86000 44.49700
H  57.83700 18.92800 42.83500
H  58.89100 23.09800 43.73500
H  58.12200 24.70000 46.05800
H  59.55200 21.62800 45.50200
H  57.97200 21.65700 46.08100
H  59.05200 22.89800 46.61300
H  59.91500 25.32300 44.15900
H  58.94100 26.61800 44.80300
H  59.51700 25.72500 42.06500
H  58.55000 27.09000 42.59400
H  57.90700 25.39300 42.38300
H  55.40600 28.73100 46.37800
H  53.86700 28.87000 46.94200
H  54.25700 29.91000 45.52500
H  49.62300 26.66800 44.21600
H  48.19400 29.69100 41.98200
H  46.70000 28.81200 42.26400
H  47.68600 28.49300 40.75900

