158

Mg 9.44500 47.97500 26.60400
C  7.57000 47.71900 29.51700
C  12.11600 49.28500 28.45700
C  11.20100 48.14800 23.80500
C  6.52900 47.44000 24.69700
N  9.73200 48.48500 28.76800
C  8.91300 48.16300 29.77300
C  9.47600 48.64200 31.21500
C  10.85400 49.32200 30.76500
C  10.89200 49.06600 29.20100
C  10.93800 50.84200 30.90900
C  9.64700 47.47700 32.31100
C  9.12300 47.67100 33.77900
H  9.37100 46.47100 34.80100
N  11.37000 48.57800 26.15700
C  12.33800 49.03300 27.06400
C  13.55900 49.13000 26.34000
C  13.36400 48.75100 24.98700
C  11.94500 48.48800 24.94400
C  14.83400 49.63100 27.09000
C  14.39900 48.57700 23.87300
O  14.04900 48.16100 22.74900
C  15.82600 48.71100 24.19200
N  8.90200 48.00000 24.54000
C  9.84300 47.93200 23.61600
C  9.29500 47.48400 22.24500
C  7.72400 47.41700 22.43400
C  7.68500 47.63600 23.96000
C  9.65000 48.35500 21.04300
C  7.01400 46.14900 21.82800
C  6.81600 44.90300 22.75500
N  7.44100 47.59800 26.97100
C  6.35600 47.49200 26.10500
C  5.16800 47.15500 26.90300
C  5.65200 47.24800 28.26200
C  6.97400 47.57600 28.21900
C  3.81400 46.91900 26.38500
C  5.26100 47.07100 29.62200
O  4.17700 46.86600 30.15400
C  6.48300 47.29000 30.51700
C  6.73900 45.99400 31.21900
O  7.25200 44.99500 30.78300
O  6.36000 46.15700 32.51400
C  6.22900 44.87500 33.17700
H  13.04600 49.58600 28.94400
H  11.81800 47.89600 22.93900
H  5.70000 47.12700 24.05900
H  8.92000 49.46700 31.66000
H  11.73600 48.89600 31.24300
H  11.95000 51.20500 30.72600
H  10.56500 51.08500 31.90400
H  10.12300 51.29900 30.34800
H  10.72500 47.31600 32.33400
H  9.21200 46.59900 31.83300
H  8.03400 47.63800 33.83300
H  9.42100 48.64100 34.17600
H  15.37100 48.73700 27.40800
H  14.63500 50.32300 27.90800
H  15.66000 50.07800 26.53600
H  16.30400 48.50000 23.23500
H  16.21400 47.94100 24.85800
H  16.01200 49.71400 24.57600
H  9.70200 46.48600 22.07800
H  7.20700 48.22500 21.91600
H  9.97600 49.33300 21.39700
H  8.73300 48.45700 20.46300
H  10.51200 47.92600 20.53300
H  7.56800 45.89300 20.92500
H  6.03500 46.54800 21.56200
H  7.45100 44.89000 23.64100
H  6.98600 43.90400 22.35200
H  5.75200 44.88900 22.98800
H  3.25800 47.85400 26.45600
H  3.29000 46.23000 27.04800
H  3.95200 46.65900 25.33500
H  6.24200 48.08200 31.22500
H  6.82800 44.01600 32.87400
H  5.19700 44.52700 33.12800
H  6.54700 45.12400 34.18900
Mg -1.79900 34.16300 27.14000
C  -3.71600 32.38500 29.51000
C  -0.94300 36.32100 29.56600
C  -0.64300 36.02000 24.77200
C  -3.60200 32.17900 24.60800
N  -2.44100 34.38700 29.23000
C  -2.94300 33.42700 30.05600
C  -2.76300 33.70800 31.58000
C  -2.26400 35.18200 31.46500
C  -1.82000 35.31800 30.02500
C  -3.28700 36.25600 31.84300
C  -1.86900 32.65300 32.23400
C  -2.50100 31.96100 33.45800
H  -1.70300 32.13600 34.80000
N  -0.81300 35.82800 27.24600
C  -0.46000 36.55900 28.31900
C  0.45800 37.59500 27.87700
C  0.52500 37.57900 26.46400
C  -0.37300 36.45200 26.09100
C  1.27100 38.44800 28.86400
C  1.35600 38.40100 25.48500
O  1.20800 38.33200 24.31200
C  2.46000 39.30300 26.03000
N  -2.24500 34.10600 25.01600
C  -1.44000 34.93600 24.33200
C  -1.50700 34.66100 22.76600
C  -2.15800 33.24300 22.76800
C  -2.68800 33.13300 24.17200
C  -2.37300 35.77400 22.17200
C  -1.15700 32.14300 22.35800
C  0.08300 31.82600 23.14100
N  -3.30800 32.64700 27.02000
C  -4.01000 31.96000 25.98200
C  -4.93000 31.04700 26.49700
C  -4.81000 31.21400 27.87200
C  -3.85700 32.11800 28.11600
C  -5.80400 30.14400 25.80100
C  -5.36900 30.71600 29.09900
O  -6.23100 29.87200 29.22000
C  -4.68900 31.44700 30.23400
C  -5.78600 32.08600 31.01400
O  -6.31700 33.18400 30.73800
O  -5.90600 31.46900 32.18700
C  -6.83400 32.11100 33.17600
H  -0.65900 36.91700 30.43600
H  -0.28700 36.65600 23.95800
H  -3.93700 31.43900 23.87900
H  -3.73300 33.74700 32.07500
H  -1.43400 35.37800 32.14400
H  -4.08300 35.81500 32.44300
H  -3.62900 36.79500 30.96000
H  -2.82700 37.01200 32.47800
H  -0.95200 33.14400 32.55800
H  -1.55600 31.85400 31.56100
H  -2.59400 30.90000 33.22700
H  -3.50200 32.29600 33.73100
H  0.99700 39.49800 28.76000
H  2.34800 38.39800 28.70500
H  1.12300 38.03500 29.86200
H  2.90800 39.90400 25.23800
H  3.20800 38.64500 26.47100
H  1.96100 39.99100 26.71200
H  -0.51300 34.68800 22.31800
H  -3.01400 33.14900 22.10100
H  -2.88500 36.36100 22.93400
H  -3.16200 35.27500 21.60900
H  -1.71600 36.39900 21.56600
H  -1.07600 32.52800 21.34200
H  -1.74500 31.24200 22.18200
H  0.08700 30.80800 23.53100
H  0.11500 32.54400 23.96000
H  0.95500 32.04800 22.52500
H  -5.57200 30.00300 24.74500
H  -6.76700 30.63000 25.95700
H  -5.75000 29.21500 26.36900
H  -4.21700 30.64700 30.80500
H  -7.71300 32.60600 32.76300
H  -6.37300 32.83400 33.84900
H  -7.04700 31.30900 33.88300

