158

Mg 9.38700 2.55900 27.81900
C  10.67400 1.11200 30.72200
C  7.70400 4.82800 29.83800
C  8.13300 3.93700 24.98300
C  11.11100 0.11800 25.82300
N  9.25400 2.91700 30.03500
C  10.03100 2.32200 31.01500
C  9.73900 3.01900 32.36100
C  8.66900 4.19400 32.05600
C  8.48200 3.94900 30.55700
C  7.37500 3.95300 32.84600
C  11.06000 3.42000 33.12800
C  11.03700 4.50000 34.31800
H  10.81300 3.96100 35.69900
N  8.06100 4.11100 27.47800
C  7.44500 4.89800 28.42500
C  6.49400 5.75900 27.78200
C  6.69200 5.61900 26.38300
C  7.67100 4.49600 26.22100
C  5.72700 6.77900 28.53800
C  6.02400 6.37100 25.14300
O  6.25800 6.15100 23.98200
C  4.89500 7.34700 25.50400
N  9.60500 2.07300 25.65800
C  8.98100 2.83700 24.68800
C  9.41400 2.27400 23.30400
C  10.55000 1.22100 23.64800
C  10.38700 1.06800 25.14300
C  8.18400 1.65100 22.64500
C  12.04300 1.62400 23.16600
C  12.68700 0.61900 22.25300
N  10.46600 0.87100 28.10700
C  11.20300 -0.00500 27.22000
C  11.83000 -1.07000 28.00600
C  11.67500 -0.57500 29.34000
C  10.77900 0.51200 29.36300
C  12.57900 -2.16600 27.48100
C  12.12500 -0.80400 30.76100
O  12.86400 -1.65200 31.30000
C  11.55100 0.28100 31.55800
C  10.76600 -0.35000 32.63300
O  9.74400 -0.99900 32.56000
O  11.32700 -0.10700 33.88700
C  10.95200 -0.81600 35.11700
H  7.29500 5.58200 30.51400
H  7.69900 4.41600 24.10300
H  11.70700 -0.58900 25.24200
H  9.26800 2.20900 32.91800
H  8.95100 5.24000 32.17400
H  6.97300 4.94600 33.04800
H  7.47100 3.46100 33.81400
H  6.74000 3.25100 32.30500
H  11.65300 3.82100 32.30600
H  11.47700 2.53100 33.60200
H  10.15500 5.11500 34.14400
H  11.97300 5.05800 34.28800
H  4.67900 6.56000 28.33000
H  5.85900 7.78900 28.15000
H  5.82700 6.72500 29.62200
H  5.29800 8.26900 25.92200
H  4.29600 6.73800 26.18000
H  4.25300 7.59700 24.65900
H  9.81500 2.98700 22.58300
H  10.24000 0.25100 23.26000
H  7.26600 1.58600 23.23000
H  8.21400 0.69000 22.13200
H  7.96600 2.34500 21.83300
H  12.57500 1.91500 24.07200
H  11.73200 2.50600 22.60600
H  12.15200 -0.33100 22.26800
H  13.67400 0.51500 22.70300
H  12.64600 0.97700 21.22400
H  12.96100 -2.79600 28.28400
H  13.37200 -1.77800 26.84200
H  11.97300 -2.82400 26.85800
H  12.42700 0.84800 31.87200
H  10.23700 -1.62900 34.98700
H  10.64600 -0.07000 35.85100
H  11.79300 -1.32200 35.59000
Mg 17.43300 -2.83100 27.95600
C  16.42400 -0.60800 30.41500
C  19.65000 -4.38400 30.27200
C  19.14200 -4.41300 25.43100
C  15.98900 -0.72600 25.56300
N  17.94200 -2.50900 30.05800
C  17.36200 -1.52800 30.87600
C  17.80300 -1.63300 32.38000
C  18.78500 -2.82100 32.24900
C  18.87500 -3.22700 30.73700
C  20.12600 -2.43800 32.84600
C  16.53400 -1.91900 33.30900
C  16.72600 -2.42600 34.79600
H  18.03700 -2.08400 35.48700
N  18.96500 -4.31900 27.86300
C  19.66600 -4.89000 28.88700
C  20.34300 -6.03600 28.36900
C  20.14700 -6.09500 26.98200
C  19.42000 -4.87900 26.70300
C  21.24600 -6.78700 29.23900
C  20.62200 -7.13200 26.01700
O  20.42800 -7.11500 24.79600
C  21.49700 -8.24900 26.51500
N  17.64900 -2.49700 25.83600
C  18.40800 -3.32600 25.03600
C  18.06700 -3.09600 23.49900
C  16.96700 -1.95400 23.60100
C  16.77900 -1.73200 25.10400
C  19.19400 -2.63100 22.48400
C  15.58400 -2.49300 22.99600
C  14.45100 -2.93400 23.87500
N  16.30800 -1.06400 27.87800
C  15.80200 -0.33400 26.87100
C  15.01800 0.75900 27.42600
C  15.21600 0.67000 28.80500
C  16.03000 -0.43500 29.05400
C  14.12100 1.64800 26.53300
C  14.94800 1.34100 30.07200
O  14.29300 2.33300 30.29200
C  15.80100 0.56700 31.13300
C  16.72100 1.55400 31.81400
O  17.81900 1.89500 31.42700
O  16.11600 2.00800 33.04500
C  16.89000 2.91200 33.87500
H  20.22400 -4.86400 31.06600
H  19.51600 -4.88000 24.51800
H  15.31300 -0.23500 24.85900
H  18.25800 -0.70300 32.72100
H  18.45400 -3.69300 32.81300
H  20.14700 -1.58700 33.52700
H  20.82500 -2.34000 32.01600
H  20.52800 -3.26900 33.42600
H  15.94600 -2.63500 32.73500
H  15.97600 -1.00900 33.52900
H  16.65600 -3.51400 34.82800
H  15.85900 -2.05800 35.34400
H  21.71400 -6.26000 30.07100
H  22.20100 -7.07200 28.79900
H  20.72800 -7.62800 29.69900
H  22.55200 -7.97600 26.47100
H  21.42200 -9.08400 25.81900
H  21.26300 -8.66700 27.49400
H  17.71000 -4.03100 23.06700
H  17.33700 -1.00100 23.22400
H  19.42500 -3.31400 21.66700
H  20.04000 -2.34300 23.10900
H  18.76400 -1.85100 21.85600
H  15.71100 -3.32300 22.30100
H  15.13000 -1.63700 22.49500
H  14.51700 -3.25400 24.91400
H  13.93400 -3.71900 23.32300
H  13.76300 -2.09700 23.75700
H  13.19900 1.94900 27.02900
H  13.84400 1.06800 25.65200
H  14.57700 2.62700 26.38500
H  15.09400 0.20900 31.88100
H  16.34900 3.82500 34.12400
H  17.90400 3.07400 33.51000
H  17.04100 2.35400 34.79900

