158

Mg 17.02300 -1.84300 28.18000
C  15.90500 -0.20700 30.96100
C  19.47000 -3.43600 30.09800
C  18.11300 -3.39600 25.40200
C  14.93600 0.16200 26.23100
N  17.63100 -1.80800 30.36200
C  16.91300 -1.09100 31.25400
C  17.40000 -1.41700 32.64900
C  18.72700 -2.32100 32.32700
C  18.67100 -2.53000 30.81400
C  20.00500 -1.84600 32.97000
C  16.29800 -2.11500 33.49100
C  15.91200 -1.44800 34.80100
H  17.07800 -0.72200 35.55200
N  18.50000 -3.33600 27.81100
C  19.34100 -3.84300 28.73100
C  20.12800 -4.84300 28.11600
C  19.85000 -4.84900 26.73600
C  18.74700 -3.84700 26.59700
C  21.05700 -5.67900 28.95100
C  20.48000 -5.55300 25.59500
O  20.00100 -5.42400 24.48600
C  21.53100 -6.63400 25.76900
N  16.62900 -1.65800 26.10200
C  17.26000 -2.37200 25.12100
C  16.85400 -1.88300 23.73800
C  15.61700 -0.95000 24.08000
C  15.78700 -0.73200 25.56500
C  18.03200 -1.19800 23.04400
C  14.27500 -1.61600 23.68900
C  13.98600 -1.37400 22.20000
N  15.57500 -0.34500 28.48600
C  14.80700 0.41400 27.62700
C  13.97700 1.36000 28.39300
C  14.39200 1.16500 29.68000
C  15.37300 0.14200 29.66000
C  13.10100 2.37600 27.85400
C  14.23500 1.59200 31.04500
O  13.56700 2.47700 31.51300
C  15.25500 0.73300 31.90700
C  16.21500 1.73700 32.46900
O  17.19300 2.14200 31.88000
O  15.71600 2.21300 33.63800
C  16.52500 3.28300 34.21800
H  20.21200 -3.88800 30.76000
H  18.38900 -3.83600 24.44100
H  14.23900 0.82400 25.71200
H  17.64000 -0.45600 33.10500
H  18.59500 -3.33400 32.70800
H  19.81900 -0.97600 33.60000
H  20.66600 -1.56000 32.15200
H  20.40000 -2.67500 33.55700
H  16.75800 -3.07300 33.73300
H  15.38200 -2.31200 32.93200
H  15.66600 -2.39600 35.27800
H  14.97400 -0.90400 34.90800
H  20.68000 -6.03600 29.91000
H  21.82500 -4.97600 29.27400
H  21.52500 -6.46700 28.36200
H  22.43100 -6.27700 26.27000
H  21.81800 -7.05300 24.80400
H  21.02700 -7.44000 26.30200
H  16.53000 -2.78200 23.21400
H  15.68100 0.02700 23.60200
H  18.92400 -1.45200 23.61700
H  17.78000 -0.15200 22.87100
H  18.10700 -1.64400 22.05300
H  13.46400 -1.21700 24.29800
H  14.26300 -2.69400 23.85000
H  13.77400 -2.38000 21.83900
H  14.69500 -0.85000 21.55900
H  13.05900 -0.80000 22.20700
H  13.55400 2.71700 26.92300
H  13.23200 3.18200 28.57500
H  12.09400 2.02700 27.62300
H  14.61800 0.29900 32.67800
H  17.57800 3.02300 34.11200
H  16.40100 3.29200 35.30100
H  16.24900 4.25600 33.81100
Mg 46.83600 16.65300 27.40900
C  45.01000 16.51000 30.41100
C  49.18900 18.43000 28.99600
C  48.32100 16.94500 24.40700
C  44.21800 15.00900 25.81500
N  46.91700 17.62000 29.51600
C  46.19700 17.22000 30.62200
C  46.88400 17.65400 31.91900
C  48.19100 18.50800 31.36500
C  48.14600 18.15300 29.91300
C  48.15700 19.98500 31.64100
C  47.33500 16.45700 32.73300
C  47.06300 16.56500 34.20700
H  47.05200 18.00700 34.82100
N  48.48400 17.64100 26.76900
C  49.39900 18.33400 27.58200
C  50.50600 18.75400 26.72100
C  50.21300 18.33800 25.40500
C  48.96700 17.63400 25.53400
C  51.64900 19.59800 27.29700
C  50.98400 18.62400 24.09500
O  50.70700 18.26500 22.96400
C  52.18400 19.48700 24.26200
N  46.37600 15.94200 25.36800
C  47.20400 16.14300 24.33700
C  46.67300 15.49000 23.01100
C  45.26300 14.88100 23.52500
C  45.30200 15.18800 25.03700
C  46.46600 16.66400 21.96100
C  45.01300 13.39500 23.09100
C  44.23500 13.26500 21.79600
N  45.05800 15.80300 28.00600
C  44.01400 15.27500 27.22100
C  42.85100 14.91000 28.02100
C  43.24000 15.44000 29.31400
C  44.56100 15.95700 29.17600
C  41.72400 14.08700 27.59800
C  42.82500 15.54600 30.72200
O  41.77500 15.14100 31.22200
C  44.05100 16.12000 31.46600
C  43.56300 17.20800 32.32100
O  43.16000 18.31400 31.99300
O  43.54300 16.68300 33.60300
C  42.68000 17.48900 34.46000
H  49.96100 18.92700 29.58600
H  48.86300 17.08100 23.46800
H  43.31200 14.63200 25.33600
H  46.29400 18.33600 32.53100
H  49.11700 18.13600 31.80300
H  49.05200 20.20600 32.22100
H  47.28500 20.27200 32.22900
H  48.17900 20.50300 30.68200
H  48.39900 16.22200 32.71100
H  46.81600 15.60400 32.29400
H  47.82100 15.98700 34.73600
H  46.18500 15.93800 34.36700
H  52.60900 19.12800 27.08500
H  51.66200 19.62800 28.38600
H  51.66000 20.60500 26.88100
H  51.88900 20.38300 24.80900
H  52.51000 19.92900 23.32000
H  52.99800 18.95900 24.75900
H  47.44200 14.79500 22.67400
H  44.45600 15.43300 23.04400
H  46.47700 17.63500 22.45600
H  45.46500 16.50600 21.55900
H  47.16300 16.59100 21.12600
H  44.45300 12.97100 23.92500
H  45.97800 12.89000 23.07100
H  44.90700 12.73300 21.12300
H  44.07800 14.21400 21.28400
H  43.29200 12.74200 21.95400
H  41.98200 13.07300 27.29500
H  41.29500 14.54400 26.70600
H  41.05700 14.08300 28.46000
H  44.56600 15.40100 32.10300
H  42.94500 18.54300 34.37200
H  42.63000 17.05400 35.45800
H  41.70800 17.45200 33.96700

