158

Mg 35.20400 1.68500 29.38500
C  32.90000 2.94900 31.81100
C  37.62900 1.79300 31.66300
C  37.49100 1.09900 27.01900
C  32.71000 2.17200 26.98800
N  35.27800 2.38000 31.46700
C  34.18100 2.64300 32.29100
C  34.71700 2.69900 33.70700
C  36.27500 2.61900 33.58100
C  36.43600 2.26200 32.13800
C  37.04600 3.87800 33.84600
C  34.02000 1.61200 34.56500
C  33.71100 2.10300 35.97200
H  34.70600 2.96900 36.70100
N  37.16600 1.21400 29.46600
C  38.02600 1.31600 30.45800
C  39.29300 0.73300 30.12200
C  39.18700 0.40000 28.76300
C  37.90500 0.99000 28.35500
C  40.51500 0.52700 31.04000
C  40.23200 -0.27800 27.84200
O  40.09200 -0.33600 26.63400
C  41.46700 -0.90100 28.39300
N  35.10000 1.67600 27.36200
C  36.20100 1.45900 26.55800
C  35.76900 1.47700 25.08800
C  34.22100 1.60800 25.06700
C  33.98700 1.77000 26.59400
C  36.40100 2.55300 24.25000
C  33.45300 0.42700 24.41300
C  32.40000 0.71300 23.29900
N  33.12300 2.40000 29.32500
C  32.26100 2.58000 28.31500
C  30.95800 3.09300 28.77600
C  31.17300 3.19200 30.16200
C  32.51700 2.80200 30.44100
C  29.68400 3.35000 28.02100
C  30.63900 3.71900 31.44600
O  29.51000 4.20400 31.67700
C  31.62000 3.36000 32.53400
C  31.71700 4.48400 33.50900
O  32.40400 5.45700 33.30300
O  30.77800 4.32700 34.53300
C  30.98300 5.23200 35.67500
H  38.39200 1.63800 32.42800
H  38.17500 0.73200 26.25100
H  31.98600 2.27500 26.17700
H  34.41000 3.71300 33.96600
H  36.66000 1.78000 34.16100
H  37.93100 3.89600 33.21000
H  37.50800 4.03500 34.82100
H  36.42500 4.72600 33.55600
H  34.69000 0.75400 34.62000
H  33.12300 1.35100 34.00300
H  33.56700 1.20800 36.57800
H  32.80300 2.70500 35.96900
H  40.44200 1.03500 32.00200
H  41.37200 0.96200 30.52500
H  40.62100 -0.55400 31.13300
H  41.37500 -1.68100 29.14900
H  42.14500 -0.08100 28.63100
H  41.97700 -1.33700 27.53400
H  36.01300 0.48800 24.69900
H  33.80500 2.46900 24.54400
H  36.90800 3.17000 24.99100
H  35.68700 3.22900 23.78100
H  37.06300 2.26300 23.43400
H  32.99200 -0.25400 25.12900
H  34.04300 -0.28700 23.83900
H  31.69000 1.48500 23.59500
H  31.96400 -0.27200 23.13000
H  32.82800 0.86000 22.30800
H  28.94600 2.57200 28.21500
H  29.81400 3.31200 26.93900
H  29.40500 4.32200 28.42600
H  31.22500 2.57400 33.17800
H  30.30800 6.08700 35.64900
H  31.96700 5.70000 35.64000
H  30.80000 4.69300 36.60400
Mg 9.21600 47.21900 27.55500
C  7.41800 46.80200 30.57200
C  12.13200 47.70400 29.42600
C  10.91800 48.53300 24.89600
C  6.26900 47.51100 25.79100
N  9.67200 47.24700 29.75200
C  8.77400 46.97300 30.80400
C  9.49300 47.07700 32.12400
C  10.95100 47.51200 31.71600
C  10.96900 47.48700 30.15700
C  11.45500 48.87100 32.27500
C  9.47900 45.76200 32.90900
C  10.42500 45.44700 34.00300
H  9.83900 45.21800 35.42700
N  11.28000 47.78000 27.11500
C  12.33300 47.82900 28.04700
C  13.61900 48.09500 27.36200
C  13.22700 48.41800 25.98500
C  11.72800 48.28100 25.97200
C  15.04700 48.17100 28.04000
C  14.08600 48.80400 24.83200
O  13.65400 49.18300 23.77000
C  15.57000 48.83200 24.95300
N  8.68000 48.11900 25.67700
C  9.53000 48.42300 24.65800
C  8.88300 48.74500 23.36900
C  7.39200 48.37900 23.68500
C  7.41100 47.84300 25.09900
C  9.02100 50.26100 22.86500
C  6.95600 47.35200 22.56200
C  7.08500 47.85800 21.04100
N  7.29400 47.05400 27.97100
C  6.24100 47.15600 27.11900
C  5.02000 46.86400 27.90200
C  5.42800 46.73000 29.25900
C  6.86000 46.73900 29.24000
C  3.60200 47.06700 27.40300
C  4.96600 46.57800 30.65000
O  3.81000 46.48200 31.08800
C  6.26000 46.58800 31.55200
C  6.37800 45.15900 32.12200
O  6.97100 44.22500 31.64600
O  5.75700 45.20200 33.33300
C  5.83000 43.88700 33.98000
H  13.00800 47.72500 30.07700
H  11.39700 48.93900 24.00200
H  5.43200 47.60200 25.09500
H  8.99700 47.83800 32.72500
H  11.61400 46.68000 31.95200
H  10.71400 49.18200 33.01000
H  11.41200 49.64800 31.51200
H  12.44800 48.66600 32.67600
H  9.78800 45.06100 32.13400
H  8.45700 45.51100 33.19600
H  11.03300 46.34700 34.09800
H  11.09200 44.61300 33.78600
H  15.67600 47.40000 27.59500
H  15.00900 47.76000 29.04900
H  15.52200 49.14700 28.13800
H  16.10400 49.03000 24.02400
H  15.79900 47.79100 25.18200
H  15.89100 49.33700 25.86400
H  9.23400 48.16400 22.51600
H  6.81000 49.29100 23.55000
H  8.08000 50.80600 22.79400
H  9.46700 50.25800 21.87000
H  9.61800 50.79900 23.60100
H  5.88900 47.14300 22.63700
H  7.53800 46.44800 22.74400
H  6.42900 47.26600 20.40300
H  8.10500 47.87500 20.65800
H  6.56000 48.80700 21.15300
H  3.00700 47.52300 28.19400
H  3.30100 46.04100 27.18900
H  3.54500 47.82100 26.61800
H  6.26500 47.28900 32.38700
H  5.32900 43.16900 33.33000
H  5.40300 44.01200 34.97400
H  6.88900 43.63800 34.04700

