158

Mg 1.33900 -1.32100 43.36700
C  4.77300 -0.72500 42.68300
C  0.65300 1.74400 41.95600
C  -1.83100 -2.35500 43.06400
C  2.21100 -4.58400 44.41000
N  2.55700 0.25700 42.32300
C  3.88800 0.24700 42.09400
C  4.32500 1.58000 41.47700
C  3.04600 2.49300 41.54500
C  2.04000 1.51600 42.05000
C  3.13900 3.66800 42.53300
C  5.08000 1.42600 40.10100
C  4.36500 0.50700 39.08000
H  4.65300 0.68500 37.58600
N  -0.38200 -0.43300 42.60300
C  -0.44700 0.90600 42.16400
C  -1.84800 1.18800 41.92400
C  -2.53900 -0.01000 42.24500
C  -1.59600 -1.01800 42.70200
C  -2.45200 2.55000 41.54000
C  -4.02600 -0.25600 41.98900
O  -4.66300 0.72100 41.59600
C  -4.83300 -1.49600 42.21200
N  0.36300 -3.10900 43.59300
C  -0.98600 -3.34700 43.46300
C  -1.42900 -4.71600 43.98000
C  -0.07400 -5.43700 44.16800
C  0.88800 -4.31100 44.19100
C  -2.34400 -4.72100 45.23300
C  0.21200 -6.57800 43.21500
C  0.67100 -7.91000 43.87400
N  3.09000 -2.40600 43.62200
C  3.33300 -3.68000 44.16400
C  4.75200 -3.82800 44.38000
C  5.32200 -2.75000 43.73000
C  4.31400 -1.87400 43.35400
C  5.44000 -5.02800 44.90000
C  6.62500 -2.23100 43.26800
O  7.75800 -2.74100 43.27600
C  6.29200 -0.83300 42.53400
C  7.05500 0.20900 43.23500
O  8.24300 0.54100 42.96500
O  6.32900 0.74200 44.22900
C  6.88300 1.79200 45.07200
H  0.38000 2.78500 41.76900
H  -2.83400 -2.77600 42.96900
H  2.45900 -5.53700 44.88200
H  5.09000 1.91300 42.17800
H  2.73800 3.01900 40.64100
H  2.99300 3.36300 43.56900
H  2.39000 4.41300 42.26600
H  4.14300 4.09300 42.52500
H  6.08300 1.00900 40.19900
H  5.17200 2.39600 39.61400
H  3.28500 0.61100 39.18400
H  4.75400 -0.48300 39.32000
H  -1.75800 3.37600 41.69300
H  -3.28000 2.81800 42.19600
H  -2.88900 2.42000 40.55000
H  -5.73100 -1.27600 41.63500
H  -5.04800 -1.66400 43.26700
H  -4.33600 -2.32700 41.71000
H  -2.03400 -5.20600 43.21800
H  -0.04300 -5.84200 45.17900
H  -1.78800 -4.77300 46.16900
H  -3.21500 -5.36700 45.11800
H  -2.79800 -3.73500 45.12900
H  0.98300 -6.30700 42.49300
H  -0.71800 -6.68900 42.65800
H  1.74800 -8.01400 43.73800
H  0.15600 -8.66800 43.28400
H  0.42700 -7.82300 44.93300
H  4.78400 -5.39600 45.68700
H  6.42300 -4.71800 45.25500
H  5.49200 -5.71400 44.05400
H  6.73800 -1.07100 41.56800
H  6.23200 2.02400 45.91500
H  7.09700 2.62800 44.40600
H  7.76200 1.26900 45.44700
Mg -1.87900 34.65100 27.41700
C  -3.81300 33.00100 29.76200
C  -0.51900 36.53900 29.57500
C  -0.50100 36.45400 24.81500
C  -3.48200 32.74300 24.80100
N  -2.14900 34.62600 29.43600
C  -3.02500 34.00900 30.26000
C  -2.89400 34.39100 31.69500
C  -2.00800 35.70700 31.58000
C  -1.52000 35.62700 30.09700
C  -2.76400 37.02100 31.93000
C  -2.31100 33.23500 32.62200
C  -3.03800 32.76000 33.84500
H  -2.27300 32.62900 35.12300
N  -0.61600 36.25800 27.23900
C  -0.05600 36.82500 28.33200
C  0.97300 37.77000 27.92800
C  0.94100 37.81900 26.49700
C  -0.05800 36.77700 26.09500
C  1.82000 38.60900 28.91500
C  1.75900 38.64200 25.54100
O  1.38200 38.87200 24.43700
C  2.85100 39.52400 25.96900
N  -2.05400 34.72900 25.14100
C  -1.42600 35.60200 24.36200
C  -1.88800 35.44800 22.86600
C  -2.57600 33.96600 22.80500
C  -2.70100 33.80400 24.36600
C  -2.78200 36.67700 22.52000
C  -1.95800 32.92200 22.01500
C  -1.00400 33.26900 20.87000
N  -3.26200 33.12100 27.22800
C  -3.73600 32.39200 26.14900
C  -4.69500 31.37600 26.57200
C  -4.69100 31.51700 27.93700
C  -3.84000 32.61000 28.38000
C  -5.62900 30.50000 25.81100
C  -5.40100 31.12400 29.17600
O  -6.29900 30.29000 29.32400
C  -4.69600 32.02300 30.41500
C  -5.75300 32.60200 31.30500
O  -6.45700 33.59400 31.07600
O  -5.89400 31.83500 32.50400
C  -6.89400 32.35200 33.48500
H  0.01400 37.00700 30.40400
H  -0.03300 37.06800 24.04300
H  -4.08900 32.30400 24.00700
H  -3.89600 34.54100 32.09900
H  -1.15500 35.71600 32.25800
H  -3.22200 36.95200 32.91700
H  -3.51600 37.19500 31.16000
H  -1.99000 37.78700 31.96600
H  -1.28700 33.51400 32.87000
H  -2.14400 32.29500 32.09500
H  -3.68500 31.89200 33.71500
H  -3.85300 33.47900 33.92600
H  1.59400 38.46700 29.97200
H  1.61800 39.63100 28.59400
H  2.88500 38.44000 28.75900
H  3.36700 39.08000 26.82000
H  2.25700 40.34100 26.37700
H  3.53400 39.83800 25.17900
H  -0.97500 35.50000 22.27300
H  -3.60500 34.06600 22.46100
H  -3.12000 37.25000 23.38300
H  -3.74900 36.39400 22.10200
H  -2.25900 37.39000 21.88300
H  -2.78600 32.38100 21.55700
H  -1.42800 32.19900 22.63300
H  -1.16300 32.58000 20.04000
H  0.03600 33.06800 21.12800
H  -1.10700 34.27000 20.45200
H  -5.64100 29.48700 26.21200
H  -5.31600 30.48500 24.76700
H  -6.63100 30.92900 25.84000
H  -4.09300 31.35000 31.02400
H  -7.39500 31.42500 33.76600
H  -7.61900 33.05100 33.06800
H  -6.36900 32.79600 34.33100

