158

Mg 15.94700 -1.27100 27.49400
C  14.80800 0.58100 30.40700
C  18.08500 -3.02000 29.46200
C  17.15700 -2.61500 24.71100
C  13.91700 1.00400 25.55400
N  16.50200 -1.15400 29.70900
C  15.80900 -0.39500 30.62200
C  16.24400 -0.87700 32.04200
C  17.36000 -1.94700 31.74600
C  17.37900 -2.00200 30.21300
C  18.74000 -1.70300 32.40900
C  15.12400 -1.39900 32.82000
C  15.24700 -1.20100 34.36500
H  16.40600 -0.52800 35.01100
N  17.42100 -2.57700 27.15100
C  18.15800 -3.18500 28.10900
C  18.99500 -4.24000 27.42900
C  18.69300 -4.20900 25.99200
C  17.76700 -3.07200 25.89500
C  19.85400 -5.09800 28.17000
C  19.14800 -5.17100 24.90300
O  18.80600 -4.95700 23.73000
C  19.99700 -6.35200 25.25700
N  15.57000 -0.92500 25.46000
C  16.17800 -1.65300 24.47000
C  15.54800 -1.35300 23.07500
C  14.68600 -0.09300 23.34500
C  14.68100 -0.00000 24.91100
C  16.51300 -1.28000 21.83900
C  13.28200 -0.10200 22.71700
C  13.26600 -0.15100 21.21400
N  14.60500 0.44100 27.85700
C  13.92700 1.26900 26.99700
C  13.17700 2.25700 27.72200
C  13.43400 2.02700 29.08700
C  14.27700 0.94900 29.11500
C  12.46700 3.31500 27.03400
C  13.24900 2.49400 30.46200
O  12.62500 3.49500 30.91600
C  14.13700 1.47400 31.36600
C  15.07800 2.28800 32.28000
O  16.24100 2.58800 32.05900
O  14.36600 2.63600 33.41800
C  14.94500 3.64500 34.36500
H  18.61800 -3.68000 30.15000
H  17.39800 -3.12000 23.77300
H  13.32300 1.64100 24.89600
H  16.61000 -0.00800 32.58800
H  17.04100 -2.84600 32.27400
H  19.08700 -2.51200 33.05200
H  18.54200 -0.85600 33.06500
H  19.45400 -1.33000 31.67400
H  14.88200 -2.38300 32.41800
H  14.19200 -0.85600 32.66200
H  15.14900 -2.17700 34.84100
H  14.37000 -0.63800 34.68300
H  20.67600 -5.63300 27.69400
H  19.32900 -5.93000 28.63900
H  20.28500 -4.54500 29.00500
H  21.04500 -6.08300 25.39400
H  19.95000 -6.99900 24.38100
H  19.58100 -6.90800 26.09700
H  14.84100 -2.16500 22.90700
H  15.19300 0.81500 23.01900
H  17.44900 -1.79400 22.05800
H  16.70700 -0.37800 21.25800
H  15.98500 -1.92000 21.13200
H  12.71600 0.78700 22.99700
H  12.79700 -1.00000 23.09800
H  12.81000 0.70000 20.70800
H  12.74200 -1.05200 20.89700
H  14.27100 -0.21800 20.79700
H  13.12700 3.75200 26.28600
H  12.40400 4.05000 27.83600
H  11.47900 3.03200 26.67100
H  13.31700 0.95500 31.86300
H  14.52100 3.49500 35.35700
H  14.70500 4.66400 34.05900
H  16.00800 3.42600 34.46300
Mg 40.53900 10.25900 29.22500
C  42.44900 11.80100 31.76600
C  38.20400 9.32000 31.51500
C  38.74700 9.07700 26.70000
C  43.01900 11.10800 27.03400
N  40.31200 10.57800 31.33100
C  41.21100 11.23400 32.20100
C  40.68800 11.30600 33.59700
C  39.53000 10.34800 33.54700
C  39.37500 9.94600 32.07100
C  39.45600 9.14800 34.45600
C  40.27800 12.84500 33.85100
C  39.52700 13.12700 35.22900
H  40.27500 13.75000 36.36000
N  38.75800 9.25400 29.12900
C  37.95600 8.89900 30.20100
C  36.84200 8.20100 29.71600
C  37.04700 8.05900 28.29300
C  38.22100 8.86000 27.97300
C  35.75500 7.60400 30.53700
C  36.12800 7.37300 27.29400
O  36.42500 7.19000 26.14200
C  34.76000 6.85300 27.74800
N  40.87200 10.03600 27.12500
C  39.97000 9.51900 26.29300
C  40.40900 9.56700 24.82300
C  41.75900 10.31800 24.94800
C  41.89200 10.61300 26.47500
C  40.29900 8.28500 23.95900
C  41.94400 11.48800 23.99900
C  41.46900 12.91000 24.46700
N  42.45300 11.02000 29.36200
C  43.32400 11.31600 28.38600
C  44.55500 11.82700 28.91500
C  44.20600 12.10600 30.24400
C  42.92200 11.63000 30.46500
C  45.89100 11.98300 28.32300
C  44.57500 12.78800 31.44500
O  45.61300 13.36300 31.66900
C  43.42400 12.63700 32.48900
C  44.04200 11.76500 33.61300
O  44.47900 10.63300 33.44500
O  43.78400 12.38900 34.82900
C  43.93800 11.44000 35.96400
H  37.48200 9.08300 32.29900
H  38.27700 8.82100 25.74800
H  43.80800 11.35100 26.32000
H  41.47000 11.01900 34.30100
H  38.60400 10.88500 33.75000
H  39.37600 8.21000 33.90700
H  38.61100 9.19900 35.14200
H  40.35700 9.13900 35.07000
H  39.64900 13.13400 33.00900
H  41.16300 13.47900 33.89600
H  39.22700 12.15800 35.62900
H  38.63500 13.71100 35.00000
H  35.77000 6.51600 30.60700
H  34.80900 8.01100 30.17900
H  35.75100 7.96700 31.56500
H  34.32200 6.44400 26.83800
H  34.21700 7.66100 28.24000
H  34.79700 6.01500 28.44400
H  39.80600 10.32300 24.32000
H  42.43800 9.48500 24.76500
H  41.12200 8.21900 23.24800
H  39.35500 8.27000 23.41400
H  40.38700 7.46300 24.67000
H  41.51900 11.32000 23.01000
H  42.98500 11.66700 23.72800
H  40.77900 12.76300 25.29800
H  40.87200 13.45300 23.73400
H  42.40400 13.37100 24.78300
H  46.07500 13.03200 28.08900
H  46.09700 11.33400 27.47200
H  46.55300 11.63700 29.11700
H  43.02600 13.60900 32.78300
H  44.99700 11.18700 35.99900
H  43.41500 10.49000 35.85100
H  43.66100 11.82900 36.94400

