158

Mg 47.21300 35.55700 26.69900
C  45.61900 33.94000 29.37100
C  47.78000 38.25500 28.72400
C  48.11500 37.27100 23.93500
C  46.10000 32.89100 24.62700
N  46.72400 36.01100 28.73000
C  46.21100 35.18300 29.65100
C  46.53000 35.75900 31.05100
C  46.73800 37.24200 30.81400
C  47.15600 37.15600 29.36000
C  45.49400 38.14500 31.11300
C  47.69200 34.99800 31.68500
C  48.01600 35.00200 33.24300
H  47.05600 35.89100 34.06300
N  47.97100 37.48800 26.31900
C  48.10800 38.50000 27.29500
C  48.60800 39.67000 26.71000
C  48.85000 39.37100 25.29400
C  48.30100 37.99800 25.10100
C  48.84400 40.90800 27.48000
C  49.37500 40.24500 24.22000
O  49.41000 39.87100 23.04000
C  49.91500 41.64800 24.51400
N  47.11000 35.07300 24.57300
C  47.52400 35.97000 23.64300
C  47.48700 35.47300 22.25200
C  47.23700 33.94800 22.50600
C  46.78300 33.93700 23.97900
C  46.54600 36.18100 21.24800
C  48.50200 33.11400 22.33900
C  48.61600 32.08800 21.15200
N  46.13000 33.80200 26.86200
C  45.81600 32.79500 25.99100
C  45.17000 31.70100 26.63300
C  45.00600 32.09900 28.03000
C  45.63800 33.38400 28.06800
C  44.53600 30.46600 26.04300
C  44.42200 31.78900 29.28600
O  43.81200 30.80100 29.66400
C  44.69700 32.99000 30.20400
C  45.09700 32.53800 31.53200
O  46.09700 31.86600 31.84600
O  44.20000 33.02300 32.42500
C  44.59400 32.83200 33.82500
H  47.96800 39.18400 29.26800
H  48.44700 37.71600 22.99400
H  45.83900 32.03200 24.00600
H  45.67400 35.61800 31.71000
H  47.54100 37.64100 31.43400
H  45.73900 38.97200 31.77900
H  44.65000 37.56300 31.48200
H  45.19500 38.59300 30.16500
H  48.58900 35.23900 31.11500
H  47.60900 33.94800 31.40500
H  49.02300 35.38900 33.40300
H  47.90500 33.96700 33.56800
H  49.72900 41.38300 27.05800
H  48.96200 40.72800 28.54800
H  48.04600 41.59700 27.20000
H  50.19600 42.12400 23.57500
H  50.73300 41.90600 25.18700
H  49.09000 42.25700 24.88300
H  48.45500 35.57200 21.76100
H  46.46400 33.51200 21.87300
H  45.84000 35.48500 20.79600
H  47.19100 36.66500 20.51500
H  45.95200 36.95500 21.73500
H  48.51600 32.49900 23.23900
H  49.40500 33.72400 22.35300
H  48.53400 31.07500 21.54600
H  49.54500 32.07600 20.58200
H  47.83000 32.25300 20.41600
H  45.25200 29.65600 26.18000
H  44.39900 30.65500 24.97800
H  43.52600 30.23900 26.38300
H  43.74400 33.49800 30.34900
H  43.86000 33.44400 34.35000
H  45.59700 33.23300 33.96900
H  44.40300 31.81500 34.16700
Mg 26.70200 50.85300 25.86900
C  24.94200 52.09000 28.69900
C  29.27400 50.24400 28.00900
C  28.34500 49.73600 23.23000
C  24.21500 52.21300 23.91700
N  27.03400 51.18600 28.08600
C  26.17900 51.50800 29.03900
C  26.71000 51.33500 30.49400
C  28.19200 51.06800 30.24200
C  28.18600 50.74500 28.65300
C  29.16000 52.20600 30.72200
C  25.89700 50.26900 31.24900
C  25.36100 50.61200 32.61600
H  26.43200 51.05700 33.63900
N  28.58700 50.17900 25.68400
C  29.51900 50.01100 26.64100
C  30.64600 49.41300 26.03500
C  30.39700 48.97800 24.70900
C  29.12500 49.66200 24.49200
C  31.84500 49.12800 26.88500
C  31.21200 48.14500 23.74300
O  30.88900 47.91200 22.58400
C  32.48700 47.48100 24.18100
N  26.36400 50.97300 23.81600
C  27.15700 50.32300 22.93300
C  26.44700 50.30100 21.52300
C  25.15600 51.18500 21.79800
C  25.21700 51.47700 23.23400
C  27.39800 50.72800 20.37500
C  23.74300 50.45400 21.44400
C  22.56900 51.34100 20.97900
N  25.00000 51.91300 26.18200
C  24.04300 52.36700 25.28500
C  23.00600 53.08100 25.92700
C  23.29200 52.99100 27.28400
C  24.51200 52.29300 27.37600
C  21.91300 53.80600 25.28500
C  22.84700 53.31700 28.55200
O  21.81300 53.93400 28.86700
C  23.92400 52.78800 29.55800
C  24.43400 53.82500 30.54300
O  25.23600 54.72000 30.30100
O  23.93500 53.59400 31.80400
C  24.32300 54.57900 32.85700
H  30.03800 50.08200 28.77200
H  28.96100 49.25200 22.46900
H  23.47100 52.67400 23.26500
H  26.52600 52.25600 31.04700
H  28.38500 50.11700 30.73700
H  28.77500 53.21800 30.59500
H  30.04500 52.14400 30.08800
H  29.49700 52.12900 31.75500
H  26.53100 49.38900 31.36200
H  25.08500 49.91400 30.61400
H  24.91200 49.67400 32.94400
H  24.52300 51.30700 32.67400
H  31.89500 49.75100 27.77700
H  32.78000 49.40700 26.39900
H  31.88600 48.10000 27.24600
H  33.02900 48.31800 24.62200
H  32.98400 47.06800 23.30400
H  32.30200 46.64000 24.84800
H  26.10400 49.31700 21.20300
H  25.22100 52.12600 21.25000
H  28.32200 51.06400 20.84500
H  26.90600 51.48200 19.76000
H  27.62300 49.89800 19.70600
H  23.36400 49.93700 22.32600
H  23.88800 49.74300 20.63100
H  22.15600 50.93200 20.05700
H  22.77200 52.41200 20.98900
H  21.64400 51.30900 21.55400
H  21.39700 53.24500 24.50700
H  22.30800 54.74000 24.88500
H  21.15100 53.96600 26.04900
H  23.34900 52.12900 30.20900
H  24.24700 55.60800 32.50600
H  25.31500 54.33200 33.23400
H  23.63500 54.52600 33.70000

