158

Mg 35.54800 1.08000 30.00100
C  33.28600 1.68000 32.58700
C  38.02200 1.21000 32.35900
C  37.64500 0.91500 27.42500
C  32.83200 1.60000 27.74500
N  35.61000 1.41200 32.23600
C  34.53600 1.53300 33.09100
C  34.99500 1.69500 34.54100
C  36.57800 1.54700 34.41000
C  36.80000 1.45700 32.89900
C  37.28300 2.67100 35.08200
C  34.14300 0.73900 35.51300
C  33.45700 1.41600 36.69700
H  34.13600 2.56200 37.31900
N  37.51200 0.99200 29.87800
C  38.37800 0.90100 31.01400
C  39.64300 0.61300 30.46700
C  39.56800 0.58700 29.02900
C  38.19600 0.88500 28.69500
C  40.83600 0.39300 31.39000
C  40.66500 0.17500 28.05000
O  40.51800 0.04300 26.84300
C  42.00800 -0.24600 28.63500
N  35.28900 1.08200 27.91900
C  36.31800 1.07100 27.04100
C  35.82600 1.13300 25.57200
C  34.28500 1.28000 25.73400
C  34.06400 1.27000 27.23600
C  36.51600 2.11000 24.63600
C  33.41500 0.16500 25.06700
C  32.90400 -1.05200 25.87900
N  33.52600 1.48500 30.12900
C  32.52200 1.67700 29.08000
C  31.29300 1.97200 29.65400
C  31.51700 2.04600 31.03200
C  32.91700 1.66200 31.23700
C  30.05000 2.32300 28.93000
C  30.91000 2.32300 32.38700
O  29.76900 2.57400 32.74900
C  32.03000 2.16900 33.38400
C  32.26000 3.61000 33.78300
O  33.14600 4.33100 33.26400
O  31.60700 3.95100 34.99200
C  31.74700 5.30100 35.37500
H  38.83200 1.32800 33.08300
H  38.34800 0.89900 26.59000
H  32.14100 1.75200 26.91400
H  34.74500 2.73400 34.75500
H  36.85000 0.64900 34.96400
H  37.96200 3.19000 34.40400
H  37.97200 2.32800 35.85300
H  36.57800 3.39700 35.48800
H  34.87300 -0.00100 35.84000
H  33.46300 0.12200 34.92500
H  33.35500 0.72900 37.53700
H  32.49700 1.80800 36.36300
H  41.49000 1.25500 31.25800
H  41.48100 -0.47300 31.24500
H  40.52600 0.43600 32.43500
H  42.45600 0.50500 29.28500
H  42.67700 -0.30500 27.77600
H  41.80200 -1.17700 29.16300
H  36.01000 0.13900 25.16600
H  34.03300 2.25000 25.30600
H  35.82200 2.79300 24.14800
H  37.04600 1.55100 23.86500
H  37.26400 2.69200 25.17500
H  34.04900 -0.24400 24.28000
H  32.52400 0.65500 24.67400
H  33.58200 -1.22400 26.71500
H  32.82600 -2.00100 25.34800
H  31.86100 -0.91000 26.16200
H  30.29900 3.10500 28.21300
H  29.35000 2.64000 29.70400
H  29.75600 1.37800 28.47300
H  31.66600 1.56600 34.21700
H  31.55700 5.99000 34.55200
H  32.73500 5.45000 35.81000
H  31.00300 5.29300 36.17100
Mg -9.80200 17.96100 42.88200
C  -6.59000 16.60500 42.42000
C  -8.43900 21.05100 42.11000
C  -12.91300 18.95900 42.47400
C  -10.96400 14.59900 42.85000
N  -7.77000 18.74700 42.27900
C  -6.64900 18.00700 42.26900
C  -5.48700 18.89000 42.02800
C  -6.05200 20.34300 41.82700
C  -7.47600 20.06100 42.25000
C  -5.30600 21.48000 42.65600
C  -4.28300 18.47300 41.09200
C  -4.66700 17.81800 39.75600
H  -4.67800 18.59500 38.43100
N  -10.60200 19.76700 42.40800
C  -9.88300 20.87600 42.04600
C  -10.89600 22.00700 41.92900
C  -12.20200 21.56900 42.22000
C  -11.95300 20.03100 42.33900
C  -10.51800 23.38600 41.42700
C  -13.45000 22.33000 42.43600
O  -13.45500 23.58500 42.32000
C  -14.71700 21.66900 42.89600
N  -11.66000 16.92900 42.69300
C  -12.77400 17.59900 42.68200
C  -13.95500 16.68400 42.82300
C  -13.37500 15.22700 42.53000
C  -11.88100 15.56400 42.65000
C  -14.60400 16.75700 44.22600
C  -13.80500 14.52600 41.17400
C  -14.10000 13.01600 41.18100
N  -8.96100 15.96600 42.89200
C  -9.59000 14.79600 42.92300
C  -8.55300 13.70000 42.98100
C  -7.33000 14.42200 42.86600
C  -7.65400 15.75600 42.73400
C  -8.61400 12.21800 42.91600
C  -5.97900 14.17700 42.75500
O  -5.24700 13.15600 42.84500
C  -5.36400 15.64000 42.55200
C  -4.29300 15.99900 43.55200
O  -3.14000 15.57700 43.46300
O  -4.85200 16.59000 44.62600
C  -4.12400 16.79800 45.81500
H  -8.11700 22.06200 41.85300
H  -13.96100 19.21900 42.31300
H  -11.44100 13.62000 42.93600
H  -5.07600 19.00800 43.03000
H  -5.98800 20.42400 40.74200
H  -5.98500 21.93700 43.37600
H  -4.98400 22.21500 41.91800
H  -4.41700 21.15200 43.19500
H  -3.61600 17.76800 41.58800
H  -3.77300 19.42500 40.94100
H  -5.68200 17.43400 39.85600
H  -3.99700 16.96200 39.67200
H  -11.33300 23.89800 40.91600
H  -9.69100 23.30700 40.72100
H  -10.15900 23.99500 42.25700
H  -14.56500 20.92200 43.67500
H  -15.20900 21.30200 41.99600
H  -15.33400 22.37700 43.45000
H  -14.67900 17.02700 42.08400
H  -13.55300 14.46900 43.29200
H  -15.29200 15.93400 44.41600
H  -15.17500 17.64900 44.48700
H  -13.85100 16.47500 44.96200
H  -13.02500 14.67700 40.42700
H  -14.55100 15.12700 40.65400
H  -13.29100 12.38400 40.81600
H  -15.08700 12.89300 40.73500
H  -14.24300 12.76600 42.23300
H  -9.21600 12.12300 42.01200
H  -9.17000 11.85100 43.77900
H  -7.58900 11.88400 42.75600
H  -4.86200 15.60900 41.58500
H  -4.73500 16.97200 46.70000
H  -3.40200 17.60400 45.68300
H  -3.40900 15.98200 45.92000

