158

Mg 54.71800 24.47300 44.55700
C  52.10400 26.76100 43.82300
C  52.58400 21.86600 43.54000
C  57.32900 22.39500 44.59300
C  56.69300 27.10300 45.38300
N  52.55700 24.34500 43.94000
C  51.75800 25.43100 43.58200
C  50.40700 24.87800 42.92400
C  50.47800 23.32000 43.37400
C  52.01800 23.14700 43.59600
C  49.70900 22.82400 44.58400
C  50.20000 25.04600 41.41100
C  48.83200 25.05200 40.74700
H  48.68100 24.28100 39.45100
N  54.94100 22.42000 44.03600
C  53.92700 21.49100 43.71600
C  54.54300 20.20600 43.53100
C  55.89500 20.30000 43.94600
C  56.10100 21.71600 44.17600
C  53.72900 19.06600 43.21300
C  56.89500 19.08600 44.07700
O  56.62900 17.90200 43.71200
C  58.18800 19.29000 44.73600
N  56.76000 24.67500 44.86800
C  57.70600 23.68800 44.84300
C  59.04100 24.14300 45.39600
C  58.70400 25.70200 45.60800
C  57.30200 25.83900 45.26000
C  59.57600 23.40400 46.69700
C  59.56200 26.59100 44.66300
C  60.58300 27.42000 45.40400
N  54.54800 26.55600 44.58200
C  55.38100 27.48900 45.12700
C  54.75900 28.76500 45.24400
C  53.49400 28.54600 44.64000
C  53.39800 27.20500 44.30600
C  55.37200 29.96000 45.86600
C  52.27800 29.20700 44.26500
O  51.94300 30.38500 44.39900
C  51.27900 28.05700 43.62300
C  50.84200 28.34500 42.24300
O  51.62500 28.41900 41.24700
O  49.52500 28.42900 42.22100
C  49.08100 28.71600 40.89000
H  51.85000 21.08200 43.34200
H  58.19600 21.74800 44.74200
H  57.36100 27.91700 45.67100
H  49.60100 25.32700 43.50500
H  50.27300 22.69900 42.50200
H  50.43900 22.69900 45.38400
H  49.04900 21.97100 44.42700
H  49.00400 23.61000 44.85300
H  50.88700 24.31700 40.98100
H  50.61100 26.01600 41.13200
H  48.57800 26.10600 40.64200
H  48.13800 24.57600 41.43900
H  53.26000 19.22400 42.24100
H  52.96200 18.94400 43.97800
H  54.22400 18.09700 43.15200
H  58.46900 18.28300 45.04500
H  58.12800 19.83300 45.68000
H  59.02000 19.67200 44.14600
H  59.78800 24.00200 44.61600
H  58.91200 25.91900 46.65600
H  59.33000 24.03300 47.55300
H  60.63800 23.16100 46.72900
H  59.06200 22.44400 46.75700
H  58.99400 27.29200 44.05100
H  60.11900 25.94700 43.98300
H  60.38900 27.41100 46.47600
H  60.54700 28.47900 45.15100
H  61.54000 26.97700 45.12600
H  56.39700 30.16400 45.55500
H  55.31900 29.79600 46.94200
H  54.79400 30.84100 45.59000
H  50.34900 27.91500 44.17200
H  48.84600 29.77400 40.77400
H  48.13100 28.20500 40.73300
H  49.70300 28.41100 40.04800
Mg 36.45500 49.08200 24.61200
C  36.50700 47.40300 27.68600
C  35.27100 51.91300 26.12900
C  36.06300 50.60500 21.54500
C  37.69800 46.18100 23.11600
N  36.00200 49.64200 26.68300
C  36.06800 48.75300 27.82700
C  35.74500 49.57600 29.07200
C  35.40900 51.00100 28.49100
C  35.56300 50.82700 26.99200
C  34.11600 51.64700 29.08600
C  36.67700 49.50400 30.28800
C  35.98200 49.10500 31.63100
H  34.53200 49.31300 31.83700
N  35.88400 50.99800 23.90200
C  35.39000 52.00800 24.76200
C  35.09100 53.16100 23.98400
C  35.20400 52.74100 22.57100
C  35.74400 51.45400 22.62900
C  34.24300 54.30400 24.49600
C  34.78800 53.40600 21.26300
O  34.76900 52.90100 20.15700
C  34.41400 54.92800 21.30900
N  36.89600 48.46300 22.62400
C  36.56300 49.25100 21.53200
C  36.81800 48.50800 20.23100
C  37.53000 47.22100 20.74000
C  37.44100 47.24100 22.22600
C  35.49700 48.33200 19.28800
C  38.83400 46.82500 20.05600
C  40.05700 46.96000 20.90000
N  36.81500 47.02900 25.22200
C  37.40400 46.02300 24.47300
C  37.56700 44.87200 25.37600
C  37.24100 45.41000 26.65600
C  36.81700 46.76800 26.48100
C  38.04600 43.49800 25.04500
C  37.08500 45.07600 28.00300
O  37.32000 43.99500 28.56700
C  36.68100 46.30700 28.77500
C  35.37200 46.00200 29.51500
O  34.27100 46.37500 29.14100
O  35.57700 45.12500 30.55000
C  34.44500 44.48400 31.10300
H  35.02000 52.80200 26.71100
H  36.02200 50.99300 20.52500
H  38.14000 45.32600 22.60000
H  34.78600 49.12100 29.32000
H  36.22500 51.66300 28.78000
H  33.67500 51.07000 29.89900
H  33.35500 51.67000 28.30600
H  34.37100 52.66300 29.38700
H  37.06000 50.52400 30.29500
H  37.39600 48.69900 30.13800
H  36.47100 49.74100 32.36900
H  36.07200 48.02500 31.74200
H  34.09800 55.17400 23.85600
H  34.65700 54.73800 25.40600
H  33.34900 53.80900 24.87300
H  35.04500 55.47300 22.01200
H  33.36800 54.87400 21.60900
H  34.35600 55.30300 20.28800
H  37.48900 49.17200 19.68500
H  36.98500 46.30900 20.49600
H  35.22000 47.30400 19.05200
H  35.94300 48.60500 18.33200
H  34.59800 48.89300 19.54200
H  38.88800 47.45700 19.16900
H  38.78900 45.86500 19.54200
H  40.95800 47.07200 20.29700
H  40.21500 46.08400 21.52900
H  39.98400 47.86800 21.49900
H  38.91700 43.39000 24.39900
H  37.16700 42.97600 24.66700
H  38.24400 42.97400 25.98000
H  37.36400 46.56500 29.58400
H  33.98700 45.10500 31.87200
H  34.79600 43.57000 31.58300
H  33.66100 44.12600 30.43500

