158

Mg 40.50900 10.07600 29.44300
C  42.57700 11.37200 31.93900
C  38.51100 8.58500 31.93200
C  38.70400 8.59900 27.03600
C  42.90300 11.12200 27.08200
N  40.64100 9.89400 31.68000
C  41.43300 10.67600 32.45100
C  40.93400 10.66000 33.96000
C  39.78800 9.62800 33.91900
C  39.62200 9.33800 32.37200
C  39.99800 8.33100 34.68300
C  40.49700 12.03400 34.49500
C  39.72900 12.15100 35.87600
H  40.34600 13.11200 36.91100
N  38.82800 8.76000 29.54000
C  38.11200 8.33300 30.63000
C  36.91300 7.57700 30.13400
C  37.00600 7.49900 28.70300
C  38.20700 8.31900 28.33600
C  36.01600 6.91200 31.14300
C  36.02800 6.79600 27.76100
O  36.27500 6.66300 26.54000
C  34.73300 6.15900 28.36400
N  40.78800 9.86000 27.32400
C  39.79000 9.35700 26.56300
C  40.23900 9.43900 25.07900
C  41.46900 10.51100 25.11700
C  41.76800 10.49200 26.63000
C  40.68500 8.02500 24.62800
C  41.15500 11.86000 24.37900
C  40.49700 12.97000 25.24100
N  42.32600 11.10900 29.44300
C  43.21000 11.42700 28.39900
C  44.40800 11.98200 28.93200
C  44.08100 12.18900 30.34300
C  42.88100 11.53300 30.55800
C  45.61900 12.44100 28.25100
C  44.63400 12.68300 31.59200
O  45.66700 13.26600 31.86800
C  43.51500 12.35500 32.63800
C  44.17000 11.82800 33.90800
O  44.78700 10.79900 33.93800
O  43.73100 12.57000 35.00500
C  44.25500 12.04500 36.34700
H  37.84700 8.36300 32.77000
H  38.09500 8.16200 26.24100
H  43.43000 11.66800 26.29700
H  41.62100 10.41300 34.76900
H  38.86100 10.13500 34.18500
H  39.11000 8.00600 35.22500
H  40.82800 8.17800 35.37300
H  40.10300 7.54800 33.93300
H  39.87700 12.50900 33.73400
H  41.41000 12.62900 34.52900
H  39.64000 11.15800 36.31700
H  38.70500 12.49700 35.74300
H  35.09500 7.48200 31.26600
H  36.46600 6.89700 32.13500
H  35.77900 5.89800 30.82300
H  34.03400 5.98400 27.54600
H  34.39500 6.93200 29.05400
H  35.02400 5.28800 28.95200
H  39.37400 9.76500 24.50200
H  42.34800 10.26400 24.52200
H  40.72000 7.29300 25.43500
H  41.69400 8.07100 24.21900
H  40.01300 7.51900 23.93500
H  40.55200 11.65000 23.49500
H  42.14400 12.21400 24.08900
H  40.78100 13.08900 26.28700
H  39.40900 12.92000 25.28800
H  40.61900 13.81300 24.56100
H  46.53600 12.45900 28.84000
H  45.43000 13.46000 27.91200
H  45.76500 11.77700 27.39900
H  42.97200 13.28200 32.82200
H  43.88100 11.04000 36.54400
H  44.01100 12.67300 37.20300
H  45.34300 12.08100 36.30100
Mg 54.50900 24.59500 44.69200
C  51.91200 26.80900 43.84000
C  52.32400 21.98300 43.85900
C  57.01200 22.39100 45.17400
C  56.64000 27.24300 45.50000
N  52.42100 24.44300 43.72700
C  51.47100 25.49300 43.61800
C  49.98500 25.00800 43.37700
C  50.26500 23.44800 43.76900
C  51.80100 23.27200 43.82600
C  49.43000 22.80400 44.94400
C  49.50400 25.17200 41.88800
C  48.20800 24.53000 41.44600
H  48.27500 23.68700 40.21900
N  54.71100 22.46500 44.43200
C  53.64500 21.61900 44.15800
C  54.15900 20.28100 44.15200
C  55.55900 20.34800 44.48300
C  55.83200 21.79700 44.74800
C  53.24100 19.09000 43.92600
C  56.52200 19.10400 44.63800
O  56.09600 17.94600 44.42600
C  57.99200 19.24500 44.97000
N  56.60500 24.77900 45.22400
C  57.41900 23.72600 45.40400
C  58.75300 24.11000 45.94200
C  58.66500 25.64900 46.07500
C  57.21600 25.92900 45.58100
C  59.29100 23.48200 47.31500
C  59.58000 26.54500 45.12600
C  60.08300 27.77900 45.90000
N  54.33400 26.59200 44.55400
C  55.26800 27.56100 45.09200
C  54.60800 28.88300 45.06800
C  53.30200 28.58000 44.66000
C  53.14500 27.24000 44.33000
C  55.18000 30.19400 45.42400
C  51.93700 29.15900 44.42700
O  51.68700 30.34100 44.56400
C  51.10800 28.09500 43.73800
C  51.09000 28.53600 42.36300
O  52.07600 28.82800 41.68600
O  49.77400 28.79100 42.00000
C  49.52700 29.36400 40.70400
H  51.60700 21.17700 43.69300
H  57.92100 21.80600 45.33000
H  57.25800 28.11500 45.72400
H  49.35600 25.42700 44.16300
H  49.86900 22.89400 42.91800
H  48.60700 22.21500 44.54100
H  49.02800 23.69300 45.43100
H  50.07600 22.19200 45.57400
H  50.39000 24.82900 41.35200
H  49.26300 26.23000 41.79300
H  47.56800 25.37900 41.20300
H  47.81700 23.87700 42.22700
H  53.37500 18.85800 42.86900
H  52.17100 19.19200 44.10600
H  53.56800 18.16000 44.39100
H  58.41700 19.94400 44.25000
H  58.48000 18.27200 44.92600
H  58.13000 19.66600 45.96600
H  59.55200 23.99800 45.20900
H  58.73600 25.97100 47.11400
H  60.37900 23.43700 47.36100
H  59.02200 22.43500 47.45100
H  59.02600 24.13000 48.15000
H  59.05400 26.86900 44.22900
H  60.49300 26.02700 44.83200
H  61.17100 27.76900 45.95800
H  59.64600 27.86000 46.89500
H  59.71100 28.66100 45.37800
H  55.56600 30.21400 46.44300
H  54.35300 30.90300 45.39500
H  55.94200 30.37800 44.66700
H  50.07700 28.04100 44.08600
H  49.58000 28.52000 40.01600
H  50.40300 29.94800 40.42300
H  48.65400 30.01500 40.72800

