158

Mg 30.74400 58.31900 39.55600
C  27.98500 56.48600 38.15500
C  32.87300 55.72300 38.47500
C  33.37800 60.14300 40.45000
C  28.52700 60.92600 40.24300
N  30.43100 56.42800 38.23000
C  29.23800 55.85900 37.87100
C  29.50700 54.43600 37.33600
C  31.04900 54.21500 37.61200
C  31.52500 55.54400 38.13300
C  31.31200 52.98900 38.54800
C  29.00000 54.31400 35.83200
C  29.60100 55.34800 34.93900
H  28.67600 56.30400 34.05200
N  32.82800 57.99900 39.43700
C  33.50900 56.91400 38.91700
C  34.92400 57.12400 39.03300
C  35.06300 58.36900 39.71500
C  33.74300 58.91100 39.91300
C  35.94100 56.19400 38.34000
C  36.43300 58.92500 40.07000
O  37.38200 58.23000 39.80200
C  36.69200 60.20700 40.69700
N  30.85300 60.18100 40.24900
C  32.06700 60.73400 40.60500
C  31.92700 62.20400 40.91600
C  30.39400 62.41600 41.05200
C  29.83000 61.06900 40.56000
C  32.86200 62.69300 42.04600
C  29.91500 63.68600 40.24700
C  30.11400 65.07800 40.96200
N  28.72000 58.62200 39.39600
C  27.92000 59.78700 39.70900
C  26.56600 59.46200 39.46100
C  26.58800 58.17400 38.92300
C  27.90900 57.68700 38.89800
C  25.44500 60.36600 39.87000
C  25.70400 57.19500 38.35200
O  24.47100 57.13800 38.21700
C  26.53200 56.00100 37.89900
C  26.09900 54.76100 38.63800
O  26.19300 54.65900 39.88600
O  25.40800 53.90800 37.78800
C  25.03500 52.59800 38.41400
H  33.57000 54.88400 38.40900
H  34.25100 60.68900 40.81300
H  27.84100 61.70600 40.57900
H  28.90300 53.77500 37.95900
H  31.54000 53.93400 36.68000
H  30.45000 52.32300 38.50400
H  31.36000 53.48500 39.51700
H  32.29300 52.54900 38.37200
H  27.91900 54.45300 35.80200
H  29.35900 53.32200 35.56000
H  30.12300 54.70300 34.23200
H  30.38300 56.01100 35.30800
H  36.69800 56.81000 37.85500
H  35.35400 55.51500 37.72100
H  36.49400 55.64500 39.10100
H  36.30700 60.99600 40.05100
H  37.76700 60.35700 40.79400
H  36.08500 60.13900 41.60000
H  32.21400 62.67300 39.97500
H  30.00500 62.54700 42.06100
H  33.49100 61.99700 42.60200
H  32.12900 63.08000 42.75400
H  33.43300 63.56900 41.73900
H  28.83600 63.73200 40.10200
H  30.53900 63.77200 39.35700
H  30.84000 65.61500 40.35200
H  30.50900 64.97400 41.97200
H  29.18400 65.64600 40.97100
H  24.54200 59.78700 39.67500
H  25.39500 61.41000 39.55900
H  25.52000 60.42700 40.95500
H  26.40600 55.82500 36.83100
H  25.69100 52.31900 39.23800
H  25.09700 51.82000 37.65300
H  24.09400 52.61900 38.96400
Mg 9.60700 47.40400 26.66000
C  7.66000 46.99000 29.55000
C  12.04800 48.69200 28.54200
C  11.22800 48.10900 23.76200
C  6.83600 46.37000 24.73400
N  9.82700 47.84500 28.77700
C  8.96100 47.51700 29.78800
C  9.54400 47.91600 31.17000
C  10.90400 48.60500 30.77800
C  10.95800 48.38300 29.27000
C  10.97800 50.17000 31.09100
C  9.77500 46.82700 32.26100
C  9.52700 47.45900 33.66500
H  9.63900 46.49700 34.81500
N  11.46100 48.21700 26.20200
C  12.36500 48.61500 27.12200
C  13.61000 48.77300 26.43600
C  13.38200 48.51400 25.07400
C  11.96400 48.26700 24.96900
C  14.95400 49.04800 27.18900
C  14.38300 48.64100 23.92500
O  14.07900 48.36500 22.76300
C  15.87800 48.89900 24.16600
N  9.12600 47.42300 24.55000
C  9.95000 47.70600 23.50400
C  9.33200 47.48300 22.08900
C  8.18800 46.56400 22.53400
C  8.02500 46.80100 24.03700
C  8.97100 48.82800 21.38000
C  8.19900 45.10100 22.12600
C  8.74400 44.09300 23.17800
N  7.69000 46.77800 27.03300
C  6.68300 46.36000 26.12600
C  5.55700 45.91400 26.81500
C  5.86000 46.17000 28.19400
C  7.19300 46.68900 28.27500
C  4.23900 45.26200 26.27300
C  5.32200 46.12200 29.47300
O  4.22400 45.67700 29.85200
C  6.52000 46.50400 30.49400
C  6.74700 45.19000 31.20000
O  7.37400 44.28900 30.73000
O  6.26000 45.22200 32.44100
C  6.42600 44.06600 33.33800
H  12.91200 48.93700 29.16300
H  11.72300 48.47600 22.86000
H  5.96200 45.91600 24.26300
H  8.87000 48.61800 31.66100
H  11.85400 48.18600 31.11000
H  11.82800 50.32000 31.75600
H  10.11100 50.54200 31.63800
H  11.09300 50.74100 30.17000
H  10.74300 46.33200 32.19100
H  9.03500 46.04900 32.07100
H  8.48300 47.77200 33.65400
H  10.20000 48.30100 33.83000
H  15.49300 49.88700 26.74600
H  15.51300 48.11500 27.12000
H  14.91300 49.25600 28.25800
H  16.29500 48.23000 24.91900
H  15.91500 49.94500 24.46800
H  16.34300 48.81700 23.18400
H  10.03900 46.93900 21.46300
H  7.23100 46.98500 22.22600
H  9.38300 49.65500 21.95800
H  7.88100 48.83700 21.35200
H  9.39400 48.74800 20.37900
H  8.84400 44.99200 21.25400
H  7.19400 44.78600 21.84900
H  9.41000 44.53900 23.91600
H  9.37600 43.40300 22.61900
H  7.90700 43.55400 23.62400
H  4.46500 44.27500 25.87000
H  3.76700 45.79500 25.44800
H  3.43000 45.13300 26.99300
H  6.26700 47.25600 31.24100
H  6.70100 44.45300 34.31900
H  7.17300 43.34500 33.00600
H  5.50900 43.48500 33.42900

