158

Mg 8.24300 3.99400 27.39300
C  9.55900 2.25000 30.29500
C  6.15900 5.68200 29.36400
C  6.79100 5.10500 24.65700
C  10.06000 1.66000 25.43500
N  7.86000 3.90100 29.63900
C  8.61600 3.30800 30.59600
C  8.30700 3.91900 31.95400
C  7.12300 4.87500 31.75100
C  7.07000 4.87300 30.12400
C  5.77400 4.53600 32.46200
C  9.68800 4.44700 32.69000
C  9.56200 5.41100 33.93700
H  10.23100 5.00400 35.26200
N  6.80600 5.36200 27.03200
C  6.03200 5.94400 27.98900
C  5.17800 6.99300 27.33300
C  5.42300 6.93800 25.97100
C  6.38800 5.73000 25.81600
C  4.24600 7.90400 28.10800
C  4.86900 7.71400 24.75000
O  5.26100 7.54300 23.55600
C  3.72400 8.53700 25.00300
N  8.30100 3.31500 25.39300
C  7.65100 4.03200 24.44400
C  7.83700 3.45300 23.09000
C  9.09400 2.53400 23.29900
C  9.13000 2.49100 24.81200
C  6.59000 2.66200 22.52900
C  10.39100 3.08800 22.68300
C  11.36400 3.91100 23.47900
N  9.44100 2.23000 27.72300
C  10.12400 1.40500 26.85100
C  10.76700 0.30400 27.65400
C  10.60500 0.65700 28.98100
C  9.75000 1.77400 28.97600
C  11.64900 -0.77400 27.00800
C  11.05200 0.24200 30.29000
O  11.89000 -0.57100 30.56200
C  10.35200 1.27100 31.24400
C  9.63100 0.55900 32.35500
O  8.59900 0.02200 32.16300
O  10.28100 0.58500 33.54700
C  9.68700 -0.03600 34.71900
H  5.58800 6.30400 30.05700
H  6.28500 5.45400 23.75500
H  10.47200 0.97800 24.68900
H  7.84800 3.13300 32.55300
H  7.42600 5.90000 31.96600
H  5.04200 4.08500 31.79200
H  5.28700 5.43400 32.84400
H  5.83400 3.79400 33.25800
H  10.34800 4.79400 31.89600
H  10.14200 3.51600 33.03200
H  8.50100 5.43200 34.18800
H  9.81200 6.45900 33.77400
H  4.19400 8.96000 27.84400
H  4.47300 7.92000 29.17400
H  3.26300 7.43700 28.05200
H  3.39000 8.96500 24.05700
H  4.06700 9.40400 25.56800
H  2.82400 8.01100 25.32000
H  8.11400 4.29300 22.45300
H  8.88000 1.51600 22.97400
H  5.67800 2.85000 23.09600
H  6.82600 1.60300 22.42100
H  6.33400 3.26600 21.65800
H  10.05900 3.66600 21.82100
H  10.96300 2.21200 22.37600
H  12.21800 3.24300 23.58500
H  10.82500 4.35500 24.31700
H  11.73600 4.69500 22.82000
H  11.59400 -0.82600 25.92100
H  11.35600 -1.70400 27.49600
H  12.71700 -0.62700 27.17200
H  11.07200 1.90600 31.76100
H  8.92000 -0.77300 34.48000
H  9.13700 0.73000 35.26600
H  10.49300 -0.44000 35.33200
Mg 25.52400 1.66000 29.51400
C  27.34700 1.58000 32.44800
C  22.54500 1.88300 31.26200
C  24.01600 1.68500 26.52600
C  28.58900 1.46600 27.75900
N  25.04600 1.63800 31.66600
C  25.98200 1.82800 32.65700
C  25.23100 2.02300 34.00500
C  23.69400 2.07400 33.59700
C  23.73000 1.81200 32.07900
C  22.80300 1.07900 34.43900
C  25.70300 3.30700 34.82300
C  26.29800 3.20500 36.21500
H  25.98700 4.31900 37.25700
N  23.57300 1.64500 28.98600
C  22.51100 1.78500 29.82500
C  21.33500 1.76900 29.01600
C  21.70400 1.56300 27.67100
C  23.15300 1.65600 27.69900
C  19.85500 1.74800 29.65900
C  20.85800 1.29500 26.39100
O  21.34200 1.01900 25.28700
C  19.36700 1.22800 26.49100
N  26.26900 1.62100 27.33800
C  25.41000 1.76800 26.30500
C  26.07600 1.96500 24.93600
C  27.57200 1.93100 25.38100
C  27.52600 1.64000 26.90400
C  25.65200 0.94900 23.82600
C  28.29900 3.15200 25.03600
C  28.07000 4.47000 25.81300
N  27.53200 1.28300 29.87800
C  28.71200 1.32800 29.14100
C  29.89400 1.14900 29.99100
C  29.38300 1.23400 31.26100
C  27.99700 1.35500 31.16100
C  31.40700 0.92700 29.58500
C  29.76700 1.43500 32.61500
O  30.89400 1.38600 33.12100
C  28.45700 1.66500 33.47900
C  28.36200 0.60200 34.41300
O  27.85800 -0.48200 34.13700
O  29.01800 0.91100 35.54200
C  28.90300 -0.05100 36.63400
H  21.62900 2.20500 31.76200
H  23.48900 1.77500 25.57400
H  29.55900 1.67200 27.30200
H  25.41100 1.10900 34.57200
H  23.26100 3.06500 33.73400
H  23.43100 0.44100 35.06100
H  22.14900 0.48200 33.80400
H  22.19100 1.56600 35.19800
H  24.88600 4.02700 34.86700
H  26.44400 3.71100 34.13300
H  27.38600 3.18300 36.16000
H  26.06800 2.24700 36.68100
H  19.10800 2.25900 29.05200
H  19.88500 1.98500 30.72300
H  19.56400 0.73400 29.38600
H  18.98400 0.80600 25.56100
H  18.94800 2.22400 26.63800
H  19.14900 0.55000 27.31500
H  25.76900 2.94000 24.55800
H  28.05900 1.08900 24.88900
H  26.39800 0.16200 23.71900
H  25.39500 1.45200 22.89400
H  24.74900 0.42700 24.14300
H  27.92400 3.31000 24.02500
H  29.35900 2.92600 25.14900
H  27.60500 4.30400 26.78500
H  27.44000 5.19000 25.29100
H  29.03600 4.96800 25.89700
H  31.84600 1.70500 28.96000
H  31.53100 -0.10300 29.24900
H  31.89000 0.95300 30.56200
H  28.43000 2.64400 33.95700
H  27.85600 -0.21400 36.88900
H  29.27300 0.34300 37.58000
H  29.43200 -0.98500 36.44100

