158

Mg 10.57500 47.40900 26.41800
C  8.62000 47.28800 29.20300
C  13.10100 48.79900 28.42000
C  12.55000 47.45000 23.75600
C  7.76500 46.91800 24.39900
N  10.87500 47.70600 28.65200
C  9.93100 47.61700 29.54400
C  10.54400 48.02600 30.92800
C  11.78900 48.85700 30.58200
C  11.94500 48.41800 29.12100
C  11.63500 50.43900 30.58600
C  10.87800 46.88900 31.90400
C  10.12500 46.80800 33.28600
H  10.45800 45.68300 34.30800
N  12.52200 48.09600 26.14700
C  13.39500 48.53400 27.05400
C  14.70700 48.68400 26.50900
C  14.60500 48.25200 25.13900
C  13.17500 47.91100 24.96200
C  15.90900 49.18400 27.33100
C  15.75300 48.06000 24.17400
O  15.57200 47.50500 23.10600
C  17.12000 48.39900 24.47500
N  10.28000 47.21400 24.38800
C  11.24000 47.14800 23.48600
C  10.60400 46.77000 22.06500
C  9.11600 46.45700 22.27700
C  9.06000 46.87100 23.80500
C  10.87800 47.64700 20.78500
C  8.69800 44.99400 21.79700
C  9.31100 43.82800 22.51400
N  8.61500 46.99800 26.73700
C  7.56600 46.92600 25.79900
C  6.33900 46.78100 26.53000
C  6.67300 46.88900 27.90600
C  8.10000 47.03300 27.95500
C  4.94900 46.59100 26.08700
C  6.15200 47.00300 29.27800
O  5.05600 47.09800 29.72300
C  7.44000 47.09400 30.14900
C  7.51400 45.93800 31.07700
O  8.27600 44.99200 31.02000
O  6.56100 46.01300 32.02300
C  6.19600 44.83100 32.79700
H  13.83800 49.34000 29.01700
H  13.16900 47.51300 22.85900
H  6.92800 46.72600 23.72400
H  9.79300 48.60700 31.46400
H  12.64800 48.51500 31.15900
H  10.89200 50.65800 31.35300
H  11.54400 50.83100 29.57300
H  12.58900 50.74300 31.01500
H  11.88400 47.03500 32.29700
H  10.89300 45.95600 31.34000
H  9.11300 46.56500 32.96400
H  10.07700 47.78700 33.76400
H  15.73300 49.22500 28.40600
H  16.45700 50.04600 26.95100
H  16.64500 48.39400 27.18500
H  17.06800 49.33900 25.02500
H  17.72000 48.57200 23.58200
H  17.57400 47.62300 25.09100
H  11.04800 45.79700 21.85900
H  8.47400 47.15300 21.73800
H  11.24400 48.63800 21.05400
H  10.01700 47.78700 20.13100
H  11.71900 47.11700 20.33700
H  8.90300 45.00200 20.72600
H  7.63800 44.81000 21.97600
H  9.78300 44.08400 23.46200
H  10.09700 43.49800 21.83400
H  8.56100 43.03900 22.57100
H  4.79700 46.66200 25.00900
H  4.36100 47.34600 26.60800
H  4.55100 45.66900 26.51100
H  7.38400 48.02300 30.71600
H  6.69300 44.74100 33.76200
H  6.47100 43.88500 32.33100
H  5.11900 44.76900 32.95300
Mg 1.88800 41.99400 26.08400
C  3.59800 42.49000 28.96900
C  -0.86000 41.13800 27.87100
C  0.43000 40.89400 23.32300
C  4.81500 42.76900 24.25300
N  1.48900 41.79100 28.21300
C  2.25000 42.17800 29.22800
C  1.56900 42.10000 30.58100
C  0.11300 41.47300 30.10800
C  0.21100 41.46900 28.62800
C  -0.28900 40.09000 30.87900
C  1.52100 43.48000 31.41000
C  1.97600 43.41900 32.86800
H  1.75900 42.15300 33.69600
N  -0.03000 41.26400 25.65100
C  -1.03700 41.08200 26.50400
C  -2.25400 40.63800 25.83800
C  -1.89500 40.59200 24.41000
C  -0.45500 40.91800 24.43900
C  -3.58100 40.32400 26.56000
C  -2.78200 40.28300 23.20200
O  -2.46300 40.31200 22.02600
C  -4.29000 40.13700 23.58700
N  2.55300 41.76000 24.16200
C  1.78500 41.20200 23.19600
C  2.50200 40.92400 21.92100
C  3.78900 41.78600 22.07500
C  3.71900 42.19900 23.57400
C  2.58000 39.45600 21.45900
C  3.75000 43.15600 21.32600
C  5.24000 43.75700 20.95000
N  3.82100 42.55400 26.44400
C  4.87100 42.92200 25.64300
C  5.94900 43.35700 26.42900
C  5.54000 43.10000 27.74600
C  4.19100 42.69400 27.74000
C  7.29500 43.73100 25.96000
C  6.05000 42.92000 29.07000
O  7.21900 42.88100 29.52500
C  4.70800 42.65600 29.97500
C  5.03500 41.40500 30.71500
O  4.97600 40.27300 30.22200
O  5.37300 41.64800 32.06400
C  5.70700 40.45800 32.88700
H  -1.77000 41.03100 28.46500
H  -0.10900 40.58700 22.42400
H  5.67200 43.07400 23.65000
H  2.19900 41.40400 31.13500
H  -0.54400 42.25100 30.49700
H  -0.69500 39.34400 30.19600
H  -1.13300 40.35500 31.51600
H  0.55600 39.77600 31.49200
H  0.54800 43.96200 31.50700
H  2.06300 44.20900 30.80900
H  1.53900 44.29200 33.35300
H  3.06100 43.52400 32.89600
H  -4.25600 41.11500 26.23300
H  -3.49300 40.25400 27.64500
H  -3.94800 39.31500 26.37300
H  -4.51900 39.07300 23.64600
H  -4.88500 40.49600 22.74700
H  -4.70000 40.70500 24.42200
H  1.93900 41.52500 21.20700
H  4.78300 41.34000 22.03100
H  3.59400 39.07600 21.58500
H  2.22400 39.44000 20.42900
H  2.09500 38.75200 22.13500
H  3.18800 43.79300 22.00900
H  3.13700 43.27400 20.43300
H  5.37100 43.75100 19.86800
H  6.08200 43.15700 21.29700
H  5.48700 44.71800 21.40000
H  7.21000 44.11300 24.94300
H  7.96800 42.87500 26.00100
H  7.71200 44.38800 26.72300
H  4.46900 43.53800 30.57000
H  5.69500 40.89500 33.88500
H  6.68000 39.98200 32.76400
H  5.03100 39.63000 32.67200

