158

Mg 46.27300 5.93700 49.12800
C  43.91300 8.36300 48.44600
C  44.10300 3.51000 47.97600
C  48.85400 3.70300 49.15500
C  48.51600 8.51100 49.85900
N  44.29000 5.96700 48.11600
C  43.50800 7.10900 48.00900
C  42.12900 6.75500 47.38900
C  42.11100 5.17600 47.41000
C  43.58000 4.86900 47.88000
C  41.05500 4.54200 48.44800
C  42.09100 7.37200 45.90700
C  41.06500 8.48600 45.55000
H  40.29200 8.02300 44.28100
N  46.40800 3.80700 48.63900
C  45.37800 2.96200 48.36400
C  45.89200 1.66000 48.13800
C  47.31200 1.64400 48.45300
C  47.62800 3.05400 48.74300
C  45.10300 0.52600 47.63700
C  48.17500 0.43900 48.41100
O  47.73500 -0.66000 48.04600
C  49.66600 0.60100 48.63100
N  48.36700 6.09300 49.39000
C  49.23500 5.00600 49.39000
C  50.70200 5.37500 49.71000
C  50.53200 6.82300 50.11800
C  49.03600 7.19400 49.76900
C  51.27000 4.49200 50.84800
C  51.52500 7.88300 49.51100
C  52.16600 8.92900 50.42000
N  46.21800 8.03000 49.20900
C  47.20000 8.93700 49.59300
C  46.70900 10.28700 49.51400
C  45.37000 10.08500 49.15900
C  45.15300 8.69300 48.86500
C  47.63000 11.45200 49.51100
C  44.19100 10.76200 48.81500
O  43.89500 11.93200 48.72000
C  43.15600 9.63700 48.38000
C  41.92500 9.75400 49.27700
O  41.83300 9.40100 50.45300
O  40.90700 10.25100 48.56200
C  39.53200 10.48200 49.17400
H  43.39200 2.75800 47.62700
H  49.61300 2.95400 49.39000
H  49.27700 9.25300 50.11000
H  41.26400 7.17900 47.89900
H  41.89700 4.82400 46.40100
H  40.36200 5.31600 48.77800
H  41.61200 4.11200 49.28000
H  40.51200 3.82700 47.83000
H  42.06700 6.65400 45.08700
H  43.02400 7.87900 45.66400
H  41.59400 9.42800 45.40700
H  40.36600 8.70000 46.35900
H  44.84600 -0.21300 48.39600
H  45.58300 -0.05800 46.85300
H  44.13300 0.82500 47.24000
H  50.07500 1.37000 47.97600
H  50.15900 -0.34400 48.40300
H  49.89000 0.81500 49.67600
H  51.26300 5.29400 48.77900
H  50.49900 6.93200 51.20200
H  50.50700 3.84700 51.28600
H  51.60300 5.12500 51.67000
H  52.12000 3.84500 50.63100
H  50.94100 8.45200 48.78700
H  52.38100 7.32800 49.12900
H  52.06600 9.97900 50.14600
H  53.24400 8.77200 50.43400
H  51.78100 8.63700 51.39800
H  48.09300 11.42900 50.49800
H  47.04800 12.34600 49.29000
H  48.43200 11.22100 48.80900
H  42.86800 9.79300 47.34000
H  39.59700 11.22300 49.97100
H  39.08100 9.57900 49.58700
H  38.77000 10.86300 48.49400
Mg 48.63600 24.52300 28.89400
C  49.59100 26.89500 31.49600
C  47.67100 22.38100 31.43400
C  48.01900 22.17500 26.46700
C  49.63400 26.80300 26.58000
N  48.67000 24.66700 31.19200
C  48.97800 25.72900 32.01200
C  48.56100 25.44600 33.46100
C  48.10000 23.85900 33.37200
C  48.10800 23.62600 31.85900
C  48.91200 22.79100 34.30400
C  47.65100 26.54800 34.06000
C  48.06600 27.28000 35.36400
H  47.10200 27.16900 36.54700
N  47.94800 22.55600 28.93400
C  47.61500 21.82300 30.05800
C  47.16200 20.48200 29.60400
C  47.32100 20.48300 28.17200
C  47.80000 21.79300 27.78300
C  46.68000 19.45000 30.53200
C  47.09400 19.30400 27.23400
O  47.54800 19.35200 26.09800
C  46.53000 18.01500 27.69000
N  49.05200 24.43700 26.85600
C  48.60100 23.37400 26.02600
C  48.71300 23.72300 24.48700
C  48.88500 25.24600 24.59800
C  49.29900 25.49000 26.11800
C  49.93800 23.16500 23.87800
C  47.64100 26.07000 24.15600
C  47.89300 27.27800 23.21700
N  49.53200 26.40200 28.92200
C  49.86500 27.23700 27.87100
C  50.32100 28.54900 28.38900
C  50.21400 28.44700 29.77300
C  49.76500 27.13300 30.10000
C  50.82300 29.74300 27.61400
C  50.50500 29.15400 31.05600
O  50.92500 30.32700 31.15800
C  50.03300 28.23400 32.21600
C  51.11600 28.04900 33.15800
O  51.84100 27.10500 33.25700
O  51.20100 29.09100 34.08600
C  52.21200 28.95900 35.16900
H  47.24400 21.66700 32.14100
H  47.69300 21.51000 25.66400
H  49.81500 27.46300 25.72900
H  49.50700 25.58300 33.98300
H  47.07100 23.79500 33.72600
H  49.46100 22.03900 33.73800
H  48.31900 22.34400 35.10200
H  49.68300 23.42700 34.73700
H  46.68300 26.05500 34.14600
H  47.53200 27.23500 33.22300
H  48.18100 28.33200 35.10100
H  48.94100 26.89700 35.88800
H  46.60700 19.84900 31.54400
H  47.30000 18.55500 30.47300
H  45.65000 19.18300 30.29500
H  45.62400 18.16500 28.27800
H  47.22000 17.44300 28.31000
H  46.28600 17.31800 26.88800
H  47.90300 23.28600 23.90400
H  49.77500 25.51700 24.03000
H  49.81100 22.08300 23.91400
H  50.85900 23.52400 24.33900
H  50.10300 23.47300 22.84500
H  47.18700 26.50200 25.04800
H  46.96400 25.38700 23.64200
H  47.75300 26.95500 22.18500
H  48.94300 27.53300 23.35800
H  47.29700 28.10600 23.60000
H  50.36400 30.66800 27.96400
H  50.41400 29.59300 26.61400
H  51.87800 29.73500 27.34100
H  49.25200 28.83500 32.68200
H  53.16900 28.64300 34.75300
H  51.90700 28.20800 35.89700
H  52.39600 29.98300 35.49600

