158

Mg 17.48100 -0.72900 27.81400
C  16.59800 1.12100 30.64900
C  19.30600 -2.91000 29.92900
C  19.15300 -2.09200 25.09100
C  16.04500 1.65200 25.78600
N  17.97100 -0.78700 30.04100
C  17.40100 0.00100 30.99600
C  17.82200 -0.42000 32.39400
C  18.80800 -1.62700 32.13900
C  18.61500 -1.84800 30.61800
C  20.28100 -1.39800 32.48100
C  16.59900 -0.67600 33.44900
C  16.93200 -0.54400 34.91300
H  18.25700 0.06600 35.32000
N  18.90600 -2.41900 27.59100
C  19.49200 -3.19900 28.52900
C  20.23300 -4.27500 27.90700
C  20.11700 -4.04600 26.55400
C  19.39800 -2.83100 26.30700
C  20.92600 -5.27200 28.70500
C  20.76000 -4.81100 25.34100
O  20.53100 -4.55200 24.16300
C  21.73400 -5.98000 25.65500
N  17.58500 -0.32100 25.71200
C  18.24000 -1.08700 24.80700
C  17.85300 -0.62200 23.36800
C  16.80500 0.44500 23.58700
C  16.82100 0.67000 25.12100
C  19.17200 -0.17500 22.50800
C  15.45500 0.13900 23.02700
C  14.39900 -0.67900 23.89600
N  16.48600 1.04400 28.09000
C  15.85300 1.86400 27.15100
C  15.11700 2.92600 27.82600
C  15.37600 2.67500 29.27100
C  16.22400 1.48900 29.33800
C  14.31200 4.02600 27.17700
C  15.05600 3.08300 30.62400
O  14.24600 3.96700 30.97100
C  15.95400 2.19300 31.51200
C  16.86100 3.01100 32.33400
O  18.04200 3.18100 32.13800
O  16.09500 3.62800 33.27500
C  16.86200 4.47200 34.24400
H  19.75000 -3.48000 30.74800
H  19.53000 -2.42200 24.12100
H  15.50600 2.36800 25.16100
H  18.36200 0.43000 32.81000
H  18.32500 -2.48300 32.61300
H  20.64600 -2.37800 32.78800
H  20.42900 -0.52200 33.11200
H  20.87700 -1.16500 31.59900
H  16.29300 -1.67600 33.14300
H  15.85000 0.09900 33.29000
H  16.76100 -1.47000 35.46300
H  16.18400 0.09300 35.38400
H  21.99600 -5.07100 28.64900
H  20.68100 -6.25300 28.29800
H  20.81100 -5.12400 29.77900
H  21.19400 -6.81200 26.10700
H  22.49500 -5.66100 26.36700
H  22.07900 -6.24500 24.65500
H  17.47300 -1.44900 22.76800
H  17.13900 1.35900 23.09700
H  20.02600 -0.27100 23.17900
H  19.02900 0.88100 22.27800
H  19.38900 -0.69200 21.57300
H  15.54700 -0.48700 22.14000
H  15.01400 1.10700 22.78900
H  13.52600 -0.14500 24.27000
H  14.88200 -1.04500 24.80200
H  13.96900 -1.48900 23.30600
H  14.11400 3.99000 26.10600
H  14.71300 4.96000 27.57100
H  13.33900 3.89500 27.65100
H  15.13300 1.80600 32.11700
H  16.17500 5.25800 34.55700
H  17.62700 5.01900 33.69200
H  17.22600 4.07400 35.19100
Mg -10.41100 17.12900 41.20800
C  -6.97200 17.21300 41.30600
C  -10.37300 20.50100 40.40400
C  -13.68200 16.83400 40.19500
C  -10.23400 13.60700 41.52500
N  -8.81700 18.64700 40.82100
C  -7.49400 18.46800 40.85700
C  -6.69600 19.85000 40.66500
C  -7.88100 20.89600 40.88700
C  -9.10800 19.96600 40.78000
C  -7.77500 21.69700 42.26700
C  -5.94600 20.03600 39.32200
C  -4.54400 19.51400 39.20200
H  -4.24600 18.32100 38.34800
N  -11.87000 18.46500 40.59700
C  -11.65100 19.83200 40.34400
C  -12.92200 20.42100 40.11000
C  -13.94800 19.35700 40.06000
C  -13.17400 18.12800 40.26400
C  -13.14600 21.89800 39.76300
C  -15.38500 19.53800 39.75400
O  -15.78600 20.67400 39.59000
C  -16.36100 18.43100 39.63200
N  -11.73500 15.37800 40.77700
C  -13.03000 15.55600 40.47500
C  -13.80900 14.22700 40.38000
C  -12.64700 13.17900 40.75500
C  -11.43700 14.05100 41.03500
C  -15.08600 14.13600 41.28100
C  -12.27200 12.22600 39.65900
C  -11.56300 12.72200 38.37500
N  -8.96800 15.69700 41.47100
C  -9.04100 14.31800 41.68600
C  -7.66400 13.77100 41.95600
C  -6.85900 14.95700 41.86600
C  -7.70900 16.02000 41.51700
C  -7.29700 12.37300 42.34200
C  -5.46300 15.39700 41.93700
O  -4.45500 14.76200 42.12200
C  -5.52900 16.94300 41.57400
C  -4.92500 17.72400 42.74800
O  -3.72800 17.89300 42.96700
O  -5.90000 18.23800 43.50700
C  -5.51100 19.02200 44.67600
H  -10.38100 21.59200 40.36200
H  -14.68600 16.67500 39.79500
H  -10.16800 12.56300 41.83900
H  -5.88900 20.01500 41.37900
H  -8.04900 21.50600 40.00000
H  -8.62800 21.55200 42.93000
H  -7.49600 22.74700 42.18300
H  -6.97800 21.22900 42.84600
H  -6.03000 21.06100 38.96200
H  -6.48400 19.47200 38.56000
H  -4.14400 19.22600 40.17500
H  -4.06900 20.35400 38.69500
H  -13.70300 21.97900 38.83000
H  -12.16500 22.31200 39.52900
H  -13.62200 22.49300 40.54300
H  -16.21600 17.92700 38.67700
H  -17.37300 18.83100 39.56900
H  -16.19100 17.75500 40.47000
H  -13.99000 14.10600 39.31200
H  -12.92300 12.63400 41.65700
H  -15.16100 13.23000 41.88300
H  -15.99000 14.21600 40.67700
H  -15.14400 15.03000 41.90100
H  -13.16500 11.70600 39.31300
H  -11.66700 11.42400 40.08300
H  -10.48500 12.56500 38.37000
H  -11.87100 13.74200 38.14600
H  -11.87400 12.05000 37.57500
H  -8.00300 11.73300 42.87100
H  -6.33900 12.31500 42.86000
H  -7.18300 11.88300 41.37500
H  -4.84700 16.94800 40.72400
H  -6.42200 19.47100 45.07200
H  -4.77600 19.79900 44.46900
H  -5.12900 18.28400 45.38100

