158

Mg 25.86700 0.67300 29.15500
C  27.95100 0.37300 32.07600
C  23.17900 1.35100 31.19100
C  24.10500 0.59400 26.50100
C  28.66900 -0.73600 27.32400
N  25.60500 0.73700 31.45400
C  26.62700 0.64500 32.41800
C  25.95800 0.84500 33.79500
C  24.47900 1.28100 33.46400
C  24.36600 1.09300 31.99700
C  23.39900 0.22300 34.12800
C  26.70900 1.91000 34.66300
C  26.93400 1.48700 36.08500
H  26.47100 2.47600 37.16700
N  23.90000 1.02900 28.89600
C  22.94400 1.24700 29.78300
C  21.75400 1.45300 29.15700
C  21.92800 1.18900 27.76400
C  23.38300 0.90900 27.65900
C  20.44200 1.72200 29.88100
C  20.81300 1.08100 26.67400
O  21.00500 0.53500 25.57600
C  19.39600 1.57400 26.93400
N  26.37800 -0.00800 27.21400
C  25.40100 0.18400 26.27600
C  25.92000 -0.14800 24.82500
C  27.36400 -0.62100 25.07500
C  27.52200 -0.47700 26.57500
C  25.04600 -1.05900 23.94200
C  28.35400 0.15900 24.20700
C  28.84700 1.48100 24.76500
N  27.85800 -0.05100 29.57700
C  28.81200 -0.56900 28.73200
C  30.10800 -0.67700 29.42100
C  29.77600 -0.35100 30.76800
C  28.41500 0.05800 30.78200
C  31.45400 -1.25900 28.95000
C  30.32900 -0.33600 32.13400
O  31.40400 -0.58400 32.61300
C  29.17700 0.14700 32.97600
C  28.84400 -0.87400 33.93100
O  28.13400 -1.80700 33.68600
O  29.38400 -0.61700 35.16500
C  28.92000 -1.53800 36.21100
H  22.28300 1.60100 31.76200
H  23.47400 0.76500 25.62600
H  29.54700 -0.91600 26.70000
H  25.98300 -0.09900 34.33900
H  24.22000 2.32500 33.63900
H  23.60500 -0.80600 33.83400
H  22.35200 0.41500 33.89200
H  23.45300 0.20100 35.21600
H  26.09100 2.80100 34.77200
H  27.63800 2.22000 34.18500
H  28.00600 1.56100 36.27100
H  26.68000 0.46500 36.36800
H  19.59100 1.33300 29.32200
H  20.28700 2.78900 30.04500
H  20.54300 1.22100 30.84400
H  18.84400 0.76900 27.42000
H  18.94300 1.86000 25.98500
H  19.41200 2.47400 27.54800
H  25.75200 0.83900 24.39400
H  27.36800 -1.70400 24.95100
H  24.08700 -1.37600 24.35100
H  25.62300 -1.88400 23.52500
H  24.77800 -0.38200 23.13100
H  27.77900 0.31400 23.29400
H  29.23600 -0.36700 23.84100
H  28.34600 1.72400 25.70300
H  28.68000 2.26600 24.02700
H  29.92200 1.45200 24.93900
H  32.29300 -0.72200 29.39300
H  31.60200 -0.98100 27.90600
H  31.42600 -2.33200 29.14200
H  29.48600 1.04400 33.51200
H  29.72000 -1.54900 36.95100
H  28.83100 -2.59000 35.93900
H  28.01700 -1.20300 36.72000
Mg 9.29400 48.75700 26.02600
C  7.00200 48.73900 28.77300
C  11.72800 49.81600 28.17300
C  11.35400 48.72900 23.29400
C  6.54200 48.47000 23.84400
N  9.30000 49.34400 28.27900
C  8.33700 49.11300 29.21400
C  8.82200 49.43500 30.61700
C  10.31500 49.95100 30.32400
C  10.46000 49.75400 28.81300
C  10.77100 51.31700 30.90100
C  8.65300 48.24100 31.61300
C  9.57900 48.13700 32.84100
H  9.01000 47.42200 34.02900
N  11.26500 49.14200 25.78000
C  12.05300 49.62200 26.81100
C  13.38600 49.64400 26.26200
C  13.37300 49.18900 24.87200
C  11.96600 49.00900 24.57700
C  14.60200 50.15700 27.00200
C  14.55300 49.05700 23.85500
O  14.37900 48.84700 22.67500
C  15.89600 49.42800 24.26000
N  8.99400 48.63400 23.88200
C  10.01600 48.52100 22.94800
C  9.51900 48.28400 21.54900
C  8.01400 48.30400 21.75200
C  7.80300 48.49900 23.21200
C  10.10300 49.32600 20.55000
C  7.37500 46.94300 21.17100
C  6.15100 47.09700 20.17700
N  7.27300 48.71300 26.20300
C  6.32900 48.51300 25.24200
C  4.98900 48.41500 25.79100
C  5.25300 48.33800 27.16900
C  6.62600 48.63300 27.42100
C  3.64800 48.24200 25.24200
C  4.56400 48.22900 28.44000
O  3.37700 48.06500 28.66300
C  5.67900 48.52300 29.54600
C  5.83900 47.33100 30.42900
O  6.35200 46.28000 30.12600
O  5.20000 47.53100 31.63900
C  5.21300 46.44100 32.58700
H  12.50400 50.06800 28.89900
H  11.93500 48.62200 22.37600
H  5.67700 48.29600 23.20000
H  8.18900 50.24700 30.97400
H  11.03400 49.30500 30.82900
H  11.40800 51.31700 31.78600
H  9.83800 51.76000 31.24900
H  11.18200 52.07400 30.23300
H  8.48300 47.33500 31.03200
H  7.71000 48.46300 32.11200
H  9.71700 49.18800 33.09700
H  10.52300 47.66800 32.56600
H  14.37900 50.28100 28.06100
H  14.90700 51.11900 26.59000
H  15.44000 49.46000 26.95900
H  16.29700 48.70300 24.96800
H  15.84600 50.35000 24.84000
H  16.41400 49.60500 23.31700
H  9.82000 47.26500 21.30700
H  7.57000 49.01900 21.06000
H  10.72200 50.08400 21.03100
H  9.34200 49.85800 19.97900
H  10.57100 48.77600 19.73400
H  6.99700 46.35500 22.00700
H  8.01500 46.26900 20.60000
H  5.83900 48.13000 20.01900
H  5.28100 46.53500 20.51700
H  6.40900 46.67300 19.20700
H  3.01200 49.09900 25.46500
H  3.33600 47.42300 25.89000
H  3.75600 48.07500 24.17100
H  5.49900 49.44000 30.10700
H  4.92400 46.79800 33.57500
H  6.14500 45.88600 32.69400
H  4.42800 45.73600 32.31200

