158

Mg 31.08400 58.51600 39.60000
C  28.54500 56.24700 38.35100
C  33.35200 56.00400 39.01300
C  33.27100 60.79600 39.78100
C  28.42200 60.89100 39.98200
N  30.88700 56.41000 38.79500
C  29.83400 55.72200 38.26600
C  30.21300 54.43800 37.66700
C  31.56800 54.19800 38.38100
C  31.94500 55.57500 38.80000
C  31.59000 53.23400 39.62300
C  30.12800 54.47300 36.05300
C  29.03900 53.52900 35.41800
H  28.05500 54.02500 34.38800
N  33.02100 58.47900 39.46700
C  33.77800 57.34300 39.24200
C  35.20500 57.78400 39.21100
C  35.18700 59.15500 39.41900
C  33.81600 59.54500 39.56000
C  36.40400 56.76700 38.89800
C  36.47300 60.00700 39.62200
O  37.60800 59.55200 39.46800
C  36.41600 61.46200 39.79500
N  30.83600 60.55400 39.83600
C  32.00500 61.30400 40.02600
C  31.67500 62.76400 40.23700
C  30.10700 62.73700 40.45300
C  29.77500 61.32900 40.02300
C  32.48100 63.32200 41.44300
C  29.44500 64.00900 39.79000
C  29.62800 65.31500 40.53700
N  28.89800 58.63700 39.38200
C  28.00900 59.65300 39.52000
C  26.66000 59.19500 39.18700
C  26.92200 57.87900 38.69500
C  28.26200 57.59700 38.92800
C  25.35200 59.92500 39.30800
C  26.17100 56.74900 38.27500
O  24.95800 56.56100 38.26000
C  27.22100 55.59500 38.12700
C  26.92800 54.65400 39.23700
O  27.28900 54.74400 40.40900
O  26.07900 53.68900 38.79600
C  25.72700 52.76500 39.86100
H  34.13100 55.26900 38.80300
H  34.05200 61.55700 39.72300
H  27.59000 61.57700 40.15500
H  29.48800 53.70700 38.02500
H  32.30100 53.84400 37.65600
H  32.24400 53.60500 40.41200
H  31.96100 52.32000 39.15800
H  30.62600 53.01100 40.08000
H  31.13100 54.19400 35.73300
H  29.83200 55.50400 35.85500
H  28.43700 52.95200 36.12000
H  29.60700 52.77500 34.87400
H  37.04600 57.10800 38.08600
H  36.04000 55.76000 38.69400
H  36.99100 56.66800 39.81100
H  35.86100 61.82300 40.66100
H  36.11500 61.94300 38.86400
H  37.42200 61.80200 40.03900
H  32.05400 63.18100 39.30400
H  29.98100 62.83700 41.53100
H  33.37000 62.74500 41.69400
H  31.97900 63.53400 42.38800
H  32.84100 64.26300 41.02700
H  28.37500 63.87400 39.63600
H  29.91000 64.13200 38.81200
H  30.37600 65.84100 39.94500
H  29.96700 65.06600 41.54300
H  28.73100 65.92600 40.63300
H  25.15200 60.66100 40.08700
H  24.50900 59.23800 39.24100
H  25.46100 60.60000 38.45900
H  27.07300 55.04700 37.19600
H  26.54300 52.04800 39.95600
H  24.86800 52.28200 39.39600
H  25.44500 53.19100 40.82400
Mg 7.49300 52.95800 40.90700
C  6.95300 49.43500 40.87200
C  10.67100 52.22400 39.66500
C  7.98400 56.21300 40.51300
C  4.14900 53.48800 41.49700
N  8.63000 51.05800 40.32800
C  8.20700 49.74800 40.41200
C  9.29000 48.79400 39.88500
C  10.54500 49.68800 39.92600
C  9.88000 51.11600 39.85800
C  11.38400 49.44100 41.17700
C  9.05400 48.24500 38.48600
C  8.54200 49.20900 37.41800
H  8.03200 48.53200 36.14900
N  9.10700 54.10000 40.15000
C  10.32100 53.53200 39.84100
C  11.19600 54.68700 39.50700
C  10.47200 55.91300 39.82100
C  9.11800 55.41200 40.11700
C  12.60800 54.54100 38.90400
C  11.04800 57.29000 39.72000
O  12.06400 57.53200 39.04400
C  10.42600 58.43400 40.38700
N  6.17600 54.71000 40.76100
C  6.66100 55.93400 40.86700
C  5.65800 56.91400 41.47500
C  4.41800 56.00300 41.47400
C  4.89400 54.65400 41.28600
C  6.07500 57.48700 42.80400
C  3.32800 56.34000 40.34700
C  2.33900 57.38700 40.71100
N  5.86200 51.79300 41.15900
C  4.57800 52.12900 41.53500
C  3.82100 50.93000 41.82800
C  4.71800 49.83600 41.54900
C  5.95200 50.40800 41.17100
C  2.31300 50.84400 42.14300
C  4.82900 48.40600 41.54600
O  3.91400 47.66600 41.85600
C  6.35500 48.06000 41.12800
C  6.16400 47.19200 39.92800
O  5.83600 47.55400 38.86800
O  6.67400 45.88900 40.15400
C  6.56500 44.89600 39.08100
H  11.69500 52.02400 39.34400
H  8.06700 57.29400 40.64100
H  3.12300 53.60700 41.85300
H  9.32300 47.96600 40.59300
H  11.23900 49.64000 39.08700
H  12.39500 49.26200 40.81200
H  11.26200 48.45600 41.62600
H  11.35000 50.27300 41.88000
H  8.56400 47.27600 38.39300
H  10.08900 48.05300 38.20100
H  9.30400 49.94200 37.15100
H  7.75200 49.84300 37.82200
H  12.82400 55.02700 37.95300
H  12.93600 53.50200 38.88500
H  13.32300 55.02900 39.56600
H  9.68500 58.97500 39.79800
H  11.23800 59.12300 40.61800
H  9.94900 58.11700 41.31500
H  5.61400 57.74700 40.77400
H  3.97500 56.03300 42.47000
H  6.95800 56.94700 43.14800
H  5.30800 57.46900 43.57700
H  6.29000 58.55100 42.70600
H  2.82700 55.48800 39.88700
H  3.96300 56.84800 39.62100
H  2.20400 57.38100 41.79300
H  1.41200 57.33200 40.14000
H  2.64900 58.37300 40.36500
H  2.32700 50.57700 43.20000
H  1.84600 50.07000 41.53400
H  1.93400 51.86400 42.08700
H  6.85000 47.48900 41.91300
H  7.23000 45.08700 38.23800
H  5.52400 44.74900 38.79200
H  6.89400 43.95300 39.51800

