158

Mg 35.30800 48.41400 24.45800
C  35.67900 46.89200 27.68400
C  33.58000 50.96200 26.11400
C  34.67400 49.70400 21.41600
C  36.64700 45.54700 23.07600
N  34.89400 48.97600 26.65000
C  35.13400 48.20300 27.73400
C  34.87100 48.98400 29.02800
C  34.03900 50.23000 28.52000
C  34.12800 50.02900 27.00100
C  32.61600 50.47400 29.16600
C  36.25400 49.27900 29.78600
C  36.21000 49.03600 31.26700
H  34.90800 48.99300 32.01900
N  34.24500 50.06000 23.83400
C  33.61200 51.03100 24.65400
C  33.13900 52.12400 23.85600
C  33.38100 51.67900 22.51500
C  34.19600 50.45800 22.51500
C  32.60000 53.41100 24.40000
C  33.03600 52.46900 21.26500
O  33.29800 52.10800 20.10700
C  32.19100 53.75300 21.25900
N  35.55700 47.67100 22.55700
C  35.26500 48.39500 21.48000
C  35.73500 47.72300 20.19700
C  36.53600 46.54000 20.72700
C  36.19000 46.56800 22.24700
C  34.70500 47.41000 19.06800
C  38.03300 46.44900 20.35800
C  38.24500 45.72700 19.03000
N  36.08300 46.55000 25.23000
C  36.53000 45.46000 24.46300
C  36.89500 44.35200 25.36000
C  36.68300 44.89500 26.67800
C  36.09000 46.22100 26.51700
C  37.32400 42.92800 24.90500
C  36.79000 44.70800 28.16000
O  37.35800 43.83100 28.78100
C  36.13700 45.98400 28.85700
C  35.02200 45.59200 29.75400
O  33.82300 45.64800 29.50200
O  35.53600 45.23300 31.04300
C  34.43900 44.93000 32.02100
H  33.27400 51.83900 26.68900
H  34.50500 50.10500 20.41400
H  37.17700 44.71200 22.61200
H  34.24700 48.35600 29.66400
H  34.63700 51.14000 28.57000
H  32.42300 49.83300 30.02700
H  31.83300 50.46600 28.40800
H  32.64100 51.48500 29.57200
H  36.68100 50.25600 29.55600
H  37.03400 48.64700 29.36100
H  36.90200 49.75400 31.70700
H  36.75500 48.14000 31.56400
H  32.66000 54.30800 23.78300
H  33.06300 53.61100 25.36600
H  31.52900 53.22700 24.49200
H  31.33600 53.70300 21.93400
H  31.89700 53.98300 20.23500
H  32.86400 54.51300 21.65500
H  36.42900 48.37900 19.67100
H  36.03900 45.61800 20.42600
H  33.70200 47.73800 19.34200
H  34.66300 46.32500 18.98000
H  34.94000 47.79300 18.07500
H  38.63300 45.86400 21.05400
H  38.38300 47.48200 20.33100
H  38.84100 46.45900 18.48500
H  37.28400 45.47900 18.58000
H  38.81100 44.80600 19.16700
H  37.95100 43.02400 24.01900
H  36.47900 42.29700 24.62900
H  37.91100 42.51600 25.72600
H  36.88800 46.52000 29.43600
H  34.15600 43.87800 31.98600
H  33.55200 45.55500 31.90900
H  34.82600 44.96400 33.03900
Mg 17.07800 53.05400 26.73400
C  19.10300 51.35300 29.08100
C  14.84300 53.72000 29.19600
C  15.02500 54.38800 24.38100
C  19.19100 51.74700 24.17100
N  17.15600 52.78800 28.90800
C  18.00600 52.07700 29.68700
C  17.57900 52.06900 31.18600
C  16.06100 52.40400 31.09600
C  16.03100 53.02100 29.62800
C  15.02900 51.26000 31.33700
C  18.48700 53.11700 31.85100
C  18.55000 52.97900 33.36700
H  17.56100 52.07900 34.14300
N  15.21600 54.02200 26.75200
C  14.44600 54.25200 27.90700
C  13.26300 54.91800 27.56500
C  13.39900 55.28200 26.21700
C  14.55800 54.55800 25.67600
C  12.22600 55.23500 28.61800
C  12.53400 56.14100 25.28500
O  12.74100 56.34400 24.06000
C  11.44500 56.91100 25.85700
N  17.12100 53.06500 24.60200
C  16.10500 53.66000 23.87100
C  16.34800 53.47900 22.33700
C  17.68600 52.69700 22.31000
C  18.08700 52.57100 23.79800
C  15.24800 52.82100 21.41200
C  18.69900 53.30900 21.30500
C  19.82000 54.22100 21.84600
N  18.92800 51.87000 26.54500
C  19.66100 51.45200 25.46800
C  20.79200 50.66000 25.93900
C  20.67400 50.69000 27.34200
C  19.43800 51.34900 27.66100
C  21.88000 49.88000 25.04700
C  21.26100 50.20600 28.59500
O  22.27600 49.54400 28.77800
C  20.26600 50.63500 29.76600
C  19.87400 49.50000 30.68900
O  18.98800 48.70500 30.40100
O  20.66200 49.51000 31.81200
C  20.24500 48.52000 32.83300
H  14.18300 53.76000 30.06500
H  14.48400 54.81200 23.53300
H  19.85900 51.52100 23.33700
H  17.80400 51.14100 31.71100
H  15.92500 53.21600 31.81100
H  14.20300 51.36900 32.04000
H  15.58800 50.37500 31.64100
H  14.49700 50.94200 30.44100
H  18.28100 54.16200 31.61800
H  19.48200 52.76600 31.57700
H  18.26900 53.92300 33.83500
H  19.57800 52.84200 33.70400
H  12.39200 54.60500 29.49200
H  11.23300 55.17400 28.17200
H  12.33400 56.22000 29.07200
H  10.94300 57.39500 25.01900
H  11.90500 57.70400 26.44600
H  10.72800 56.36100 26.46700
H  16.58700 54.42500 21.85000
H  17.45400 51.67200 22.01900
H  14.81500 53.59100 20.77400
H  14.43400 52.43300 22.02400
H  15.54500 51.91100 20.89100
H  18.21100 54.00100 20.62000
H  19.04500 52.52600 20.63000
H  20.78700 53.73500 21.97200
H  19.46300 54.78200 22.71000
H  19.94800 54.99700 21.09100
H  22.80300 50.44900 25.15900
H  21.50100 49.92900 24.02700
H  22.08100 48.83600 25.28800
H  20.82700 51.34000 30.38000
H  19.18500 48.31900 32.99100
H  20.79200 48.75400 33.74600
H  20.63800 47.58800 32.42700

