158

Mg -2.41000 17.16800 26.39200
C  -2.97500 14.82400 28.95700
C  -2.81300 19.76100 28.51800
C  -2.20500 19.21100 23.79500
C  -2.73400 14.40400 24.12100
N  -2.89600 17.25400 28.53900
C  -3.15000 16.13900 29.37900
C  -3.30100 16.68500 30.83700
C  -3.48900 18.20800 30.56600
C  -3.05700 18.45800 29.12000
C  -4.90300 18.81300 31.07700
C  -2.16400 16.28500 31.71700
C  -1.85600 17.15900 32.98900
H  -1.34000 16.47100 34.29100
N  -2.37900 19.21200 26.18100
C  -2.52500 20.10900 27.21300
C  -2.39600 21.42100 26.65800
C  -2.23200 21.25500 25.27000
C  -2.21800 19.82400 25.01100
C  -2.49700 22.68600 27.45000
C  -2.03700 22.38300 24.22400
O  -2.10100 22.16500 22.98400
C  -1.91200 23.80500 24.66000
N  -2.42500 16.84900 24.22900
C  -2.27400 17.89800 23.34500
C  -2.33300 17.42400 21.86300
C  -2.84300 15.98700 22.01800
C  -2.61100 15.66800 23.50700
C  -3.09900 18.40300 20.99800
C  -2.21300 14.93700 21.08500
C  -3.14300 14.33600 20.01400
N  -2.64600 15.02800 26.43900
C  -2.60800 14.04900 25.41700
C  -2.56700 12.76400 26.05000
C  -2.63800 13.02700 27.42800
C  -2.77300 14.40600 27.63800
C  -2.46300 11.41000 25.25900
C  -2.65300 12.34400 28.69500
O  -2.43300 11.14900 28.96200
C  -2.82900 13.48100 29.76300
C  -1.56800 13.47400 30.59800
O  -0.50300 13.96700 30.31000
O  -1.74900 12.61100 31.70500
C  -0.51300 12.47900 32.50500
H  -3.02700 20.51900 29.27500
H  -1.92700 19.83000 22.93900
H  -2.87700 13.51000 23.51000
H  -4.13400 16.15100 31.29500
H  -2.75100 18.79700 31.11000
H  -4.69400 19.41100 31.96300
H  -5.52500 17.93600 31.25600
H  -5.43100 19.43900 30.35700
H  -1.22500 16.23900 31.16500
H  -2.35400 15.24700 31.98900
H  -2.67400 17.77600 33.36200
H  -1.17100 17.96300 32.71900
H  -1.54400 23.21200 27.49500
H  -2.68300 22.40400 28.48600
H  -3.31500 23.30300 27.07900
H  -2.82700 24.11000 25.16600
H  -1.74300 24.45000 23.79800
H  -1.00400 23.85800 25.26100
H  -1.30700 17.39500 21.49700
H  -3.92500 16.00500 21.88500
H  -3.91600 17.84300 20.54200
H  -2.48600 18.84500 20.21300
H  -3.60600 19.26900 21.42400
H  -1.88100 14.14400 21.75500
H  -1.27500 15.24700 20.62600
H  -2.88600 14.79800 19.06100
H  -4.17600 14.46300 20.33800
H  -3.04600 13.25800 19.88800
H  -1.84000 11.75800 24.43500
H  -3.42800 11.06500 24.88800
H  -2.03700 10.62600 25.88500
H  -3.68700 13.30200 30.41000
H  -0.87100 12.24500 33.50800
H  -0.01400 13.44700 32.55700
H  0.02800 11.71700 31.94500
Mg -5.58100 24.46400 26.32200
C  -3.81600 26.21800 28.65500
C  -6.94400 22.53700 28.66800
C  -7.27000 22.76800 23.77200
C  -3.99700 26.30500 23.76900
N  -5.49800 24.45300 28.46600
C  -4.73000 25.30300 29.24200
C  -5.14100 25.11400 30.71400
C  -5.84000 23.76200 30.71900
C  -6.13500 23.56700 29.18800
C  -5.11500 22.62100 31.45300
C  -6.14000 26.21900 31.11500
C  -6.44600 26.55000 32.58600
H  -5.96600 25.56500 33.66200
N  -6.92800 22.93800 26.25900
C  -7.42300 22.30300 27.35800
C  -8.37000 21.33000 26.95400
C  -8.46300 21.36000 25.54800
C  -7.54800 22.37300 25.15800
C  -9.19700 20.63000 28.05300
C  -9.50200 20.56500 24.63400
O  -9.49300 20.68400 23.36100
C  -10.55600 19.64400 25.24700
N  -5.55900 24.44300 24.06300
C  -6.36400 23.73600 23.24200
C  -6.38800 24.10600 21.76300
C  -5.28800 25.28200 21.85700
C  -4.89800 25.33200 23.31500
C  -5.97400 22.93900 20.85800
C  -5.89500 26.62900 21.36600
C  -5.54100 27.01400 19.88500
N  -4.17700 26.04400 26.20900
C  -3.64100 26.64300 25.10500
C  -2.59200 27.55500 25.57400
C  -2.62700 27.48700 27.02600
C  -3.61600 26.50200 27.27500
C  -1.69800 28.38700 24.79100
C  -2.04400 27.92500 28.30000
O  -1.18700 28.80800 28.56800
C  -2.92000 27.20200 29.39700
C  -2.13800 26.76900 30.59900
O  -1.71200 25.61900 30.75200
O  -2.02000 27.73600 31.58100
C  -1.69000 27.15400 32.90100
H  -7.41600 21.85900 29.38300
H  -7.74100 22.12100 23.03000
H  -3.47300 26.90300 23.02100
H  -4.25200 25.17700 31.34200
H  -6.85700 23.80300 31.11000
H  -4.55700 22.02500 30.73100
H  -5.75300 21.99000 32.07200
H  -4.32600 23.05300 32.06900
H  -7.12000 25.93900 30.72800
H  -5.72000 27.10900 30.64700
H  -7.48800 26.77000 32.82000
H  -5.90400 27.47700 32.77300
H  -9.60800 21.34300 28.76800
H  -8.52500 20.01100 28.64700
H  -10.03100 20.03200 27.68600
H  -9.95200 18.81900 25.62500
H  -11.15100 19.26100 24.41900
H  -11.32100 20.08100 25.88900
H  -7.37100 24.47800 21.47600
H  -4.41300 25.04500 21.25300
H  -4.97900 23.13500 20.46000
H  -6.68500 22.79700 20.04500
H  -5.89000 22.00700 21.41700
H  -5.53500 27.46800 21.96300
H  -6.97500 26.60100 21.50900
H  -4.81600 26.33600 19.43600
H  -5.13300 28.01500 19.74000
H  -6.49400 26.94200 19.36100
H  -1.25900 27.93000 23.90400
H  -0.88100 28.76400 25.40700
H  -2.28800 29.22600 24.42200
H  -3.58300 28.00700 29.71300
H  -1.75900 27.88700 33.70500
H  -0.68600 26.73200 32.94600
H  -2.42200 26.37200 33.10400

