158

Mg -1.34400 16.96800 25.91200
C  -1.93100 14.84000 28.76500
C  -1.79600 19.72400 28.02000
C  -1.25200 18.83700 23.26300
C  -1.57300 14.09300 23.97800
N  -1.93800 17.30900 28.12800
C  -2.10500 16.24100 29.11600
C  -2.44900 16.93500 30.47500
C  -2.33900 18.48600 30.23100
C  -1.92300 18.50200 28.72300
C  -3.56100 19.38200 30.59800
C  -1.72700 16.45100 31.76300
C  -1.97300 17.20400 33.08000
H  -1.90200 16.31400 34.27900
N  -1.42700 19.04300 25.63500
C  -1.66900 19.98800 26.60500
C  -1.61300 21.27500 25.96000
C  -1.42200 21.07200 24.60300
C  -1.28800 19.61000 24.45900
C  -1.80300 22.54100 26.79500
C  -1.52100 22.13000 23.52200
O  -1.30300 21.88400 22.31900
C  -1.91500 23.56700 23.90800
N  -1.27300 16.46900 23.86500
C  -1.20800 17.48300 22.92300
C  -1.44900 16.93800 21.46800
C  -1.70300 15.39900 21.74400
C  -1.55300 15.29600 23.28300
C  -2.67400 17.65400 20.69900
C  -0.68100 14.50500 21.00400
C  0.80500 14.64500 21.49000
N  -1.45500 14.89500 26.22100
C  -1.43900 13.84800 25.32400
C  -1.53000 12.66300 26.06900
C  -1.61700 12.97800 27.39500
C  -1.75300 14.34300 27.45800
C  -1.63500 11.25000 25.44000
C  -1.72600 12.45300 28.72400
O  -1.66900 11.26900 29.07900
C  -1.89200 13.61800 29.66400
C  -0.79900 13.59900 30.60400
O  0.31100 14.06400 30.50100
O  -1.22400 12.77500 31.62400
C  -0.38800 12.67900 32.85700
H  -1.76500 20.61300 28.65200
H  -1.31100 19.56400 22.45000
H  -1.87700 13.17000 23.48100
H  -3.50000 16.69500 30.63700
H  -1.43600 18.93600 30.64300
H  -4.10600 18.82500 31.36100
H  -4.18500 19.47400 29.70900
H  -3.32700 20.43200 30.77300
H  -0.69300 16.30700 31.44800
H  -2.20400 15.49700 31.98900
H  -2.96000 17.66300 33.11900
H  -1.18500 17.95500 33.14200
H  -2.77400 22.98100 26.56900
H  -0.97400 23.19500 26.52600
H  -1.85300 22.33700 27.86500
H  -1.80800 24.18400 23.01600
H  -1.24600 23.99000 24.65800
H  -2.91100 23.54700 24.35000
H  -0.55200 17.01400 20.85300
H  -2.72300 15.03400 21.62700
H  -3.26900 16.98600 20.07600
H  -2.36700 18.52200 20.11600
H  -3.34700 17.92500 21.51300
H  -0.70200 14.97900 20.02300
H  -0.99100 13.46400 21.10100
H  0.99000 15.26400 22.36800
H  1.36800 15.07200 20.66000
H  1.17800 13.63200 21.64200
H  -0.93300 11.28000 24.60700
H  -2.66600 10.98700 25.20200
H  -1.26500 10.49700 26.13500
H  -2.89200 13.51200 30.08500
H  -1.03200 12.67400 33.73600
H  0.28400 13.53300 32.93600
H  0.15400 11.73400 32.83100
Mg 41.80000 41.15500 26.87800
C  40.91200 43.31500 29.56000
C  42.85300 38.95800 29.36900
C  43.16800 39.27100 24.50400
C  40.84300 43.52100 24.65000
N  41.82500 41.20900 29.28500
C  41.42200 42.14300 30.16800
C  41.58300 41.78600 31.69300
C  42.31900 40.43100 31.47000
C  42.38100 40.19800 29.90300
C  43.72600 40.41100 32.13600
C  40.13400 41.78200 32.47100
C  40.05300 40.99800 33.84800
H  39.91700 41.77200 35.12900
N  42.85000 39.40000 26.96400
C  43.11700 38.64000 28.03900
C  43.74200 37.44000 27.62700
C  43.98200 37.56100 26.23900
C  43.32200 38.78300 25.83800
C  44.07600 36.33500 28.57900
C  44.66400 36.55400 25.33300
O  44.76900 36.75800 24.13300
C  45.30400 35.34500 25.92100
N  42.21500 41.42200 24.92700
C  42.54100 40.45200 24.11200
C  42.26700 40.82600 22.63400
C  41.20700 41.87500 22.78100
C  41.42800 42.29600 24.20000
C  43.53600 41.28600 21.85000
C  39.73300 41.63000 22.31000
C  39.00100 40.33400 22.77100
N  41.10700 43.08700 27.03800
C  40.80800 43.91200 26.00000
C  40.31800 45.11700 26.51000
C  40.37200 44.93600 27.92800
C  40.80400 43.64600 28.16700
C  39.87800 46.25800 25.74300
C  39.99500 45.56600 29.17300
O  39.50500 46.69300 29.46000
C  40.20200 44.49700 30.22100
C  41.13900 45.04100 31.27000
O  42.23600 45.57600 31.13000
O  40.51400 44.97900 32.48100
C  41.15000 45.62200 33.67500
H  43.00100 38.22900 30.16800
H  43.47200 38.65600 23.65400
H  40.38600 44.14200 23.87700
H  42.27800 42.55300 32.03500
H  41.70400 39.64400 31.90600
H  44.03400 41.22700 32.78900
H  44.42500 40.26200 31.31300
H  43.79700 39.58800 32.84600
H  39.37300 41.43000 31.77500
H  39.87400 42.81300 32.71400
H  41.03500 40.52800 33.89000
H  39.38200 40.14200 33.91400
H  45.14300 36.45600 28.76600
H  43.71700 35.38600 28.18000
H  43.53300 36.41800 29.52100
H  46.03700 35.70300 26.64500
H  45.86600 34.78400 25.17500
H  44.65500 34.61800 26.41000
H  41.79700 39.96100 22.16500
H  41.52900 42.67000 22.10900
H  44.36800 40.77300 22.33200
H  43.71500 42.33300 22.09500
H  43.56700 41.06700 20.78300
H  39.67100 41.62300 21.22100
H  39.16900 42.48000 22.69300
H  38.46600 39.86200 21.94600
H  38.24300 40.64200 23.49100
H  39.75200 39.76400 23.31800
H  39.57400 45.96600 24.73800
H  40.64800 47.01200 25.58100
H  38.95600 46.63700 26.18500
H  39.18000 44.32300 30.56000
H  41.68300 44.88400 34.27400
H  40.37800 46.14300 34.24100
H  41.78000 46.46900 33.40100

