158

Mg -1.93400 17.11600 26.80400
C  -2.38200 14.95500 29.57900
C  -2.17300 19.73100 28.96400
C  -1.90900 19.23500 24.13600
C  -2.01300 14.35500 24.63300
N  -2.11200 17.34200 29.03400
C  -2.26200 16.29200 29.93200
C  -2.42800 16.85600 31.28700
C  -2.65900 18.37800 31.07100
C  -2.32100 18.52900 29.59800
C  -3.96500 19.12500 31.58500
C  -1.18200 16.60000 32.22800
C  -1.49800 16.37700 33.72200
H  -0.42900 16.54600 34.76200
N  -1.84700 19.17900 26.60600
C  -1.92500 20.06700 27.66300
C  -1.90100 21.40300 27.10400
C  -1.83200 21.31100 25.65400
C  -1.88900 19.81800 25.40100
C  -1.74200 22.67600 27.91700
C  -1.66800 22.42000 24.58100
O  -1.51100 22.10800 23.37800
C  -1.59100 23.85300 25.08400
N  -2.08800 16.77700 24.65300
C  -1.91100 17.84700 23.77900
C  -1.77600 17.23800 22.35300
C  -1.48000 15.74700 22.55100
C  -1.88400 15.60400 24.02400
C  -2.92500 17.62300 21.39300
C  0.00600 15.34100 22.29000
C  1.03800 15.82000 23.35000
N  -2.23600 15.05200 26.97900
C  -2.17300 14.06000 26.02700
C  -2.29700 12.80500 26.71700
C  -2.35700 13.09600 28.07900
C  -2.32400 14.49200 28.21300
C  -2.30000 11.39400 26.12600
C  -2.52800 12.52100 29.35700
O  -2.60500 11.29000 29.67300
C  -2.40300 13.64700 30.42600
C  -1.19100 13.35900 31.19400
O  -0.03400 13.64500 30.93900
O  -1.57100 12.72500 32.35400
C  -0.54500 12.58000 33.43000
H  -2.28500 20.60000 29.61600
H  -1.97900 19.84100 23.23000
H  -1.82800 13.51700 23.95700
H  -3.26600 16.34800 31.76500
H  -1.97900 18.93800 31.71300
H  -4.24800 19.86500 30.83600
H  -3.72800 19.76500 32.43400
H  -4.73600 18.38400 31.80000
H  -0.49000 17.42500 32.05600
H  -0.60800 15.77700 31.80100
H  -1.81900 15.33700 33.78000
H  -2.31900 17.07000 33.90600
H  -1.78700 22.42100 28.97600
H  -2.52400 23.32700 27.52700
H  -0.74800 23.08700 27.74300
H  -1.46500 24.50800 24.22200
H  -0.65800 23.81600 25.64700
H  -2.50300 24.10300 25.62400
H  -0.86800 17.72100 21.99300
H  -2.19800 15.11900 22.02400
H  -3.82400 17.81800 21.97700
H  -3.13400 16.71700 20.82300
H  -2.66700 18.50400 20.80400
H  0.30500 15.81500 21.35500
H  -0.02200 14.25600 22.19600
H  0.60900 16.40500 24.16300
H  1.73500 16.45400 22.80200
H  1.59400 14.96500 23.73600
H  -1.98700 11.47600 25.08500
H  -3.27900 10.91400 26.13100
H  -1.63000 10.72600 26.66600
H  -3.30900 13.77900 31.01800
H  0.43300 12.99100 33.17900
H  -0.34400 11.54600 33.71100
H  -0.94500 13.03800 34.33500
Mg 43.89700 5.43800 47.25800
C  41.87300 8.26000 46.69500
C  41.20300 3.42400 46.47800
C  46.05300 2.79200 47.12500
C  46.66000 7.50000 46.86500
N  41.71900 5.80400 46.57100
C  41.12700 7.03300 46.68300
C  39.68700 6.87700 46.47800
C  39.41400 5.34800 46.47700
C  40.86000 4.77400 46.55500
C  38.48300 4.75400 47.60100
C  39.04700 7.63900 45.31200
C  39.82800 7.70500 44.00700
H  39.24800 7.00500 42.74000
N  43.59000 3.36900 47.08100
C  42.46000 2.71900 46.71900
C  42.68800 1.33600 46.52100
C  44.01900 1.12400 46.92700
C  44.64700 2.45200 47.06100
C  41.68600 0.34900 46.11700
C  44.69200 -0.26300 47.09100
O  44.07400 -1.26200 46.96600
C  46.21300 -0.44600 47.41900
N  46.03400 5.21700 47.06500
C  46.66500 4.00800 47.14900
C  48.19400 4.11300 47.44000
C  48.37400 5.61900 47.04500
C  46.92200 6.16300 46.96300
C  48.61700 3.58000 48.86200
C  49.21300 5.89200 45.77900
C  48.98500 4.96100 44.54400
N  44.25500 7.42600 47.04300
C  45.40800 8.12700 46.81300
C  45.15400 9.57200 46.72200
C  43.74000 9.63700 46.78600
C  43.29000 8.32400 46.87900
C  46.16100 10.74100 46.66900
C  42.64200 10.58600 46.78500
O  42.63700 11.78700 46.62400
C  41.39900 9.65400 46.75600
C  40.62000 9.91900 47.92000
O  40.41200 9.25500 48.88400
O  40.07700 11.15500 47.70300
C  38.94600 11.41000 48.66100
H  40.36800 2.80800 46.13700
H  46.71300 1.92500 47.20400
H  47.56900 8.10500 46.83500
H  39.22100 7.27600 47.38000
H  38.96300 5.01300 45.54300
H  37.85200 3.95700 47.20800
H  37.96400 5.62700 47.99800
H  39.06100 4.34400 48.43000
H  38.91200 8.69600 45.53900
H  38.03800 7.23500 45.23300
H  40.86500 7.41400 44.17400
H  39.92000 8.77000 43.79300
H  42.10300 -0.27100 45.32400
H  40.72300 0.76100 45.81500
H  41.51900 -0.36800 46.92100
H  46.87600 -0.02900 46.66100
H  46.49400 -1.49900 47.40500
H  46.37800 0.00800 48.39600
H  48.77000 3.46100 46.78400
H  48.80100 6.16500 47.88600
H  47.84000 3.03100 49.39400
H  48.88200 4.49300 49.39500
H  49.54200 3.01600 48.75000
H  50.24200 5.83500 46.13300
H  49.04500 6.90800 45.42200
H  48.66900 5.51500 43.66000
H  48.20400 4.22300 44.72900
H  49.92900 4.44100 44.38300
H  46.63400 11.10100 47.58200
H  45.55300 11.56600 46.29900
H  46.90900 10.44700 45.93300
H  40.80600 9.91500 45.87900
H  38.29000 10.54000 48.66700
H  38.32700 12.18500 48.20900
H  39.16600 11.82700 49.64400

