158

Mg -0.79200 7.83900 26.08500
C  0.40400 9.32700 29.13400
C  -1.07500 4.86700 27.81900
C  -1.17800 6.34800 23.15900
C  -0.19800 10.78200 24.52300
N  -0.31300 7.21700 28.27000
C  0.03100 8.05300 29.33000
C  -0.06900 7.28800 30.63500
C  -0.56300 5.88000 30.21900
C  -0.72600 5.94000 28.63200
C  0.30700 4.68500 30.61500
C  -1.05400 8.02400 31.60500
C  -0.53500 8.22000 33.08200
H  0.73400 7.33500 33.39900
N  -1.15100 5.85800 25.54500
C  -1.16800 4.81200 26.38300
C  -1.38000 3.61400 25.59900
C  -1.44700 4.03000 24.23600
C  -1.26900 5.49900 24.21500
C  -1.60900 2.26700 26.25500
C  -1.68300 3.23700 22.98400
O  -1.72100 3.70200 21.84700
C  -1.91800 1.72000 23.11800
N  -0.67200 8.43300 24.14600
C  -0.86000 7.69600 23.09300
C  -0.60900 8.50600 21.85500
C  -0.84000 9.91600 22.26600
C  -0.57800 9.73400 23.76700
C  0.78500 8.28800 21.20900
C  -2.25800 10.47000 21.88100
C  -2.32900 11.20800 20.54000
N  -0.16200 9.69600 26.64900
C  0.05000 10.81000 25.89900
C  0.43900 11.98700 26.70900
C  0.66800 11.38400 27.95500
C  0.27100 10.02400 27.91600
C  0.77800 13.33900 26.23000
C  1.26400 11.63800 29.23700
O  1.85800 12.64300 29.67000
C  1.07100 10.34900 30.08500
C  2.41700 9.93200 30.70500
O  3.29200 9.21500 30.25700
O  2.50500 10.58700 31.89800
C  3.87000 10.90700 32.30400
H  -1.13600 3.96000 28.42500
H  -0.97900 5.86400 22.20100
H  0.02100 11.66300 23.91700
H  1.00600 7.28100 30.81600
H  -1.54900 5.60500 30.59400
H  0.96000 4.40500 29.78800
H  -0.33900 3.89500 30.99900
H  0.92400 5.11700 31.40200
H  -1.97500 7.44000 31.61200
H  -1.37600 9.02800 31.32700
H  -1.31200 7.98200 33.80900
H  -0.50300 9.29900 33.23300
H  -0.70800 1.70000 26.02600
H  -2.50100 1.76800 25.87400
H  -1.75200 2.19100 27.33300
H  -2.92400 1.50100 23.47800
H  -1.07400 1.23800 23.61200
H  -1.74300 1.34100 22.11100
H  -1.40600 8.20800 21.17400
H  -0.10900 10.60900 21.85000
H  0.56700 8.19500 20.14500
H  1.17300 7.33200 21.56000
H  1.51500 9.06300 21.44200
H  -2.49700 11.25600 22.59700
H  -2.99000 9.66400 21.83500
H  -1.52400 10.82900 19.91000
H  -2.01900 12.24600 20.66200
H  -3.26100 11.04900 19.99800
H  1.41500 13.19600 25.35700
H  1.07800 13.77600 27.18200
H  -0.12100 13.85200 25.88700
H  0.37700 10.53500 30.90500
H  3.92600 11.89200 32.76800
H  4.71900 10.84800 31.62300
H  4.16800 10.17000 33.04900
Mg 6.81500 54.55500 40.87500
C  6.03300 51.18700 40.28500
C  10.01000 53.99200 40.12800
C  7.32300 57.88800 41.16200
C  3.33900 55.22100 41.28000
N  7.90400 52.78500 40.27000
C  7.39800 51.48300 40.02000
C  8.52200 50.56200 39.54200
C  9.77900 51.42300 39.98200
C  9.20400 52.84600 40.16100
C  10.61000 50.84700 41.22200
C  8.47500 50.44100 37.93500
C  8.74600 49.06700 37.23600
H  7.71800 48.47800 36.26600
N  8.39700 55.79700 40.61900
C  9.68500 55.34000 40.25800
C  10.54800 56.41600 40.07100
C  9.87300 57.56300 40.55800
C  8.47100 57.15500 40.83300
C  11.94100 56.37800 39.53300
C  10.50700 58.96400 40.63800
O  11.68800 59.09900 40.21600
C  9.75700 60.19100 41.09500
N  5.56700 56.26800 41.05300
C  6.02400 57.48700 41.37100
C  4.89600 58.48800 41.68600
C  3.63000 57.64000 41.52900
C  4.22300 56.25600 41.32500
C  5.08600 58.98900 43.13100
C  2.72100 58.08800 40.29400
C  1.56700 59.06200 40.60600
N  5.02600 53.42900 40.83200
C  3.70700 53.85600 41.07800
C  2.86200 52.59900 41.06200
C  3.78000 51.55400 40.93700
C  5.02500 52.14100 40.70500
C  1.33300 52.53900 41.27000
C  3.93200 50.08100 40.83800
O  3.04600 49.22800 40.96600
C  5.44000 49.76400 40.54300
C  5.51700 48.81300 39.35500
O  5.26400 49.13900 38.18900
O  5.97900 47.60800 39.75000
C  6.30700 46.55500 38.79200
H  11.07800 53.82900 39.96900
H  7.46600 58.97100 41.17700
H  2.27500 55.31100 41.50800
H  8.65700 49.65100 40.12600
H  10.40100 51.39800 39.08700
H  10.92600 51.70100 41.82100
H  11.43300 50.25200 40.82700
H  9.90400 50.30700 41.85200
H  9.25800 51.13800 37.63500
H  7.47300 50.76300 37.65300
H  8.90300 48.26100 37.95300
H  9.68100 49.18700 36.68900
H  11.98900 57.14800 38.76300
H  12.15600 55.40400 39.09300
H  12.63600 56.54700 40.35500
H  9.00900 60.35400 40.31900
H  10.57400 60.90900 41.02400
H  9.34500 59.92300 42.06800
H  4.92400 59.29400 40.95300
H  3.08000 57.61900 42.47000
H  5.29500 60.05500 43.21600
H  5.89800 58.44100 43.60900
H  4.25300 58.84300 43.81900
H  2.20000 57.22100 39.88700
H  3.39600 58.42800 39.50900
H  0.55700 58.71300 40.39300
H  1.69000 59.96700 40.01000
H  1.61700 59.42100 41.63400
H  0.89900 51.67800 40.76300
H  0.99600 53.39900 40.69200
H  1.01500 52.61400 42.31000
H  5.83500 49.19400 41.38400
H  5.94900 45.58400 39.13500
H  7.37900 46.42300 38.64700
H  5.79200 46.66400 37.83700

