158

Mg 25.54100 -8.77000 47.62000
C  27.62400 -6.27400 46.32400
C  23.10500 -7.87900 45.29200
C  23.67100 -11.42100 48.72600
C  28.29100 -9.79400 49.59200
N  25.43600 -7.27800 45.98000
C  26.37900 -6.34400 45.64400
C  25.86500 -5.31500 44.61900
C  24.38800 -5.78500 44.47900
C  24.27300 -7.06200 45.23900
C  23.31900 -4.75200 44.85300
C  26.76300 -5.28400 43.30400
C  27.25100 -3.92300 42.87900
H  26.82700 -3.38200 41.47800
N  23.65100 -9.57100 47.13200
C  22.80200 -9.00000 46.16200
C  21.59000 -9.75600 46.15200
C  21.74800 -10.78200 47.10800
C  23.04700 -10.66000 47.70900
C  20.42200 -9.60300 45.26300
C  20.74100 -11.98800 47.36700
O  19.58600 -11.96300 46.91600
C  21.24800 -13.15700 48.10700
N  25.97500 -10.39900 48.69400
C  24.96500 -11.23300 49.19600
C  25.52700 -12.10400 50.36200
C  26.98100 -11.75300 50.49700
C  27.11700 -10.57100 49.52300
C  24.71000 -11.95200 51.64700
C  28.07900 -12.84200 50.32400
C  28.69800 -12.98300 48.91800
N  27.53400 -8.26600 47.89500
C  28.51900 -8.69100 48.70800
C  29.71900 -7.90800 48.55600
C  29.34100 -6.89600 47.68900
C  28.06800 -7.18800 47.22000
C  31.05600 -7.89500 49.29300
C  29.74300 -5.61300 47.18100
O  30.70100 -4.95600 47.46000
C  28.65300 -5.22900 46.19700
C  28.21900 -3.87700 46.53100
O  27.43500 -3.51800 47.37900
O  28.72300 -3.04800 45.56800
C  28.37400 -1.63300 45.71100
H  22.26100 -7.61100 44.65300
H  23.21500 -12.18700 49.35700
H  29.07200 -10.20300 50.23700
H  25.92600 -4.35500 45.13100
H  24.15000 -6.09200 43.46100
H  23.69000 -3.87100 45.37700
H  22.50100 -5.13600 45.46300
H  22.93500 -4.31500 43.93100
H  26.06200 -5.63000 42.54500
H  27.57200 -6.01400 43.29600
H  28.33900 -3.98400 42.86100
H  27.02700 -3.10600 43.56500
H  20.44400 -8.63800 44.75800
H  19.49200 -9.72700 45.81700
H  20.47200 -10.34000 44.46200
H  22.17100 -13.47100 47.62100
H  20.57400 -14.00200 47.96500
H  21.31600 -12.86800 49.15500
H  25.39600 -13.13900 50.04500
H  27.22300 -11.42200 51.50700
H  24.44900 -12.98400 51.88500
H  23.79200 -11.39900 51.44900
H  25.21500 -11.59600 52.54500
H  27.61800 -13.79300 50.58900
H  28.90100 -12.55500 50.98000
H  28.18700 -12.33100 48.21000
H  28.55000 -14.04900 48.74200
H  29.77200 -12.80000 48.90100
H  31.89100 -7.90600 48.59200
H  31.10800 -8.84200 49.83100
H  31.06100 -7.03000 49.95500
H  29.04800 -5.12500 45.18600
H  28.27100 -1.27300 46.73500
H  27.49300 -1.38400 45.12000
H  29.16500 -1.00900 45.29500
Mg 6.88600 56.54200 42.21200
C  6.03200 53.18000 42.21800
C  9.88400 55.67300 40.72500
C  7.20900 59.75200 41.64800
C  3.52500 57.25400 43.42300
N  7.77000 54.61900 41.30500
C  7.24800 53.35900 41.52900
C  8.09400 52.25500 40.80300
C  9.52900 52.99400 40.83600
C  9.09300 54.47600 41.00200
C  10.62200 52.57500 41.84500
C  7.51500 52.01800 39.40600
C  7.85400 50.54900 38.92300
H  6.91300 49.95600 37.86400
N  8.39700 57.54600 41.39100
C  9.59500 57.03400 40.92100
C  10.47000 58.16200 40.56500
C  9.69000 59.35300 40.72400
C  8.35400 58.93900 41.24600
C  11.88200 57.98200 39.85900
C  10.24800 60.74200 40.55900
O  11.29200 60.91700 39.95000
C  9.57700 61.99800 41.12500
N  5.48400 58.28900 42.39700
C  5.94600 59.49400 42.16900
C  4.82100 60.55200 42.46400
C  3.68400 59.75700 43.12900
C  4.20300 58.35800 42.92700
C  5.30800 61.73100 43.34300
C  2.27500 59.94600 42.50400
C  1.17700 60.53800 43.42500
N  5.11300 55.53200 42.68800
C  3.93300 55.87900 43.30600
C  3.16600 54.73800 43.68100
C  3.94300 53.62300 43.35300
C  5.10000 54.16600 42.74800
C  1.82800 54.66300 44.35400
C  4.09200 52.15400 43.36100
O  3.33200 51.25300 43.73100
C  5.45500 51.87400 42.66400
C  5.25100 50.87700 41.63800
O  4.67900 51.07000 40.56500
O  5.61800 49.71700 42.09300
C  5.27100 48.40500 41.50300
H  10.95600 55.53200 40.56800
H  7.44400 60.81500 41.72400
H  2.55100 57.52500 43.83500
H  8.11100 51.31600 41.35700
H  9.93100 52.71700 39.86100
H  11.50000 52.35600 41.23800
H  10.30400 51.75300 42.48600
H  10.76500 53.47100 42.44900
H  8.00600 52.66300 38.67800
H  6.45700 52.20500 39.21900
H  7.76900 49.94600 39.82700
H  8.85400 50.43600 38.50400
H  11.84800 57.59400 38.84200
H  12.44300 57.21500 40.39300
H  12.52300 58.86400 39.88100
H  9.29600 61.70800 42.13800
H  8.75900 62.31600 40.47800
H  10.24900 62.82900 41.33900
H  4.51100 60.77900 41.44400
H  3.75400 59.89100 44.20900
H  4.70300 61.91600 44.23100
H  5.30000 62.68400 42.81300
H  6.31000 61.46900 43.68200
H  2.03100 58.99600 42.02900
H  2.39400 60.76200 41.79100
H  1.08700 59.89700 44.30200
H  0.23800 60.46000 42.87700
H  1.37500 61.56400 43.73500
H  1.08600 55.36900 43.98100
H  1.96900 54.77000 45.42900
H  1.57300 53.61800 44.17500
H  6.21500 51.55000 43.37500
H  6.15600 48.16500 40.91400
H  4.37700 48.38100 40.88100
H  5.14100 47.64300 42.27100

