158

Mg 25.45000 0.73500 30.56300
C  27.66800 1.08700 33.37500
C  22.78200 1.12800 32.92500
C  23.35700 0.01700 28.06800
C  28.19300 0.03900 28.62800
N  25.30200 1.17800 32.92800
C  26.35200 1.26800 33.84100
C  25.79400 1.56400 35.23800
C  24.25500 1.48000 35.10900
C  24.08100 1.17900 33.58000
C  23.42200 0.43500 36.00800
C  26.28800 2.99100 35.72700
C  26.51100 2.98500 37.27500
H  25.65000 3.86200 38.20200
N  23.45300 0.62000 30.47900
C  22.53800 0.88100 31.48900
C  21.21600 0.83700 30.86900
C  21.37200 0.36300 29.51900
C  22.76800 0.30200 29.33500
C  19.98700 0.95200 31.67600
C  20.26100 -0.06200 28.44500
O  20.48300 -0.35000 27.27700
C  18.80700 -0.03000 28.81700
N  25.74000 -0.06600 28.62900
C  24.72100 -0.11900 27.68700
C  25.20300 -0.11100 26.24700
C  26.69300 0.08400 26.53000
C  26.93400 0.04200 28.01100
C  24.76000 -1.19500 25.29500
C  27.32800 1.46800 25.89500
C  26.95700 2.80500 26.62800
N  27.46800 0.39600 30.86700
C  28.47900 0.19900 29.98400
C  29.72100 0.13700 30.61100
C  29.47300 0.50900 31.90800
C  28.08600 0.77300 31.99400
C  31.01200 -0.35300 30.07500
C  30.06900 0.60600 33.24400
O  31.25300 0.29200 33.57100
C  28.99400 1.16100 34.20400
C  29.00100 0.16000 35.37300
O  28.75900 -1.04800 35.21900
O  29.23600 0.81700 36.60200
C  29.17900 -0.00600 37.84200
H  21.99100 1.33900 33.64800
H  22.72400 -0.02300 27.17900
H  28.88200 -0.10300 27.79300
H  26.16900 0.76900 35.88200
H  23.92400 2.50100 35.29900
H  23.35000 -0.54800 35.54400
H  22.39000 0.71200 36.22500
H  24.04300 0.26200 36.88700
H  25.61100 3.77500 35.38900
H  27.26000 3.17200 35.26700
H  27.52700 3.30600 37.50600
H  26.30400 1.96500 37.60100
H  19.30400 0.15000 31.39700
H  19.46100 1.87300 31.42700
H  20.19200 1.05400 32.74100
H  18.14200 -0.28000 27.99100
H  18.51100 0.94500 29.20400
H  18.53400 -0.74000 29.59700
H  24.86200 0.79600 25.74800
H  27.23100 -0.73500 26.05400
H  25.62200 -1.85500 25.20700
H  24.48200 -0.62500 24.40900
H  23.96600 -1.86300 25.63100
H  26.94100 1.65100 24.89200
H  28.41300 1.36300 25.90700
H  27.09400 2.63000 27.69500
H  25.94000 3.08900 26.35900
H  27.64400 3.55700 26.24000
H  31.13900 -1.25200 30.67800
H  31.76900 0.41000 30.25400
H  30.99300 -0.52700 28.99900
H  29.37900 2.09600 34.61200
H  30.07800 -0.61800 37.91500
H  28.30700 -0.65200 37.74000
H  28.97400 0.60300 38.72200
Mg -1.08600 34.77200 26.46800
C  -2.66200 32.87800 29.06000
C  0.15300 36.82400 29.01000
C  0.23900 36.69900 24.12200
C  -2.67200 32.93500 24.13200
N  -1.38300 34.84800 28.79800
C  -1.87600 33.89100 29.58000
C  -1.53000 34.20700 31.06800
C  -0.75100 35.52100 31.06300
C  -0.64900 35.80400 29.52200
C  -1.50800 36.72900 31.90300
C  -0.87400 33.02300 31.98000
C  -1.45800 32.88600 33.40000
H  -0.51500 32.97900 34.56700
N  0.04500 36.43300 26.52900
C  0.54400 37.10200 27.67700
C  1.53000 38.04200 27.29500
C  1.53100 38.11600 25.86900
C  0.63600 37.00200 25.43300
C  2.30700 38.95700 28.31000
C  2.29200 38.99900 24.93900
O  2.21200 38.82100 23.71700
C  3.05000 40.16900 25.48700
N  -1.24900 34.86700 24.37100
C  -0.54900 35.68500 23.61100
C  -0.67500 35.39900 22.11700
C  -1.33300 33.95000 22.18400
C  -1.75900 33.87500 23.64400
C  -1.57200 36.42100 21.28900
C  -0.65500 32.66400 21.58900
C  0.66100 32.36000 22.30700
N  -2.41800 33.28300 26.52700
C  -3.02300 32.67600 25.49600
C  -3.80400 31.58400 25.93200
C  -3.68900 31.68700 27.32600
C  -2.85400 32.71300 27.64800
C  -4.70300 30.68700 25.19900
C  -4.02300 30.98500 28.53600
O  -4.67000 29.97000 28.64000
C  -3.39100 31.74700 29.75000
C  -4.52600 32.30200 30.52600
O  -5.31500 33.15500 30.21300
O  -4.58900 31.64100 31.77300
C  -5.66300 32.08700 32.63900
H  0.42100 37.56900 29.76200
H  0.58500 37.29100 23.27200
H  -3.11700 32.23900 23.41800
H  -2.48300 34.44800 31.53800
H  0.21000 35.44200 31.57200
H  -2.47900 36.86200 31.42600
H  -0.93600 37.65400 31.97800
H  -1.75400 36.32100 32.88300
H  0.20000 33.20200 32.01500
H  -1.13200 32.02300 31.63100
H  -1.89900 31.89100 33.46300
H  -2.26300 33.61000 33.52700
H  3.34400 38.65100 28.16900
H  2.13600 38.71600 29.35900
H  2.09400 39.99200 28.04100
H  2.37800 40.80300 26.06500
H  3.50600 40.73400 24.67400
H  3.89900 39.90800 26.11800
H  0.35400 35.46100 21.76300
H  -2.31300 33.89600 21.71000
H  -1.51500 37.42000 21.72200
H  -2.63500 36.18200 21.26000
H  -1.32800 36.54600 20.23400
H  -0.49000 32.69800 20.51200
H  -1.27000 31.77900 21.75400
H  1.29100 31.86900 21.56500
H  0.43200 31.66900 23.11900
H  1.30000 33.19900 22.58500
H  -4.75400 30.99200 24.15400
H  -5.70700 30.77900 25.61300
H  -4.37600 29.65100 25.28700
H  -2.76300 31.09000 30.35100
H  -5.24600 32.88500 33.25400
H  -5.84600 31.17100 33.20100
H  -6.59700 32.40800 32.17700

