158

Mg 41.42300 8.96400 29.20800
C  43.31900 9.91600 31.84800
C  39.05700 7.55200 31.33700
C  39.77600 7.77800 26.56200
C  44.20700 9.66100 26.98100
N  41.18600 8.77700 31.35800
C  42.01500 9.42800 32.25600
C  41.35500 9.32700 33.64700
C  40.06700 8.46600 33.50100
C  40.09600 8.28900 31.95900
C  40.11900 7.14600 34.24700
C  41.07400 10.65100 34.25600
C  41.79400 10.90900 35.55100
H  41.34800 12.09000 36.43900
N  39.63400 7.93000 29.00300
C  38.82300 7.36200 29.96600
C  37.77900 6.62700 29.36400
C  37.86600 6.82100 27.96700
C  39.16600 7.56000 27.82600
C  36.66000 5.91300 30.23700
C  36.88900 6.38500 26.83500
O  37.16700 6.51100 25.63900
C  35.61700 5.69700 27.22300
N  41.97800 8.64100 27.05100
C  41.06500 8.18000 26.16700
C  41.50900 8.15400 24.75200
C  42.83100 9.02200 24.89700
C  43.04600 9.12600 26.39600
C  41.46400 6.79700 24.01000
C  42.77200 10.38500 24.12200
C  41.79700 11.47200 24.55300
N  43.39200 9.52100 29.31700
C  44.35200 9.90500 28.35300
C  45.50200 10.44200 29.03400
C  45.20900 10.53000 30.38500
C  43.90000 9.86500 30.49600
C  46.79200 10.91500 28.34600
C  45.61600 10.86300 31.74500
O  46.63400 11.45800 32.16200
C  44.44800 10.43900 32.75600
C  45.00600 9.36900 33.62500
O  45.38600 8.31600 33.23700
O  44.98000 9.72600 34.95700
C  45.61300 8.81700 35.90300
H  38.30200 7.21600 32.05100
H  39.16400 7.54100 25.68900
H  44.93100 10.04200 26.25700
H  42.03200 8.79200 34.31200
H  39.12800 8.87700 33.87100
H  39.12800 6.94900 34.65700
H  40.85200 7.23500 35.04900
H  40.43000 6.38100 33.53600
H  40.02100 10.59900 34.53000
H  41.13800 11.44600 33.51300
H  42.77100 11.28300 35.24700
H  41.97900 10.05400 36.20100
H  35.77800 6.55200 30.26200
H  36.98000 5.74100 31.26500
H  36.35100 4.98200 29.76200
H  35.05200 5.58300 26.29700
H  35.05400 6.27500 27.95500
H  35.95400 4.77900 27.70500
H  40.83000 8.81600 24.21500
H  43.68900 8.48000 24.49900
H  42.47500 6.48300 23.74700
H  40.82900 6.84500 23.12500
H  40.95200 6.06000 24.62900
H  42.69300 10.11200 23.07000
H  43.72400 10.89200 24.27600
H  40.95600 11.51000 23.86100
H  42.36300 12.40300 24.53700
H  41.56900 11.37000 25.61400
H  46.55200 11.90500 27.95800
H  47.05200 10.23600 27.53300
H  47.61000 10.87700 29.06500
H  44.12500 11.28900 33.35700
H  44.76500 8.37300 36.42400
H  46.09900 9.51400 36.58600
H  46.29800 8.06100 35.51900
Mg 27.48100 49.84100 25.88600
C  25.49500 51.00500 28.61800
C  29.77600 48.75100 28.25000
C  29.40100 48.71000 23.38400
C  25.37600 51.36400 23.73400
N  27.51600 49.80100 28.20700
C  26.61800 50.28700 29.11600
C  27.03000 49.98500 30.62400
C  28.55000 49.79100 30.37200
C  28.70500 49.49400 28.81600
C  29.36400 51.12100 30.68000
C  26.36000 48.72300 31.33600
C  25.69300 48.88200 32.69400
H  26.42100 49.61500 33.84000
N  29.28800 48.80100 25.75300
C  30.04200 48.42400 26.90200
C  31.14200 47.55400 26.47300
C  30.98500 47.45800 25.06500
C  29.91600 48.34000 24.67500
C  32.10700 46.83600 27.38200
C  31.65100 46.57200 24.10600
O  31.39200 46.60100 22.88800
C  32.68900 45.62000 24.55200
N  27.59400 50.16600 23.84000
C  28.36300 49.51500 22.98000
C  27.83500 49.47700 21.57400
C  26.40700 50.17800 21.70100
C  26.44000 50.62600 23.13100
C  28.77600 50.23800 20.53200
C  25.28100 49.10100 21.40900
C  25.11000 47.97900 22.47000
N  25.77700 51.01300 26.07600
C  25.05100 51.59200 25.05000
C  23.82200 52.17200 25.58800
C  23.97000 51.97700 27.00400
C  25.22200 51.32200 27.24800
C  22.67300 52.85700 24.71900
C  23.35400 52.30800 28.30900
O  22.39000 53.09900 28.54800
C  24.26500 51.57800 29.44400
C  24.64300 52.58200 30.50100
O  25.18000 53.63900 30.26100
O  24.19200 52.10600 31.74200
C  24.55100 52.86900 32.94600
H  30.50200 48.45000 29.00800
H  29.75100 48.25900 22.45300
H  24.53900 51.40200 23.03300
H  26.82900 50.89200 31.19300
H  28.98300 49.02600 31.01700
H  30.15600 51.26500 29.94500
H  29.79000 51.07700 31.68300
H  28.69200 51.96900 30.55300
H  27.06900 47.89800 31.40300
H  25.51800 48.47200 30.69000
H  25.41000 47.87600 33.00200
H  24.79600 49.49500 32.61100
H  31.84400 46.98300 28.43000
H  33.14500 47.14900 27.27000
H  32.00500 45.76800 27.19400
H  32.10900 44.99500 25.23000
H  33.54000 46.13600 24.99600
H  33.05000 45.04700 23.69800
H  27.73300 48.45400 21.21300
H  26.40700 50.98500 20.96900
H  29.80400 50.06600 20.84800
H  28.55100 51.29700 20.40100
H  28.61300 49.71000 19.59200
H  25.61400 48.58300 20.51000
H  24.33000 49.57100 21.15800
H  25.51200 48.28000 23.43700
H  25.66800 47.08500 22.19400
H  24.09400 47.68500 22.73400
H  22.60800 52.38000 23.74100
H  23.01100 53.89000 24.64300
H  21.71100 52.79300 25.22800
H  23.88000 50.66000 29.88800
H  23.93800 53.76600 33.02900
H  25.62500 53.05100 32.99900
H  24.48000 52.13900 33.75200

