158

Mg 44.83900 4.24500 46.83600
C  43.34400 7.51100 46.55900
C  41.86700 3.01500 45.49000
C  46.42700 1.43000 46.36500
C  47.84300 5.92000 47.54300
N  42.90100 5.19700 45.97800
C  42.46400 6.46300 46.09000
C  40.99300 6.60100 45.85600
C  40.56300 5.19900 45.40200
C  41.85300 4.39900 45.65800
C  39.30800 4.55500 46.11000
C  40.53500 7.69500 44.84400
C  41.44400 7.96800 43.63900
H  40.96600 7.63400 42.20200
N  44.21600 2.44900 46.18500
C  42.93400 2.12000 45.63000
C  42.91300 0.75700 45.23800
C  44.25900 0.30400 45.28100
C  45.01900 1.37500 45.98700
C  41.65000 0.15700 44.66900
C  44.80300 -0.97800 44.74700
O  44.06700 -1.77600 44.19300
C  46.24500 -1.42000 44.79500
N  46.77600 3.72500 47.18600
C  47.20500 2.44000 46.96100
C  48.68300 2.22500 47.33900
C  49.19300 3.67300 47.42200
C  47.90000 4.52000 47.39600
C  48.87400 1.28400 48.64900
C  50.08600 4.09600 46.22000
C  51.62500 4.49000 46.39700
N  45.56400 6.29100 46.98100
C  46.78000 6.82900 47.40000
C  46.72300 8.27800 47.43700
C  45.38100 8.58100 47.20800
C  44.71200 7.38200 46.89800
C  47.82200 9.18900 47.76000
C  44.43000 9.66900 47.12100
O  44.58600 10.87900 47.29600
C  43.05800 9.03500 46.72800
C  42.12700 9.15000 47.87500
O  41.95600 8.43100 48.85100
O  41.25200 10.21300 47.54400
C  40.06900 10.35400 48.32700
H  40.91000 2.63400 45.12800
H  47.00700 0.52600 46.16900
H  48.80900 6.41300 47.67000
H  40.64900 6.91700 46.84100
H  40.37300 5.13900 44.33000
H  38.78800 5.26400 46.75400
H  39.69100 3.89100 46.88500
H  38.62700 4.12500 45.37600
H  40.50100 8.67500 45.32000
H  39.54100 7.45700 44.46500
H  42.31300 7.31500 43.71600
H  41.75600 9.01100 43.69600
H  41.15900 -0.33300 45.51000
H  41.74800 -0.54500 43.84100
H  40.99300 0.92900 44.26800
H  46.52500 -1.79400 45.78000
H  46.86600 -0.57400 44.50000
H  46.43400 -2.02100 43.90600
H  49.23800 1.72500 46.54600
H  49.74800 3.73000 48.35800
H  48.10000 0.51800 48.60700
H  48.74300 1.87700 49.55400
H  49.87900 0.86500 48.58900
H  49.61900 4.97600 45.77900
H  50.03500 3.33800 45.43900
H  52.30100 3.84100 45.83900
H  51.89800 4.58400 47.44800
H  51.74100 5.43300 45.86300
H  48.45400 9.45600 46.91200
H  48.55200 8.76900 48.45300
H  47.40500 10.07200 48.24400
H  42.67100 9.45700 45.80000
H  39.40200 11.10000 47.89500
H  40.38600 10.62500 49.33400
H  39.63600 9.36400 48.47100
Mg 35.89700 2.51900 29.86700
C  33.59600 3.31500 32.31200
C  38.30100 2.36400 32.25900
C  37.95500 1.68500 27.48800
C  33.21100 2.66000 27.50300
N  35.90300 2.79800 31.98300
C  34.86300 3.01500 32.82900
C  35.25500 3.03200 34.29500
C  36.79100 2.92500 34.29900
C  36.97100 2.62300 32.76100
C  37.55700 4.14900 34.85500
C  34.51500 1.97900 35.22100
C  33.90500 2.51500 36.47700
H  34.55800 3.62400 37.17100
N  37.92200 2.10500 29.85500
C  38.77200 2.07800 30.93800
C  40.18300 1.83700 30.46000
C  40.09900 1.58800 29.03100
C  38.62100 1.75700 28.73800
C  41.36400 1.74400 31.35200
C  41.17200 1.04600 28.01100
O  40.89600 0.71900 26.88800
C  42.57600 0.75600 28.53800
N  35.59100 2.09500 27.84500
C  36.62400 1.93200 27.04400
C  36.26100 1.82200 25.57800
C  34.78500 2.06100 25.58800
C  34.45200 2.30100 27.08600
C  36.97900 2.71200 24.55100
C  33.80400 1.13600 24.72800
C  33.20000 -0.04600 25.43100
N  33.80200 2.95800 29.88500
C  32.82600 2.93500 28.85200
C  31.49800 3.38700 29.40500
C  31.76600 3.61000 30.73000
C  33.14100 3.31100 30.98300
C  30.20400 3.56900 28.61000
C  31.14600 4.04500 31.98000
O  30.01500 4.37900 32.26500
C  32.32800 3.80000 33.07000
C  32.41800 5.00400 33.84200
O  32.99100 6.00400 33.52900
O  31.69900 4.87400 34.98100
C  31.68100 6.03000 35.92000
H  39.12200 2.38200 32.97800
H  38.53900 1.24300 26.67900
H  32.39400 2.70100 26.78000
H  34.96900 4.01900 34.66000
H  37.16000 2.02800 34.79700
H  37.18300 4.71200 35.71000
H  37.59800 4.87500 34.04300
H  38.55600 3.76800 35.06800
H  35.15800 1.13500 35.47100
H  33.73000 1.53900 34.60500
H  33.79700 1.65800 37.14100
H  32.85300 2.73400 36.29800
H  41.89700 0.80000 31.23600
H  41.19300 2.02000 32.39200
H  41.99800 2.47200 30.84600
H  43.16300 0.63000 27.62900
H  42.78700 -0.09000 29.19300
H  42.99600 1.50100 29.21400
H  36.54500 0.81800 25.26200
H  34.49800 3.00300 25.12100
H  36.32600 3.52700 24.24000
H  37.43000 2.07400 23.79000
H  37.84400 3.19100 25.00800
H  34.46300 0.73300 23.95900
H  33.00800 1.81600 24.42400
H  33.72700 -0.43200 26.30300
H  33.24900 -0.87900 24.72900
H  32.17200 0.15700 25.73300
H  29.39900 3.14900 29.21200
H  30.12400 3.11700 27.62200
H  29.98800 4.63000 28.47900
H  31.93900 3.02000 33.72400
H  30.91000 6.75800 35.66700
H  32.63600 6.55500 35.96600
H  31.35300 5.59100 36.86100

