158

Mg 10.17000 48.90600 25.97100
C  7.54000 49.33000 28.44900
C  12.28100 50.42200 28.09700
C  12.25500 49.05000 23.46100
C  7.63000 47.82600 23.84500
N  9.90300 49.79100 28.03000
C  8.83000 49.72500 28.94000
C  9.26900 50.19800 30.33400
C  10.66500 50.93200 29.96900
C  10.93400 50.38500 28.59500
C  10.70800 52.48600 30.08100
C  9.60500 48.99100 31.30300
C  9.80100 49.29200 32.80300
H  9.08100 48.49100 33.88900
N  12.00000 49.50200 25.83900
C  12.79200 50.00800 26.84300
C  14.16900 50.08700 26.35100
C  14.15900 49.68300 25.03400
C  12.75500 49.34800 24.69800
C  15.32900 50.54300 27.23400
C  15.31200 49.46900 24.09700
O  15.18200 49.00800 22.91100
C  16.60600 49.88300 24.54700
N  9.97500 48.41300 23.88200
C  10.96200 48.65500 23.02700
C  10.51600 48.34400 21.50700
C  9.10400 47.72600 21.77400
C  8.86000 47.98500 23.27000
C  10.60100 49.62200 20.54100
C  9.01200 46.25400 21.31800
C  9.53100 45.19500 22.30700
N  8.13600 48.52600 26.09500
C  7.24200 48.00500 25.19500
C  5.92000 47.79200 25.70400
C  5.99900 48.31300 26.97400
C  7.35000 48.75400 27.18700
C  4.58700 47.49300 24.92900
C  5.28200 48.53700 28.18400
O  4.12300 48.23900 28.55000
C  6.29300 49.24100 29.19800
C  6.36900 48.22000 30.27000
O  7.04300 47.20100 30.21300
O  5.33700 48.40000 31.18200
C  5.22500 47.55500 32.30400
H  13.01800 50.70900 28.85000
H  12.88100 49.34700 22.61700
H  6.87000 47.38200 23.19900
H  8.56300 50.82600 30.87700
H  11.55600 50.65000 30.52900
H  11.57200 52.78700 30.67400
H  9.76400 52.69600 30.58400
H  10.76100 52.91800 29.08200
H  10.51800 48.54400 30.91100
H  8.84300 48.21300 31.26200
H  9.69300 50.37500 32.86200
H  10.87200 49.11200 32.89500
H  15.88700 51.41000 26.88200
H  16.05600 49.80400 27.57000
H  14.86400 50.98000 28.11800
H  16.71700 50.89200 24.94400
H  17.32000 49.81400 23.72700
H  17.02400 49.17700 25.26400
H  11.20100 47.57100 21.16000
H  8.48700 48.38800 21.16600
H  9.64100 49.63000 20.02600
H  11.53200 49.59600 19.97500
H  10.62900 50.53900 21.13100
H  9.67200 46.01900 20.48300
H  7.98500 46.05300 21.01400
H  10.35600 45.59800 22.89200
H  9.94700 44.34900 21.76000
H  8.75700 44.73900 22.92500
H  3.71600 47.46200 25.58500
H  4.66200 46.54600 24.39600
H  4.44500 48.38300 24.31700
H  5.95500 50.13100 29.72800
H  4.49500 46.79000 32.03900
H  4.87200 48.14600 33.14900
H  6.13300 47.03600 32.60800
Mg -4.58800 25.26500 25.92200
C  -3.89800 27.04400 28.85900
C  -5.93500 22.84500 27.89200
C  -4.93700 23.47900 23.10900
C  -2.50300 27.40400 24.18000
N  -4.79900 24.92200 28.13800
C  -4.54200 25.78900 29.10900
C  -5.13800 25.33600 30.39700
C  -5.40800 23.87000 30.15800
C  -5.44100 23.86300 28.60900
C  -4.35300 22.81500 30.61700
C  -6.40000 26.22300 30.71600
C  -6.63600 26.55500 32.22500
H  -6.15300 25.52200 33.34200
N  -5.50200 23.55100 25.56400
C  -6.00400 22.63500 26.49400
C  -6.58000 21.49400 25.78000
C  -6.28800 21.73500 24.41300
C  -5.56800 23.00300 24.30400
C  -7.43300 20.39900 26.44000
C  -6.74100 21.01500 23.15500
O  -6.53100 21.41300 22.00000
C  -7.39500 19.69800 23.26500
N  -4.05100 25.58200 23.84900
C  -4.26800 24.65100 22.94100
C  -3.44500 24.88300 21.60700
C  -2.58900 26.20500 22.01900
C  -3.14400 26.48300 23.42200
C  -2.71400 23.65800 21.10400
C  -2.70000 27.44200 21.02800
C  -1.50100 28.19400 20.77300
N  -3.47500 26.91100 26.34200
C  -2.67800 27.72700 25.51200
C  -2.08600 28.73000 26.31500
C  -2.59500 28.60600 27.61900
C  -3.42600 27.40800 27.58600
C  -1.10800 29.70000 25.79600
C  -2.56200 29.10800 28.98500
O  -1.86000 30.01900 29.42900
C  -3.44700 28.10500 29.85400
C  -2.55400 27.52300 30.89000
O  -1.46600 27.00000 30.66900
O  -3.29300 27.57400 32.07400
C  -2.43700 27.07900 33.17400
H  -6.39300 22.03200 28.46100
H  -4.82000 22.81500 22.25000
H  -1.83600 28.04900 23.60400
H  -4.44000 25.54600 31.20700
H  -6.42000 23.64000 30.49000
H  -3.53100 23.26300 31.17600
H  -3.91700 22.25900 29.78800
H  -4.77000 22.09600 31.32200
H  -7.24800 25.75100 30.21900
H  -6.33500 27.13000 30.11500
H  -7.72100 26.60300 32.32100
H  -6.39100 27.58200 32.49300
H  -7.22700 19.42400 25.99900
H  -8.44800 20.56700 26.07900
H  -7.25400 20.24600 27.50500
H  -6.76400 19.02200 23.84200
H  -7.50600 19.31700 22.25000
H  -8.41600 19.78300 23.63800
H  -4.18400 25.15500 20.85400
H  -1.55000 25.88300 22.08300
H  -1.88700 24.06500 20.52300
H  -3.41400 23.11100 20.47200
H  -2.23200 23.05200 21.87100
H  -3.55400 28.02700 21.36900
H  -3.17300 27.11100 20.10300
H  -1.73300 29.23100 20.52900
H  -0.92600 27.70500 19.98600
H  -0.89700 28.32000 21.67100
H  -0.14000 29.24200 25.99800
H  -1.28100 30.63900 26.32200
H  -1.19900 29.80200 24.71500
H  -4.27900 28.57700 30.37600
H  -2.28000 26.00800 33.04500
H  -2.91900 27.33600 34.11800
H  -1.41800 27.45600 33.26400

