158

Mg 45.98600 25.30900 28.26700
C  46.83100 27.36700 30.91100
C  45.04900 22.89700 30.69100
C  45.13400 23.27300 25.76800
C  47.36800 27.56800 26.02800
N  45.94700 25.09800 30.57100
C  46.29000 26.13900 31.44800
C  46.14300 25.74900 32.94300
C  45.78100 24.15000 32.81500
C  45.56600 24.05400 31.27000
C  46.76600 23.27200 33.56000
C  45.15600 26.67500 33.66500
C  45.54300 27.01100 35.09000
H  44.52900 27.27800 36.17400
N  45.11700 23.45400 28.23400
C  44.83100 22.60200 29.29700
C  44.19000 21.42500 28.79400
C  44.26000 21.45000 27.38800
C  44.89800 22.71900 27.04100
C  43.66400 20.31400 29.66600
C  43.91500 20.31600 26.41800
O  44.13700 20.40000 25.19400
C  43.25200 19.03200 26.93600
N  46.14900 25.44700 26.16000
C  45.71200 24.51600 25.33900
C  46.07700 24.85100 23.89300
C  46.54300 26.33600 24.00800
C  46.71700 26.50800 25.51800
C  47.10500 23.93700 23.10500
C  45.48100 27.46100 23.54800
C  46.00100 28.46700 22.49500
N  47.10100 26.94200 28.36300
C  47.59900 27.81200 27.41700
C  48.26200 28.90300 28.10100
C  47.86000 28.77100 29.40900
C  47.21900 27.56900 29.60200
C  49.02200 30.06200 27.58400
C  48.16200 29.40200 30.67400
O  48.75400 30.46200 30.92600
C  47.25000 28.58500 31.69900
C  48.12100 28.43700 32.92200
O  49.06500 27.68500 32.96100
O  47.82400 29.42500 33.89600
C  48.87200 29.67900 34.93600
H  44.75200 22.23200 31.50500
H  44.82600 22.66700 24.91400
H  47.67800 28.37200 25.35800
H  47.08600 25.86700 33.47800
H  44.81800 24.08100 33.32200
H  46.24800 22.67000 34.30600
H  47.59000 23.86800 33.95400
H  47.18000 22.46900 32.95000
H  44.24700 26.08400 33.77800
H  44.88000 27.49800 33.00600
H  46.17600 27.89400 35.00400
H  46.06600 26.14800 35.50200
H  42.57500 20.31400 29.64400
H  43.93400 20.43500 30.71500
H  44.17200 19.39000 29.38900
H  44.01100 18.46500 27.47600
H  42.86800 18.44800 26.10000
H  42.50000 19.43900 27.61100
H  45.12800 24.91100 23.36200
H  47.48100 26.56400 23.50100
H  47.83000 24.50100 22.51700
H  46.59000 23.35000 22.34400
H  47.60100 23.18800 23.72100
H  45.09300 28.07400 24.36000
H  44.59700 26.96600 23.14700
H  47.07300 28.33100 22.35200
H  45.87600 29.52300 22.73600
H  45.61700 28.33400 21.48400
H  49.82600 30.13800 28.31600
H  48.42800 30.94400 27.82300
H  49.32400 30.00000 26.53900
H  46.33600 29.13800 31.91700
H  49.90500 29.47000 34.65900
H  48.60600 28.96500 35.71600
H  48.77700 30.74200 35.15800
Mg 48.33400 34.65600 26.76400
C  46.23000 33.79900 29.45800
C  49.03500 37.54000 28.31000
C  49.77600 35.64600 23.91400
C  47.15500 31.74600 25.06800
N  47.81400 35.40800 28.74100
C  46.99000 34.95300 29.72400
C  47.33700 35.62600 31.03200
C  47.91900 37.03000 30.57100
C  48.30700 36.67500 29.10800
C  47.04700 38.36600 30.84000
C  48.36800 34.82800 31.87300
C  48.08800 34.63600 33.35800
H  47.05100 35.63300 34.03900
N  49.39500 36.35200 26.24900
C  49.56700 37.42100 27.02400
C  50.32700 38.44300 26.33800
C  50.65700 37.84300 25.09200
C  49.96900 36.54700 25.01200
C  50.66100 39.85500 27.05900
C  51.50900 38.37200 23.96200
O  51.61300 37.86600 22.83600
C  52.18100 39.67300 24.27600
N  48.62000 33.75300 24.73600
C  49.22400 34.40800 23.72800
C  49.26900 33.53100 22.47200
C  48.58600 32.24300 22.98400
C  48.04500 32.57100 24.39400
C  48.67000 34.20200 21.23000
C  49.79200 31.20700 23.17400
C  49.80400 30.15300 21.96200
N  46.94400 33.11100 27.09400
C  46.61500 31.97100 26.38800
C  45.62200 31.22100 27.06300
C  45.45000 31.95200 28.25300
C  46.26600 33.07200 28.27700
C  44.90600 30.07400 26.48900
C  44.70000 31.89300 29.52200
O  43.87200 31.04200 29.89100
C  45.18700 33.11700 30.37500
C  45.39900 32.71400 31.79400
O  46.31100 31.95200 32.14300
O  44.39500 33.06900 32.59000
C  44.17500 32.34700 33.86300
H  49.38500 38.38700 28.90400
H  50.24400 35.92800 22.96900
H  46.76500 30.89300 24.50900
H  46.40200 35.84600 31.54700
H  48.88300 37.31000 30.99500
H  46.18600 38.03100 31.41900
H  46.77400 38.82700 29.89100
H  47.61000 39.07900 31.44200
H  49.39200 35.19400 31.80100
H  48.32800 33.80600 31.49400
H  48.99300 34.72400 33.95900
H  47.63600 33.65400 33.50300
H  50.21300 40.67200 26.49200
H  51.74000 39.93400 26.93000
H  50.38000 39.93600 28.10900
H  52.89700 39.48800 25.07600
H  51.37600 40.38200 24.47200
H  52.78000 39.95200 23.41000
H  50.34500 33.43900 22.32700
H  47.76100 31.87900 22.37200
H  47.94900 33.57500 20.70500
H  49.54100 34.30900 20.58500
H  48.25000 35.20400 21.32600
H  49.78500 30.66100 24.11800
H  50.77400 31.66000 23.03500
H  50.67700 30.16300 21.31000
H  48.87900 30.03800 21.39700
H  49.94600 29.23400 22.53100
H  44.43600 30.41700 25.56700
H  44.15400 29.80000 27.22800
H  45.57500 29.24300 26.26200
H  44.30900 33.76200 30.39200
H  43.10600 32.16800 33.97600
H  44.39300 32.99600 34.71200
H  44.71100 31.41900 34.06200

