158

Mg 46.89900 16.72900 28.74900
C  44.90300 16.50200 31.72600
C  49.23900 18.34100 30.61700
C  48.30900 17.70500 25.94900
C  44.10200 15.63300 26.93700
N  47.16900 17.12700 30.95100
C  46.21700 16.97100 31.96400
C  46.76100 17.46600 33.31100
C  48.12000 18.16500 32.92900
C  48.24400 17.84500 31.41100
C  48.21200 19.62300 33.32100
C  47.01400 16.32700 34.30300
C  46.43700 16.64200 35.70400
H  46.39300 18.08900 36.17100
N  48.75400 17.68700 28.31300
C  49.49100 18.35800 29.25400
C  50.51200 19.11000 28.48200
C  50.33300 18.78400 27.12400
C  49.13000 17.95700 27.03900
C  51.44900 20.16600 29.10300
C  51.15500 19.19600 25.91800
O  50.93000 18.78400 24.77400
C  52.30400 20.17300 26.09800
N  46.28400 16.61300 26.77900
C  47.06700 17.10800 25.77100
C  46.47500 16.93400 24.40900
C  45.23400 16.17400 24.68500
C  45.18000 16.11200 26.23900
C  46.18000 18.26900 23.73500
C  45.18400 14.76900 24.05700
C  44.89600 14.63900 22.51800
N  44.89800 16.07300 29.23000
C  43.92600 15.58300 28.39600
C  42.82700 15.07400 29.14300
C  43.14800 15.46800 30.48100
C  44.41400 16.08400 30.46300
C  41.71400 14.40700 28.65400
C  42.66500 15.44400 31.82500
O  41.60500 14.99000 32.32300
C  43.81800 16.10700 32.72600
C  43.24800 17.26400 33.56300
O  43.21500 18.42000 33.15800
O  42.75600 16.80800 34.70800
C  42.07700 17.77400 35.58500
H  49.93200 19.01000 31.13200
H  48.79700 17.95700 25.00600
H  43.23600 15.22900 26.40800
H  46.06100 18.20200 33.70600
H  48.93500 17.70500 33.48800
H  49.20400 19.77400 33.74700
H  47.51900 19.88000 34.12200
H  48.10700 20.30100 32.47500
H  48.07100 16.08800 34.42600
H  46.48900 15.48800 33.84700
H  47.08700 16.20400 36.46100
H  45.46600 16.15100 35.77400
H  51.16800 20.51300 30.09800
H  51.40200 21.08000 28.51000
H  52.43000 19.69100 29.11000
H  53.04300 19.83000 26.82200
H  51.92700 21.18100 26.27600
H  52.83500 20.15300 25.14600
H  47.14900 16.41100 23.72900
H  44.26300 16.62100 24.46800
H  45.13600 18.49900 23.52300
H  46.69600 18.34600 22.77800
H  46.42900 19.07000 24.43100
H  44.41000 14.18900 24.56100
H  46.13200 14.29500 24.31300
H  43.87600 14.25600 22.49400
H  45.55900 13.90300 22.06300
H  45.03300 15.59000 22.00200
H  40.95100 15.12800 28.36100
H  41.25000 13.87800 29.48600
H  41.90500 13.71100 27.83700
H  44.05500 15.36300 33.48700
H  41.51200 18.48300 34.97900
H  42.87700 18.23700 36.16400
H  41.26700 17.38200 36.19900
Mg 7.30600 54.10100 41.69300
C  6.73800 50.66800 40.99600
C  10.46900 53.81700 40.19700
C  7.52000 57.46700 41.41700
C  3.99600 54.28100 42.70800
N  8.34600 52.48400 40.47900
C  7.90100 51.18900 40.45500
C  8.96800 50.41200 39.69400
C  10.29300 51.24200 39.88400
C  9.70400 52.62500 40.18900
C  11.28900 50.72200 40.94900
C  8.51200 50.17900 38.20200
C  8.71300 48.76000 37.56600
H  7.98200 48.36500 36.28500
N  8.81800 55.48300 41.00600
C  10.12000 55.15000 40.55200
C  10.86200 56.31500 40.24700
C  10.03800 57.43400 40.67100
C  8.68900 56.85700 41.01900
C  12.27000 56.31000 39.58000
C  10.40800 58.90500 40.72000
O  11.54400 59.19800 40.38200
C  9.55300 59.99900 41.29200
N  5.94000 55.60800 41.87400
C  6.26400 56.95200 41.77700
C  5.24700 57.86000 42.49800
C  4.01100 56.84100 42.67400
C  4.65800 55.49400 42.38600
C  5.80200 58.41000 43.82000
C  2.91800 57.23300 41.66500
C  2.15100 58.50300 42.11300
N  5.74800 52.77000 41.96300
C  4.47400 53.02200 42.47500
C  3.75200 51.79500 42.71000
C  4.62000 50.83200 42.14000
C  5.70100 51.49000 41.61000
C  2.37000 51.76500 43.40600
C  4.70900 49.41300 41.88700
O  3.96300 48.43100 42.15600
C  6.06200 49.27100 40.97200
C  5.68200 48.58600 39.71600
O  5.31300 49.17700 38.70700
O  5.74800 47.22900 39.86700
C  5.37700 46.29900 38.81400
H  11.52300 53.68000 39.94400
H  7.67100 58.54800 41.38300
H  3.04500 54.56700 43.16200
H  9.08200 49.42400 40.14200
H  10.92000 51.24000 38.99300
H  10.87000 49.84300 41.43700
H  11.54000 51.52100 41.64700
H  12.23300 50.49600 40.45200
H  9.02500 50.98300 37.67300
H  7.47000 50.45900 38.05100
H  8.43300 47.96500 38.25600
H  9.73200 48.63300 37.19900
H  12.88600 57.18100 39.80200
H  12.22600 56.09000 38.51300
H  12.80100 55.54600 40.14800
H  9.24400 59.76600 42.31100
H  8.66600 60.14200 40.67500
H  10.17200 60.89300 41.36400
H  4.95700 58.72000 41.89500
H  3.57600 56.91500 43.67100
H  5.10300 58.42800 44.65600
H  5.94100 59.47500 43.63400
H  6.79300 57.97300 43.93900
H  2.35100 56.39400 41.26000
H  3.43100 57.48700 40.73800
H  2.32200 59.37500 41.48200
H  2.42600 58.75900 43.13600
H  1.06300 58.43100 42.08900
H  2.52100 52.30600 44.34000
H  2.14800 50.72500 43.64900
H  1.57300 52.15900 42.77600
H  6.77600 48.59000 41.43500
H  5.83400 45.33800 39.05300
H  5.77300 46.57200 37.83600
H  4.30300 46.11700 38.77400

