158

Mg 40.82000 41.08800 27.45500
C  39.92400 43.51100 29.87800
C  41.47800 38.86500 29.96700
C  41.85200 38.99000 25.04200
C  40.27800 43.51300 25.04900
N  40.90400 41.31500 29.77200
C  40.35500 42.31700 30.50300
C  40.34100 42.01200 32.03300
C  40.76200 40.50700 32.00300
C  40.99600 40.10700 30.49600
C  41.87200 39.96200 32.95700
C  39.02400 42.31500 32.79600
C  38.50200 41.43600 33.88900
H  37.79600 42.09900 35.11700
N  41.46200 39.14400 27.47700
C  41.63900 38.35600 28.63100
C  41.92800 37.02400 28.22800
C  41.91300 37.00500 26.79700
C  41.76400 38.41300 26.35000
C  42.22600 35.87900 29.18500
C  41.99000 35.84700 25.87900
O  41.80300 35.97100 24.66000
C  42.00000 34.45100 26.41800
N  41.20600 41.33800 25.39900
C  41.51400 40.29000 24.64100
C  41.32100 40.60100 23.13300
C  40.70700 42.03200 23.10900
C  40.76200 42.35900 24.61000
C  42.74500 40.50800 22.41100
C  39.28500 42.04100 22.45900
C  38.12500 41.48400 23.26400
N  40.28700 43.08600 27.45800
C  40.09900 43.92200 26.37500
C  39.59000 45.23300 26.80200
C  39.42600 45.08900 28.15200
C  39.92000 43.80200 28.54000
C  39.31200 46.50000 26.05800
C  39.03300 45.74300 29.41200
O  38.66300 46.88300 29.57500
C  39.31900 44.78900 30.47300
C  40.19900 45.47300 31.50300
O  41.32400 45.78300 31.30800
O  39.57300 45.60700 32.72800
C  40.46000 46.04500 33.86100
H  41.75800 38.09900 30.69300
H  42.15800 38.33200 24.22500
H  40.05200 44.27600 24.30100
H  41.19000 42.62700 32.33000
H  39.80400 40.05100 32.25200
H  42.70700 39.59300 32.36200
H  41.52000 39.15400 33.59800
H  42.30000 40.73900 33.59100
H  38.24200 42.63800 32.10900
H  39.38000 43.19600 33.33000
H  39.36100 40.84800 34.21400
H  37.73500 40.69500 33.66700
H  41.34800 35.24000 29.09200
H  42.27300 36.14200 30.24200
H  43.06700 35.22100 28.96700
H  41.24000 34.49700 27.19700
H  42.96900 34.18100 26.83700
H  41.76300 33.78300 25.58900
H  40.62400 39.87200 22.71900
H  41.38400 42.75800 22.66000
H  43.27400 39.73300 22.96500
H  43.25300 41.45300 22.21500
H  42.46000 40.16500 21.41700
H  39.30600 41.51800 21.50300
H  39.04800 43.08700 22.26600
H  38.53400 40.76500 23.97400
H  37.43900 41.00400 22.56600
H  37.61200 42.24700 23.85000
H  38.69900 46.22700 25.19900
H  40.24100 47.03600 25.86300
H  38.80300 47.13100 26.78600
H  38.37500 44.53400 30.95600
H  41.51800 45.81300 33.73500
H  40.07800 45.42500 34.67300
H  40.40000 47.10800 34.09200
Mg -8.45400 40.63300 42.45100
C  -7.56400 37.31100 41.48400
C  -5.61700 41.77600 40.68200
C  -9.74500 43.71500 42.50600
C  -11.64300 39.20300 43.27400
N  -6.80500 39.58300 41.23200
C  -6.68300 38.26700 40.91900
C  -5.40700 37.99400 40.03500
C  -4.71100 39.45600 39.95600
C  -5.78100 40.37700 40.64800
C  -3.30400 39.54700 40.51900
C  -5.76000 37.32000 38.66000
C  -5.16500 35.94700 38.42200
H  -3.98900 35.93500 37.34700
N  -7.69800 42.52000 41.93200
C  -6.51200 42.77800 41.20400
C  -6.29300 44.22500 41.14000
C  -7.54500 44.78700 41.65200
C  -8.40000 43.63800 42.09400
C  -5.20600 44.98000 40.47400
C  -7.75000 46.30900 41.72100
O  -6.94200 47.11400 41.27900
C  -8.95000 46.87500 42.34900
N  -10.37900 41.32800 43.08200
C  -10.63900 42.69300 42.92200
C  -12.18900 42.98700 43.04900
C  -12.76200 41.51000 43.31300
C  -11.52000 40.60000 43.16500
C  -12.55200 44.04600 44.18400
C  -13.90200 41.14900 42.34800
C  -15.13900 40.52500 42.93100
N  -9.35800 38.61900 42.54500
C  -10.62800 38.24100 42.91500
C  -10.69400 36.81800 43.06800
C  -9.44400 36.36000 42.51400
C  -8.74600 37.50100 42.18800
C  -11.86600 36.02700 43.62000
C  -8.56100 35.21800 42.25700
O  -8.77900 34.02100 42.43500
C  -7.30500 35.78400 41.58700
C  -6.10500 35.52000 42.36300
O  -5.71900 36.17100 43.36200
O  -5.39800 34.43900 41.80100
C  -4.27500 33.96200 42.52000
H  -4.80400 42.16400 40.06400
H  -10.38200 44.56100 42.23800
H  -12.64000 38.86900 43.56900
H  -4.76600 37.32300 40.60600
H  -4.69100 39.70900 38.89600
H  -3.17800 38.70800 41.20300
H  -3.11100 40.53500 40.93900
H  -2.55800 39.44100 39.73100
H  -5.48900 37.95700 37.81900
H  -6.83800 37.17300 38.59300
H  -5.91300 35.23200 38.07900
H  -4.86300 35.51100 39.37400
H  -4.65600 45.52600 41.24000
H  -5.60600 45.59000 39.66300
H  -4.42800 44.30300 40.12000
H  -8.92100 47.90400 42.70500
H  -9.05700 46.36800 43.30800
H  -9.77700 46.76200 41.64700
H  -12.69800 43.30900 42.14000
H  -13.12100 41.50900 44.34200
H  -11.56500 44.39900 44.48400
H  -13.18200 43.71900 45.01100
H  -12.97900 44.96300 43.77600
H  -13.30400 40.63100 41.59900
H  -14.30500 42.05100 41.88800
H  -15.51600 40.96300 43.85500
H  -15.03200 39.45300 43.09900
H  -16.01800 40.57600 42.28900
H  -12.18700 36.20200 44.64600
H  -11.53800 34.98800 43.65600
H  -12.71700 36.08400 42.94100
H  -7.22000 35.44200 40.55500
H  -4.31800 32.87300 42.55300
H  -4.35200 34.26300 43.56500
H  -3.37600 34.19000 41.94800

