158

Mg 49.38500 44.60100 43.18300
C  46.09600 45.42900 42.30000
C  48.99700 41.53400 41.53300
C  52.74400 44.20200 43.20200
C  49.78000 47.92800 44.11600
N  47.75000 43.65400 41.95900
C  46.51400 44.18300 41.73000
C  45.62300 43.20200 40.98800
C  46.36000 41.87900 41.32400
C  47.80800 42.34600 41.64700
C  45.62300 40.95100 42.45400
C  45.40700 43.50600 39.49200
C  43.95800 43.60200 38.88400
H  43.74800 44.39800 37.61000
N  50.65600 43.08900 42.52800
C  50.31400 41.87800 41.90600
C  51.47100 40.96900 41.74600
C  52.61700 41.76400 42.20200
C  52.03600 43.09000 42.66100
C  51.47900 39.46000 41.28700
C  54.03800 41.30300 42.12600
O  54.45700 40.22600 41.66200
C  55.13800 42.22000 42.69600
N  51.05500 45.96500 43.45500
C  52.32900 45.45200 43.57500
C  53.34700 46.54000 43.94800
C  52.41000 47.75600 44.33600
C  50.96200 47.17100 43.97500
C  54.38900 46.24100 45.06000
C  52.77800 49.17300 43.71200
C  53.02600 50.26500 44.63600
N  48.10900 46.31100 43.28200
C  48.43500 47.57500 43.79900
C  47.23000 48.41500 43.91500
C  46.31500 47.63600 43.27800
C  46.83500 46.35500 42.95200
C  47.07800 49.84800 44.30500
C  44.97500 47.65400 42.69400
O  44.07800 48.47700 42.61900
C  44.77300 46.17100 42.12900
C  43.60700 45.41300 42.62600
O  42.80000 44.89000 41.91000
O  43.34500 45.61000 43.92300
C  42.05400 45.12200 44.43500
H  48.86700 40.49800 41.21300
H  53.81400 44.18900 43.42100
H  50.02900 48.93400 44.46200
H  44.63000 43.09400 41.42300
H  46.26700 41.31100 40.39900
H  44.92600 41.61500 42.96600
H  46.40200 40.73200 43.18400
H  45.34100 39.97300 42.06300
H  45.97700 42.73000 38.98200
H  45.98100 44.37500 39.17000
H  43.17400 43.90100 39.57900
H  43.67700 42.56000 38.73100
H  51.88000 39.35900 40.27800
H  50.47100 39.04500 41.29700
H  52.04100 38.80900 41.95700
H  55.22000 43.10500 42.06600
H  56.13000 41.77300 42.63800
H  54.93400 42.50000 43.73000
H  53.96900 46.81900 43.09800
H  52.48500 47.94700 45.40600
H  54.16800 46.87800 45.91600
H  55.40100 46.37400 44.67800
H  54.13000 45.27300 45.48800
H  51.96600 49.51700 43.07100
H  53.66800 48.98400 43.11100
H  52.52800 50.25300 45.60600
H  52.64500 51.17800 44.17900
H  54.05400 50.55600 44.85400
H  47.93600 50.37400 43.88700
H  47.16800 49.85100 45.39100
H  46.17900 50.34900 43.94700
H  44.63700 46.23600 41.04900
H  41.19600 45.51200 43.88800
H  41.96000 45.50500 45.45100
H  41.96900 44.03700 44.49400
Mg -11.62600 16.25400 42.39800
C  -8.61400 14.51900 41.76900
C  -10.28700 19.05600 41.15000
C  -14.73000 17.46900 42.26800
C  -13.01500 13.06500 43.01600
N  -9.77800 16.68600 41.34600
C  -8.67500 15.87100 41.32500
C  -7.47700 16.60100 40.68000
C  -7.95100 18.08600 40.64300
C  -9.40700 17.93800 41.01500
C  -7.03500 18.83600 41.69500
C  -7.11700 16.08700 39.26100
C  -5.57200 16.10700 38.90200
H  -4.95400 17.29800 38.20200
N  -12.42800 18.10800 41.78400
C  -11.65400 19.15700 41.31500
C  -12.52200 20.29000 41.17400
C  -13.85400 19.85100 41.51100
C  -13.73700 18.43300 41.93700
C  -11.97400 21.59300 40.85500
C  -15.19100 20.63900 41.30900
O  -15.14700 21.74600 40.76400
C  -16.45600 20.10500 41.71200
N  -13.61500 15.33400 42.31900
C  -14.65700 16.11000 42.40600
C  -15.95500 15.31400 42.71200
C  -15.43500 13.79800 42.69700
C  -13.90000 14.06000 42.68300
C  -16.75200 15.70300 44.04300
C  -15.97500 12.86500 41.48200
C  -16.51300 11.59000 42.06500
N  -10.94000 14.20400 42.59100
C  -11.61400 13.10300 42.88300
C  -10.61500 11.97300 42.95900
C  -9.41500 12.54100 42.57900
C  -9.69500 13.86300 42.28300
C  -10.92400 10.59500 43.50700
C  -8.07700 12.30700 42.31200
O  -7.41900 11.24500 42.43100
C  -7.45400 13.61700 41.81500
C  -6.39500 14.07500 42.76200
O  -6.35400 13.96700 43.98600
O  -5.28400 14.55700 42.12000
C  -4.20500 15.00100 43.06700
H  -9.79400 19.96100 40.78800
H  -15.72700 17.82500 42.53400
H  -13.48800 12.12400 43.30400
H  -6.53500 16.49400 41.21800
H  -7.84000 18.52600 39.65200
H  -7.67600 19.59700 42.14200
H  -6.16700 19.30600 41.23400
H  -6.70600 18.08400 42.41200
H  -7.59700 16.72000 38.51400
H  -7.36700 15.05000 39.04100
H  -5.42700 15.22300 38.28200
H  -4.97300 15.95800 39.80000
H  -12.69700 22.37400 41.08900
H  -11.75000 21.68700 39.79300
H  -11.09900 21.79200 41.47400
H  -17.23800 20.85600 41.59200
H  -16.35400 19.83000 42.76200
H  -16.63900 19.27300 41.03100
H  -16.64300 15.45500 41.87900
H  -15.67700 13.30900 43.64100
H  -17.78800 15.77200 43.71200
H  -16.51300 16.68200 44.45800
H  -16.64900 14.91700 44.79100
H  -15.07000 12.78800 40.87800
H  -16.71700 13.53700 41.05100
H  -15.78600 10.84100 41.75100
H  -17.53600 11.30500 41.82300
H  -16.36900 11.47000 43.13900
H  -11.83100 10.28300 42.99000
H  -11.20500 10.71000 44.55400
H  -10.23300 9.75300 43.46600
H  -7.08600 13.34900 40.82500
H  -4.56400 16.00500 43.29300
H  -3.34800 15.21400 42.42800
H  -3.97300 14.44200 43.97400

