158

Mg -1.77900 17.55400 27.07200
C  -2.34200 15.24100 29.83200
C  -2.63000 20.04100 29.35800
C  -1.76800 19.65400 24.56000
C  -1.62700 14.76700 25.03800
N  -2.33100 17.70400 29.35500
C  -2.36200 16.62200 30.27600
C  -2.62700 17.12500 31.71000
C  -3.02700 18.56400 31.49300
C  -2.66700 18.83100 30.04000
C  -4.62600 18.70000 31.67600
C  -1.42800 16.77300 32.67900
C  -0.99700 17.70700 33.90400
H  -0.87000 16.91800 35.23200
N  -1.96000 19.54400 27.03600
C  -2.32600 20.35800 28.03300
C  -2.48200 21.69100 27.45300
C  -2.09300 21.63300 26.14700
C  -1.94400 20.22500 25.82800
C  -2.92400 23.00700 28.22400
C  -1.89200 22.70700 25.09900
O  -1.40900 22.57400 23.97500
C  -2.00700 24.16900 25.53400
N  -1.55400 17.23800 25.09300
C  -1.59700 18.27100 24.22300
C  -1.41200 17.79100 22.78900
C  -1.17800 16.26100 22.96800
C  -1.49800 16.03200 24.44200
C  -2.66700 18.10900 21.88200
C  0.30800 15.78900 22.70300
C  1.35200 16.58600 23.48500
N  -1.87700 15.46500 27.33700
C  -1.78000 14.41900 26.39700
C  -2.05300 13.16400 27.03200
C  -2.20600 13.48300 28.39800
C  -2.16400 14.85600 28.49700
C  -2.05800 11.91100 26.22900
C  -2.47500 12.76200 29.70700
O  -2.69600 11.63100 30.07400
C  -2.60500 13.98500 30.72700
C  -1.47400 13.66200 31.68500
O  -0.20600 13.85200 31.53800
O  -2.03000 13.09100 32.77500
C  -1.17100 12.62200 33.78500
H  -2.80900 20.88500 30.02700
H  -1.88800 20.40000 23.77100
H  -1.63200 13.95500 24.30800
H  -3.43500 16.49000 32.07200
H  -2.54500 19.31300 32.12200
H  -5.04300 17.70600 31.84200
H  -4.99600 18.88300 30.66700
H  -4.91000 19.41900 32.44400
H  -0.56800 16.76500 32.00800
H  -1.54500 15.79800 33.15100
H  -1.56100 18.61200 34.12900
H  0.08100 17.84600 33.81600
H  -2.12700 23.74400 28.31800
H  -3.22400 22.66600 29.21500
H  -3.81200 23.40500 27.73200
H  -2.99200 24.39500 25.94200
H  -1.95600 24.73300 24.60300
H  -1.13900 24.31600 26.17600
H  -0.60400 18.31900 22.28200
H  -1.96300 15.63600 22.54200
H  -2.32100 18.43200 20.90000
H  -3.29000 18.95500 22.17200
H  -3.36200 17.27300 21.79800
H  0.50800 15.87200 21.63400
H  0.50600 14.72500 22.83200
H  0.83700 17.32100 24.10300
H  2.01300 16.93000 22.69000
H  1.89200 15.83900 24.06700
H  -1.38300 12.09500 25.39300
H  -3.06700 11.70200 25.87200
H  -1.83200 11.11500 26.93900
H  -3.54900 14.09500 31.26100
H  -1.74800 11.90300 34.36700
H  -0.97900 13.53200 34.35300
H  -0.20300 12.30500 33.39500
Mg 40.60900 9.78600 29.85000
C  42.75400 11.09800 32.60900
C  38.26000 9.02400 32.17800
C  39.07600 8.06000 27.51000
C  43.49400 10.06700 27.92700
N  40.56700 9.98100 32.16400
C  41.44100 10.68500 33.02200
C  40.86000 10.73200 34.43500
C  39.45800 10.00300 34.30500
C  39.36200 9.69500 32.80100
C  39.25500 8.74300 35.22700
C  40.75200 12.20500 35.04200
C  39.80000 12.20600 36.31400
H  40.22300 13.12900 37.45400
N  38.85000 8.76200 29.84500
C  38.05300 8.51500 30.88900
C  36.98000 7.64900 30.43600
C  37.18800 7.45500 29.06400
C  38.39300 8.11100 28.73900
C  35.93000 7.17600 31.41200
C  36.30000 6.76200 28.13100
O  36.46900 6.71500 26.92100
C  35.09700 6.03400 28.72600
N  41.16600 9.24000 27.93400
C  40.27000 8.60700 27.09100
C  40.83700 8.48100 25.64900
C  42.14000 9.40800 25.79300
C  42.33800 9.60300 27.31700
C  40.98100 6.98800 25.17000
C  42.23000 10.80300 25.12800
C  40.92900 11.70800 25.23500
N  42.68500 10.43200 30.12200
C  43.68600 10.51700 29.24400
C  44.87200 11.12800 29.78100
C  44.54500 11.37100 31.08800
C  43.18200 10.99400 31.24000
C  46.15100 11.36500 29.09800
C  45.03200 11.97500 32.27800
O  46.06900 12.54300 32.40800
C  43.84100 11.82000 33.33000
C  44.31400 11.09200 34.50400
O  44.78000 9.94100 34.53200
O  44.13100 11.92300 35.58900
C  44.25400 11.40300 36.92700
H  37.50200 8.68600 32.88800
H  38.70400 7.46300 26.67500
H  44.37800 10.28500 27.32300
H  41.50800 10.07400 35.01500
H  38.70000 10.75200 34.53500
H  38.98200 7.87300 34.63000
H  38.43300 8.96900 35.90600
H  40.19500 8.52400 35.73300
H  40.33700 12.95200 34.36600
H  41.73500 12.57600 35.33300
H  39.74500 11.21800 36.77100
H  38.80700 12.57600 36.06100
H  34.95200 7.65600 31.43600
H  36.33400 7.11500 32.42300
H  35.87600 6.10500 31.21600
H  35.35300 5.07800 29.18200
H  34.45500 5.71300 27.90600
H  34.61900 6.68500 29.45800
H  40.17100 9.06600 25.01500
H  43.05900 8.88900 25.52100
H  42.05100 6.78500 25.22500
H  40.59600 6.98400 24.15100
H  40.40000 6.29000 25.77300
H  42.54600 10.73900 24.08700
H  42.97700 11.35900 25.69500
H  41.05100 12.57200 25.88900
H  40.20500 11.14200 25.82100
H  40.61700 11.95100 24.22000
H  46.06800 12.06400 28.26700
H  46.44700 10.45500 28.57500
H  46.91600 11.62100 29.83200
H  43.53100 12.80400 33.68300
H  43.28400 10.92000 37.04000
H  44.34200 12.16100 37.70500
H  45.12300 10.76200 37.07400

